MODEL 1
REMARK VINA RESULT:     -13.1      0.000      0.000
REMARK SMILES C[C@](Nc1ccc(C(N)=O)nn1)(C(=O)NCCCCNC(=O)c1ccc(-c2c3nc(c(-c4c(F)c(F)c(F)c(F)c4F)c4ccc([nH]4)c(-c4c(F)c(F)c(F)c(F)c4F)c4nc(c(-c5c(F)c(F)c(F)c(F)c5F)c5ccc2[nH]5)C=C4)C=C3)cc1)c1ccccc1
REMARK SMILES IDX 17 1 16 2 15 3 13 4 14 5 2 7 1 8 86 9 87 10 91 11 88 12
REMARK SMILES IDX 90 13 89 14 3 15 4 17 5 18 12 19 6 20 11 21 7 22 8 23 9 24
REMARK SMILES IDX 10 25 18 28 19 29 20 30 21 31 22 33 23 34 24 35 85 36 25 37
REMARK SMILES IDX 84 38 26 39 27 40 28 41 78 42 29 43 83 44 77 45 79 46 30 47
REMARK SMILES IDX 82 48 76 49 75 50 31 52 63 53 43 54 62 55 44 56 47 57 61 58
REMARK SMILES IDX 80 59 45 60 46 61 60 63 81 64 48 65 32 66 33 67 41 68 34 69
REMARK SMILES IDX 35 70 39 71 42 72 36 73 37 74 40 75 38 76 64 77 65 78 73 79
REMARK SMILES IDX 66 80 67 81 71 82 74 83 68 84 69 85 72 86 70 87 49 88 50 89
REMARK SMILES IDX 58 90 51 91 52 92 56 93 59 94 53 95 54 96 57 97 55 98
REMARK H PARENT 15 6 3 16 9 26 9 27 20 32 79 51 47 62
REMARK Flexibility Score: inf
ROOT
ATOM      1  C   UNL A   1      37.651  21.616  24.653  1.00  0.00     0.023 C 
ENDROOT
BRANCH   1   2
ATOM      2  C   UNL A   1      36.132  21.602  24.556  1.00  0.00     0.116 C 
BRANCH   2   3
ATOM      3  N   UNL A   1      35.504  21.689  25.863  1.00  0.00    -0.354 N 
ATOM      4  C   UNL A   1      34.178  21.721  26.220  1.00  0.00     0.250 C 
ATOM      5  O   UNL A   1      33.957  21.658  27.432  1.00  0.00    -0.272 OA
ATOM      6  H   UNL A   1      36.133  21.732  26.619  1.00  0.00     0.163 HD
BRANCH   4   7
ATOM      7  C   UNL A   1      33.031  21.806  25.111  1.00  0.00     0.140 C 
ATOM      8  C   UNL A   1      31.735  21.972  25.948  1.00  0.00     0.051 C 
BRANCH   7   9
ATOM      9  C   UNL A   1      33.265  22.999  24.157  1.00  0.00    -0.013 A 
ATOM     10  C   UNL A   1      33.561  24.277  24.673  1.00  0.00     0.007 A 
ATOM     11  C   UNL A   1      33.174  22.875  22.757  1.00  0.00     0.007 A 
ATOM     12  C   UNL A   1      33.658  25.393  23.839  1.00  0.00     0.000 A 
ATOM     13  C   UNL A   1      33.273  23.993  21.923  1.00  0.00     0.000 A 
ATOM     14  C   UNL A   1      33.497  25.254  22.465  1.00  0.00     0.000 A 
ENDBRANCH   7   9
BRANCH   7  15
ATOM     15  N   UNL A   1      33.121  20.575  24.282  1.00  0.00    -0.351 N 
ATOM     16  H   UNL A   1      33.067  20.709  23.308  1.00  0.00     0.163 HD
BRANCH  15  17
ATOM     17  C   UNL A   1      33.270  19.280  24.697  1.00  0.00     0.149 A 
ATOM     18  C   UNL A   1      34.361  18.486  24.398  1.00  0.00     0.051 A 
ATOM     19  N   UNL A   1      32.226  18.750  25.378  1.00  0.00    -0.132 NA
ATOM     20  C   UNL A   1      34.314  17.118  24.668  1.00  0.00     0.040 A 
ATOM     21  N   UNL A   1      32.153  17.404  25.640  1.00  0.00    -0.143 NA
ATOM     22  C   UNL A   1      33.173  16.607  25.258  1.00  0.00     0.150 A 
BRANCH  22  23
ATOM     23  C   UNL A   1      32.989  15.141  25.430  1.00  0.00     0.269 C 
ATOM     24  N   UNL A   1      31.705  14.703  25.621  1.00  0.00    -0.364 N 
ATOM     25  O   UNL A   1      33.931  14.357  25.376  1.00  0.00    -0.268 OA
ATOM     26  H   UNL A   1      30.965  15.351  25.663  1.00  0.00     0.160 HD
ATOM     27  H   UNL A   1      31.522  13.741  25.718  1.00  0.00     0.160 HD
ENDBRANCH  22  23
ENDBRANCH  15  17
ENDBRANCH   7  15
ENDBRANCH   4   7
ENDBRANCH   2   3
ENDBRANCH   1   2
BRANCH   1  28
ATOM     28  C   UNL A   1      38.260  20.261  25.001  1.00  0.00     0.023 C 
BRANCH  28  29
ATOM     29  C   UNL A   1      39.268  20.290  26.143  1.00  0.00     0.116 C 
BRANCH  29  30
ATOM     30  N   UNL A   1      40.235  19.203  26.077  1.00  0.00    -0.352 N 
ATOM     31  C   UNL A   1      41.606  19.272  26.117  1.00  0.00     0.251 C 
ATOM     32  H   UNL A   1      39.855  18.299  25.993  1.00  0.00     0.163 HD
ATOM     33  O   UNL A   1      42.290  18.278  25.901  1.00  0.00    -0.269 OA
BRANCH  31  34
ATOM     34  C   UNL A   1      42.251  20.573  26.387  1.00  0.00     0.039 A 
ATOM     35  C   UNL A   1      42.685  21.347  25.310  1.00  0.00     0.014 A 
ATOM     36  C   UNL A   1      42.378  21.043  27.697  1.00  0.00     0.014 A 
ATOM     37  C   UNL A   1      43.187  22.628  25.545  1.00  0.00     0.010 A 
ATOM     38  C   UNL A   1      42.799  22.349  27.921  1.00  0.00     0.010 A 
ATOM     39  C   UNL A   1      43.209  23.155  26.848  1.00  0.00    -0.014 A 
BRANCH  39  40
ATOM     40  C   UNL A   1      43.655  24.547  27.106  1.00  0.00     0.031 A 
ATOM     41  C   UNL A   1      42.674  25.574  27.599  1.00  0.00     0.074 A 
ATOM     42  C   UNL A   1      44.926  24.902  26.836  1.00  0.00     0.049 A 
ATOM     43  N   UNL A   1      42.855  26.850  27.828  1.00  0.00    -0.248 NA
ATOM     44  C   UNL A   1      41.298  25.111  27.841  1.00  0.00     0.031 C 
ATOM     45  C   UNL A   1      45.960  24.008  26.310  1.00  0.00     0.029 A 
ATOM     46  N   UNL A   1      45.565  26.109  26.961  1.00  0.00    -0.354 N 
ATOM     47  C   UNL A   1      41.619  27.341  28.224  1.00  0.00     0.074 A 
ATOM     48  C   UNL A   1      40.682  26.242  28.148  1.00  0.00     0.031 C 
ATOM     49  C   UNL A   1      47.110  24.691  26.185  1.00  0.00     0.029 A 
ATOM     50  C   UNL A   1      46.885  26.077  26.579  1.00  0.00     0.049 A 
ATOM     51  H   UNL A   1      45.121  26.923  27.292  1.00  0.00     0.167 HD
ATOM     52  C   UNL A   1      41.299  28.591  28.637  1.00  0.00     0.037 A 
ATOM     53  C   UNL A   1      47.807  27.060  26.545  1.00  0.00     0.037 A 
ATOM     54  C   UNL A   1      42.241  29.676  28.730  1.00  0.00     0.049 A 
ATOM     55  C   UNL A   1      47.419  28.444  26.989  1.00  0.00     0.074 A 
ATOM     56  C   UNL A   1      42.031  30.961  29.197  1.00  0.00     0.029 A 
ATOM     57  N   UNL A   1      43.570  29.604  28.339  1.00  0.00    -0.354 N 
ATOM     58  N   UNL A   1      46.266  28.879  27.438  1.00  0.00    -0.248 NA
ATOM     59  C   UNL A   1      48.465  29.475  26.928  1.00  0.00     0.031 C 
ATOM     60  C   UNL A   1      43.216  31.685  29.032  1.00  0.00     0.029 A 
ATOM     61  C   UNL A   1      44.184  30.834  28.524  1.00  0.00     0.049 A 
ATOM     62  H   UNL A   1      44.011  28.801  27.981  1.00  0.00     0.167 HD
ATOM     63  C   UNL A   1      46.456  30.220  27.743  1.00  0.00     0.074 A 
ATOM     64  C   UNL A   1      47.840  30.524  27.443  1.00  0.00     0.031 C 
ATOM     65  C   UNL A   1      45.565  31.119  28.229  1.00  0.00     0.037 A 
BRANCH  52  66
ATOM     66  C   UNL A   1      39.869  28.855  29.015  1.00  0.00     0.064 A 
ATOM     67  C   UNL A   1      38.924  29.297  28.075  1.00  0.00     0.173 A 
ATOM     68  C   UNL A   1      39.428  28.628  30.328  1.00  0.00     0.173 A 
ATOM     69  F   UNL A   1      39.295  29.542  26.809  1.00  0.00    -0.203 F 
ATOM     70  C   UNL A   1      37.602  29.532  28.442  1.00  0.00     0.198 A 
ATOM     71  C   UNL A   1      38.097  28.829  30.682  1.00  0.00     0.198 A 
ATOM     72  F   UNL A   1      40.287  28.199  31.265  1.00  0.00    -0.203 F 
ATOM     73  F   UNL A   1      36.732  30.007  27.541  1.00  0.00    -0.200 F 
ATOM     74  C   UNL A   1      37.187  29.290  29.743  1.00  0.00     0.200 A 
ATOM     75  F   UNL A   1      37.695  28.580  31.937  1.00  0.00    -0.200 F 
ATOM     76  F   UNL A   1      35.912  29.508  30.093  1.00  0.00    -0.200 F 
ENDBRANCH  52  66
BRANCH  53  77
ATOM     77  C   UNL A   1      49.194  26.765  26.093  1.00  0.00     0.064 A 
ATOM     78  C   UNL A   1      50.153  26.279  26.991  1.00  0.00     0.173 A 
ATOM     79  C   UNL A   1      49.591  26.974  24.765  1.00  0.00     0.173 A 
ATOM     80  F   UNL A   1      49.827  26.081  28.277  1.00  0.00    -0.203 F 
ATOM     81  C   UNL A   1      51.465  26.038  26.585  1.00  0.00     0.198 A 
ATOM     82  C   UNL A   1      50.894  26.703  24.353  1.00  0.00     0.198 A 
ATOM     83  F   UNL A   1      48.711  27.433  23.863  1.00  0.00    -0.203 F 
ATOM     84  F   UNL A   1      52.374  25.624  27.477  1.00  0.00    -0.200 F 
ATOM     85  C   UNL A   1      51.833  26.244  25.265  1.00  0.00     0.200 A 
ATOM     86  F   UNL A   1      51.242  26.888  23.071  1.00  0.00    -0.200 F 
ATOM     87  F   UNL A   1      53.092  26.010  24.873  1.00  0.00    -0.200 F 
ENDBRANCH  53  77
BRANCH  65  88
ATOM     88  C   UNL A   1      46.067  32.507  28.510  1.00  0.00     0.064 A 
ATOM     89  C   UNL A   1      46.631  32.855  29.746  1.00  0.00     0.173 A 
ATOM     90  C   UNL A   1      46.017  33.493  27.512  1.00  0.00     0.173 A 
ATOM     91  F   UNL A   1      46.690  31.955  30.739  1.00  0.00    -0.203 F 
ATOM     92  C   UNL A   1      47.100  34.145  29.981  1.00  0.00     0.198 A 
ATOM     93  C   UNL A   1      46.519  34.772  27.739  1.00  0.00     0.198 A 
ATOM     94  F   UNL A   1      45.494  33.211  26.309  1.00  0.00    -0.203 F 
ATOM     95  F   UNL A   1      47.585  34.470  31.188  1.00  0.00    -0.200 F 
ATOM     96  C   UNL A   1      47.051  35.100  28.976  1.00  0.00     0.200 A 
ATOM     97  F   UNL A   1      46.487  35.685  26.759  1.00  0.00    -0.200 F 
ATOM     98  F   UNL A   1      47.512  36.337  29.201  1.00  0.00    -0.200 F 
ENDBRANCH  65  88
ENDBRANCH  39  40
ENDBRANCH  31  34
ENDBRANCH  29  30
ENDBRANCH  28  29
ENDBRANCH   1  28
TORSDOF 15
ENDMDL
MODEL 2
REMARK VINA RESULT:     -12.9      0.608      7.341
REMARK SMILES C[C@](Nc1ccc(C(N)=O)nn1)(C(=O)NCCCCNC(=O)c1ccc(-c2c3nc(c(-c4c(F)c(F)c(F)c(F)c4F)c4ccc([nH]4)c(-c4c(F)c(F)c(F)c(F)c4F)c4nc(c(-c5c(F)c(F)c(F)c(F)c5F)c5ccc2[nH]5)C=C4)C=C3)cc1)c1ccccc1
REMARK SMILES IDX 17 1 16 2 15 3 13 4 14 5 2 7 1 8 86 9 87 10 91 11 88 12
REMARK SMILES IDX 90 13 89 14 3 15 4 17 5 18 12 19 6 20 11 21 7 22 8 23 9 24
REMARK SMILES IDX 10 25 18 28 19 29 20 30 21 31 22 33 23 34 24 35 85 36 25 37
REMARK SMILES IDX 84 38 26 39 27 40 28 41 78 42 29 43 83 44 77 45 79 46 30 47
REMARK SMILES IDX 82 48 76 49 75 50 31 52 63 53 43 54 62 55 44 56 47 57 61 58
REMARK SMILES IDX 80 59 45 60 46 61 60 63 81 64 48 65 32 66 33 67 41 68 34 69
REMARK SMILES IDX 35 70 39 71 42 72 36 73 37 74 40 75 38 76 64 77 65 78 73 79
REMARK SMILES IDX 66 80 67 81 71 82 74 83 68 84 69 85 72 86 70 87 49 88 50 89
REMARK SMILES IDX 58 90 51 91 52 92 56 93 59 94 53 95 54 96 57 97 55 98
REMARK H PARENT 15 6 3 16 9 26 9 27 20 32 79 51 47 62
REMARK Flexibility Score: inf
ROOT
ATOM      1  C   UNL A   1      37.675  21.637  24.873  1.00  0.00     0.023 C 
ENDROOT
BRANCH   1   2
ATOM      2  C   UNL A   1      36.168  21.464  24.749  1.00  0.00     0.116 C 
BRANCH   2   3
ATOM      3  N   UNL A   1      35.503  21.554  26.037  1.00  0.00    -0.354 N 
ATOM      4  C   UNL A   1      34.168  21.622  26.353  1.00  0.00     0.250 C 
ATOM      5  O   UNL A   1      33.908  21.551  27.558  1.00  0.00    -0.272 OA
ATOM      6  H   UNL A   1      36.109  21.570  26.812  1.00  0.00     0.163 HD
BRANCH   4   7
ATOM      7  C   UNL A   1      33.058  21.754  25.211  1.00  0.00     0.140 C 
ATOM      8  C   UNL A   1      31.741  21.928  26.011  1.00  0.00     0.051 C 
BRANCH   7   9
ATOM      9  C   UNL A   1      33.347  22.962  24.292  1.00  0.00    -0.013 A 
ATOM     10  C   UNL A   1      33.669  24.218  24.844  1.00  0.00     0.007 A 
ATOM     11  C   UNL A   1      33.279  22.874  22.888  1.00  0.00     0.007 A 
ATOM     12  C   UNL A   1      33.816  25.350  24.041  1.00  0.00     0.000 A 
ATOM     13  C   UNL A   1      33.428  24.008  22.083  1.00  0.00     0.000 A 
ATOM     14  C   UNL A   1      33.677  25.249  22.661  1.00  0.00     0.000 A 
ENDBRANCH   7   9
BRANCH   7  15
ATOM     15  N   UNL A   1      33.150  20.539  24.359  1.00  0.00    -0.351 N 
ATOM     16  H   UNL A   1      33.113  20.694  23.387  1.00  0.00     0.163 HD
BRANCH  15  17
ATOM     17  C   UNL A   1      33.281  19.235  24.750  1.00  0.00     0.149 A 
ATOM     18  C   UNL A   1      34.323  18.408  24.370  1.00  0.00     0.051 A 
ATOM     19  N   UNL A   1      32.267  18.731  25.492  1.00  0.00    -0.132 NA
ATOM     20  C   UNL A   1      34.246  17.039  24.628  1.00  0.00     0.040 A 
ATOM     21  N   UNL A   1      32.165  17.385  25.744  1.00  0.00    -0.143 NA
ATOM     22  C   UNL A   1      33.130  16.559  25.287  1.00  0.00     0.150 A 
BRANCH  22  23
ATOM     23  C   UNL A   1      32.906  15.098  25.455  1.00  0.00     0.269 C 
ATOM     24  N   UNL A   1      31.604  14.683  25.543  1.00  0.00    -0.364 N 
ATOM     25  O   UNL A   1      33.836  14.298  25.486  1.00  0.00    -0.268 OA
ATOM     26  H   UNL A   1      30.875  15.344  25.518  1.00  0.00     0.160 HD
ATOM     27  H   UNL A   1      31.397  13.726  25.633  1.00  0.00     0.160 HD
ENDBRANCH  22  23
ENDBRANCH  15  17
ENDBRANCH   7  15
ENDBRANCH   4   7
ENDBRANCH   2   3
ENDBRANCH   1   2
BRANCH   1  28
ATOM     28  C   UNL A   1      38.440  20.321  24.985  1.00  0.00     0.023 C 
BRANCH  28  29
ATOM     29  C   UNL A   1      39.343  20.211  26.207  1.00  0.00     0.116 C 
BRANCH  29  30
ATOM     30  N   UNL A   1      40.397  19.217  26.049  1.00  0.00    -0.352 N 
ATOM     31  C   UNL A   1      41.757  19.404  26.045  1.00  0.00     0.251 C 
ATOM     32  H   UNL A   1      40.092  18.289  25.931  1.00  0.00     0.163 HD
ATOM     33  O   UNL A   1      42.514  18.484  25.753  1.00  0.00    -0.269 OA
BRANCH  31  34
ATOM     34  C   UNL A   1      42.299  20.740  26.361  1.00  0.00     0.039 A 
ATOM     35  C   UNL A   1      42.618  21.604  25.312  1.00  0.00     0.014 A 
ATOM     36  C   UNL A   1      42.443  21.152  27.689  1.00  0.00     0.014 A 
ATOM     37  C   UNL A   1      43.017  22.910  25.598  1.00  0.00     0.010 A 
ATOM     38  C   UNL A   1      42.759  22.476  27.968  1.00  0.00     0.010 A 
ATOM     39  C   UNL A   1      43.051  23.369  26.926  1.00  0.00    -0.014 A 
BRANCH  39  40
ATOM     40  C   UNL A   1      43.387  24.780  27.243  1.00  0.00     0.031 A 
ATOM     41  C   UNL A   1      44.785  25.289  27.030  1.00  0.00     0.074 A 
ATOM     42  C   UNL A   1      42.449  25.584  27.782  1.00  0.00     0.049 A 
ATOM     43  N   UNL A   1      45.287  26.468  27.299  1.00  0.00    -0.248 NA
ATOM     44  C   UNL A   1      45.756  24.339  26.466  1.00  0.00     0.031 C 
ATOM     45  C   UNL A   1      41.070  25.193  28.080  1.00  0.00     0.029 A 
ATOM     46  N   UNL A   1      42.515  26.895  28.181  1.00  0.00    -0.354 N 
ATOM     47  C   UNL A   1      46.629  26.394  26.952  1.00  0.00     0.074 A 
ATOM     48  C   UNL A   1      46.878  25.040  26.509  1.00  0.00     0.031 C 
ATOM     49  C   UNL A   1      40.413  26.249  28.587  1.00  0.00     0.029 A 
ATOM     50  C   UNL A   1      41.333  27.376  28.691  1.00  0.00     0.049 A 
ATOM     51  H   UNL A   1      43.332  27.440  28.110  1.00  0.00     0.167 HD
ATOM     52  C   UNL A   1      47.564  27.375  26.978  1.00  0.00     0.037 A 
ATOM     53  C   UNL A   1      41.030  28.590  29.192  1.00  0.00     0.037 A 
ATOM     54  C   UNL A   1      47.305  28.726  27.401  1.00  0.00     0.049 A 
ATOM     55  C   UNL A   1      42.093  29.654  29.229  1.00  0.00     0.074 A 
ATOM     56  C   UNL A   1      48.166  29.808  27.403  1.00  0.00     0.029 A 
ATOM     57  N   UNL A   1      46.094  29.177  27.906  1.00  0.00    -0.354 N 
ATOM     58  N   UNL A   1      43.339  29.597  28.823  1.00  0.00    -0.248 NA
ATOM     59  C   UNL A   1      41.704  30.957  29.787  1.00  0.00     0.031 C 
ATOM     60  C   UNL A   1      47.496  30.899  27.966  1.00  0.00     0.029 A 
ATOM     61  C   UNL A   1      46.197  30.516  28.254  1.00  0.00     0.049 A 
ATOM     62  H   UNL A   1      45.283  28.629  28.005  1.00  0.00     0.167 HD
ATOM     63  C   UNL A   1      43.871  30.859  29.045  1.00  0.00     0.074 A 
ATOM     64  C   UNL A   1      42.809  31.667  29.608  1.00  0.00     0.031 C 
ATOM     65  C   UNL A   1      45.127  31.310  28.804  1.00  0.00     0.037 A 
BRANCH  52  66
ATOM     66  C   UNL A   1      48.957  27.020  26.541  1.00  0.00     0.064 A 
ATOM     67  C   UNL A   1      49.911  26.522  27.442  1.00  0.00     0.173 A 
ATOM     68  C   UNL A   1      49.332  27.145  25.194  1.00  0.00     0.173 A 
ATOM     69  F   UNL A   1      49.609  26.394  28.743  1.00  0.00    -0.203 F 
ATOM     70  C   UNL A   1      51.196  26.194  27.018  1.00  0.00     0.198 A 
ATOM     71  C   UNL A   1      50.607  26.782  24.768  1.00  0.00     0.198 A 
ATOM     72  F   UNL A   1      48.458  27.610  24.289  1.00  0.00    -0.203 F 
ATOM     73  F   UNL A   1      52.106  25.774  27.907  1.00  0.00    -0.200 F 
ATOM     74  C   UNL A   1      51.540  26.316  25.680  1.00  0.00     0.200 A 
ATOM     75  F   UNL A   1      50.932  26.886  23.471  1.00  0.00    -0.200 F 
ATOM     76  F   UNL A   1      52.775  25.991  25.272  1.00  0.00    -0.200 F 
ENDBRANCH  52  66
BRANCH  53  77
ATOM     77  C   UNL A   1      39.653  28.872  29.681  1.00  0.00     0.064 A 
ATOM     78  C   UNL A   1      38.690  29.434  28.831  1.00  0.00     0.173 A 
ATOM     79  C   UNL A   1      39.275  28.598  31.003  1.00  0.00     0.173 A 
ATOM     80  F   UNL A   1      39.009  29.732  27.563  1.00  0.00    -0.203 F 
ATOM     81  C   UNL A   1      37.410  29.738  29.292  1.00  0.00     0.198 A 
ATOM     82  C   UNL A   1      37.985  28.873  31.454  1.00  0.00     0.198 A 
ATOM     83  F   UNL A   1      40.155  28.055  31.856  1.00  0.00    -0.203 F 
ATOM     84  F   UNL A   1      36.528  30.324  28.473  1.00  0.00    -0.200 F 
ATOM     85  C   UNL A   1      37.057  29.451  30.602  1.00  0.00     0.200 A 
ATOM     86  F   UNL A   1      37.642  28.579  32.716  1.00  0.00    -0.200 F 
ATOM     87  F   UNL A   1      35.826  29.740  31.045  1.00  0.00    -0.200 F 
ENDBRANCH  53  77
BRANCH  65  88
ATOM     88  C   UNL A   1      45.414  32.754  29.106  1.00  0.00     0.064 A 
ATOM     89  C   UNL A   1      45.939  33.162  30.341  1.00  0.00     0.173 A 
ATOM     90  C   UNL A   1      45.196  33.737  28.129  1.00  0.00     0.173 A 
ATOM     91  F   UNL A   1      46.152  32.264  31.314  1.00  0.00    -0.203 F 
ATOM     92  C   UNL A   1      46.207  34.505  30.596  1.00  0.00     0.198 A 
ATOM     93  C   UNL A   1      45.498  35.074  28.375  1.00  0.00     0.198 A 
ATOM     94  F   UNL A   1      44.702  33.400  26.928  1.00  0.00    -0.203 F 
ATOM     95  F   UNL A   1      46.657  34.878  31.801  1.00  0.00    -0.200 F 
ATOM     96  C   UNL A   1      45.995  35.458  29.611  1.00  0.00     0.200 A 
ATOM     97  F   UNL A   1      45.309  35.989  27.414  1.00  0.00    -0.200 F 
ATOM     98  F   UNL A   1      46.263  36.747  29.854  1.00  0.00    -0.200 F 
ENDBRANCH  65  88
ENDBRANCH  39  40
ENDBRANCH  31  34
ENDBRANCH  29  30
ENDBRANCH  28  29
ENDBRANCH   1  28
TORSDOF 15
ENDMDL
MODEL 3
REMARK VINA RESULT:     -12.8      6.798     12.047
REMARK SMILES C[C@](Nc1ccc(C(N)=O)nn1)(C(=O)NCCCCNC(=O)c1ccc(-c2c3nc(c(-c4c(F)c(F)c(F)c(F)c4F)c4ccc([nH]4)c(-c4c(F)c(F)c(F)c(F)c4F)c4nc(c(-c5c(F)c(F)c(F)c(F)c5F)c5ccc2[nH]5)C=C4)C=C3)cc1)c1ccccc1
REMARK SMILES IDX 17 1 16 2 15 3 13 4 14 5 2 7 1 8 86 9 87 10 91 11 88 12
REMARK SMILES IDX 90 13 89 14 3 15 4 17 5 18 12 19 6 20 11 21 7 22 8 23 9 24
REMARK SMILES IDX 10 25 18 28 19 29 20 30 21 31 22 33 23 34 24 35 85 36 25 37
REMARK SMILES IDX 84 38 26 39 27 40 28 41 78 42 29 43 83 44 77 45 79 46 30 47
REMARK SMILES IDX 82 48 76 49 75 50 31 52 63 53 43 54 62 55 44 56 47 57 61 58
REMARK SMILES IDX 80 59 45 60 46 61 60 63 81 64 48 65 32 66 33 67 41 68 34 69
REMARK SMILES IDX 35 70 39 71 42 72 36 73 37 74 40 75 38 76 64 77 65 78 73 79
REMARK SMILES IDX 66 80 67 81 71 82 74 83 68 84 69 85 72 86 70 87 49 88 50 89
REMARK SMILES IDX 58 90 51 91 52 92 56 93 59 94 53 95 54 96 57 97 55 98
REMARK H PARENT 15 6 3 16 9 26 9 27 20 32 79 51 47 62
REMARK Flexibility Score: inf
ROOT
ATOM      1  C   UNL A   1      31.406  31.164  25.966  1.00  0.00     0.023 C 
ENDROOT
BRANCH   1   2
ATOM      2  C   UNL A   1      31.967  29.753  25.865  1.00  0.00     0.116 C 
BRANCH   2   3
ATOM      3  N   UNL A   1      32.800  29.583  24.687  1.00  0.00    -0.354 N 
ATOM      4  C   UNL A   1      32.634  28.787  23.580  1.00  0.00     0.250 C 
ATOM      5  O   UNL A   1      33.453  28.967  22.674  1.00  0.00    -0.272 OA
ATOM      6  H   UNL A   1      33.619  30.128  24.681  1.00  0.00     0.163 HD
BRANCH   4   7
ATOM      7  C   UNL A   1      31.434  27.735  23.496  1.00  0.00     0.140 C 
ATOM      8  C   UNL A   1      31.634  27.074  22.107  1.00  0.00     0.051 C 
BRANCH   7   9
ATOM      9  C   UNL A   1      31.515  26.707  24.647  1.00  0.00    -0.013 A 
ATOM     10  C   UNL A   1      32.761  26.195  25.061  1.00  0.00     0.007 A 
ATOM     11  C   UNL A   1      30.369  26.223  25.308  1.00  0.00     0.007 A 
ATOM     12  C   UNL A   1      32.850  25.179  26.014  1.00  0.00     0.000 A 
ATOM     13  C   UNL A   1      30.459  25.207  26.264  1.00  0.00     0.000 A 
ATOM     14  C   UNL A   1      31.697  24.672  26.603  1.00  0.00     0.000 A 
ENDBRANCH   7   9
BRANCH   7  15
ATOM     15  N   UNL A   1      30.167  28.488  23.686  1.00  0.00    -0.351 N 
ATOM     16  H   UNL A   1      29.554  28.130  24.368  1.00  0.00     0.163 HD
BRANCH  15  17
ATOM     17  C   UNL A   1      29.744  29.616  23.038  1.00  0.00     0.149 A 
ATOM     18  C   UNL A   1      29.170  30.707  23.665  1.00  0.00     0.051 A 
ATOM     19  N   UNL A   1      29.836  29.596  21.688  1.00  0.00    -0.132 NA
ATOM     20  C   UNL A   1      28.563  31.702  22.899  1.00  0.00     0.040 A 
ATOM     21  N   UNL A   1      29.233  30.558  20.915  1.00  0.00    -0.143 NA
ATOM     22  C   UNL A   1      28.583  31.573  21.523  1.00  0.00     0.150 A 
BRANCH  22  23
ATOM     23  C   UNL A   1      27.823  32.509  20.653  1.00  0.00     0.269 C 
ATOM     24  N   UNL A   1      27.488  32.052  19.406  1.00  0.00    -0.364 N 
ATOM     25  O   UNL A   1      27.486  33.624  21.037  1.00  0.00    -0.268 OA
ATOM     26  H   UNL A   1      27.770  31.153  19.120  1.00  0.00     0.160 HD
ATOM     27  H   UNL A   1      26.965  32.620  18.797  1.00  0.00     0.160 HD
ENDBRANCH  22  23
ENDBRANCH  15  17
ENDBRANCH   7  15
ENDBRANCH   4   7
ENDBRANCH   2   3
ENDBRANCH   1   2
BRANCH   1  28
ATOM     28  C   UNL A   1      31.710  31.856  27.292  1.00  0.00     0.023 C 
BRANCH  28  29
ATOM     29  C   UNL A   1      32.887  32.823  27.250  1.00  0.00     0.116 C 
BRANCH  29  30
ATOM     30  N   UNL A   1      32.516  34.186  27.602  1.00  0.00    -0.352 N 
ATOM     31  C   UNL A   1      33.018  34.980  28.604  1.00  0.00     0.251 C 
ATOM     32  H   UNL A   1      31.812  34.593  27.046  1.00  0.00     0.163 HD
ATOM     33  O   UNL A   1      32.498  36.058  28.868  1.00  0.00    -0.269 OA
BRANCH  31  34
ATOM     34  C   UNL A   1      34.173  34.500  29.388  1.00  0.00     0.039 A 
ATOM     35  C   UNL A   1      33.940  33.785  30.564  1.00  0.00     0.014 A 
ATOM     36  C   UNL A   1      35.477  34.715  28.934  1.00  0.00     0.014 A 
ATOM     37  C   UNL A   1      35.018  33.225  31.250  1.00  0.00     0.010 A 
ATOM     38  C   UNL A   1      36.540  34.085  29.571  1.00  0.00     0.010 A 
ATOM     39  C   UNL A   1      36.322  33.335  30.737  1.00  0.00    -0.014 A 
BRANCH  39  40
ATOM     40  C   UNL A   1      37.469  32.669  31.404  1.00  0.00     0.031 A 
ATOM     41  C   UNL A   1      38.162  31.514  30.739  1.00  0.00     0.074 A 
ATOM     42  C   UNL A   1      37.845  33.064  32.637  1.00  0.00     0.049 A 
ATOM     43  N   UNL A   1      39.141  30.767  31.183  1.00  0.00    -0.248 NA
ATOM     44  C   UNL A   1      37.670  31.126  29.406  1.00  0.00     0.031 C 
ATOM     45  C   UNL A   1      37.220  34.141  33.407  1.00  0.00     0.029 A 
ATOM     46  N   UNL A   1      38.838  32.600  33.462  1.00  0.00    -0.354 N 
ATOM     47  C   UNL A   1      39.371  29.819  30.196  1.00  0.00     0.074 A 
ATOM     48  C   UNL A   1      38.392  30.045  29.155  1.00  0.00     0.031 C 
ATOM     49  C   UNL A   1      37.864  34.275  34.578  1.00  0.00     0.029 A 
ATOM     50  C   UNL A   1      38.915  33.266  34.661  1.00  0.00     0.049 A 
ATOM     51  H   UNL A   1      39.439  31.859  33.219  1.00  0.00     0.167 HD
ATOM     52  C   UNL A   1      40.327  28.861  30.150  1.00  0.00     0.037 A 
ATOM     53  C   UNL A   1      39.737  33.079  35.712  1.00  0.00     0.037 A 
ATOM     54  C   UNL A   1      41.312  28.654  31.180  1.00  0.00     0.049 A 
ATOM     55  C   UNL A   1      40.778  31.993  35.643  1.00  0.00     0.074 A 
ATOM     56  C   UNL A   1      42.362  27.754  31.198  1.00  0.00     0.029 A 
ATOM     57  N   UNL A   1      41.361  29.352  32.377  1.00  0.00    -0.354 N 
ATOM     58  N   UNL A   1      41.038  31.154  34.670  1.00  0.00    -0.248 NA
ATOM     59  C   UNL A   1      41.645  31.835  36.819  1.00  0.00     0.031 C 
ATOM     60  C   UNL A   1      43.010  27.865  32.433  1.00  0.00     0.029 A 
ATOM     61  C   UNL A   1      42.406  28.879  33.157  1.00  0.00     0.049 A 
ATOM     62  H   UNL A   1      40.745  30.074  32.637  1.00  0.00     0.167 HD
ATOM     63  C   UNL A   1      42.115  30.392  35.100  1.00  0.00     0.074 A 
ATOM     64  C   UNL A   1      42.471  30.880  36.417  1.00  0.00     0.031 C 
ATOM     65  C   UNL A   1      42.754  29.380  34.463  1.00  0.00     0.037 A 
BRANCH  52  66
ATOM     66  C   UNL A   1      40.353  27.958  28.949  1.00  0.00     0.064 A 
ATOM     67  C   UNL A   1      41.099  28.273  27.802  1.00  0.00     0.173 A 
ATOM     68  C   UNL A   1      39.651  26.743  28.959  1.00  0.00     0.173 A 
ATOM     69  F   UNL A   1      41.779  29.428  27.735  1.00  0.00    -0.203 F 
ATOM     70  C   UNL A   1      41.114  27.424  26.700  1.00  0.00     0.198 A 
ATOM     71  C   UNL A   1      39.698  25.879  27.868  1.00  0.00     0.198 A 
ATOM     72  F   UNL A   1      38.927  26.389  30.031  1.00  0.00    -0.203 F 
ATOM     73  F   UNL A   1      41.788  27.773  25.596  1.00  0.00    -0.200 F 
ATOM     74  C   UNL A   1      40.421  26.223  26.737  1.00  0.00     0.200 A 
ATOM     75  F   UNL A   1      39.039  24.711  27.912  1.00  0.00    -0.200 F 
ATOM     76  F   UNL A   1      40.444  25.401  25.678  1.00  0.00    -0.200 F 
ENDBRANCH  52  66
BRANCH  53  77
ATOM     77  C   UNL A   1      39.626  33.953  36.911  1.00  0.00     0.064 A 
ATOM     78  C   UNL A   1      38.850  33.565  38.012  1.00  0.00     0.173 A 
ATOM     79  C   UNL A   1      40.278  35.192  36.977  1.00  0.00     0.173 A 
ATOM     80  F   UNL A   1      38.191  32.398  37.989  1.00  0.00    -0.203 F 
ATOM     81  C   UNL A   1      38.710  34.395  39.124  1.00  0.00     0.198 A 
ATOM     82  C   UNL A   1      40.163  36.007  38.102  1.00  0.00     0.198 A 
ATOM     83  F   UNL A   1      41.037  35.609  35.954  1.00  0.00    -0.203 F 
ATOM     84  F   UNL A   1      37.919  34.023  40.139  1.00  0.00    -0.200 F 
ATOM     85  C   UNL A   1      39.371  35.613  39.169  1.00  0.00     0.200 A 
ATOM     86  F   UNL A   1      40.817  37.176  38.149  1.00  0.00    -0.200 F 
ATOM     87  F   UNL A   1      39.238  36.410  40.238  1.00  0.00    -0.200 F 
ENDBRANCH  53  77
BRANCH  65  88
ATOM     88  C   UNL A   1      43.932  28.758  35.158  1.00  0.00     0.064 A 
ATOM     89  C   UNL A   1      45.235  29.247  34.988  1.00  0.00     0.173 A 
ATOM     90  C   UNL A   1      43.745  27.681  36.039  1.00  0.00     0.173 A 
ATOM     91  F   UNL A   1      45.470  30.265  34.147  1.00  0.00    -0.203 F 
ATOM     92  C   UNL A   1      46.311  28.662  35.652  1.00  0.00     0.198 A 
ATOM     93  C   UNL A   1      44.818  27.122  36.728  1.00  0.00     0.198 A 
ATOM     94  F   UNL A   1      42.518  27.180  36.244  1.00  0.00    -0.203 F 
ATOM     95  F   UNL A   1      47.555  29.111  35.432  1.00  0.00    -0.200 F 
ATOM     96  C   UNL A   1      46.101  27.606  36.526  1.00  0.00     0.200 A 
ATOM     97  F   UNL A   1      44.609  26.114  37.586  1.00  0.00    -0.200 F 
ATOM     98  F   UNL A   1      47.136  27.052  37.171  1.00  0.00    -0.200 F 
ENDBRANCH  65  88
ENDBRANCH  39  40
ENDBRANCH  31  34
ENDBRANCH  29  30
ENDBRANCH  28  29
ENDBRANCH   1  28
TORSDOF 15
ENDMDL
