MODEL 1
REMARK VINA RESULT:     -12.8      0.000      0.000
REMARK SMILES O=C(Nc1nc(C2CC2)cs1)N[C@@H]1C=C[C@@H](C(=O)NCCCCNC(=O)c2ccc(-c3c4nc(c(-c5c(F)c(F)c(F)c(F)c5F)c5ccc([nH]5)c(-c5c(F)c(F)c(F)c(F)c5F)c5nc(c(-c6c(F)c(F)c(F)c(F)c6F)c6ccc3[nH]6)C=C5)C=C4)cc2)C1
REMARK SMILES IDX 21 1 20 2 19 3 17 4 18 5 16 7 13 8 14 9 90 10 15 11 12 12
REMARK SMILES IDX 1 13 2 14 3 15 4 18 5 19 11 20 6 21 10 22 7 23 8 24 9 25
REMARK SMILES IDX 22 26 23 27 24 28 25 29 26 31 27 32 28 33 89 34 29 35 88 36
REMARK SMILES IDX 30 37 31 38 32 39 82 40 33 41 87 42 81 43 83 44 34 45 86 46
REMARK SMILES IDX 80 47 79 48 35 50 67 51 47 52 66 53 48 54 51 55 65 56 84 57
REMARK SMILES IDX 49 58 50 59 64 61 85 62 52 63 36 64 37 65 45 66 38 67 39 68
REMARK SMILES IDX 43 69 46 70 40 71 41 72 44 73 42 74 68 75 69 76 77 77 70 78
REMARK SMILES IDX 71 79 75 80 78 81 72 82 73 83 76 84 74 85 53 86 54 87 62 88
REMARK SMILES IDX 55 89 56 90 60 91 63 92 57 93 58 94 61 95 59 96
REMARK H PARENT 19 6 3 16 12 17 24 30 83 49 51 60
REMARK Flexibility Score: inf
ROOT
ATOM      1  C   UNL A   1      31.769  30.520  26.838  1.00  0.00     0.023 C 
ENDROOT
BRANCH   1   2
ATOM      2  C   UNL A   1      32.234  29.993  25.486  1.00  0.00     0.116 C 
BRANCH   2   3
ATOM      3  N   UNL A   1      31.131  29.829  24.562  1.00  0.00    -0.356 N 
ATOM      4  C   UNL A   1      30.653  28.711  23.946  1.00  0.00     0.227 C 
ATOM      5  O   UNL A   1      29.668  28.856  23.216  1.00  0.00    -0.274 OA
ATOM      6  H   UNL A   1      30.647  30.659  24.345  1.00  0.00     0.163 HD
BRANCH   4   7
ATOM      7  C   UNL A   1      31.290  27.329  24.134  1.00  0.00     0.103 C 
ATOM      8  C   UNL A   1      30.418  25.175  24.939  1.00  0.00     0.107 C 
ATOM      9  C   UNL A   1      30.503  25.218  23.448  1.00  0.00    -0.006 C 
ATOM     10  C   UNL A   1      30.836  26.583  25.397  1.00  0.00     0.047 C 
ATOM     11  C   UNL A   1      30.981  26.388  23.007  1.00  0.00    -0.016 C 
BRANCH   8  12
ATOM     12  N   UNL A   1      31.224  24.096  25.454  1.00  0.00    -0.332 N 
ATOM     13  O   UNL A   1      29.939  23.505  27.253  1.00  0.00    -0.248 OA
ATOM     14  C   UNL A   1      30.927  23.335  26.543  1.00  0.00     0.321 C 
ATOM     15  N   UNL A   1      31.748  22.289  26.817  1.00  0.00    -0.284 N 
ATOM     16  H   UNL A   1      31.533  21.759  27.618  1.00  0.00     0.174 HD
ATOM     17  H   UNL A   1      32.061  23.892  24.977  1.00  0.00     0.165 HD
BRANCH  15  18
ATOM     18  C   UNL A   1      32.836  21.897  26.099  1.00  0.00     0.191 A 
ATOM     19  N   UNL A   1      34.043  22.410  26.085  1.00  0.00    -0.225 NA
ATOM     20  S   UNL A   1      32.532  20.601  25.034  1.00  0.00    -0.105 S 
ATOM     21  C   UNL A   1      34.778  21.771  25.103  1.00  0.00     0.057 A 
ATOM     22  C   UNL A   1      34.102  20.811  24.377  1.00  0.00     0.092 A 
BRANCH  21  23
ATOM     23  C   UNL A   1      36.240  22.092  24.824  1.00  0.00     0.039 C 
ATOM     24  C   UNL A   1      36.606  22.909  23.605  1.00  0.00     0.011 C 
ATOM     25  C   UNL A   1      36.686  23.530  24.960  1.00  0.00     0.011 C 
ENDBRANCH  21  23
ENDBRANCH  15  18
ENDBRANCH   8  12
ENDBRANCH   4   7
ENDBRANCH   2   3
ENDBRANCH   1   2
BRANCH   1  26
ATOM     26  C   UNL A   1      31.492  32.021  26.874  1.00  0.00     0.023 C 
BRANCH  26  27
ATOM     27  C   UNL A   1      32.725  32.904  27.041  1.00  0.00     0.116 C 
BRANCH  27  28
ATOM     28  N   UNL A   1      32.423  34.202  27.627  1.00  0.00    -0.352 N 
ATOM     29  C   UNL A   1      33.012  34.837  28.690  1.00  0.00     0.251 C 
ATOM     30  H   UNL A   1      31.688  34.696  27.197  1.00  0.00     0.163 HD
ATOM     31  O   UNL A   1      32.526  35.879  29.126  1.00  0.00    -0.269 OA
BRANCH  29  32
ATOM     32  C   UNL A   1      34.209  34.258  29.335  1.00  0.00     0.039 A 
ATOM     33  C   UNL A   1      34.031  33.387  30.413  1.00  0.00     0.014 A 
ATOM     34  C   UNL A   1      35.497  34.564  28.887  1.00  0.00     0.014 A 
ATOM     35  C   UNL A   1      35.141  32.777  30.998  1.00  0.00     0.010 A 
ATOM     36  C   UNL A   1      36.595  33.890  29.416  1.00  0.00     0.010 A 
ATOM     37  C   UNL A   1      36.430  32.993  30.480  1.00  0.00    -0.014 A 
BRANCH  37  38
ATOM     38  C   UNL A   1      37.602  32.279  31.052  1.00  0.00     0.031 A 
ATOM     39  C   UNL A   1      38.101  32.614  32.430  1.00  0.00     0.074 A 
ATOM     40  C   UNL A   1      38.228  31.340  30.316  1.00  0.00     0.049 A 
ATOM     41  N   UNL A   1      39.098  32.087  33.099  1.00  0.00    -0.248 NA
ATOM     42  C   UNL A   1      37.405  33.693  33.148  1.00  0.00     0.031 C 
ATOM     43  C   UNL A   1      37.877  30.968  28.944  1.00  0.00     0.029 A 
ATOM     44  N   UNL A   1      39.289  30.523  30.618  1.00  0.00    -0.354 N 
ATOM     45  C   UNL A   1      39.139  32.763  34.312  1.00  0.00     0.074 A 
ATOM     46  C   UNL A   1      38.119  33.787  34.261  1.00  0.00     0.031 C 
ATOM     47  C   UNL A   1      38.681  29.972  28.537  1.00  0.00     0.029 A 
ATOM     48  C   UNL A   1      39.626  29.660  29.604  1.00  0.00     0.049 A 
ATOM     49  H   UNL A   1      39.764  30.554  31.480  1.00  0.00     0.167 HD
ATOM     50  C   UNL A   1      39.930  32.527  35.387  1.00  0.00     0.037 A 
ATOM     51  C   UNL A   1      40.589  28.720  29.544  1.00  0.00     0.037 A 
ATOM     52  C   UNL A   1      40.941  31.504  35.440  1.00  0.00     0.049 A 
ATOM     53  C   UNL A   1      41.467  28.495  30.748  1.00  0.00     0.074 A 
ATOM     54  C   UNL A   1      41.784  31.175  36.488  1.00  0.00     0.029 A 
ATOM     55  N   UNL A   1      41.246  30.642  34.397  1.00  0.00    -0.354 N 
ATOM     56  N   UNL A   1      41.446  29.095  31.913  1.00  0.00    -0.248 NA
ATOM     57  C   UNL A   1      42.493  27.450  30.630  1.00  0.00     0.031 C 
ATOM     58  C   UNL A   1      42.625  30.140  36.067  1.00  0.00     0.029 A 
ATOM     59  C   UNL A   1      42.272  29.789  34.774  1.00  0.00     0.049 A 
ATOM     60  H   UNL A   1      40.802  30.638  33.519  1.00  0.00     0.167 HD
ATOM     61  C   UNL A   1      42.429  28.479  32.676  1.00  0.00     0.074 A 
ATOM     62  C   UNL A   1      43.008  27.440  31.849  1.00  0.00     0.031 C 
ATOM     63  C   UNL A   1      42.825  28.750  33.944  1.00  0.00     0.037 A 
BRANCH  50  64
ATOM     64  C   UNL A   1      39.711  33.372  36.608  1.00  0.00     0.064 A 
ATOM     65  C   UNL A   1      40.392  34.587  36.785  1.00  0.00     0.173 A 
ATOM     66  C   UNL A   1      38.772  33.000  37.583  1.00  0.00     0.173 A 
ATOM     67  F   UNL A   1      41.309  34.983  35.888  1.00  0.00    -0.203 F 
ATOM     68  C   UNL A   1      40.158  35.386  37.900  1.00  0.00     0.198 A 
ATOM     69  C   UNL A   1      38.518  33.818  38.681  1.00  0.00     0.198 A 
ATOM     70  F   UNL A   1      38.089  31.853  37.461  1.00  0.00    -0.203 F 
ATOM     71  F   UNL A   1      40.852  36.520  38.067  1.00  0.00    -0.200 F 
ATOM     72  C   UNL A   1      39.215  35.006  38.843  1.00  0.00     0.200 A 
ATOM     73  F   UNL A   1      37.597  33.456  39.585  1.00  0.00    -0.200 F 
ATOM     74  F   UNL A   1      38.980  35.783  39.909  1.00  0.00    -0.200 F 
ENDBRANCH  50  64
BRANCH  51  75
ATOM     75  C   UNL A   1      40.770  27.899  28.315  1.00  0.00     0.064 A 
ATOM     76  C   UNL A   1      40.152  26.647  28.185  1.00  0.00     0.173 A 
ATOM     77  C   UNL A   1      41.603  28.326  27.271  1.00  0.00     0.173 A 
ATOM     78  F   UNL A   1      39.361  26.185  29.163  1.00  0.00    -0.203 F 
ATOM     79  C   UNL A   1      40.395  25.835  27.079  1.00  0.00     0.198 A 
ATOM     80  C   UNL A   1      41.817  27.529  26.148  1.00  0.00     0.198 A 
ATOM     81  F   UNL A   1      42.212  29.519  27.340  1.00  0.00    -0.203 F 
ATOM     82  F   UNL A   1      39.850  24.613  27.016  1.00  0.00    -0.200 F 
ATOM     83  C   UNL A   1      41.225  26.277  26.060  1.00  0.00     0.200 A 
ATOM     84  F   UNL A   1      42.606  27.967  25.158  1.00  0.00    -0.200 F 
ATOM     85  F   UNL A   1      41.467  25.493  25.001  1.00  0.00    -0.200 F 
ENDBRANCH  51  75
BRANCH  63  86
ATOM     86  C   UNL A   1      43.902  27.879  34.526  1.00  0.00     0.064 A 
ATOM     87  C   UNL A   1      43.606  26.661  35.158  1.00  0.00     0.173 A 
ATOM     88  C   UNL A   1      45.248  28.265  34.444  1.00  0.00     0.173 A 
ATOM     89  F   UNL A   1      42.333  26.253  35.275  1.00  0.00    -0.203 F 
ATOM     90  C   UNL A   1      44.614  25.885  35.723  1.00  0.00     0.198 A 
ATOM     91  C   UNL A   1      46.257  27.468  34.978  1.00  0.00     0.198 A 
ATOM     92  F   UNL A   1      45.587  29.416  33.842  1.00  0.00    -0.203 F 
ATOM     93  F   UNL A   1      44.301  24.760  36.380  1.00  0.00    -0.200 F 
ATOM     94  C   UNL A   1      45.938  26.286  35.627  1.00  0.00     0.200 A 
ATOM     95  F   UNL A   1      47.537  27.850  34.872  1.00  0.00    -0.200 F 
ATOM     96  F   UNL A   1      46.907  25.538  36.173  1.00  0.00    -0.200 F 
ENDBRANCH  63  86
ENDBRANCH  37  38
ENDBRANCH  29  32
ENDBRANCH  27  28
ENDBRANCH  26  27
ENDBRANCH   1  26
TORSDOF 14
ENDMDL
MODEL 2
REMARK VINA RESULT:     -12.7      5.208     10.998
REMARK SMILES O=C(Nc1nc(C2CC2)cs1)N[C@@H]1C=C[C@@H](C(=O)NCCCCNC(=O)c2ccc(-c3c4nc(c(-c5c(F)c(F)c(F)c(F)c5F)c5ccc([nH]5)c(-c5c(F)c(F)c(F)c(F)c5F)c5nc(c(-c6c(F)c(F)c(F)c(F)c6F)c6ccc3[nH]6)C=C5)C=C4)cc2)C1
REMARK SMILES IDX 21 1 20 2 19 3 17 4 18 5 16 7 13 8 14 9 90 10 15 11 12 12
REMARK SMILES IDX 1 13 2 14 3 15 4 18 5 19 11 20 6 21 10 22 7 23 8 24 9 25
REMARK SMILES IDX 22 26 23 27 24 28 25 29 26 31 27 32 28 33 89 34 29 35 88 36
REMARK SMILES IDX 30 37 31 38 32 39 82 40 33 41 87 42 81 43 83 44 34 45 86 46
REMARK SMILES IDX 80 47 79 48 35 50 67 51 47 52 66 53 48 54 51 55 65 56 84 57
REMARK SMILES IDX 49 58 50 59 64 61 85 62 52 63 36 64 37 65 45 66 38 67 39 68
REMARK SMILES IDX 43 69 46 70 40 71 41 72 44 73 42 74 68 75 69 76 77 77 70 78
REMARK SMILES IDX 71 79 75 80 78 81 72 82 73 83 76 84 74 85 53 86 54 87 62 88
REMARK SMILES IDX 55 89 56 90 60 91 63 92 57 93 58 94 61 95 59 96
REMARK H PARENT 19 6 3 16 12 17 24 30 83 49 51 60
REMARK Flexibility Score: inf
ROOT
ATOM      1  C   UNL A   1      37.053  21.051  24.618  1.00  0.00     0.023 C 
ENDROOT
BRANCH   1   2
ATOM      2  C   UNL A   1      35.893  21.179  25.597  1.00  0.00     0.116 C 
BRANCH   2   3
ATOM      3  N   UNL A   1      34.719  20.465  25.139  1.00  0.00    -0.356 N 
ATOM      4  C   UNL A   1      33.524  20.933  24.677  1.00  0.00     0.227 C 
ATOM      5  O   UNL A   1      32.695  20.088  24.324  1.00  0.00    -0.274 OA
ATOM      6  H   UNL A   1      34.796  19.484  25.164  1.00  0.00     0.163 HD
BRANCH   4   7
ATOM      7  C   UNL A   1      33.201  22.430  24.591  1.00  0.00     0.103 C 
ATOM      8  C   UNL A   1      32.414  23.872  22.762  1.00  0.00     0.107 C 
ATOM      9  C   UNL A   1      31.306  23.497  23.690  1.00  0.00    -0.006 C 
ATOM     10  C   UNL A   1      33.641  23.103  23.282  1.00  0.00     0.047 C 
ATOM     11  C   UNL A   1      31.732  22.714  24.689  1.00  0.00    -0.016 C 
BRANCH   8  12
ATOM     12  N   UNL A   1      32.562  25.306  22.716  1.00  0.00    -0.332 N 
ATOM     13  O   UNL A   1      33.175  25.543  20.525  1.00  0.00    -0.248 OA
ATOM     14  C   UNL A   1      32.906  26.033  21.619  1.00  0.00     0.321 C 
ATOM     15  N   UNL A   1      32.890  27.386  21.734  1.00  0.00    -0.284 N 
ATOM     16  H   UNL A   1      33.159  27.899  20.938  1.00  0.00     0.174 HD
ATOM     17  H   UNL A   1      32.400  25.802  23.552  1.00  0.00     0.165 HD
BRANCH  15  18
ATOM     18  C   UNL A   1      32.539  28.105  22.835  1.00  0.00     0.191 A 
ATOM     19  N   UNL A   1      33.181  28.238  23.971  1.00  0.00    -0.225 NA
ATOM     20  S   UNL A   1      31.021  28.871  22.706  1.00  0.00    -0.105 S 
ATOM     21  C   UNL A   1      32.378  28.952  24.844  1.00  0.00     0.057 A 
ATOM     22  C   UNL A   1      31.139  29.316  24.357  1.00  0.00     0.092 A 
BRANCH  21  23
ATOM     23  C   UNL A   1      32.816  29.322  26.254  1.00  0.00     0.039 C 
ATOM     24  C   UNL A   1      33.124  28.227  27.251  1.00  0.00     0.011 C 
ATOM     25  C   UNL A   1      34.242  29.015  26.654  1.00  0.00     0.011 C 
ENDBRANCH  21  23
ENDBRANCH  15  18
ENDBRANCH   8  12
ENDBRANCH   4   7
ENDBRANCH   2   3
ENDBRANCH   1   2
BRANCH   1  26
ATOM     26  C   UNL A   1      37.989  19.875  24.892  1.00  0.00     0.023 C 
BRANCH  26  27
ATOM     27  C   UNL A   1      39.050  20.126  25.958  1.00  0.00     0.116 C 
BRANCH  27  28
ATOM     28  N   UNL A   1      40.142  19.165  25.915  1.00  0.00    -0.352 N 
ATOM     29  C   UNL A   1      41.492  19.370  26.050  1.00  0.00     0.251 C 
ATOM     30  H   UNL A   1      39.873  18.229  25.768  1.00  0.00     0.163 HD
ATOM     31  O   UNL A   1      42.275  18.445  25.848  1.00  0.00    -0.269 OA
BRANCH  29  32
ATOM     32  C   UNL A   1      42.009  20.708  26.405  1.00  0.00     0.039 A 
ATOM     33  C   UNL A   1      42.247  21.626  25.379  1.00  0.00     0.014 A 
ATOM     34  C   UNL A   1      42.261  21.062  27.734  1.00  0.00     0.014 A 
ATOM     35  C   UNL A   1      42.675  22.916  25.693  1.00  0.00     0.010 A 
ATOM     36  C   UNL A   1      42.607  22.374  28.050  1.00  0.00     0.010 A 
ATOM     37  C   UNL A   1      42.822  23.314  27.033  1.00  0.00    -0.014 A 
BRANCH  37  38
ATOM     38  C   UNL A   1      43.200  24.712  27.369  1.00  0.00     0.031 A 
ATOM     39  C   UNL A   1      44.598  25.207  27.118  1.00  0.00     0.074 A 
ATOM     40  C   UNL A   1      42.282  25.531  27.919  1.00  0.00     0.049 A 
ATOM     41  N   UNL A   1      45.105  26.396  27.332  1.00  0.00    -0.248 NA
ATOM     42  C   UNL A   1      45.561  24.236  26.573  1.00  0.00     0.031 C 
ATOM     43  C   UNL A   1      40.910  25.153  28.266  1.00  0.00     0.029 A 
ATOM     44  N   UNL A   1      42.361  26.853  28.280  1.00  0.00    -0.354 N 
ATOM     45  C   UNL A   1      46.436  26.316  26.940  1.00  0.00     0.074 A 
ATOM     46  C   UNL A   1      46.679  24.946  26.546  1.00  0.00     0.031 C 
ATOM     47  C   UNL A   1      40.267  26.226  28.753  1.00  0.00     0.029 A 
ATOM     48  C   UNL A   1      41.187  27.357  28.787  1.00  0.00     0.049 A 
ATOM     49  H   UNL A   1      43.181  27.389  28.184  1.00  0.00     0.167 HD
ATOM     50  C   UNL A   1      47.360  27.304  26.877  1.00  0.00     0.037 A 
ATOM     51  C   UNL A   1      40.889  28.595  29.226  1.00  0.00     0.037 A 
ATOM     52  C   UNL A   1      47.116  28.669  27.264  1.00  0.00     0.049 A 
ATOM     53  C   UNL A   1      41.945  29.667  29.164  1.00  0.00     0.074 A 
ATOM     54  C   UNL A   1      47.983  29.748  27.223  1.00  0.00     0.029 A 
ATOM     55  N   UNL A   1      45.912  29.144  27.763  1.00  0.00    -0.354 N 
ATOM     56  N   UNL A   1      43.178  29.593  28.724  1.00  0.00    -0.248 NA
ATOM     57  C   UNL A   1      41.561  31.000  29.646  1.00  0.00     0.031 C 
ATOM     58  C   UNL A   1      47.317  30.866  27.733  1.00  0.00     0.029 A 
ATOM     59  C   UNL A   1      46.018  30.497  28.043  1.00  0.00     0.049 A 
ATOM     60  H   UNL A   1      45.103  28.600  27.899  1.00  0.00     0.167 HD
ATOM     61  C   UNL A   1      43.703  30.873  28.846  1.00  0.00     0.074 A 
ATOM     62  C   UNL A   1      42.645  31.708  29.374  1.00  0.00     0.031 C 
ATOM     63  C   UNL A   1      44.950  31.318  28.554  1.00  0.00     0.037 A 
BRANCH  50  64
ATOM     64  C   UNL A   1      48.718  26.951  26.342  1.00  0.00     0.064 A 
ATOM     65  C   UNL A   1      49.713  26.415  27.175  1.00  0.00     0.173 A 
ATOM     66  C   UNL A   1      49.013  27.091  24.977  1.00  0.00     0.173 A 
ATOM     67  F   UNL A   1      49.486  26.271  28.490  1.00  0.00    -0.203 F 
ATOM     68  C   UNL A   1      50.957  26.053  26.667  1.00  0.00     0.198 A 
ATOM     69  C   UNL A   1      50.248  26.699  24.467  1.00  0.00     0.198 A 
ATOM     70  F   UNL A   1      48.097  27.592  24.135  1.00  0.00    -0.203 F 
ATOM     71  F   UNL A   1      51.904  25.583  27.491  1.00  0.00    -0.200 F 
ATOM     72  C   UNL A   1      51.221  26.186  25.313  1.00  0.00     0.200 A 
ATOM     73  F   UNL A   1      50.497  26.816  23.156  1.00  0.00    -0.200 F 
ATOM     74  F   UNL A   1      52.414  25.824  24.822  1.00  0.00    -0.200 F 
ENDBRANCH  50  64
BRANCH  51  75
ATOM     75  C   UNL A   1      39.529  28.905  29.745  1.00  0.00     0.064 A 
ATOM     76  C   UNL A   1      38.548  29.465  28.914  1.00  0.00     0.173 A 
ATOM     77  C   UNL A   1      39.199  28.697  31.092  1.00  0.00     0.173 A 
ATOM     78  F   UNL A   1      38.820  29.701  27.622  1.00  0.00    -0.203 F 
ATOM     79  C   UNL A   1      37.306  29.846  29.418  1.00  0.00     0.198 A 
ATOM     80  C   UNL A   1      37.943  29.044  31.588  1.00  0.00     0.198 A 
ATOM     81  F   UNL A   1      40.096  28.157  31.930  1.00  0.00    -0.203 F 
ATOM     82  F   UNL A   1      36.416  30.446  28.617  1.00  0.00    -0.200 F 
ATOM     83  C   UNL A   1      37.003  29.632  30.754  1.00  0.00     0.200 A 
ATOM     84  F   UNL A   1      37.649  28.821  32.876  1.00  0.00    -0.200 F 
ATOM     85  F   UNL A   1      35.813  30.007  31.243  1.00  0.00    -0.200 F 
ENDBRANCH  51  75
BRANCH  63  86
ATOM     86  C   UNL A   1      45.219  32.782  28.756  1.00  0.00     0.064 A 
ATOM     87  C   UNL A   1      45.776  33.274  29.946  1.00  0.00     0.173 A 
ATOM     88  C   UNL A   1      44.922  33.704  27.741  1.00  0.00     0.173 A 
ATOM     89  F   UNL A   1      46.066  32.435  30.953  1.00  0.00    -0.203 F 
ATOM     90  C   UNL A   1      45.985  34.637  30.129  1.00  0.00     0.198 A 
ATOM     91  C   UNL A   1      45.166  35.063  27.913  1.00  0.00     0.198 A 
ATOM     92  F   UNL A   1      44.396  33.287  26.579  1.00  0.00    -0.203 F 
ATOM     93  F   UNL A   1      46.455  35.090  31.300  1.00  0.00    -0.200 F 
ATOM     94  C   UNL A   1      45.685  35.530  29.111  1.00  0.00     0.200 A 
ATOM     95  F   UNL A   1      44.889  35.923  26.923  1.00  0.00    -0.200 F 
ATOM     96  F   UNL A   1      45.885  36.843  29.289  1.00  0.00    -0.200 F 
ENDBRANCH  63  86
ENDBRANCH  37  38
ENDBRANCH  29  32
ENDBRANCH  27  28
ENDBRANCH  26  27
ENDBRANCH   1  26
TORSDOF 14
ENDMDL
MODEL 3
REMARK VINA RESULT:     -12.7      0.616      2.045
REMARK SMILES O=C(Nc1nc(C2CC2)cs1)N[C@@H]1C=C[C@@H](C(=O)NCCCCNC(=O)c2ccc(-c3c4nc(c(-c5c(F)c(F)c(F)c(F)c5F)c5ccc([nH]5)c(-c5c(F)c(F)c(F)c(F)c5F)c5nc(c(-c6c(F)c(F)c(F)c(F)c6F)c6ccc3[nH]6)C=C5)C=C4)cc2)C1
REMARK SMILES IDX 21 1 20 2 19 3 17 4 18 5 16 7 13 8 14 9 90 10 15 11 12 12
REMARK SMILES IDX 1 13 2 14 3 15 4 18 5 19 11 20 6 21 10 22 7 23 8 24 9 25
REMARK SMILES IDX 22 26 23 27 24 28 25 29 26 31 27 32 28 33 89 34 29 35 88 36
REMARK SMILES IDX 30 37 31 38 32 39 82 40 33 41 87 42 81 43 83 44 34 45 86 46
REMARK SMILES IDX 80 47 79 48 35 50 67 51 47 52 66 53 48 54 51 55 65 56 84 57
REMARK SMILES IDX 49 58 50 59 64 61 85 62 52 63 36 64 37 65 45 66 38 67 39 68
REMARK SMILES IDX 43 69 46 70 40 71 41 72 44 73 42 74 68 75 69 76 77 77 70 78
REMARK SMILES IDX 71 79 75 80 78 81 72 82 73 83 76 84 74 85 53 86 54 87 62 88
REMARK SMILES IDX 55 89 56 90 60 91 63 92 57 93 58 94 61 95 59 96
REMARK H PARENT 19 6 3 16 12 17 24 30 83 49 51 60
REMARK Flexibility Score: inf
ROOT
ATOM      1  C   UNL A   1      31.773  30.540  26.807  1.00  0.00     0.023 C 
ENDROOT
BRANCH   1   2
ATOM      2  C   UNL A   1      32.250  30.117  25.422  1.00  0.00     0.116 C 
BRANCH   2   3
ATOM      3  N   UNL A   1      31.153  30.008  24.483  1.00  0.00    -0.356 N 
ATOM      4  C   UNL A   1      30.597  28.910  23.898  1.00  0.00     0.227 C 
ATOM      5  O   UNL A   1      29.639  29.107  23.143  1.00  0.00    -0.274 OA
ATOM      6  H   UNL A   1      30.743  30.866  24.226  1.00  0.00     0.163 HD
BRANCH   4   7
ATOM      7  C   UNL A   1      31.116  27.489  24.148  1.00  0.00     0.103 C 
ATOM      8  C   UNL A   1      30.293  25.620  25.518  1.00  0.00     0.107 C 
ATOM      9  C   UNL A   1      29.955  25.442  24.074  1.00  0.00    -0.006 C 
ATOM     10  C   UNL A   1      30.967  27.001  25.597  1.00  0.00     0.047 C 
ATOM     11  C   UNL A   1      30.405  26.456  23.325  1.00  0.00    -0.016 C 
BRANCH   8  12
ATOM     12  N   UNL A   1      31.098  24.517  25.982  1.00  0.00    -0.332 N 
ATOM     13  O   UNL A   1      29.553  23.465  27.302  1.00  0.00    -0.248 OA
ATOM     14  C   UNL A   1      30.677  23.522  26.810  1.00  0.00     0.321 C 
ATOM     15  N   UNL A   1      31.541  22.503  27.053  1.00  0.00    -0.284 N 
ATOM     16  H   UNL A   1      31.232  21.800  27.669  1.00  0.00     0.174 HD
ATOM     17  H   UNL A   1      32.032  24.479  25.672  1.00  0.00     0.165 HD
BRANCH  15  18
ATOM     18  C   UNL A   1      32.790  22.352  26.532  1.00  0.00     0.191 A 
ATOM     19  N   UNL A   1      33.177  22.436  25.281  1.00  0.00    -0.225 NA
ATOM     20  S   UNL A   1      33.974  21.935  27.685  1.00  0.00    -0.105 S 
ATOM     21  C   UNL A   1      34.512  22.075  25.213  1.00  0.00     0.057 A 
ATOM     22  C   UNL A   1      35.093  21.700  26.407  1.00  0.00     0.092 A 
BRANCH  21  23
ATOM     23  C   UNL A   1      35.305  22.085  23.914  1.00  0.00     0.039 C 
ATOM     24  C   UNL A   1      36.085  23.321  23.525  1.00  0.00     0.011 C 
ATOM     25  C   UNL A   1      36.814  22.111  24.008  1.00  0.00     0.011 C 
ENDBRANCH  21  23
ENDBRANCH  15  18
ENDBRANCH   8  12
ENDBRANCH   4   7
ENDBRANCH   2   3
ENDBRANCH   1   2
BRANCH   1  26
ATOM     26  C   UNL A   1      31.498  32.035  26.955  1.00  0.00     0.023 C 
BRANCH  26  27
ATOM     27  C   UNL A   1      32.736  32.904  27.153  1.00  0.00     0.116 C 
BRANCH  27  28
ATOM     28  N   UNL A   1      32.428  34.224  27.683  1.00  0.00    -0.352 N 
ATOM     29  C   UNL A   1      33.019  34.910  28.714  1.00  0.00     0.251 C 
ATOM     30  H   UNL A   1      31.687  34.694  27.237  1.00  0.00     0.163 HD
ATOM     31  O   UNL A   1      32.529  35.967  29.107  1.00  0.00    -0.269 OA
BRANCH  29  32
ATOM     32  C   UNL A   1      34.224  34.368  29.375  1.00  0.00     0.039 A 
ATOM     33  C   UNL A   1      34.068  33.643  30.559  1.00  0.00     0.014 A 
ATOM     34  C   UNL A   1      35.500  34.568  28.840  1.00  0.00     0.014 A 
ATOM     35  C   UNL A   1      35.182  33.067  31.168  1.00  0.00     0.010 A 
ATOM     36  C   UNL A   1      36.599  33.922  29.403  1.00  0.00     0.010 A 
ATOM     37  C   UNL A   1      36.453  33.169  30.576  1.00  0.00    -0.014 A 
BRANCH  37  38
ATOM     38  C   UNL A   1      37.626  32.486  31.182  1.00  0.00     0.031 A 
ATOM     39  C   UNL A   1      38.121  32.885  32.545  1.00  0.00     0.074 A 
ATOM     40  C   UNL A   1      38.256  31.516  30.492  1.00  0.00     0.049 A 
ATOM     41  N   UNL A   1      39.117  32.394  33.240  1.00  0.00    -0.248 NA
ATOM     42  C   UNL A   1      37.420  33.995  33.210  1.00  0.00     0.031 C 
ATOM     43  C   UNL A   1      37.909  31.079  29.138  1.00  0.00     0.029 A 
ATOM     44  N   UNL A   1      39.319  30.717  30.834  1.00  0.00    -0.354 N 
ATOM     45  C   UNL A   1      39.153  33.125  34.420  1.00  0.00     0.074 A 
ATOM     46  C   UNL A   1      38.130  34.142  34.319  1.00  0.00     0.031 C 
ATOM     47  C   UNL A   1      38.717  30.068  28.780  1.00  0.00     0.029 A 
ATOM     48  C   UNL A   1      39.661  29.809  29.861  1.00  0.00     0.049 A 
ATOM     49  H   UNL A   1      39.791  30.789  31.695  1.00  0.00     0.167 HD
ATOM     50  C   UNL A   1      39.942  32.941  35.506  1.00  0.00     0.037 A 
ATOM     51  C   UNL A   1      40.627  28.870  29.847  1.00  0.00     0.037 A 
ATOM     52  C   UNL A   1      40.956  31.925  35.609  1.00  0.00     0.049 A 
ATOM     53  C   UNL A   1      41.502  28.704  31.062  1.00  0.00     0.074 A 
ATOM     54  C   UNL A   1      41.797  31.647  36.673  1.00  0.00     0.029 A 
ATOM     55  N   UNL A   1      41.267  31.017  34.608  1.00  0.00    -0.354 N 
ATOM     56  N   UNL A   1      41.477  29.356  32.199  1.00  0.00    -0.248 NA
ATOM     57  C   UNL A   1      42.531  27.658  30.996  1.00  0.00     0.031 C 
ATOM     58  C   UNL A   1      42.643  30.597  36.302  1.00  0.00     0.029 A 
ATOM     59  C   UNL A   1      42.294  30.185  35.027  1.00  0.00     0.049 A 
ATOM     60  H   UNL A   1      40.824  30.970  33.730  1.00  0.00     0.167 HD
ATOM     61  C   UNL A   1      42.460  28.779  32.992  1.00  0.00     0.074 A 
ATOM     62  C   UNL A   1      43.044  27.705  32.215  1.00  0.00     0.031 C 
ATOM     63  C   UNL A   1      42.852  29.110  34.247  1.00  0.00     0.037 A 
BRANCH  50  64
ATOM     64  C   UNL A   1      39.718  33.841  36.687  1.00  0.00     0.064 A 
ATOM     65  C   UNL A   1      38.896  33.450  37.757  1.00  0.00     0.173 A 
ATOM     66  C   UNL A   1      40.371  35.080  36.783  1.00  0.00     0.173 A 
ATOM     67  F   UNL A   1      38.239  32.281  37.709  1.00  0.00    -0.203 F 
ATOM     68  C   UNL A   1      38.722  34.272  38.866  1.00  0.00     0.198 A 
ATOM     69  C   UNL A   1      40.218  35.885  37.909  1.00  0.00     0.198 A 
ATOM     70  F   UNL A   1      41.172  35.500  35.793  1.00  0.00    -0.203 F 
ATOM     71  F   UNL A   1      37.899  33.893  39.854  1.00  0.00    -0.200 F 
ATOM     72  C   UNL A   1      39.389  35.484  38.946  1.00  0.00     0.200 A 
ATOM     73  F   UNL A   1      40.875  37.050  37.991  1.00  0.00    -0.200 F 
ATOM     74  F   UNL A   1      39.232  36.268  40.021  1.00  0.00    -0.200 F 
ENDBRANCH  50  64
BRANCH  51  75
ATOM     75  C   UNL A   1      40.813  27.994  28.659  1.00  0.00     0.064 A 
ATOM     76  C   UNL A   1      41.631  28.389  27.590  1.00  0.00     0.173 A 
ATOM     77  C   UNL A   1      40.139  26.770  28.544  1.00  0.00     0.173 A 
ATOM     78  F   UNL A   1      42.283  29.560  27.643  1.00  0.00    -0.203 F 
ATOM     79  C   UNL A   1      41.732  27.617  26.435  1.00  0.00     0.198 A 
ATOM     80  C   UNL A   1      40.269  25.980  27.403  1.00  0.00     0.198 A 
ATOM     81  F   UNL A   1      39.350  26.339  29.539  1.00  0.00    -0.203 F 
ATOM     82  F   UNL A   1      42.462  28.055  25.401  1.00  0.00    -0.200 F 
ATOM     83  C   UNL A   1      41.053  26.411  26.343  1.00  0.00     0.200 A 
ATOM     84  F   UNL A   1      39.625  24.808  27.325  1.00  0.00    -0.200 F 
ATOM     85  F   UNL A   1      41.142  25.673  25.229  1.00  0.00    -0.200 F 
ENDBRANCH  51  75
BRANCH  63  86
ATOM     86  C   UNL A   1      43.930  28.271  34.871  1.00  0.00     0.064 A 
ATOM     87  C   UNL A   1      45.289  28.595  34.738  1.00  0.00     0.173 A 
ATOM     88  C   UNL A   1      43.598  27.131  35.618  1.00  0.00     0.173 A 
ATOM     89  F   UNL A   1      45.661  29.667  34.022  1.00  0.00    -0.203 F 
ATOM     90  C   UNL A   1      46.275  27.785  35.293  1.00  0.00     0.198 A 
ATOM     91  C   UNL A   1      44.585  26.344  36.203  1.00  0.00     0.198 A 
ATOM     92  F   UNL A   1      42.313  26.781  35.785  1.00  0.00    -0.203 F 
ATOM     93  F   UNL A   1      47.568  28.077  35.096  1.00  0.00    -0.200 F 
ATOM     94  C   UNL A   1      45.923  26.664  36.030  1.00  0.00     0.200 A 
ATOM     95  F   UNL A   1      44.242  25.269  36.927  1.00  0.00    -0.200 F 
ATOM     96  F   UNL A   1      46.874  25.884  36.562  1.00  0.00    -0.200 F 
ENDBRANCH  63  86
ENDBRANCH  37  38
ENDBRANCH  29  32
ENDBRANCH  27  28
ENDBRANCH  26  27
ENDBRANCH   1  26
TORSDOF 14
ENDMDL
