MODEL 1
REMARK VINA RESULT:     -12.5      0.000      0.000
REMARK SMILES O=C(NCCCCNC(=O)[C@H]1CS[C@H](c2nc3ccccc3s2)[NH2+]1)c1ccc(-c2c3nc(c(-c4c(F)c(F)c(F)c(F)c4F)c4ccc([nH]4)c(-c4c(F)c(F)c(F)c(F)c4F)c4nc(c(-c5c(F)c(F)c(F)c(F)c5F)c5ccc2[nH]5)C=C4)C=C3)cc1
REMARK SMILES IDX 5 1 4 2 3 3 1 4 2 5 25 7 26 8 87 9 27 10 86 11 28 12 29 13
REMARK SMILES IDX 30 14 80 15 31 16 85 17 79 18 81 19 32 20 84 21 78 22 77 23
REMARK SMILES IDX 33 25 65 26 45 27 64 28 46 29 49 30 63 31 82 32 47 33 48 34
REMARK SMILES IDX 62 36 83 37 50 38 34 39 35 40 43 41 36 42 37 43 41 44 44 45
REMARK SMILES IDX 38 46 39 47 42 48 40 49 66 50 67 51 75 52 68 53 69 54 73 55
REMARK SMILES IDX 76 56 70 57 71 58 74 59 72 60 51 61 52 62 60 63 53 64 54 65
REMARK SMILES IDX 58 66 61 67 55 68 56 69 59 70 57 71 6 72 7 73 8 74 9 75
REMARK SMILES IDX 10 77 11 78 12 79 24 80 13 81 14 82 15 85 16 86 23 87 17 88
REMARK SMILES IDX 22 89 18 90 21 91 19 92 20 93
REMARK H PARENT 3 6 81 24 49 35 8 76 24 83 24 84
REMARK Flexibility Score: inf
ROOT
ATOM      1  C   UNL A   1      31.519  32.059  26.870  1.00  0.00     0.023 C 
ENDROOT
BRANCH   1   2
ATOM      2  C   UNL A   1      32.772  32.883  27.134  1.00  0.00     0.116 C 
BRANCH   2   3
ATOM      3  N   UNL A   1      32.475  34.219  27.626  1.00  0.00    -0.352 N 
ATOM      4  O   UNL A   1      32.578  35.961  29.060  1.00  0.00    -0.269 OA
ATOM      5  C   UNL A   1      33.044  34.890  28.680  1.00  0.00     0.251 C 
ATOM      6  H   UNL A   1      31.772  34.707  27.139  1.00  0.00     0.163 HD
BRANCH   5   7
ATOM      7  C   UNL A   1      34.214  34.308  29.369  1.00  0.00     0.039 A 
ATOM      8  C   UNL A   1      34.042  33.490  30.490  1.00  0.00     0.014 A 
ATOM      9  C   UNL A   1      35.496  34.572  28.879  1.00  0.00     0.014 A 
ATOM     10  C   UNL A   1      35.152  33.021  31.180  1.00  0.00     0.010 A 
ATOM     11  C   UNL A   1      36.609  34.035  29.528  1.00  0.00     0.010 A 
ATOM     12  C   UNL A   1      36.445  33.261  30.688  1.00  0.00    -0.014 A 
BRANCH  12  13
ATOM     13  C   UNL A   1      37.602  32.584  31.323  1.00  0.00     0.031 A 
ATOM     14  C   UNL A   1      38.286  31.421  30.667  1.00  0.00     0.074 A 
ATOM     15  C   UNL A   1      38.013  33.033  32.525  1.00  0.00     0.049 A 
ATOM     16  N   UNL A   1      39.280  30.694  31.116  1.00  0.00    -0.248 NA
ATOM     17  C   UNL A   1      37.793  31.009  29.345  1.00  0.00     0.031 C 
ATOM     18  C   UNL A   1      37.404  34.146  33.258  1.00  0.00     0.029 A 
ATOM     19  N   UNL A   1      39.029  32.614  33.344  1.00  0.00    -0.354 N 
ATOM     20  C   UNL A   1      39.516  29.730  30.145  1.00  0.00     0.074 A 
ATOM     21  C   UNL A   1      38.556  29.955  29.085  1.00  0.00     0.031 C 
ATOM     22  C   UNL A   1      38.064  34.331  34.410  1.00  0.00     0.029 A 
ATOM     23  C   UNL A   1      39.097  33.310  34.527  1.00  0.00     0.049 A 
ATOM     24  H   UNL A   1      39.649  31.886  33.109  1.00  0.00     0.167 HD
ATOM     25  C   UNL A   1      40.453  28.753  30.150  1.00  0.00     0.037 A 
ATOM     26  C   UNL A   1      39.877  33.122  35.607  1.00  0.00     0.037 A 
ATOM     27  C   UNL A   1      41.419  28.560  31.201  1.00  0.00     0.049 A 
ATOM     28  C   UNL A   1      40.879  32.004  35.591  1.00  0.00     0.074 A 
ATOM     29  C   UNL A   1      42.468  27.658  31.252  1.00  0.00     0.029 A 
ATOM     30  N   UNL A   1      41.443  29.269  32.394  1.00  0.00    -0.354 N 
ATOM     31  N   UNL A   1      41.148  31.150  34.632  1.00  0.00    -0.248 NA
ATOM     32  C   UNL A   1      41.681  31.815  36.806  1.00  0.00     0.031 C 
ATOM     33  C   UNL A   1      43.087  27.776  32.501  1.00  0.00     0.029 A 
ATOM     34  C   UNL A   1      42.458  28.788  33.207  1.00  0.00     0.049 A 
ATOM     35  H   UNL A   1      40.832  30.003  32.628  1.00  0.00     0.167 HD
ATOM     36  C   UNL A   1      42.151  30.330  35.125  1.00  0.00     0.074 A 
ATOM     37  C   UNL A   1      42.466  30.807  36.456  1.00  0.00     0.031 C 
ATOM     38  C   UNL A   1      42.750  29.269  34.533  1.00  0.00     0.037 A 
BRANCH  25  39
ATOM     39  C   UNL A   1      40.489  27.791  28.998  1.00  0.00     0.064 A 
ATOM     40  C   UNL A   1      39.687  26.643  28.968  1.00  0.00     0.173 A 
ATOM     41  C   UNL A   1      41.258  28.086  27.860  1.00  0.00     0.173 A 
ATOM     42  F   UNL A   1      38.937  26.313  30.031  1.00  0.00    -0.203 F 
ATOM     43  C   UNL A   1      39.655  25.822  27.842  1.00  0.00     0.198 A 
ATOM     44  C   UNL A   1      41.205  27.277  26.729  1.00  0.00     0.198 A 
ATOM     45  F   UNL A   1      42.036  29.178  27.836  1.00  0.00    -0.203 F 
ATOM     46  F   UNL A   1      38.893  24.720  27.840  1.00  0.00    -0.200 F 
ATOM     47  C   UNL A   1      40.404  26.146  26.721  1.00  0.00     0.200 A 
ATOM     48  F   UNL A   1      41.919  27.600  25.642  1.00  0.00    -0.200 F 
ATOM     49  F   UNL A   1      40.354  25.368  25.630  1.00  0.00    -0.200 F 
ENDBRANCH  25  39
BRANCH  26  50
ATOM     50  C   UNL A   1      39.699  33.977  36.809  1.00  0.00     0.064 A 
ATOM     51  C   UNL A   1      38.889  33.570  37.876  1.00  0.00     0.173 A 
ATOM     52  C   UNL A   1      40.331  35.227  36.908  1.00  0.00     0.173 A 
ATOM     53  F   UNL A   1      38.249  32.393  37.821  1.00  0.00    -0.203 F 
ATOM     54  C   UNL A   1      38.695  34.393  38.985  1.00  0.00     0.198 A 
ATOM     55  C   UNL A   1      40.165  36.032  38.032  1.00  0.00     0.198 A 
ATOM     56  F   UNL A   1      41.122  35.661  35.916  1.00  0.00    -0.203 F 
ATOM     57  F   UNL A   1      37.870  34.004  39.967  1.00  0.00    -0.200 F 
ATOM     58  C   UNL A   1      39.338  35.619  39.064  1.00  0.00     0.200 A 
ATOM     59  F   UNL A   1      40.802  37.207  38.112  1.00  0.00    -0.200 F 
ATOM     60  F   UNL A   1      39.151  36.408  40.131  1.00  0.00    -0.200 F 
ENDBRANCH  26  50
BRANCH  38  61
ATOM     61  C   UNL A   1      43.808  28.557  35.321  1.00  0.00     0.064 A 
ATOM     62  C   UNL A   1      43.491  27.465  36.143  1.00  0.00     0.173 A 
ATOM     63  C   UNL A   1      45.153  28.941  35.224  1.00  0.00     0.173 A 
ATOM     64  F   UNL A   1      42.215  27.073  36.283  1.00  0.00    -0.203 F 
ATOM     65  C   UNL A   1      44.482  26.796  36.855  1.00  0.00     0.198 A 
ATOM     66  C   UNL A   1      46.145  28.250  35.913  1.00  0.00     0.198 A 
ATOM     67  F   UNL A   1      45.506  29.976  34.448  1.00  0.00    -0.203 F 
ATOM     68  F   UNL A   1      44.152  25.784  37.669  1.00  0.00    -0.200 F 
ATOM     69  C   UNL A   1      45.809  27.183  36.731  1.00  0.00     0.200 A 
ATOM     70  F   UNL A   1      47.428  28.617  35.783  1.00  0.00    -0.200 F 
ATOM     71  F   UNL A   1      46.763  26.530  37.409  1.00  0.00    -0.200 F 
ENDBRANCH  38  61
ENDBRANCH  12  13
ENDBRANCH   5   7
ENDBRANCH   2   3
ENDBRANCH   1   2
BRANCH   1  72
ATOM     72  C   UNL A   1      31.742  30.550  26.759  1.00  0.00     0.023 C 
BRANCH  72  73
ATOM     73  C   UNL A   1      32.229  30.065  25.395  1.00  0.00     0.116 C 
BRANCH  73  74
ATOM     74  N   UNL A   1      31.128  29.763  24.500  1.00  0.00    -0.351 N 
ATOM     75  C   UNL A   1      30.707  28.568  24.000  1.00  0.00     0.279 C 
ATOM     76  H   UNL A   1      30.605  30.544  24.207  1.00  0.00     0.163 HD
ATOM     77  O   UNL A   1      29.790  28.586  23.174  1.00  0.00    -0.268 OA
BRANCH  75  78
ATOM     78  C   UNL A   1      31.408  27.260  24.399  1.00  0.00     0.284 C 
ATOM     79  C   UNL A   1      30.967  26.833  25.804  1.00  0.00     0.151 C 
ATOM     80  N   UNL A   1      31.054  26.226  23.386  1.00  0.00    -0.319 N 
ATOM     81  S   UNL A   1      30.489  25.098  25.673  1.00  0.00    -0.085 SA
ATOM     82  C   UNL A   1      31.221  24.906  24.019  1.00  0.00     0.303 C 
ATOM     83  H   UNL A   1      31.670  26.304  22.578  1.00  0.00     0.348 HD
ATOM     84  H   UNL A   1      30.093  26.350  23.067  1.00  0.00     0.348 HD
BRANCH  82  85
ATOM     85  C   UNL A   1      32.646  24.368  24.100  1.00  0.00     0.163 A 
ATOM     86  N   UNL A   1      33.352  24.336  25.216  1.00  0.00    -0.234 NA
ATOM     87  S   UNL A   1      33.451  23.690  22.731  1.00  0.00    -0.112 S 
ATOM     88  C   UNL A   1      34.622  23.844  24.980  1.00  0.00     0.082 A 
ATOM     89  C   UNL A   1      34.876  23.461  23.664  1.00  0.00     0.055 A 
ATOM     90  C   UNL A   1      35.647  23.714  25.937  1.00  0.00     0.030 A 
ATOM     91  C   UNL A   1      36.130  22.970  23.265  1.00  0.00     0.021 A 
ATOM     92  C   UNL A   1      36.899  23.226  25.552  1.00  0.00     0.002 A 
ATOM     93  C   UNL A   1      37.136  22.864  24.229  1.00  0.00     0.002 A 
ENDBRANCH  82  85
ENDBRANCH  75  78
ENDBRANCH  73  74
ENDBRANCH  72  73
ENDBRANCH   1  72
TORSDOF 12
ENDMDL
MODEL 2
REMARK VINA RESULT:     -12.4      0.059      1.140
REMARK SMILES O=C(NCCCCNC(=O)[C@H]1CS[C@H](c2nc3ccccc3s2)[NH2+]1)c1ccc(-c2c3nc(c(-c4c(F)c(F)c(F)c(F)c4F)c4ccc([nH]4)c(-c4c(F)c(F)c(F)c(F)c4F)c4nc(c(-c5c(F)c(F)c(F)c(F)c5F)c5ccc2[nH]5)C=C4)C=C3)cc1
REMARK SMILES IDX 5 1 4 2 3 3 1 4 2 5 25 7 26 8 87 9 27 10 86 11 28 12 29 13
REMARK SMILES IDX 30 14 80 15 31 16 85 17 79 18 81 19 32 20 84 21 78 22 77 23
REMARK SMILES IDX 33 25 65 26 45 27 64 28 46 29 49 30 63 31 82 32 47 33 48 34
REMARK SMILES IDX 62 36 83 37 50 38 34 39 35 40 43 41 36 42 37 43 41 44 44 45
REMARK SMILES IDX 38 46 39 47 42 48 40 49 66 50 67 51 75 52 68 53 69 54 73 55
REMARK SMILES IDX 76 56 70 57 71 58 74 59 72 60 51 61 52 62 60 63 53 64 54 65
REMARK SMILES IDX 58 66 61 67 55 68 56 69 59 70 57 71 6 72 7 73 8 74 9 75
REMARK SMILES IDX 10 77 11 78 12 79 24 80 13 81 14 82 15 85 16 86 23 87 17 88
REMARK SMILES IDX 22 89 18 90 21 91 19 92 20 93
REMARK H PARENT 3 6 81 24 49 35 8 76 24 83 24 84
REMARK Flexibility Score: inf
ROOT
ATOM      1  C   UNL A   1      31.513  32.058  26.870  1.00  0.00     0.023 C 
ENDROOT
BRANCH   1   2
ATOM      2  C   UNL A   1      32.766  32.880  27.137  1.00  0.00     0.116 C 
BRANCH   2   3
ATOM      3  N   UNL A   1      32.469  34.219  27.621  1.00  0.00    -0.352 N 
ATOM      4  O   UNL A   1      32.572  35.968  29.047  1.00  0.00    -0.269 OA
ATOM      5  C   UNL A   1      33.037  34.895  28.673  1.00  0.00     0.251 C 
ATOM      6  H   UNL A   1      31.767  34.704  27.131  1.00  0.00     0.163 HD
BRANCH   5   7
ATOM      7  C   UNL A   1      34.206  34.315  29.367  1.00  0.00     0.039 A 
ATOM      8  C   UNL A   1      34.032  33.510  30.496  1.00  0.00     0.014 A 
ATOM      9  C   UNL A   1      35.488  34.569  28.872  1.00  0.00     0.014 A 
ATOM     10  C   UNL A   1      35.141  33.045  31.190  1.00  0.00     0.010 A 
ATOM     11  C   UNL A   1      36.600  34.035  29.525  1.00  0.00     0.010 A 
ATOM     12  C   UNL A   1      36.435  33.274  30.694  1.00  0.00    -0.014 A 
BRANCH  12  13
ATOM     13  C   UNL A   1      37.590  32.600  31.334  1.00  0.00     0.031 A 
ATOM     14  C   UNL A   1      38.272  31.430  30.687  1.00  0.00     0.074 A 
ATOM     15  C   UNL A   1      38.002  33.056  32.533  1.00  0.00     0.049 A 
ATOM     16  N   UNL A   1      39.264  30.705  31.142  1.00  0.00    -0.248 NA
ATOM     17  C   UNL A   1      37.778  31.010  29.367  1.00  0.00     0.031 C 
ATOM     18  C   UNL A   1      37.394  34.175  33.258  1.00  0.00     0.029 A 
ATOM     19  N   UNL A   1      39.016  32.641  33.356  1.00  0.00    -0.354 N 
ATOM     20  C   UNL A   1      39.499  29.733  30.178  1.00  0.00     0.074 A 
ATOM     21  C   UNL A   1      38.540  29.952  29.116  1.00  0.00     0.031 C 
ATOM     22  C   UNL A   1      38.054  34.367  34.408  1.00  0.00     0.029 A 
ATOM     23  C   UNL A   1      39.085  33.346  34.533  1.00  0.00     0.049 A 
ATOM     24  H   UNL A   1      39.634  31.910  33.127  1.00  0.00     0.167 HD
ATOM     25  C   UNL A   1      40.434  28.754  30.190  1.00  0.00     0.037 A 
ATOM     26  C   UNL A   1      39.863  33.163  35.616  1.00  0.00     0.037 A 
ATOM     27  C   UNL A   1      41.399  28.567  31.244  1.00  0.00     0.049 A 
ATOM     28  C   UNL A   1      40.863  32.043  35.608  1.00  0.00     0.074 A 
ATOM     29  C   UNL A   1      42.446  27.663  31.302  1.00  0.00     0.029 A 
ATOM     30  N   UNL A   1      41.424  29.284  32.432  1.00  0.00    -0.354 N 
ATOM     31  N   UNL A   1      41.131  31.183  34.656  1.00  0.00    -0.248 NA
ATOM     32  C   UNL A   1      41.664  31.862  36.825  1.00  0.00     0.031 C 
ATOM     33  C   UNL A   1      43.064  27.789  32.550  1.00  0.00     0.029 A 
ATOM     34  C   UNL A   1      42.437  28.807  33.249  1.00  0.00     0.049 A 
ATOM     35  H   UNL A   1      40.814  30.022  32.660  1.00  0.00     0.167 HD
ATOM     36  C   UNL A   1      42.132  30.364  35.155  1.00  0.00     0.074 A 
ATOM     37  C   UNL A   1      42.447  30.850  36.483  1.00  0.00     0.031 C 
ATOM     38  C   UNL A   1      42.730  29.298  34.571  1.00  0.00     0.037 A 
BRANCH  25  39
ATOM     39  C   UNL A   1      40.468  27.784  29.046  1.00  0.00     0.064 A 
ATOM     40  C   UNL A   1      39.658  26.641  29.020  1.00  0.00     0.173 A 
ATOM     41  C   UNL A   1      41.245  28.065  27.910  1.00  0.00     0.173 A 
ATOM     42  F   UNL A   1      38.900  26.325  30.081  1.00  0.00    -0.203 F 
ATOM     43  C   UNL A   1      39.626  25.813  27.899  1.00  0.00     0.198 A 
ATOM     44  C   UNL A   1      41.192  27.248  26.784  1.00  0.00     0.198 A 
ATOM     45  F   UNL A   1      42.032  29.151  27.882  1.00  0.00    -0.203 F 
ATOM     46  F   UNL A   1      38.855  24.716  27.901  1.00  0.00    -0.200 F 
ATOM     47  C   UNL A   1      40.383  26.123  26.780  1.00  0.00     0.200 A 
ATOM     48  F   UNL A   1      41.915  27.558  25.699  1.00  0.00    -0.200 F 
ATOM     49  F   UNL A   1      40.333  25.337  25.694  1.00  0.00    -0.200 F 
ENDBRANCH  25  39
BRANCH  26  50
ATOM     50  C   UNL A   1      39.687  34.028  36.812  1.00  0.00     0.064 A 
ATOM     51  C   UNL A   1      40.335  35.265  36.915  1.00  0.00     0.173 A 
ATOM     52  C   UNL A   1      38.871  33.626  37.881  1.00  0.00     0.173 A 
ATOM     53  F   UNL A   1      41.140  35.684  35.927  1.00  0.00    -0.203 F 
ATOM     54  C   UNL A   1      40.197  36.055  38.054  1.00  0.00     0.198 A 
ATOM     55  C   UNL A   1      38.706  34.434  39.004  1.00  0.00     0.198 A 
ATOM     56  F   UNL A   1      38.224  32.454  37.830  1.00  0.00    -0.203 F 
ATOM     57  F   UNL A   1      40.873  37.208  38.151  1.00  0.00    -0.200 F 
ATOM     58  C   UNL A   1      39.378  35.642  39.095  1.00  0.00     0.200 A 
ATOM     59  F   UNL A   1      37.899  34.038  39.997  1.00  0.00    -0.200 F 
ATOM     60  F   UNL A   1      39.245  36.404  40.189  1.00  0.00    -0.200 F 
ENDBRANCH  26  50
BRANCH  38  61
ATOM     61  C   UNL A   1      43.785  28.588  35.365  1.00  0.00     0.064 A 
ATOM     62  C   UNL A   1      43.460  27.530  36.226  1.00  0.00     0.173 A 
ATOM     63  C   UNL A   1      45.136  28.941  35.235  1.00  0.00     0.173 A 
ATOM     64  F   UNL A   1      42.179  27.170  36.400  1.00  0.00    -0.203 F 
ATOM     65  C   UNL A   1      44.449  26.864  36.944  1.00  0.00     0.198 A 
ATOM     66  C   UNL A   1      46.125  28.252  35.930  1.00  0.00     0.198 A 
ATOM     67  F   UNL A   1      45.498  29.944  34.421  1.00  0.00    -0.203 F 
ATOM     68  F   UNL A   1      44.112  25.885  37.795  1.00  0.00    -0.200 F 
ATOM     69  C   UNL A   1      45.781  27.219  36.787  1.00  0.00     0.200 A 
ATOM     70  F   UNL A   1      47.413  28.588  35.769  1.00  0.00    -0.200 F 
ATOM     71  F   UNL A   1      46.733  26.568  37.471  1.00  0.00    -0.200 F 
ENDBRANCH  38  61
ENDBRANCH  12  13
ENDBRANCH   5   7
ENDBRANCH   2   3
ENDBRANCH   1   2
BRANCH   1  72
ATOM     72  C   UNL A   1      31.737  30.549  26.748  1.00  0.00     0.023 C 
BRANCH  72  73
ATOM     73  C   UNL A   1      32.209  30.072  25.377  1.00  0.00     0.116 C 
BRANCH  73  74
ATOM     74  N   UNL A   1      31.099  29.765  24.495  1.00  0.00    -0.351 N 
ATOM     75  C   UNL A   1      30.678  28.568  24.001  1.00  0.00     0.279 C 
ATOM     76  H   UNL A   1      30.568  30.542  24.209  1.00  0.00     0.163 HD
ATOM     77  O   UNL A   1      29.750  28.580  23.186  1.00  0.00    -0.268 OA
BRANCH  75  78
ATOM     78  C   UNL A   1      31.390  27.263  24.391  1.00  0.00     0.284 C 
ATOM     79  C   UNL A   1      30.949  26.820  25.791  1.00  0.00     0.151 C 
ATOM     80  N   UNL A   1      31.049  26.234  23.369  1.00  0.00    -0.319 N 
ATOM     81  S   UNL A   1      30.488  25.082  25.644  1.00  0.00    -0.085 SA
ATOM     82  C   UNL A   1      31.227  24.910  23.992  1.00  0.00     0.303 C 
ATOM     83  H   UNL A   1      31.668  26.324  22.563  1.00  0.00     0.348 HD
ATOM     84  H   UNL A   1      30.088  26.351  23.047  1.00  0.00     0.348 HD
BRANCH  82  85
ATOM     85  C   UNL A   1      32.657  24.386  24.072  1.00  0.00     0.163 A 
ATOM     86  N   UNL A   1      33.384  24.416  25.175  1.00  0.00    -0.234 NA
ATOM     87  S   UNL A   1      33.440  23.640  22.726  1.00  0.00    -0.112 S 
ATOM     88  C   UNL A   1      34.653  23.920  24.940  1.00  0.00     0.082 A 
ATOM     89  C   UNL A   1      34.885  23.469  23.642  1.00  0.00     0.055 A 
ATOM     90  C   UNL A   1      35.697  23.847  25.883  1.00  0.00     0.030 A 
ATOM     91  C   UNL A   1      36.134  22.965  23.245  1.00  0.00     0.021 A 
ATOM     92  C   UNL A   1      36.945  23.347  25.499  1.00  0.00     0.002 A 
ATOM     93  C   UNL A   1      37.159  22.916  24.193  1.00  0.00     0.002 A 
ENDBRANCH  82  85
ENDBRANCH  75  78
ENDBRANCH  73  74
ENDBRANCH  72  73
ENDBRANCH   1  72
TORSDOF 12
ENDMDL
MODEL 3
REMARK VINA RESULT:     -12.4      5.790     11.293
REMARK SMILES O=C(NCCCCNC(=O)[C@H]1CS[C@H](c2nc3ccccc3s2)[NH2+]1)c1ccc(-c2c3nc(c(-c4c(F)c(F)c(F)c(F)c4F)c4ccc([nH]4)c(-c4c(F)c(F)c(F)c(F)c4F)c4nc(c(-c5c(F)c(F)c(F)c(F)c5F)c5ccc2[nH]5)C=C4)C=C3)cc1
REMARK SMILES IDX 5 1 4 2 3 3 1 4 2 5 25 7 26 8 87 9 27 10 86 11 28 12 29 13
REMARK SMILES IDX 30 14 80 15 31 16 85 17 79 18 81 19 32 20 84 21 78 22 77 23
REMARK SMILES IDX 33 25 65 26 45 27 64 28 46 29 49 30 63 31 82 32 47 33 48 34
REMARK SMILES IDX 62 36 83 37 50 38 34 39 35 40 43 41 36 42 37 43 41 44 44 45
REMARK SMILES IDX 38 46 39 47 42 48 40 49 66 50 67 51 75 52 68 53 69 54 73 55
REMARK SMILES IDX 76 56 70 57 71 58 74 59 72 60 51 61 52 62 60 63 53 64 54 65
REMARK SMILES IDX 58 66 61 67 55 68 56 69 59 70 57 71 6 72 7 73 8 74 9 75
REMARK SMILES IDX 10 77 11 78 12 79 24 80 13 81 14 82 15 85 16 86 23 87 17 88
REMARK SMILES IDX 22 89 18 90 21 91 19 92 20 93
REMARK H PARENT 3 6 81 24 49 35 8 76 24 83 24 84
REMARK Flexibility Score: inf
ROOT
ATOM      1  C   UNL A   1      38.124  20.008  24.973  1.00  0.00     0.023 C 
ENDROOT
BRANCH   1   2
ATOM      2  C   UNL A   1      39.123  20.169  26.111  1.00  0.00     0.116 C 
BRANCH   2   3
ATOM      3  N   UNL A   1      40.195  19.188  26.063  1.00  0.00    -0.352 N 
ATOM      4  O   UNL A   1      42.332  18.472  25.921  1.00  0.00    -0.269 OA
ATOM      5  C   UNL A   1      41.551  19.397  26.123  1.00  0.00     0.251 C 
ATOM      6  H   UNL A   1      39.912  18.250  25.974  1.00  0.00     0.163 HD
BRANCH   5   7
ATOM      7  C   UNL A   1      42.068  20.750  26.417  1.00  0.00     0.039 A 
ATOM      8  C   UNL A   1      42.298  21.661  25.382  1.00  0.00     0.014 A 
ATOM      9  C   UNL A   1      42.309  21.114  27.745  1.00  0.00     0.014 A 
ATOM     10  C   UNL A   1      42.867  22.896  25.663  1.00  0.00     0.010 A 
ATOM     11  C   UNL A   1      42.807  22.386  28.033  1.00  0.00     0.010 A 
ATOM     12  C   UNL A   1      43.096  23.284  26.993  1.00  0.00    -0.014 A 
BRANCH  12  13
ATOM     13  C   UNL A   1      43.511  24.678  27.283  1.00  0.00     0.031 A 
ATOM     14  C   UNL A   1      42.538  25.693  27.808  1.00  0.00     0.074 A 
ATOM     15  C   UNL A   1      44.792  25.018  27.042  1.00  0.00     0.049 A 
ATOM     16  N   UNL A   1      42.736  26.962  28.066  1.00  0.00    -0.248 NA
ATOM     17  C   UNL A   1      41.165  25.236  28.069  1.00  0.00     0.031 C 
ATOM     18  C   UNL A   1      45.815  24.111  26.512  1.00  0.00     0.029 A 
ATOM     19  N   UNL A   1      45.455  26.207  27.200  1.00  0.00    -0.354 N 
ATOM     20  C   UNL A   1      41.514  27.458  28.499  1.00  0.00     0.074 A 
ATOM     21  C   UNL A   1      40.574  26.358  28.459  1.00  0.00     0.031 C 
ATOM     22  C   UNL A   1      46.976  24.771  26.403  1.00  0.00     0.029 A 
ATOM     23  C   UNL A   1      46.765  26.160  26.790  1.00  0.00     0.049 A 
ATOM     24  H   UNL A   1      45.035  27.016  27.571  1.00  0.00     0.167 HD
ATOM     25  C   UNL A   1      41.216  28.720  28.892  1.00  0.00     0.037 A 
ATOM     26  C   UNL A   1      47.686  27.136  26.693  1.00  0.00     0.037 A 
ATOM     27  C   UNL A   1      42.171  29.798  28.950  1.00  0.00     0.049 A 
ATOM     28  C   UNL A   1      47.309  28.530  27.102  1.00  0.00     0.074 A 
ATOM     29  C   UNL A   1      41.988  31.085  29.425  1.00  0.00     0.029 A 
ATOM     30  N   UNL A   1      43.483  29.719  28.505  1.00  0.00    -0.354 N 
ATOM     31  N   UNL A   1      46.172  28.969  27.587  1.00  0.00    -0.248 NA
ATOM     32  C   UNL A   1      48.336  29.568  26.945  1.00  0.00     0.031 C 
ATOM     33  C   UNL A   1      43.168  31.804  29.207  1.00  0.00     0.029 A 
ATOM     34  C   UNL A   1      44.103  30.950  28.647  1.00  0.00     0.049 A 
ATOM     35  H   UNL A   1      43.910  28.909  28.142  1.00  0.00     0.167 HD
ATOM     36  C   UNL A   1      46.349  30.327  27.798  1.00  0.00     0.074 A 
ATOM     37  C   UNL A   1      47.712  30.637  27.418  1.00  0.00     0.031 C 
ATOM     38  C   UNL A   1      45.458  31.240  28.255  1.00  0.00     0.037 A 
BRANCH  25  39
ATOM     39  C   UNL A   1      39.801  29.033  29.278  1.00  0.00     0.064 A 
ATOM     40  C   UNL A   1      38.852  29.452  28.336  1.00  0.00     0.173 A 
ATOM     41  C   UNL A   1      39.364  28.802  30.594  1.00  0.00     0.173 A 
ATOM     42  F   UNL A   1      39.218  29.691  27.068  1.00  0.00    -0.203 F 
ATOM     43  C   UNL A   1      37.517  29.633  28.697  1.00  0.00     0.198 A 
ATOM     44  C   UNL A   1      38.026  28.961  30.943  1.00  0.00     0.198 A 
ATOM     45  F   UNL A   1      40.232  28.393  31.531  1.00  0.00    -0.203 F 
ATOM     46  F   UNL A   1      36.629  30.049  27.784  1.00  0.00    -0.200 F 
ATOM     47  C   UNL A   1      37.104  29.376  29.995  1.00  0.00     0.200 A 
ATOM     48  F   UNL A   1      37.627  28.699  32.196  1.00  0.00    -0.200 F 
ATOM     49  F   UNL A   1      35.816  29.527  30.335  1.00  0.00    -0.200 F 
ENDBRANCH  25  39
BRANCH  26  50
ATOM     50  C   UNL A   1      49.031  26.835  26.137  1.00  0.00     0.064 A 
ATOM     51  C   UNL A   1      49.313  27.022  24.778  1.00  0.00     0.173 A 
ATOM     52  C   UNL A   1      50.060  26.344  26.956  1.00  0.00     0.173 A 
ATOM     53  F   UNL A   1      48.357  27.472  23.951  1.00  0.00    -0.203 F 
ATOM     54  C   UNL A   1      50.564  26.703  24.253  1.00  0.00     0.198 A 
ATOM     55  C   UNL A   1      51.320  26.060  26.437  1.00  0.00     0.198 A 
ATOM     56  F   UNL A   1      49.844  26.153  28.265  1.00  0.00    -0.203 F 
ATOM     57  F   UNL A   1      50.790  26.839  22.939  1.00  0.00    -0.200 F 
ATOM     58  C   UNL A   1      51.568  26.228  25.085  1.00  0.00     0.200 A 
ATOM     59  F   UNL A   1      52.292  25.619  27.247  1.00  0.00    -0.200 F 
ATOM     60  F   UNL A   1      52.771  25.924  24.579  1.00  0.00    -0.200 F 
ENDBRANCH  26  50
BRANCH  38  61
ATOM     61  C   UNL A   1      45.934  32.658  28.370  1.00  0.00     0.064 A 
ATOM     62  C   UNL A   1      45.765  33.569  27.317  1.00  0.00     0.173 A 
ATOM     63  C   UNL A   1      46.526  33.120  29.554  1.00  0.00     0.173 A 
ATOM     64  F   UNL A   1      45.222  33.169  26.157  1.00  0.00    -0.203 F 
ATOM     65  C   UNL A   1      46.191  34.889  27.441  1.00  0.00     0.198 A 
ATOM     66  C   UNL A   1      46.922  34.447  29.685  1.00  0.00     0.198 A 
ATOM     67  F   UNL A   1      46.706  32.287  30.590  1.00  0.00    -0.203 F 
ATOM     68  F   UNL A   1      46.060  35.732  26.407  1.00  0.00    -0.200 F 
ATOM     69  C   UNL A   1      46.759  35.328  28.627  1.00  0.00     0.200 A 
ATOM     70  F   UNL A   1      47.460  34.874  30.836  1.00  0.00    -0.200 F 
ATOM     71  F   UNL A   1      47.158  36.603  28.748  1.00  0.00    -0.200 F 
ENDBRANCH  38  61
ENDBRANCH  12  13
ENDBRANCH   5   7
ENDBRANCH   2   3
ENDBRANCH   1   2
BRANCH   1  72
ATOM     72  C   UNL A   1      37.307  21.258  24.641  1.00  0.00     0.023 C 
BRANCH  72  73
ATOM     73  C   UNL A   1      36.279  21.660  25.696  1.00  0.00     0.116 C 
BRANCH  73  74
ATOM     74  N   UNL A   1      35.167  20.731  25.755  1.00  0.00    -0.351 N 
ATOM     75  C   UNL A   1      33.837  20.942  25.551  1.00  0.00     0.279 C 
ATOM     76  H   UNL A   1      35.411  19.804  25.978  1.00  0.00     0.163 HD
ATOM     77  O   UNL A   1      33.071  19.995  25.751  1.00  0.00    -0.268 OA
BRANCH  75  78
ATOM     78  C   UNL A   1      33.313  22.334  25.160  1.00  0.00     0.284 C 
ATOM     79  C   UNL A   1      33.217  22.452  23.635  1.00  0.00     0.151 C 
ATOM     80  N   UNL A   1      31.980  22.515  25.799  1.00  0.00    -0.319 N 
ATOM     81  S   UNL A   1      31.565  23.086  23.285  1.00  0.00    -0.085 SA
ATOM     82  C   UNL A   1      31.246  23.528  25.020  1.00  0.00     0.303 C 
ATOM     83  H   UNL A   1      32.095  22.834  26.761  1.00  0.00     0.348 HD
ATOM     84  H   UNL A   1      31.466  21.634  25.815  1.00  0.00     0.348 HD
BRANCH  82  85
ATOM     85  C   UNL A   1      31.600  24.985  25.298  1.00  0.00     0.163 A 
ATOM     86  N   UNL A   1      31.394  25.577  26.461  1.00  0.00    -0.234 NA
ATOM     87  S   UNL A   1      32.368  25.985  24.119  1.00  0.00    -0.112 S 
ATOM     88  C   UNL A   1      31.766  26.907  26.408  1.00  0.00     0.082 A 
ATOM     89  C   UNL A   1      32.299  27.328  25.191  1.00  0.00     0.055 A 
ATOM     90  C   UNL A   1      31.641  27.841  27.455  1.00  0.00     0.030 A 
ATOM     91  C   UNL A   1      32.694  28.657  24.975  1.00  0.00     0.021 A 
ATOM     92  C   UNL A   1      32.032  29.168  27.253  1.00  0.00     0.002 A 
ATOM     93  C   UNL A   1      32.547  29.569  26.024  1.00  0.00     0.002 A 
ENDBRANCH  82  85
ENDBRANCH  75  78
ENDBRANCH  73  74
ENDBRANCH  72  73
ENDBRANCH   1  72
TORSDOF 12
ENDMDL
