MODEL 1
REMARK VINA RESULT:     -12.8      0.000      0.000
REMARK SMILES CS(=O)(=O)Nc1ccc(-c2cc(Cl)cc3c2O[C@H](C(F)(F)F)C(C(=O)NCCCCNC(=O)c2ccc(-c4c5nc(c(-c6c(F)c(F)c(F)c(F)c6F)c6ccc([nH]6)c(-c6c(F)c(F)c(F)c(F)c6F)c6nc(c(-c7c(F)c(F)c(F)c(F)c7F)c7ccc4[nH]7)C=C6)C=C5)cc2)=C3)cc1
REMARK SMILES IDX 28 1 27 2 26 3 24 4 25 5 23 7 10 8 11 9 16 10 12 11 15 12
REMARK SMILES IDX 17 13 13 14 14 15 97 16 18 17 9 18 6 19 7 20 99 21 8 22
REMARK SMILES IDX 98 23 5 24 2 26 1 27 3 28 4 29 19 30 20 31 21 32 22 33 29 34
REMARK SMILES IDX 30 35 31 36 32 37 33 39 34 40 35 41 96 42 36 43 95 44 37 45
REMARK SMILES IDX 38 46 39 47 89 48 40 49 94 50 88 51 90 52 41 53 93 54 87 55
REMARK SMILES IDX 86 56 42 58 74 59 54 60 73 61 55 62 58 63 72 64 91 65 56 66
REMARK SMILES IDX 57 67 71 69 92 70 59 71 43 72 44 73 52 74 45 75 46 76 50 77
REMARK SMILES IDX 53 78 47 79 48 80 51 81 49 82 75 83 76 84 84 85 77 86 78 87
REMARK SMILES IDX 82 88 85 89 79 90 80 91 83 92 81 93 60 94 61 95 69 96 62 97
REMARK SMILES IDX 63 98 67 99 70 100 64 101 65 102 68 103 66 104
REMARK H PARENT 26 6 5 25 31 38 90 57 58 68
REMARK Flexibility Score: inf
ROOT
ATOM      1  C   UNL A   1      37.617  19.823  24.750  1.00  0.00     0.023 C 
ENDROOT
BRANCH   1   2
ATOM      2  C   UNL A   1      36.225  19.186  24.627  1.00  0.00     0.116 C 
BRANCH   2   3
ATOM      3  N   UNL A   1      35.261  19.982  25.354  1.00  0.00    -0.352 N 
ATOM      4  C   UNL A   1      35.392  21.200  25.925  1.00  0.00     0.251 C 
ATOM      5  O   UNL A   1      34.683  21.455  26.894  1.00  0.00    -0.270 OA
ATOM      6  H   UNL A   1      34.370  19.573  25.448  1.00  0.00     0.163 HD
BRANCH   4   7
ATOM      7  C   UNL A   1      36.290  22.210  25.286  1.00  0.00     0.067 C 
ATOM      8  C   UNL A   1      33.549  25.115  24.478  1.00  0.00     0.026 A 
ATOM      9  C   UNL A   1      32.415  24.449  23.935  1.00  0.00     0.033 A 
ATOM     10  C   UNL A   1      34.728  24.354  24.565  1.00  0.00     0.135 A 
ATOM     11  C   UNL A   1      32.491  23.189  23.347  1.00  0.00     0.042 A 
ATOM     12  C   UNL A   1      34.814  23.133  23.849  1.00  0.00     0.019 A 
ATOM     13  O   UNL A   1      35.801  24.697  25.375  1.00  0.00    -0.475 OA
ATOM     14  Cl  UNL A   1      31.064  22.437  22.754  1.00  0.00    -0.084 Cl
ATOM     15  C   UNL A   1      33.710  22.558  23.225  1.00  0.00     0.032 A 
ATOM     16  C   UNL A   1      36.064  22.348  23.965  1.00  0.00     0.025 C 
ATOM     17  C   UNL A   1      36.442  23.523  26.050  1.00  0.00     0.314 C 
BRANCH   8  18
ATOM     18  C   UNL A   1      33.366  26.585  24.655  1.00  0.00    -0.014 A 
ATOM     19  C   UNL A   1      31.856  28.970  24.252  1.00  0.00     0.048 A 
ATOM     20  C   UNL A   1      31.718  28.223  25.426  1.00  0.00     0.027 A 
ATOM     21  C   UNL A   1      32.877  28.623  23.370  1.00  0.00     0.027 A 
ATOM     22  C   UNL A   1      32.485  27.069  25.643  1.00  0.00     0.011 A 
ATOM     23  C   UNL A   1      33.631  27.446  23.573  1.00  0.00     0.011 A 
BRANCH  19  24
ATOM     24  N   UNL A   1      30.802  29.885  23.960  1.00  0.00    -0.284 N 
ATOM     25  H   UNL A   1      30.862  30.768  24.393  1.00  0.00     0.180 HD
BRANCH  24  26
ATOM     26  S   UNL A   1      29.485  29.641  22.977  1.00  0.00     0.229 S 
ATOM     27  C   UNL A   1      28.437  31.050  23.297  1.00  0.00     0.183 C 
ATOM     28  O   UNL A   1      28.794  28.434  23.379  1.00  0.00    -0.207 OA
ATOM     29  O   UNL A   1      29.996  29.794  21.631  1.00  0.00    -0.207 OA
ENDBRANCH  24  26
ENDBRANCH  19  24
ENDBRANCH   8  18
BRANCH  17  30
ATOM     30  C   UNL A   1      37.950  23.761  26.299  1.00  0.00     0.429 C 
ATOM     31  F   UNL A   1      38.701  22.667  26.049  1.00  0.00    -0.167 F 
ATOM     32  F   UNL A   1      38.420  24.771  25.529  1.00  0.00    -0.167 F 
ATOM     33  F   UNL A   1      38.211  24.120  27.586  1.00  0.00    -0.167 F 
ENDBRANCH  17  30
ENDBRANCH   4   7
ENDBRANCH   2   3
ENDBRANCH   1   2
BRANCH   1  34
ATOM     34  C   UNL A   1      38.694  18.928  25.380  1.00  0.00     0.023 C 
BRANCH  34  35
ATOM     35  C   UNL A   1      39.755  19.672  26.180  1.00  0.00     0.116 C 
BRANCH  35  36
ATOM     36  N   UNL A   1      41.039  18.992  26.143  1.00  0.00    -0.352 N 
ATOM     37  C   UNL A   1      42.302  19.532  26.151  1.00  0.00     0.251 C 
ATOM     38  H   UNL A   1      40.998  18.009  26.110  1.00  0.00     0.163 HD
ATOM     39  O   UNL A   1      43.279  18.828  25.918  1.00  0.00    -0.269 OA
BRANCH  37  40
ATOM     40  C   UNL A   1      42.478  20.975  26.419  1.00  0.00     0.039 A 
ATOM     41  C   UNL A   1      42.716  21.402  27.727  1.00  0.00     0.014 A 
ATOM     42  C   UNL A   1      42.415  21.903  25.377  1.00  0.00     0.014 A 
ATOM     43  C   UNL A   1      42.954  22.755  27.982  1.00  0.00     0.010 A 
ATOM     44  C   UNL A   1      42.729  23.236  25.619  1.00  0.00     0.010 A 
ATOM     45  C   UNL A   1      42.996  23.678  26.925  1.00  0.00    -0.014 A 
BRANCH  45  46
ATOM     46  C   UNL A   1      43.292  25.116  27.153  1.00  0.00     0.031 A 
ATOM     47  C   UNL A   1      44.665  25.650  26.849  1.00  0.00     0.074 A 
ATOM     48  C   UNL A   1      42.362  25.918  27.705  1.00  0.00     0.049 A 
ATOM     49  N   UNL A   1      45.169  26.833  27.095  1.00  0.00    -0.248 NA
ATOM     50  C   UNL A   1      45.609  24.717  26.212  1.00  0.00     0.031 C 
ATOM     51  C   UNL A   1      41.006  25.513  28.075  1.00  0.00     0.029 A 
ATOM     52  N   UNL A   1      42.424  27.241  28.070  1.00  0.00    -0.354 N 
ATOM     53  C   UNL A   1      46.489  26.777  26.664  1.00  0.00     0.074 A 
ATOM     54  C   UNL A   1      46.724  25.431  26.192  1.00  0.00     0.031 C 
ATOM     55  C   UNL A   1      40.359  26.566  28.601  1.00  0.00     0.029 A 
ATOM     56  C   UNL A   1      41.269  27.708  28.650  1.00  0.00     0.049 A 
ATOM     57  H   UNL A   1      43.221  27.802  27.931  1.00  0.00     0.167 HD
ATOM     58  C   UNL A   1      47.413  27.767  26.643  1.00  0.00     0.037 A 
ATOM     59  C   UNL A   1      40.983  28.915  29.176  1.00  0.00     0.037 A 
ATOM     60  C   UNL A   1      47.165  29.113  27.088  1.00  0.00     0.049 A 
ATOM     61  C   UNL A   1      42.034  29.993  29.157  1.00  0.00     0.074 A 
ATOM     62  C   UNL A   1      48.019  30.201  27.061  1.00  0.00     0.029 A 
ATOM     63  N   UNL A   1      45.972  29.553  27.643  1.00  0.00    -0.354 N 
ATOM     64  N   UNL A   1      43.260  29.946  28.695  1.00  0.00    -0.248 NA
ATOM     65  C   UNL A   1      41.661  31.295  29.728  1.00  0.00     0.031 C 
ATOM     66  C   UNL A   1      47.362  31.287  27.647  1.00  0.00     0.029 A 
ATOM     67  C   UNL A   1      46.075  30.893  27.980  1.00  0.00     0.049 A 
ATOM     68  H   UNL A   1      45.171  28.996  27.778  1.00  0.00     0.167 HD
ATOM     69  C   UNL A   1      43.787  31.217  28.878  1.00  0.00     0.074 A 
ATOM     70  C   UNL A   1      42.748  32.017  29.491  1.00  0.00     0.031 C 
ATOM     71  C   UNL A   1      45.021  31.683  28.562  1.00  0.00     0.037 A 
BRANCH  58  72
ATOM     72  C   UNL A   1      48.782  27.432  26.123  1.00  0.00     0.064 A 
ATOM     73  C   UNL A   1      49.823  27.047  26.983  1.00  0.00     0.173 A 
ATOM     74  C   UNL A   1      49.047  27.459  24.745  1.00  0.00     0.173 A 
ATOM     75  F   UNL A   1      49.627  27.015  28.309  1.00  0.00    -0.203 F 
ATOM     76  C   UNL A   1      51.084  26.732  26.484  1.00  0.00     0.198 A 
ATOM     77  C   UNL A   1      50.299  27.109  24.248  1.00  0.00     0.198 A 
ATOM     78  F   UNL A   1      48.087  27.814  23.879  1.00  0.00    -0.203 F 
ATOM     79  F   UNL A   1      52.077  26.418  27.328  1.00  0.00    -0.200 F 
ATOM     80  C   UNL A   1      51.318  26.754  25.118  1.00  0.00     0.200 A 
ATOM     81  F   UNL A   1      50.520  27.117  22.926  1.00  0.00    -0.200 F 
ATOM     82  F   UNL A   1      52.531  26.442  24.639  1.00  0.00    -0.200 F 
ENDBRANCH  58  72
BRANCH  59  83
ATOM     83  C   UNL A   1      39.636  29.178  29.753  1.00  0.00     0.064 A 
ATOM     84  C   UNL A   1      38.613  29.729  28.969  1.00  0.00     0.173 A 
ATOM     85  C   UNL A   1      39.350  28.905  31.098  1.00  0.00     0.173 A 
ATOM     86  F   UNL A   1      38.842  30.027  27.682  1.00  0.00    -0.203 F 
ATOM     87  C   UNL A   1      37.364  30.021  29.514  1.00  0.00     0.198 A 
ATOM     88  C   UNL A   1      38.090  29.168  31.635  1.00  0.00     0.198 A 
ATOM     89  F   UNL A   1      40.291  28.373  31.891  1.00  0.00    -0.203 F 
ATOM     90  F   UNL A   1      36.423  30.598  28.755  1.00  0.00    -0.200 F 
ATOM     91  C   UNL A   1      37.103  29.736  30.845  1.00  0.00     0.200 A 
ATOM     92  F   UNL A   1      37.837  28.877  32.918  1.00  0.00    -0.200 F 
ATOM     93  F   UNL A   1      35.902  30.017  31.369  1.00  0.00    -0.200 F 
ENDBRANCH  59  83
BRANCH  71  94
ATOM     94  C   UNL A   1      45.301  33.138  28.804  1.00  0.00     0.064 A 
ATOM     95  C   UNL A   1      45.873  33.595  29.999  1.00  0.00     0.173 A 
ATOM     96  C   UNL A   1      45.054  34.078  27.791  1.00  0.00     0.173 A 
ATOM     97  F   UNL A   1      46.116  32.740  31.004  1.00  0.00    -0.203 F 
ATOM     98  C   UNL A   1      46.169  34.945  30.179  1.00  0.00     0.198 A 
ATOM     99  C   UNL A   1      45.382  35.420  27.961  1.00  0.00     0.198 A 
ATOM    100  F   UNL A   1      44.516  33.690  26.625  1.00  0.00    -0.203 F 
ATOM    101  F   UNL A   1      46.677  35.368  31.345  1.00  0.00    -0.200 F 
ATOM    102  C   UNL A   1      45.933  35.852  29.157  1.00  0.00     0.200 A 
ATOM    103  F   UNL A   1      45.169  36.291  26.966  1.00  0.00    -0.200 F 
ATOM    104  F   UNL A   1      46.235  37.148  29.327  1.00  0.00    -0.200 F 
ENDBRANCH  71  94
ENDBRANCH  45  46
ENDBRANCH  37  40
ENDBRANCH  35  36
ENDBRANCH  34  35
ENDBRANCH   1  34
TORSDOF 15
ENDMDL
MODEL 2
REMARK VINA RESULT:     -12.6      5.852     11.607
REMARK SMILES CS(=O)(=O)Nc1ccc(-c2cc(Cl)cc3c2O[C@H](C(F)(F)F)C(C(=O)NCCCCNC(=O)c2ccc(-c4c5nc(c(-c6c(F)c(F)c(F)c(F)c6F)c6ccc([nH]6)c(-c6c(F)c(F)c(F)c(F)c6F)c6nc(c(-c7c(F)c(F)c(F)c(F)c7F)c7ccc4[nH]7)C=C6)C=C5)cc2)=C3)cc1
REMARK SMILES IDX 28 1 27 2 26 3 24 4 25 5 23 7 10 8 11 9 16 10 12 11 15 12
REMARK SMILES IDX 17 13 13 14 14 15 97 16 18 17 9 18 6 19 7 20 99 21 8 22
REMARK SMILES IDX 98 23 5 24 2 26 1 27 3 28 4 29 19 30 20 31 21 32 22 33 29 34
REMARK SMILES IDX 30 35 31 36 32 37 33 39 34 40 35 41 96 42 36 43 95 44 37 45
REMARK SMILES IDX 38 46 39 47 89 48 40 49 94 50 88 51 90 52 41 53 93 54 87 55
REMARK SMILES IDX 86 56 42 58 74 59 54 60 73 61 55 62 58 63 72 64 91 65 56 66
REMARK SMILES IDX 57 67 71 69 92 70 59 71 43 72 44 73 52 74 45 75 46 76 50 77
REMARK SMILES IDX 53 78 47 79 48 80 51 81 49 82 75 83 76 84 84 85 77 86 78 87
REMARK SMILES IDX 82 88 85 89 79 90 80 91 83 92 81 93 60 94 61 95 69 96 62 97
REMARK SMILES IDX 63 98 67 99 70 100 64 101 65 102 68 103 66 104
REMARK H PARENT 26 6 5 25 31 38 90 57 58 68
REMARK Flexibility Score: inf
ROOT
ATOM      1  C   UNL A   1      36.659  33.954  29.089  1.00  0.00     0.023 C 
ENDROOT
BRANCH   1   2
ATOM      2  C   UNL A   1      37.655  32.871  29.529  1.00  0.00     0.116 C 
BRANCH   2   3
ATOM      3  N   UNL A   1      38.410  33.341  30.670  1.00  0.00    -0.352 N 
ATOM      4  C   UNL A   1      37.982  33.792  31.870  1.00  0.00     0.251 C 
ATOM      5  O   UNL A   1      38.693  34.598  32.462  1.00  0.00    -0.270 OA
ATOM      6  H   UNL A   1      39.388  33.330  30.555  1.00  0.00     0.163 HD
BRANCH   4   7
ATOM      7  C   UNL A   1      36.744  33.205  32.469  1.00  0.00     0.067 C 
ATOM      8  C   UNL A   1      38.332  31.660  35.889  1.00  0.00     0.026 A 
ATOM      9  C   UNL A   1      39.540  31.012  35.506  1.00  0.00     0.033 A 
ATOM     10  C   UNL A   1      37.466  32.017  34.841  1.00  0.00     0.135 A 
ATOM     11  C   UNL A   1      39.785  30.581  34.206  1.00  0.00     0.042 A 
ATOM     12  C   UNL A   1      37.673  31.458  33.554  1.00  0.00     0.019 A 
ATOM     13  O   UNL A   1      36.449  32.951  34.975  1.00  0.00    -0.475 OA
ATOM     14  Cl  UNL A   1      41.289  29.845  33.820  1.00  0.00    -0.084 Cl
ATOM     15  C   UNL A   1      38.815  30.726  33.238  1.00  0.00     0.032 A 
ATOM     16  C   UNL A   1      36.751  31.858  32.468  1.00  0.00     0.025 C 
ATOM     17  C   UNL A   1      36.290  33.841  33.780  1.00  0.00     0.314 C 
BRANCH   8  18
ATOM     18  C   UNL A   1      38.072  31.649  37.358  1.00  0.00    -0.014 A 
ATOM     19  C   UNL A   1      36.331  32.053  39.579  1.00  0.00     0.048 A 
ATOM     20  C   UNL A   1      36.481  30.787  39.007  1.00  0.00     0.027 A 
ATOM     21  C   UNL A   1      37.187  33.069  39.158  1.00  0.00     0.027 A 
ATOM     22  C   UNL A   1      37.364  30.577  37.937  1.00  0.00     0.011 A 
ATOM     23  C   UNL A   1      38.055  32.867  38.064  1.00  0.00     0.011 A 
BRANCH  19  24
ATOM     24  N   UNL A   1      35.173  32.246  40.388  1.00  0.00    -0.284 N 
ATOM     25  H   UNL A   1      34.309  32.244  39.917  1.00  0.00     0.180 HD
BRANCH  24  26
ATOM     26  S   UNL A   1      35.107  32.475  42.033  1.00  0.00     0.229 S 
ATOM     27  C   UNL A   1      36.624  31.749  42.634  1.00  0.00     0.183 C 
ATOM     28  O   UNL A   1      33.983  31.748  42.582  1.00  0.00    -0.207 OA
ATOM     29  O   UNL A   1      35.227  33.907  42.211  1.00  0.00    -0.207 OA
ENDBRANCH  24  26
ENDBRANCH  19  24
ENDBRANCH   8  18
BRANCH  17  30
ATOM     30  C   UNL A   1      34.826  34.307  33.606  1.00  0.00     0.429 C 
ATOM     31  F   UNL A   1      33.931  33.325  33.852  1.00  0.00    -0.167 F 
ATOM     32  F   UNL A   1      34.540  35.344  34.430  1.00  0.00    -0.167 F 
ATOM     33  F   UNL A   1      34.571  34.751  32.345  1.00  0.00    -0.167 F 
ENDBRANCH  17  30
ENDBRANCH   4   7
ENDBRANCH   2   3
ENDBRANCH   1   2
BRANCH   1  34
ATOM     34  C   UNL A   1      35.283  33.438  28.644  1.00  0.00     0.023 C 
BRANCH  34  35
ATOM     35  C   UNL A   1      34.774  32.227  29.414  1.00  0.00     0.116 C 
BRANCH  35  36
ATOM     36  N   UNL A   1      34.231  31.211  28.529  1.00  0.00    -0.352 N 
ATOM     37  C   UNL A   1      34.881  30.178  27.899  1.00  0.00     0.251 C 
ATOM     38  H   UNL A   1      33.263  31.270  28.359  1.00  0.00     0.163 HD
ATOM     39  O   UNL A   1      34.313  29.526  27.030  1.00  0.00    -0.269 OA
BRANCH  37  40
ATOM     40  C   UNL A   1      36.282  29.870  28.258  1.00  0.00     0.039 A 
ATOM     41  C   UNL A   1      36.563  29.345  29.520  1.00  0.00     0.014 A 
ATOM     42  C   UNL A   1      37.314  30.094  27.343  1.00  0.00     0.014 A 
ATOM     43  C   UNL A   1      37.873  28.984  29.845  1.00  0.00     0.010 A 
ATOM     44  C   UNL A   1      38.603  29.662  27.637  1.00  0.00     0.010 A 
ATOM     45  C   UNL A   1      38.899  29.108  28.893  1.00  0.00    -0.014 A 
BRANCH  45  46
ATOM     46  C   UNL A   1      40.294  28.692  29.188  1.00  0.00     0.031 A 
ATOM     47  C   UNL A   1      41.218  29.640  29.902  1.00  0.00     0.074 A 
ATOM     48  C   UNL A   1      40.753  27.505  28.747  1.00  0.00     0.049 A 
ATOM     49  N   UNL A   1      42.500  29.528  30.141  1.00  0.00    -0.248 NA
ATOM     50  C   UNL A   1      40.626  30.899  30.384  1.00  0.00     0.031 C 
ATOM     51  C   UNL A   1      39.966  26.512  28.015  1.00  0.00     0.029 A 
ATOM     52  N   UNL A   1      42.002  26.940  28.834  1.00  0.00    -0.354 N 
ATOM     53  C   UNL A   1      42.869  30.706  30.778  1.00  0.00     0.074 A 
ATOM     54  C   UNL A   1      41.690  31.541  30.841  1.00  0.00     0.031 C 
ATOM     55  C   UNL A   1      40.746  25.455  27.731  1.00  0.00     0.029 A 
ATOM     56  C   UNL A   1      42.098  25.715  28.219  1.00  0.00     0.049 A 
ATOM     57  H   UNL A   1      42.759  27.372  29.292  1.00  0.00     0.167 HD
ATOM     58  C   UNL A   1      44.076  31.049  31.286  1.00  0.00     0.037 A 
ATOM     59  C   UNL A   1      43.160  24.902  28.053  1.00  0.00     0.037 A 
ATOM     60  C   UNL A   1      45.240  30.203  31.246  1.00  0.00     0.049 A 
ATOM     61  C   UNL A   1      44.496  25.316  28.610  1.00  0.00     0.074 A 
ATOM     62  C   UNL A   1      46.495  30.438  31.777  1.00  0.00     0.029 A 
ATOM     63  N   UNL A   1      45.288  28.957  30.638  1.00  0.00    -0.354 N 
ATOM     64  N   UNL A   1      44.820  26.408  29.261  1.00  0.00    -0.248 NA
ATOM     65  C   UNL A   1      45.615  24.383  28.416  1.00  0.00     0.031 C 
ATOM     66  C   UNL A   1      47.319  29.358  31.446  1.00  0.00     0.029 A 
ATOM     67  C   UNL A   1      46.558  28.420  30.765  1.00  0.00     0.049 A 
ATOM     68  H   UNL A   1      44.531  28.519  30.184  1.00  0.00     0.167 HD
ATOM     69  C   UNL A   1      46.162  26.272  29.591  1.00  0.00     0.074 A 
ATOM     70  C   UNL A   1      46.593  24.992  29.071  1.00  0.00     0.031 C 
ATOM     71  C   UNL A   1      46.964  27.130  30.268  1.00  0.00     0.037 A 
BRANCH  58  72
ATOM     72  C   UNL A   1      44.204  32.402  31.928  1.00  0.00     0.064 A 
ATOM     73  C   UNL A   1      44.096  32.570  33.318  1.00  0.00     0.173 A 
ATOM     74  C   UNL A   1      44.476  33.537  31.150  1.00  0.00     0.173 A 
ATOM     75  F   UNL A   1      43.825  31.521  34.107  1.00  0.00    -0.203 F 
ATOM     76  C   UNL A   1      44.224  33.829  33.898  1.00  0.00     0.198 A 
ATOM     77  C   UNL A   1      44.639  34.788  31.738  1.00  0.00     0.198 A 
ATOM     78  F   UNL A   1      44.596  33.432  29.818  1.00  0.00    -0.203 F 
ATOM     79  F   UNL A   1      44.064  33.974  35.221  1.00  0.00    -0.200 F 
ATOM     80  C   UNL A   1      44.505  34.934  33.110  1.00  0.00     0.200 A 
ATOM     81  F   UNL A   1      44.926  35.853  30.976  1.00  0.00    -0.200 F 
ATOM     82  F   UNL A   1      44.637  36.145  33.672  1.00  0.00    -0.200 F 
ENDBRANCH  58  72
BRANCH  59  83
ATOM     83  C   UNL A   1      43.003  23.605  27.340  1.00  0.00     0.064 A 
ATOM     84  C   UNL A   1      42.442  22.494  27.983  1.00  0.00     0.173 A 
ATOM     85  C   UNL A   1      43.427  23.444  26.013  1.00  0.00     0.173 A 
ATOM     86  F   UNL A   1      42.040  22.591  29.259  1.00  0.00    -0.203 F 
ATOM     87  C   UNL A   1      42.336  21.264  27.337  1.00  0.00     0.198 A 
ATOM     88  C   UNL A   1      43.290  22.222  25.356  1.00  0.00     0.198 A 
ATOM     89  F   UNL A   1      43.966  24.477  25.349  1.00  0.00    -0.203 F 
ATOM     90  F   UNL A   1      41.846  20.204  27.995  1.00  0.00    -0.200 F 
ATOM     91  C   UNL A   1      42.756  21.130  26.023  1.00  0.00     0.200 A 
ATOM     92  F   UNL A   1      43.684  22.100  24.081  1.00  0.00    -0.200 F 
ATOM     93  F   UNL A   1      42.653  19.947  25.401  1.00  0.00    -0.200 F 
ENDBRANCH  59  83
BRANCH  71  94
ATOM     94  C   UNL A   1      48.372  26.692  30.553  1.00  0.00     0.064 A 
ATOM     95  C   UNL A   1      48.685  25.849  31.627  1.00  0.00     0.173 A 
ATOM     96  C   UNL A   1      49.412  27.073  29.690  1.00  0.00     0.173 A 
ATOM     97  F   UNL A   1      47.730  25.468  32.489  1.00  0.00    -0.203 F 
ATOM     98  C   UNL A   1      49.993  25.418  31.840  1.00  0.00     0.198 A 
ATOM     99  C   UNL A   1      50.711  26.613  29.886  1.00  0.00     0.198 A 
ATOM    100  F   UNL A   1      49.164  27.872  28.641  1.00  0.00    -0.203 F 
ATOM    101  F   UNL A   1      50.278  24.646  32.897  1.00  0.00    -0.200 F 
ATOM    102  C   UNL A   1      51.001  25.792  30.964  1.00  0.00     0.200 A 
ATOM    103  F   UNL A   1      51.680  26.961  29.028  1.00  0.00    -0.200 F 
ATOM    104  F   UNL A   1      52.255  25.361  31.161  1.00  0.00    -0.200 F 
ENDBRANCH  71  94
ENDBRANCH  45  46
ENDBRANCH  37  40
ENDBRANCH  35  36
ENDBRANCH  34  35
ENDBRANCH   1  34
TORSDOF 15
ENDMDL
MODEL 3
REMARK VINA RESULT:     -12.5      5.202     11.573
REMARK SMILES CS(=O)(=O)Nc1ccc(-c2cc(Cl)cc3c2O[C@H](C(F)(F)F)C(C(=O)NCCCCNC(=O)c2ccc(-c4c5nc(c(-c6c(F)c(F)c(F)c(F)c6F)c6ccc([nH]6)c(-c6c(F)c(F)c(F)c(F)c6F)c6nc(c(-c7c(F)c(F)c(F)c(F)c7F)c7ccc4[nH]7)C=C6)C=C5)cc2)=C3)cc1
REMARK SMILES IDX 28 1 27 2 26 3 24 4 25 5 23 7 10 8 11 9 16 10 12 11 15 12
REMARK SMILES IDX 17 13 13 14 14 15 97 16 18 17 9 18 6 19 7 20 99 21 8 22
REMARK SMILES IDX 98 23 5 24 2 26 1 27 3 28 4 29 19 30 20 31 21 32 22 33 29 34
REMARK SMILES IDX 30 35 31 36 32 37 33 39 34 40 35 41 96 42 36 43 95 44 37 45
REMARK SMILES IDX 38 46 39 47 89 48 40 49 94 50 88 51 90 52 41 53 93 54 87 55
REMARK SMILES IDX 86 56 42 58 74 59 54 60 73 61 55 62 58 63 72 64 91 65 56 66
REMARK SMILES IDX 57 67 71 69 92 70 59 71 43 72 44 73 52 74 45 75 46 76 50 77
REMARK SMILES IDX 53 78 47 79 48 80 51 81 49 82 75 83 76 84 84 85 77 86 78 87
REMARK SMILES IDX 82 88 85 89 79 90 80 91 83 92 81 93 60 94 61 95 69 96 62 97
REMARK SMILES IDX 63 98 67 99 70 100 64 101 65 102 68 103 66 104
REMARK H PARENT 26 6 5 25 31 38 90 57 58 68
REMARK Flexibility Score: inf
ROOT
ATOM      1  C   UNL A   1      34.053  34.443  30.716  1.00  0.00     0.023 C 
ENDROOT
BRANCH   1   2
ATOM      2  C   UNL A   1      34.524  35.258  31.930  1.00  0.00     0.116 C 
BRANCH   2   3
ATOM      3  N   UNL A   1      34.738  34.374  33.055  1.00  0.00    -0.352 N 
ATOM      4  C   UNL A   1      35.798  33.594  33.359  1.00  0.00     0.251 C 
ATOM      5  O   UNL A   1      35.588  32.578  34.015  1.00  0.00    -0.270 OA
ATOM      6  H   UNL A   1      33.994  34.335  33.699  1.00  0.00     0.163 HD
BRANCH   4   7
ATOM      7  C   UNL A   1      37.172  34.060  32.997  1.00  0.00     0.067 C 
ATOM      8  C   UNL A   1      39.365  31.261  34.987  1.00  0.00     0.026 A 
ATOM      9  C   UNL A   1      38.769  31.133  36.273  1.00  0.00     0.033 A 
ATOM     10  C   UNL A   1      38.959  32.373  34.228  1.00  0.00     0.135 A 
ATOM     11  C   UNL A   1      37.978  32.128  36.841  1.00  0.00     0.042 A 
ATOM     12  C   UNL A   1      38.262  33.428  34.870  1.00  0.00     0.019 A 
ATOM     13  O   UNL A   1      39.141  32.468  32.856  1.00  0.00    -0.475 OA
ATOM     14  Cl  UNL A   1      37.262  31.873  38.381  1.00  0.00    -0.084 Cl
ATOM     15  C   UNL A   1      37.789  33.320  36.175  1.00  0.00     0.032 A 
ATOM     16  C   UNL A   1      37.839  34.582  34.045  1.00  0.00     0.025 C 
ATOM     17  C   UNL A   1      37.983  33.092  32.140  1.00  0.00     0.314 C 
BRANCH   8  18
ATOM     18  C   UNL A   1      40.499  30.322  34.744  1.00  0.00    -0.014 A 
ATOM     19  C   UNL A   1      41.625  27.705  34.840  1.00  0.00     0.048 A 
ATOM     20  C   UNL A   1      41.002  28.175  33.680  1.00  0.00     0.027 A 
ATOM     21  C   UNL A   1      41.843  28.606  35.879  1.00  0.00     0.027 A 
ATOM     22  C   UNL A   1      40.478  29.475  33.618  1.00  0.00     0.011 A 
ATOM     23  C   UNL A   1      41.293  29.906  35.829  1.00  0.00     0.011 A 
BRANCH  19  24
ATOM     24  N   UNL A   1      41.788  26.292  34.939  1.00  0.00    -0.284 N 
ATOM     25  H   UNL A   1      40.960  25.763  35.003  1.00  0.00     0.180 HD
BRANCH  24  26
ATOM     26  S   UNL A   1      43.209  25.430  34.960  1.00  0.00     0.229 S 
ATOM     27  C   UNL A   1      42.683  23.727  35.062  1.00  0.00     0.183 C 
ATOM     28  O   UNL A   1      43.965  25.765  36.147  1.00  0.00    -0.207 OA
ATOM     29  O   UNL A   1      43.773  25.617  33.640  1.00  0.00    -0.207 OA
ENDBRANCH  24  26
ENDBRANCH  19  24
ENDBRANCH   8  18
BRANCH  17  30
ATOM     30  C   UNL A   1      38.437  33.844  30.867  1.00  0.00     0.429 C 
ATOM     31  F   UNL A   1      37.667  34.920  30.592  1.00  0.00    -0.167 F 
ATOM     32  F   UNL A   1      39.718  34.270  30.980  1.00  0.00    -0.167 F 
ATOM     33  F   UNL A   1      38.402  33.055  29.759  1.00  0.00    -0.167 F 
ENDBRANCH  17  30
ENDBRANCH   4   7
ENDBRANCH   2   3
ENDBRANCH   1   2
BRANCH   1  34
ATOM     34  C   UNL A   1      34.593  33.008  30.640  1.00  0.00     0.023 C 
BRANCH  34  35
ATOM     35  C   UNL A   1      35.213  32.627  29.303  1.00  0.00     0.116 C 
BRANCH  35  36
ATOM     36  N   UNL A   1      34.403  31.657  28.585  1.00  0.00    -0.352 N 
ATOM     37  C   UNL A   1      34.788  30.473  28.004  1.00  0.00     0.251 C 
ATOM     38  H   UNL A   1      33.447  31.877  28.506  1.00  0.00     0.163 HD
ATOM     39  O   UNL A   1      34.019  29.866  27.267  1.00  0.00    -0.269 OA
BRANCH  37  40
ATOM     40  C   UNL A   1      36.147  29.945  28.253  1.00  0.00     0.039 A 
ATOM     41  C   UNL A   1      37.120  30.074  27.260  1.00  0.00     0.014 A 
ATOM     42  C   UNL A   1      36.457  29.331  29.468  1.00  0.00     0.014 A 
ATOM     43  C   UNL A   1      38.425  29.643  27.510  1.00  0.00     0.010 A 
ATOM     44  C   UNL A   1      37.773  28.975  29.744  1.00  0.00     0.010 A 
ATOM     45  C   UNL A   1      38.771  29.121  28.767  1.00  0.00    -0.014 A 
BRANCH  45  46
ATOM     46  C   UNL A   1      40.159  28.696  29.083  1.00  0.00     0.031 A 
ATOM     47  C   UNL A   1      41.080  29.641  29.803  1.00  0.00     0.074 A 
ATOM     48  C   UNL A   1      40.614  27.503  28.655  1.00  0.00     0.049 A 
ATOM     49  N   UNL A   1      42.358  29.521  30.060  1.00  0.00    -0.248 NA
ATOM     50  C   UNL A   1      40.492  30.907  30.270  1.00  0.00     0.031 C 
ATOM     51  C   UNL A   1      39.830  26.511  27.919  1.00  0.00     0.029 A 
ATOM     52  N   UNL A   1      41.858  26.929  28.762  1.00  0.00    -0.354 N 
ATOM     53  C   UNL A   1      42.728  30.700  30.695  1.00  0.00     0.074 A 
ATOM     54  C   UNL A   1      41.555  31.545  30.736  1.00  0.00     0.031 C 
ATOM     55  C   UNL A   1      40.605  25.446  27.653  1.00  0.00     0.029 A 
ATOM     56  C   UNL A   1      41.952  25.699  28.157  1.00  0.00     0.049 A 
ATOM     57  H   UNL A   1      42.612  27.358  29.228  1.00  0.00     0.167 HD
ATOM     58  C   UNL A   1      43.931  31.038  31.216  1.00  0.00     0.037 A 
ATOM     59  C   UNL A   1      43.010  24.877  28.010  1.00  0.00     0.037 A 
ATOM     60  C   UNL A   1      45.088  30.183  31.197  1.00  0.00     0.049 A 
ATOM     61  C   UNL A   1      44.342  25.285  28.582  1.00  0.00     0.074 A 
ATOM     62  C   UNL A   1      46.339  30.411  31.743  1.00  0.00     0.029 A 
ATOM     63  N   UNL A   1      45.135  28.932  30.597  1.00  0.00    -0.354 N 
ATOM     64  N   UNL A   1      44.666  26.378  29.230  1.00  0.00    -0.248 NA
ATOM     65  C   UNL A   1      45.456  24.342  28.408  1.00  0.00     0.031 C 
ATOM     66  C   UNL A   1      47.158  29.323  31.429  1.00  0.00     0.029 A 
ATOM     67  C   UNL A   1      46.400  28.386  30.744  1.00  0.00     0.049 A 
ATOM     68  H   UNL A   1      44.381  28.497  30.137  1.00  0.00     0.167 HD
ATOM     69  C   UNL A   1      46.002  26.234  29.579  1.00  0.00     0.074 A 
ATOM     70  C   UNL A   1      46.430  24.947  29.073  1.00  0.00     0.031 C 
ATOM     71  C   UNL A   1      46.802  27.090  30.261  1.00  0.00     0.037 A 
BRANCH  58  72
ATOM     72  C   UNL A   1      44.061  32.393  31.851  1.00  0.00     0.064 A 
ATOM     73  C   UNL A   1      44.372  33.535  31.095  1.00  0.00     0.173 A 
ATOM     74  C   UNL A   1      43.833  32.560  33.226  1.00  0.00     0.173 A 
ATOM     75  F   UNL A   1      44.610  33.430  29.780  1.00  0.00    -0.203 F 
ATOM     76  C   UNL A   1      44.481  34.785  31.698  1.00  0.00     0.198 A 
ATOM     77  C   UNL A   1      43.909  33.818  33.818  1.00  0.00     0.198 A 
ATOM     78  F   UNL A   1      43.526  31.504  33.994  1.00  0.00    -0.203 F 
ATOM     79  F   UNL A   1      44.832  35.851  30.966  1.00  0.00    -0.200 F 
ATOM     80  C   UNL A   1      44.240  34.927  33.056  1.00  0.00     0.200 A 
ATOM     81  F   UNL A   1      43.660  33.955  35.129  1.00  0.00    -0.200 F 
ATOM     82  F   UNL A   1      44.337  36.134  33.633  1.00  0.00    -0.200 F 
ENDBRANCH  58  72
BRANCH  59  83
ATOM     83  C   UNL A   1      42.853  23.577  27.303  1.00  0.00     0.064 A 
ATOM     84  C   UNL A   1      42.303  22.465  27.955  1.00  0.00     0.173 A 
ATOM     85  C   UNL A   1      43.265  23.413  25.972  1.00  0.00     0.173 A 
ATOM     86  F   UNL A   1      41.913  22.565  29.234  1.00  0.00    -0.203 F 
ATOM     87  C   UNL A   1      42.197  21.232  27.315  1.00  0.00     0.198 A 
ATOM     88  C   UNL A   1      43.128  22.188  25.321  1.00  0.00     0.198 A 
ATOM     89  F   UNL A   1      43.793  24.446  25.300  1.00  0.00    -0.203 F 
ATOM     90  F   UNL A   1      41.718  20.173  27.981  1.00  0.00    -0.200 F 
ATOM     91  C   UNL A   1      42.605  21.096  25.997  1.00  0.00     0.200 A 
ATOM     92  F   UNL A   1      43.510  22.064  24.043  1.00  0.00    -0.200 F 
ATOM     93  F   UNL A   1      42.501  19.911  25.381  1.00  0.00    -0.200 F 
ENDBRANCH  59  83
BRANCH  71  94
ATOM     94  C   UNL A   1      48.203  26.644  30.567  1.00  0.00     0.064 A 
ATOM     95  C   UNL A   1      48.507  25.878  31.700  1.00  0.00     0.173 A 
ATOM     96  C   UNL A   1      49.243  26.935  29.669  1.00  0.00     0.173 A 
ATOM     97  F   UNL A   1      47.552  25.584  32.596  1.00  0.00    -0.203 F 
ATOM     98  C   UNL A   1      49.807  25.434  31.935  1.00  0.00     0.198 A 
ATOM     99  C   UNL A   1      50.533  26.462  29.890  1.00  0.00     0.198 A 
ATOM    100  F   UNL A   1      49.002  27.657  28.566  1.00  0.00    -0.203 F 
ATOM    101  F   UNL A   1      50.086  24.738  33.045  1.00  0.00    -0.200 F 
ATOM    102  C   UNL A   1      50.815  25.718  31.025  1.00  0.00     0.200 A 
ATOM    103  F   UNL A   1      51.501  26.722  29.001  1.00  0.00    -0.200 F 
ATOM    104  F   UNL A   1      52.061  25.275  31.244  1.00  0.00    -0.200 F 
ENDBRANCH  71  94
ENDBRANCH  45  46
ENDBRANCH  37  40
ENDBRANCH  35  36
ENDBRANCH  34  35
ENDBRANCH   1  34
TORSDOF 15
ENDMDL
