MODEL 1
REMARK VINA RESULT:     -12.6      0.000      0.000
REMARK SMILES CC(C)CSc1cc2c(cc1Cl)C=C(C(=O)NCCCCNC(=O)c1ccc(-c3c4nc(c(-c5c(F)c(F)c(F)c(F)c5F)c5ccc([nH]5)c(-c5c(F)c(F)c(F)c(F)c5F)c5nc(c(-c6c(F)c(F)c(F)c(F)c6F)c6ccc3[nH]6)C=C5)C=C4)cc1)[C@H](C(F)(F)F)O2
REMARK SMILES IDX 19 1 18 2 17 3 15 4 16 5 14 7 6 8 7 9 11 10 8 11 10 12 12 13
REMARK SMILES IDX 9 14 93 15 13 16 88 17 5 18 4 19 2 20 1 21 3 22 89 23 90 24
REMARK SMILES IDX 91 25 92 26 20 27 21 28 22 29 23 30 24 32 25 33 26 34 87 35
REMARK SMILES IDX 27 36 86 37 28 38 29 39 30 40 80 41 31 42 85 43 79 44 81 45
REMARK SMILES IDX 32 46 84 47 78 48 77 49 33 51 65 52 45 53 64 54 46 55 49 56
REMARK SMILES IDX 63 57 82 58 47 59 48 60 62 62 83 63 50 64 34 65 35 66 43 67
REMARK SMILES IDX 36 68 37 69 41 70 44 71 38 72 39 73 42 74 40 75 66 76 67 77
REMARK SMILES IDX 75 78 68 79 69 80 73 81 76 82 70 83 71 84 74 85 72 86 51 87
REMARK SMILES IDX 52 88 60 89 53 90 54 91 58 92 61 93 55 94 56 95 59 96 57 97
REMARK H PARENT 17 6 22 31 81 50 49 61
REMARK Flexibility Score: inf
ROOT
ATOM      1  C   UNL A   1      37.429  22.396  24.778  1.00  0.00     0.023 C 
ENDROOT
BRANCH   1   2
ATOM      2  C   UNL A   1      36.884  23.302  25.882  1.00  0.00     0.116 C 
BRANCH   2   3
ATOM      3  N   UNL A   1      35.924  22.603  26.714  1.00  0.00    -0.352 N 
ATOM      4  C   UNL A   1      34.574  22.531  26.774  1.00  0.00     0.251 C 
ATOM      5  O   UNL A   1      34.116  21.717  27.581  1.00  0.00    -0.270 OA
ATOM      6  H   UNL A   1      36.358  22.048  27.401  1.00  0.00     0.163 HD
BRANCH   4   7
ATOM      7  C   UNL A   1      33.642  23.355  25.952  1.00  0.00     0.067 C 
ATOM      8  C   UNL A   1      31.522  27.176  23.438  1.00  0.00     0.030 A 
ATOM      9  C   UNL A   1      31.164  25.842  23.675  1.00  0.00     0.063 A 
ATOM     10  C   UNL A   1      32.644  27.699  24.112  1.00  0.00     0.055 A 
ATOM     11  C   UNL A   1      31.952  25.032  24.491  1.00  0.00     0.129 A 
ATOM     12  C   UNL A   1      33.403  26.892  24.968  1.00  0.00     0.033 A 
ATOM     13  Cl  UNL A   1      33.171  29.337  23.912  1.00  0.00    -0.083 Cl
ATOM     14  C   UNL A   1      33.064  25.551  25.151  1.00  0.00     0.019 A 
ATOM     15  O   UNL A   1      31.572  23.724  24.623  1.00  0.00    -0.475 OA
ATOM     16  C   UNL A   1      33.840  24.683  26.027  1.00  0.00     0.025 C 
ATOM     17  C   UNL A   1      32.645  22.797  24.969  1.00  0.00     0.314 C 
BRANCH   8  18
ATOM     18  S   UNL A   1      30.538  28.170  22.315  1.00  0.00    -0.124 SA
BRANCH  18  19
ATOM     19  C   UNL A   1      29.553  29.217  23.454  1.00  0.00     0.078 C 
BRANCH  19  20
ATOM     20  C   UNL A   1      28.192  29.683  22.904  1.00  0.00    -0.007 C 
ATOM     21  C   UNL A   1      27.040  28.740  23.253  1.00  0.00     0.008 C 
ATOM     22  C   UNL A   1      27.877  31.076  23.465  1.00  0.00     0.008 C 
ENDBRANCH  19  20
ENDBRANCH  18  19
ENDBRANCH   8  18
BRANCH  17  23
ATOM     23  C   UNL A   1      33.291  22.227  23.694  1.00  0.00     0.429 C 
ATOM     24  F   UNL A   1      34.372  22.973  23.348  1.00  0.00    -0.167 F 
ATOM     25  F   UNL A   1      33.713  20.952  23.842  1.00  0.00    -0.167 F 
ATOM     26  F   UNL A   1      32.451  22.249  22.634  1.00  0.00    -0.167 F 
ENDBRANCH  17  23
ENDBRANCH   4   7
ENDBRANCH   2   3
ENDBRANCH   1   2
BRANCH   1  27
ATOM     27  C   UNL A   1      37.954  21.045  25.273  1.00  0.00     0.023 C 
BRANCH  27  28
ATOM     28  C   UNL A   1      39.344  21.086  25.896  1.00  0.00     0.116 C 
BRANCH  28  29
ATOM     29  N   UNL A   1      40.060  19.819  25.822  1.00  0.00    -0.352 N 
ATOM     30  C   UNL A   1      41.391  19.587  26.088  1.00  0.00     0.251 C 
ATOM     31  H   UNL A   1      39.530  19.036  25.550  1.00  0.00     0.163 HD
ATOM     32  O   UNL A   1      41.888  18.479  25.932  1.00  0.00    -0.269 OA
BRANCH  30  33
ATOM     33  C   UNL A   1      42.223  20.731  26.505  1.00  0.00     0.039 A 
ATOM     34  C   UNL A   1      42.240  21.128  27.844  1.00  0.00     0.014 A 
ATOM     35  C   UNL A   1      42.859  21.490  25.521  1.00  0.00     0.014 A 
ATOM     36  C   UNL A   1      42.742  22.380  28.173  1.00  0.00     0.010 A 
ATOM     37  C   UNL A   1      43.418  22.720  25.865  1.00  0.00     0.010 A 
ATOM     38  C   UNL A   1      43.304  23.200  27.181  1.00  0.00    -0.014 A 
BRANCH  38  39
ATOM     39  C   UNL A   1      43.688  24.593  27.513  1.00  0.00     0.031 A 
ATOM     40  C   UNL A   1      42.633  25.594  27.901  1.00  0.00     0.074 A 
ATOM     41  C   UNL A   1      44.988  24.941  27.531  1.00  0.00     0.049 A 
ATOM     42  N   UNL A   1      42.761  26.870  28.165  1.00  0.00    -0.248 NA
ATOM     43  C   UNL A   1      41.252  25.098  28.008  1.00  0.00     0.031 C 
ATOM     44  C   UNL A   1      46.102  24.046  27.222  1.00  0.00     0.029 A 
ATOM     45  N   UNL A   1      45.588  26.132  27.846  1.00  0.00    -0.354 N 
ATOM     46  C   UNL A   1      41.480  27.333  28.435  1.00  0.00     0.074 A 
ATOM     47  C   UNL A   1      40.584  26.206  28.297  1.00  0.00     0.031 C 
ATOM     48  C   UNL A   1      47.256  24.707  27.406  1.00  0.00     0.029 A 
ATOM     49  C   UNL A   1      46.958  26.085  27.785  1.00  0.00     0.049 A 
ATOM     50  H   UNL A   1      45.086  26.942  28.092  1.00  0.00     0.167 HD
ATOM     51  C   UNL A   1      41.089  28.585  28.768  1.00  0.00     0.037 A 
ATOM     52  C   UNL A   1      47.870  27.052  27.992  1.00  0.00     0.037 A 
ATOM     53  C   UNL A   1      41.985  29.698  28.941  1.00  0.00     0.049 A 
ATOM     54  C   UNL A   1      47.407  28.440  28.329  1.00  0.00     0.074 A 
ATOM     55  C   UNL A   1      41.684  31.007  29.279  1.00  0.00     0.029 A 
ATOM     56  N   UNL A   1      43.362  29.626  28.806  1.00  0.00    -0.354 N 
ATOM     57  N   UNL A   1      46.188  28.880  28.516  1.00  0.00    -0.248 NA
ATOM     58  C   UNL A   1      48.447  29.469  28.458  1.00  0.00     0.031 C 
ATOM     59  C   UNL A   1      42.880  31.732  29.326  1.00  0.00     0.029 A 
ATOM     60  C   UNL A   1      43.926  30.868  29.044  1.00  0.00     0.049 A 
ATOM     61  H   UNL A   1      43.866  28.812  28.574  1.00  0.00     0.167 HD
ATOM     62  C   UNL A   1      46.309  30.238  28.771  1.00  0.00     0.074 A 
ATOM     63  C   UNL A   1      47.726  30.543  28.748  1.00  0.00     0.031 C 
ATOM     64  C   UNL A   1      45.335  31.153  28.993  1.00  0.00     0.037 A 
BRANCH  51  65
ATOM     65  C   UNL A   1      39.623  28.831  28.955  1.00  0.00     0.064 A 
ATOM     66  C   UNL A   1      38.999  28.647  30.196  1.00  0.00     0.173 A 
ATOM     67  C   UNL A   1      38.844  29.310  27.890  1.00  0.00     0.173 A 
ATOM     68  F   UNL A   1      39.698  28.175  31.239  1.00  0.00    -0.203 F 
ATOM     69  C   UNL A   1      37.645  28.927  30.364  1.00  0.00     0.198 A 
ATOM     70  C   UNL A   1      37.495  29.606  28.066  1.00  0.00     0.198 A 
ATOM     71  F   UNL A   1      39.395  29.502  26.683  1.00  0.00    -0.203 F 
ATOM     72  F   UNL A   1      37.062  28.720  31.553  1.00  0.00    -0.200 F 
ATOM     73  C   UNL A   1      36.896  29.412  29.302  1.00  0.00     0.200 A 
ATOM     74  F   UNL A   1      36.774  30.080  27.040  1.00  0.00    -0.200 F 
ATOM     75  F   UNL A   1      35.595  29.689  29.469  1.00  0.00    -0.200 F 
ENDBRANCH  51  65
BRANCH  52  76
ATOM     76  C   UNL A   1      49.312  26.733  27.863  1.00  0.00     0.064 A 
ATOM     77  C   UNL A   1      50.082  26.430  28.992  1.00  0.00     0.173 A 
ATOM     78  C   UNL A   1      49.938  26.695  26.609  1.00  0.00     0.173 A 
ATOM     79  F   UNL A   1      49.528  26.475  30.213  1.00  0.00    -0.203 F 
ATOM     80  C   UNL A   1      51.429  26.097  28.872  1.00  0.00     0.198 A 
ATOM     81  C   UNL A   1      51.279  26.341  26.488  1.00  0.00     0.198 A 
ATOM     82  F   UNL A   1      49.238  26.978  25.501  1.00  0.00    -0.203 F 
ATOM     83  F   UNL A   1      52.151  25.830  29.968  1.00  0.00    -0.200 F 
ATOM     84  C   UNL A   1      52.024  26.044  27.619  1.00  0.00     0.200 A 
ATOM     85  F   UNL A   1      51.846  26.280  25.275  1.00  0.00    -0.200 F 
ATOM     86  F   UNL A   1      53.316  25.711  27.503  1.00  0.00    -0.200 F 
ENDBRANCH  52  76
BRANCH  64  87
ATOM     87  C   UNL A   1      45.770  32.569  29.207  1.00  0.00     0.064 A 
ATOM     88  C   UNL A   1      45.864  33.464  28.132  1.00  0.00     0.173 A 
ATOM     89  C   UNL A   1      46.060  33.043  30.493  1.00  0.00     0.173 A 
ATOM     90  F   UNL A   1      45.610  33.048  26.882  1.00  0.00    -0.203 F 
ATOM     91  C   UNL A   1      46.249  34.786  28.338  1.00  0.00     0.198 A 
ATOM     92  C   UNL A   1      46.427  34.370  30.697  1.00  0.00     0.198 A 
ATOM     93  F   UNL A   1      45.981  32.222  31.550  1.00  0.00    -0.203 F 
ATOM     94  F   UNL A   1      46.365  35.618  27.294  1.00  0.00    -0.200 F 
ATOM     95  C   UNL A   1      46.525  35.239  29.619  1.00  0.00     0.200 A 
ATOM     96  F   UNL A   1      46.689  34.809  31.936  1.00  0.00    -0.200 F 
ATOM     97  F   UNL A   1      46.895  36.512  29.816  1.00  0.00    -0.200 F 
ENDBRANCH  64  87
ENDBRANCH  38  39
ENDBRANCH  30  33
ENDBRANCH  28  29
ENDBRANCH  27  28
ENDBRANCH   1  27
TORSDOF 15
ENDMDL
MODEL 2
REMARK VINA RESULT:     -12.6      5.684      9.892
REMARK SMILES CC(C)CSc1cc2c(cc1Cl)C=C(C(=O)NCCCCNC(=O)c1ccc(-c3c4nc(c(-c5c(F)c(F)c(F)c(F)c5F)c5ccc([nH]5)c(-c5c(F)c(F)c(F)c(F)c5F)c5nc(c(-c6c(F)c(F)c(F)c(F)c6F)c6ccc3[nH]6)C=C5)C=C4)cc1)[C@H](C(F)(F)F)O2
REMARK SMILES IDX 19 1 18 2 17 3 15 4 16 5 14 7 6 8 7 9 11 10 8 11 10 12 12 13
REMARK SMILES IDX 9 14 93 15 13 16 88 17 5 18 4 19 2 20 1 21 3 22 89 23 90 24
REMARK SMILES IDX 91 25 92 26 20 27 21 28 22 29 23 30 24 32 25 33 26 34 87 35
REMARK SMILES IDX 27 36 86 37 28 38 29 39 30 40 80 41 31 42 85 43 79 44 81 45
REMARK SMILES IDX 32 46 84 47 78 48 77 49 33 51 65 52 45 53 64 54 46 55 49 56
REMARK SMILES IDX 63 57 82 58 47 59 48 60 62 62 83 63 50 64 34 65 35 66 43 67
REMARK SMILES IDX 36 68 37 69 41 70 44 71 38 72 39 73 42 74 40 75 66 76 67 77
REMARK SMILES IDX 75 78 68 79 69 80 73 81 76 82 70 83 71 84 74 85 72 86 51 87
REMARK SMILES IDX 52 88 60 89 53 90 54 91 58 92 61 93 55 94 56 95 59 96 57 97
REMARK H PARENT 17 6 22 31 81 50 49 61
REMARK Flexibility Score: inf
ROOT
ATOM      1  C   UNL A   1      32.288  29.866  27.157  1.00  0.00     0.023 C 
ENDROOT
BRANCH   1   2
ATOM      2  C   UNL A   1      33.548  29.165  26.647  1.00  0.00     0.116 C 
BRANCH   2   3
ATOM      3  N   UNL A   1      33.738  29.386  25.227  1.00  0.00    -0.352 N 
ATOM      4  C   UNL A   1      33.553  28.651  24.105  1.00  0.00     0.251 C 
ATOM      5  O   UNL A   1      33.735  29.246  23.039  1.00  0.00    -0.270 OA
ATOM      6  H   UNL A   1      34.084  30.286  25.031  1.00  0.00     0.163 HD
BRANCH   4   7
ATOM      7  C   UNL A   1      33.161  27.212  24.087  1.00  0.00     0.067 C 
ATOM      8  C   UNL A   1      32.882  22.278  25.081  1.00  0.00     0.030 A 
ATOM      9  C   UNL A   1      32.220  23.137  24.192  1.00  0.00     0.063 A 
ATOM     10  C   UNL A   1      33.972  22.784  25.816  1.00  0.00     0.055 A 
ATOM     11  C   UNL A   1      32.581  24.480  24.106  1.00  0.00     0.129 A 
ATOM     12  C   UNL A   1      34.359  24.124  25.688  1.00  0.00     0.033 A 
ATOM     13  Cl  UNL A   1      34.876  21.813  26.930  1.00  0.00    -0.083 Cl
ATOM     14  C   UNL A   1      33.656  24.979  24.838  1.00  0.00     0.019 A 
ATOM     15  O   UNL A   1      31.846  25.269  23.262  1.00  0.00    -0.475 OA
ATOM     16  C   UNL A   1      34.028  26.379  24.692  1.00  0.00     0.025 C 
ATOM     17  C   UNL A   1      31.837  26.691  23.592  1.00  0.00     0.314 C 
BRANCH   8  18
ATOM     18  S   UNL A   1      32.340  20.576  25.234  1.00  0.00    -0.124 SA
BRANCH  18  19
ATOM     19  C   UNL A   1      33.647  19.649  24.341  1.00  0.00     0.078 C 
BRANCH  19  20
ATOM     20  C   UNL A   1      33.589  18.118  24.499  1.00  0.00    -0.007 C 
ATOM     21  C   UNL A   1      32.672  17.657  25.633  1.00  0.00     0.008 C 
ATOM     22  C   UNL A   1      33.099  17.498  23.183  1.00  0.00     0.008 C 
ENDBRANCH  19  20
ENDBRANCH  18  19
ENDBRANCH   8  18
BRANCH  17  23
ATOM     23  C   UNL A   1      30.660  27.016  24.527  1.00  0.00     0.429 C 
ATOM     24  F   UNL A   1      30.925  26.568  25.781  1.00  0.00    -0.167 F 
ATOM     25  F   UNL A   1      30.409  28.340  24.618  1.00  0.00    -0.167 F 
ATOM     26  F   UNL A   1      29.510  26.418  24.138  1.00  0.00    -0.167 F 
ENDBRANCH  17  23
ENDBRANCH   4   7
ENDBRANCH   2   3
ENDBRANCH   1   2
BRANCH   1  27
ATOM     27  C   UNL A   1      32.180  31.340  26.753  1.00  0.00     0.023 C 
BRANCH  27  28
ATOM     28  C   UNL A   1      33.100  32.285  27.516  1.00  0.00     0.116 C 
BRANCH  28  29
ATOM     29  N   UNL A   1      32.565  33.631  27.669  1.00  0.00    -0.352 N 
ATOM     30  C   UNL A   1      33.034  34.637  28.485  1.00  0.00     0.251 C 
ATOM     31  H   UNL A   1      31.774  33.849  27.125  1.00  0.00     0.163 HD
ATOM     32  O   UNL A   1      32.456  35.713  28.565  1.00  0.00    -0.269 OA
BRANCH  30  33
ATOM     33  C   UNL A   1      34.221  34.357  29.314  1.00  0.00     0.039 A 
ATOM     34  C   UNL A   1      35.500  34.547  28.786  1.00  0.00     0.014 A 
ATOM     35  C   UNL A   1      34.039  33.761  30.563  1.00  0.00     0.014 A 
ATOM     36  C   UNL A   1      36.590  33.976  29.430  1.00  0.00     0.010 A 
ATOM     37  C   UNL A   1      35.144  33.244  31.239  1.00  0.00     0.010 A 
ATOM     38  C   UNL A   1      36.416  33.291  30.644  1.00  0.00    -0.014 A 
BRANCH  38  39
ATOM     39  C   UNL A   1      37.555  32.551  31.237  1.00  0.00     0.031 A 
ATOM     40  C   UNL A   1      38.010  32.864  32.638  1.00  0.00     0.074 A 
ATOM     41  C   UNL A   1      38.136  31.555  30.546  1.00  0.00     0.049 A 
ATOM     42  N   UNL A   1      39.023  32.374  33.308  1.00  0.00    -0.248 NA
ATOM     43  C   UNL A   1      37.226  33.860  33.385  1.00  0.00     0.031 C 
ATOM     44  C   UNL A   1      37.751  31.127  29.203  1.00  0.00     0.029 A 
ATOM     45  N   UNL A   1      39.157  30.708  30.890  1.00  0.00    -0.354 N 
ATOM     46  C   UNL A   1      39.016  33.021  34.536  1.00  0.00     0.074 A 
ATOM     47  C   UNL A   1      37.904  33.947  34.522  1.00  0.00     0.031 C 
ATOM     48  C   UNL A   1      38.496  30.066  28.852  1.00  0.00     0.029 A 
ATOM     49  C   UNL A   1      39.450  29.782  29.920  1.00  0.00     0.049 A 
ATOM     50  H   UNL A   1      39.635  30.757  31.750  1.00  0.00     0.167 HD
ATOM     51  C   UNL A   1      39.860  32.856  35.581  1.00  0.00     0.037 A 
ATOM     52  C   UNL A   1      40.395  28.826  29.888  1.00  0.00     0.037 A 
ATOM     53  C   UNL A   1      40.943  31.909  35.609  1.00  0.00     0.049 A 
ATOM     54  C   UNL A   1      41.339  28.686  31.047  1.00  0.00     0.074 A 
ATOM     55  C   UNL A   1      41.855  31.667  36.623  1.00  0.00     0.029 A 
ATOM     56  N   UNL A   1      41.248  31.034  34.578  1.00  0.00    -0.354 N 
ATOM     57  N   UNL A   1      41.364  29.351  32.175  1.00  0.00    -0.248 NA
ATOM     58  C   UNL A   1      42.401  27.681  30.914  1.00  0.00     0.031 C 
ATOM     59  C   UNL A   1      42.726  30.660  36.195  1.00  0.00     0.029 A 
ATOM     60  C   UNL A   1      42.340  30.257  34.927  1.00  0.00     0.049 A 
ATOM     61  H   UNL A   1      40.761  30.974  33.725  1.00  0.00     0.167 HD
ATOM     62  C   UNL A   1      42.449  28.855  32.883  1.00  0.00     0.074 A 
ATOM     63  C   UNL A   1      43.039  27.811  32.070  1.00  0.00     0.031 C 
ATOM     64  C   UNL A   1      42.923  29.239  34.093  1.00  0.00     0.037 A 
BRANCH  51  65
ATOM     65  C   UNL A   1      39.662  33.730  36.782  1.00  0.00     0.064 A 
ATOM     66  C   UNL A   1      40.216  35.015  36.854  1.00  0.00     0.173 A 
ATOM     67  C   UNL A   1      38.862  33.295  37.850  1.00  0.00     0.173 A 
ATOM     68  F   UNL A   1      41.002  35.468  35.866  1.00  0.00    -0.203 F 
ATOM     69  C   UNL A   1      39.982  35.833  37.957  1.00  0.00     0.198 A 
ATOM     70  C   UNL A   1      38.616  34.123  38.943  1.00  0.00     0.198 A 
ATOM     71  F   UNL A   1      38.310  32.073  37.827  1.00  0.00    -0.203 F 
ATOM     72  F   UNL A   1      40.542  37.050  38.018  1.00  0.00    -0.200 F 
ATOM     73  C   UNL A   1      39.177  35.389  38.996  1.00  0.00     0.200 A 
ATOM     74  F   UNL A   1      37.834  33.694  39.943  1.00  0.00    -0.200 F 
ATOM     75  F   UNL A   1      38.947  36.182  40.052  1.00  0.00    -0.200 F 
ENDBRANCH  51  65
BRANCH  52  76
ATOM     76  C   UNL A   1      40.498  27.943  28.702  1.00  0.00     0.064 A 
ATOM     77  C   UNL A   1      39.834  26.711  28.666  1.00  0.00     0.173 A 
ATOM     78  C   UNL A   1      41.236  28.327  27.573  1.00  0.00     0.173 A 
ATOM     79  F   UNL A   1      39.134  26.296  29.732  1.00  0.00    -0.203 F 
ATOM     80  C   UNL A   1      39.901  25.895  27.540  1.00  0.00     0.198 A 
ATOM     81  C   UNL A   1      41.284  27.520  26.440  1.00  0.00     0.198 A 
ATOM     82  F   UNL A   1      41.887  29.499  27.564  1.00  0.00    -0.203 F 
ATOM     83  F   UNL A   1      39.273  24.710  27.536  1.00  0.00    -0.200 F 
ATOM     84  C   UNL A   1      40.619  26.303  26.425  1.00  0.00     0.200 A 
ATOM     85  F   UNL A   1      41.969  27.924  25.362  1.00  0.00    -0.200 F 
ATOM     86  F   UNL A   1      40.673  25.523  25.338  1.00  0.00    -0.200 F 
ENDBRANCH  52  76
BRANCH  64  87
ATOM     87  C   UNL A   1      44.147  28.540  34.596  1.00  0.00     0.064 A 
ATOM     88  C   UNL A   1      44.049  27.336  35.307  1.00  0.00     0.173 A 
ATOM     89  C   UNL A   1      45.424  29.056  34.336  1.00  0.00     0.173 A 
ATOM     90  F   UNL A   1      42.845  26.815  35.589  1.00  0.00    -0.203 F 
ATOM     91  C   UNL A   1      45.191  26.678  35.755  1.00  0.00     0.198 A 
ATOM     92  C   UNL A   1      46.564  28.386  34.771  1.00  0.00     0.198 A 
ATOM     93  F   UNL A   1      45.564  30.204  33.658  1.00  0.00    -0.203 F 
ATOM     94  F   UNL A   1      45.076  25.545  36.460  1.00  0.00    -0.200 F 
ATOM     95  C   UNL A   1      46.446  27.201  35.482  1.00  0.00     0.200 A 
ATOM     96  F   UNL A   1      47.778  28.888  34.503  1.00  0.00    -0.200 F 
ATOM     97  F   UNL A   1      47.545  26.566  35.914  1.00  0.00    -0.200 F 
ENDBRANCH  64  87
ENDBRANCH  38  39
ENDBRANCH  30  33
ENDBRANCH  28  29
ENDBRANCH  27  28
ENDBRANCH   1  27
TORSDOF 15
ENDMDL
MODEL 3
REMARK VINA RESULT:     -12.6      5.825     10.690
REMARK SMILES CC(C)CSc1cc2c(cc1Cl)C=C(C(=O)NCCCCNC(=O)c1ccc(-c3c4nc(c(-c5c(F)c(F)c(F)c(F)c5F)c5ccc([nH]5)c(-c5c(F)c(F)c(F)c(F)c5F)c5nc(c(-c6c(F)c(F)c(F)c(F)c6F)c6ccc3[nH]6)C=C5)C=C4)cc1)[C@H](C(F)(F)F)O2
REMARK SMILES IDX 19 1 18 2 17 3 15 4 16 5 14 7 6 8 7 9 11 10 8 11 10 12 12 13
REMARK SMILES IDX 9 14 93 15 13 16 88 17 5 18 4 19 2 20 1 21 3 22 89 23 90 24
REMARK SMILES IDX 91 25 92 26 20 27 21 28 22 29 23 30 24 32 25 33 26 34 87 35
REMARK SMILES IDX 27 36 86 37 28 38 29 39 30 40 80 41 31 42 85 43 79 44 81 45
REMARK SMILES IDX 32 46 84 47 78 48 77 49 33 51 65 52 45 53 64 54 46 55 49 56
REMARK SMILES IDX 63 57 82 58 47 59 48 60 62 62 83 63 50 64 34 65 35 66 43 67
REMARK SMILES IDX 36 68 37 69 41 70 44 71 38 72 39 73 42 74 40 75 66 76 67 77
REMARK SMILES IDX 75 78 68 79 69 80 73 81 76 82 70 83 71 84 74 85 72 86 51 87
REMARK SMILES IDX 52 88 60 89 53 90 54 91 58 92 61 93 55 94 56 95 59 96 57 97
REMARK H PARENT 17 6 22 31 81 50 49 61
REMARK Flexibility Score: inf
ROOT
ATOM      1  C   UNL A   1      32.675  29.796  27.211  1.00  0.00     0.023 C 
ENDROOT
BRANCH   1   2
ATOM      2  C   UNL A   1      33.842  29.180  26.437  1.00  0.00     0.116 C 
BRANCH   2   3
ATOM      3  N   UNL A   1      33.651  29.304  25.005  1.00  0.00    -0.352 N 
ATOM      4  C   UNL A   1      33.262  28.473  24.010  1.00  0.00     0.251 C 
ATOM      5  O   UNL A   1      33.117  28.996  22.902  1.00  0.00    -0.270 OA
ATOM      6  H   UNL A   1      33.853  30.210  24.678  1.00  0.00     0.163 HD
BRANCH   4   7
ATOM      7  C   UNL A   1      33.013  27.012  24.173  1.00  0.00     0.067 C 
ATOM      8  C   UNL A   1      33.579  22.108  25.195  1.00  0.00     0.030 A 
ATOM      9  C   UNL A   1      32.526  22.889  24.697  1.00  0.00     0.063 A 
ATOM     10  C   UNL A   1      34.841  22.711  25.360  1.00  0.00     0.055 A 
ATOM     11  C   UNL A   1      32.709  24.250  24.455  1.00  0.00     0.129 A 
ATOM     12  C   UNL A   1      35.029  24.068  25.069  1.00  0.00     0.033 A 
ATOM     13  Cl  UNL A   1      36.219  21.842  25.949  1.00  0.00    -0.083 Cl
ATOM     14  C   UNL A   1      33.957  24.844  24.625  1.00  0.00     0.019 A 
ATOM     15  O   UNL A   1      31.617  24.958  24.031  1.00  0.00    -0.475 OA
ATOM     16  C   UNL A   1      34.118  26.260  24.325  1.00  0.00     0.025 C 
ATOM     17  C   UNL A   1      31.650  26.387  24.327  1.00  0.00     0.314 C 
BRANCH   8  18
ATOM     18  S   UNL A   1      33.293  20.380  25.578  1.00  0.00    -0.124 SA
BRANCH  18  19
ATOM     19  C   UNL A   1      32.604  19.722  24.011  1.00  0.00     0.078 C 
BRANCH  19  20
ATOM     20  C   UNL A   1      32.430  18.193  23.961  1.00  0.00    -0.007 C 
ATOM     21  C   UNL A   1      33.508  17.484  23.140  1.00  0.00     0.008 C 
ATOM     22  C   UNL A   1      32.456  17.640  25.392  1.00  0.00     0.008 C 
ENDBRANCH  19  20
ENDBRANCH  18  19
ENDBRANCH   8  18
BRANCH  17  23
ATOM     23  C   UNL A   1      30.997  26.666  25.691  1.00  0.00     0.429 C 
ATOM     24  F   UNL A   1      30.579  27.956  25.751  1.00  0.00    -0.167 F 
ATOM     25  F   UNL A   1      29.921  25.884  25.931  1.00  0.00    -0.167 F 
ATOM     26  F   UNL A   1      31.855  26.490  26.722  1.00  0.00    -0.167 F 
ENDBRANCH  17  23
ENDBRANCH   4   7
ENDBRANCH   2   3
ENDBRANCH   1   2
BRANCH   1  27
ATOM     27  C   UNL A   1      32.387  31.258  26.859  1.00  0.00     0.023 C 
BRANCH  27  28
ATOM     28  C   UNL A   1      33.292  32.275  27.543  1.00  0.00     0.116 C 
BRANCH  28  29
ATOM     29  N   UNL A   1      32.695  33.596  27.682  1.00  0.00    -0.352 N 
ATOM     30  C   UNL A   1      33.091  34.616  28.518  1.00  0.00     0.251 C 
ATOM     31  H   UNL A   1      31.916  33.783  27.111  1.00  0.00     0.163 HD
ATOM     32  O   UNL A   1      32.464  35.666  28.582  1.00  0.00    -0.269 OA
BRANCH  30  33
ATOM     33  C   UNL A   1      34.257  34.383  29.389  1.00  0.00     0.039 A 
ATOM     34  C   UNL A   1      35.548  34.549  28.883  1.00  0.00     0.014 A 
ATOM     35  C   UNL A   1      34.047  33.851  30.663  1.00  0.00     0.014 A 
ATOM     36  C   UNL A   1      36.623  34.016  29.582  1.00  0.00     0.010 A 
ATOM     37  C   UNL A   1      35.136  33.372  31.390  1.00  0.00     0.010 A 
ATOM     38  C   UNL A   1      36.422  33.393  30.825  1.00  0.00    -0.014 A 
BRANCH  38  39
ATOM     39  C   UNL A   1      37.548  32.688  31.482  1.00  0.00     0.031 A 
ATOM     40  C   UNL A   1      38.271  31.583  30.760  1.00  0.00     0.074 A 
ATOM     41  C   UNL A   1      37.964  33.085  32.698  1.00  0.00     0.049 A 
ATOM     42  N   UNL A   1      39.236  30.808  31.187  1.00  0.00    -0.248 NA
ATOM     43  C   UNL A   1      37.857  31.312  29.374  1.00  0.00     0.031 C 
ATOM     44  C   UNL A   1      37.375  34.174  33.475  1.00  0.00     0.029 A 
ATOM     45  N   UNL A   1      38.994  32.631  33.480  1.00  0.00    -0.354 N 
ATOM     46  C   UNL A   1      39.519  29.941  30.141  1.00  0.00     0.074 A 
ATOM     47  C   UNL A   1      38.622  30.277  29.056  1.00  0.00     0.031 C 
ATOM     48  C   UNL A   1      38.082  34.337  34.605  1.00  0.00     0.029 A 
ATOM     49  C   UNL A   1      39.131  33.323  34.657  1.00  0.00     0.049 A 
ATOM     50  H   UNL A   1      39.579  31.882  33.223  1.00  0.00     0.167 HD
ATOM     51  C   UNL A   1      40.446  28.955  30.090  1.00  0.00     0.037 A 
ATOM     52  C   UNL A   1      39.994  33.146  35.674  1.00  0.00     0.037 A 
ATOM     53  C   UNL A   1      41.362  28.646  31.155  1.00  0.00     0.049 A 
ATOM     54  C   UNL A   1      40.990  32.024  35.605  1.00  0.00     0.074 A 
ATOM     55  C   UNL A   1      42.339  27.665  31.198  1.00  0.00     0.029 A 
ATOM     56  N   UNL A   1      41.426  29.328  32.360  1.00  0.00    -0.354 N 
ATOM     57  N   UNL A   1      41.204  31.168  34.637  1.00  0.00    -0.248 NA
ATOM     58  C   UNL A   1      41.846  31.830  36.783  1.00  0.00     0.031 C 
ATOM     59  C   UNL A   1      42.978  27.740  32.440  1.00  0.00     0.029 A 
ATOM     60  C   UNL A   1      42.418  28.784  33.158  1.00  0.00     0.049 A 
ATOM     61  H   UNL A   1      40.851  30.087  32.611  1.00  0.00     0.167 HD
ATOM     62  C   UNL A   1      42.208  30.325  35.090  1.00  0.00     0.074 A 
ATOM     63  C   UNL A   1      42.584  30.793  36.409  1.00  0.00     0.031 C 
ATOM     64  C   UNL A   1      42.760  29.252  34.475  1.00  0.00     0.037 A 
BRANCH  51  65
ATOM     65  C   UNL A   1      40.509  28.122  28.847  1.00  0.00     0.064 A 
ATOM     66  C   UNL A   1      41.311  28.487  27.757  1.00  0.00     0.173 A 
ATOM     67  C   UNL A   1      39.799  26.913  28.767  1.00  0.00     0.173 A 
ATOM     68  F   UNL A   1      41.994  29.641  27.780  1.00  0.00    -0.203 F 
ATOM     69  C   UNL A   1      41.396  27.676  26.629  1.00  0.00     0.198 A 
ATOM     70  C   UNL A   1      39.901  26.096  27.645  1.00  0.00     0.198 A 
ATOM     71  F   UNL A   1      39.018  26.521  29.784  1.00  0.00    -0.203 F 
ATOM     72  F   UNL A   1      42.150  28.056  25.587  1.00  0.00    -0.200 F 
ATOM     73  C   UNL A   1      40.697  26.478  26.576  1.00  0.00     0.200 A 
ATOM     74  F   UNL A   1      39.229  24.937  27.598  1.00  0.00    -0.200 F 
ATOM     75  F   UNL A   1      40.788  25.696  25.492  1.00  0.00    -0.200 F 
ENDBRANCH  51  65
BRANCH  52  76
ATOM     76  C   UNL A   1      39.932  34.047  36.849  1.00  0.00     0.064 A 
ATOM     77  C   UNL A   1      39.094  33.755  37.932  1.00  0.00     0.173 A 
ATOM     78  C   UNL A   1      40.728  35.198  36.924  1.00  0.00     0.173 A 
ATOM     79  F   UNL A   1      38.300  32.675  37.892  1.00  0.00    -0.203 F 
ATOM     80  C   UNL A   1      39.058  34.582  39.052  1.00  0.00     0.198 A 
ATOM     81  C   UNL A   1      40.708  36.012  38.053  1.00  0.00     0.198 A 
ATOM     82  F   UNL A   1      41.546  35.516  35.909  1.00  0.00    -0.203 F 
ATOM     83  F   UNL A   1      38.234  34.293  40.069  1.00  0.00    -0.200 F 
ATOM     84  C   UNL A   1      39.871  35.704  39.116  1.00  0.00     0.200 A 
ATOM     85  F   UNL A   1      41.503  37.088  38.115  1.00  0.00    -0.200 F 
ATOM     86  F   UNL A   1      39.845  36.492  40.198  1.00  0.00    -0.200 F 
ENDBRANCH  52  76
BRANCH  64  87
ATOM     87  C   UNL A   1      43.812  28.504  35.232  1.00  0.00     0.064 A 
ATOM     88  C   UNL A   1      43.467  27.486  36.132  1.00  0.00     0.173 A 
ATOM     89  C   UNL A   1      45.172  28.779  35.031  1.00  0.00     0.173 A 
ATOM     90  F   UNL A   1      42.177  27.200  36.365  1.00  0.00    -0.203 F 
ATOM     91  C   UNL A   1      44.450  26.778  36.818  1.00  0.00     0.198 A 
ATOM     92  C   UNL A   1      46.152  28.057  35.706  1.00  0.00     0.198 A 
ATOM     93  F   UNL A   1      45.547  29.743  34.177  1.00  0.00    -0.203 F 
ATOM     94  F   UNL A   1      44.099  25.831  37.698  1.00  0.00    -0.200 F 
ATOM     95  C   UNL A   1      45.790  27.060  36.601  1.00  0.00     0.200 A 
ATOM     96  F   UNL A   1      47.447  28.327  35.492  1.00  0.00    -0.200 F 
ATOM     97  F   UNL A   1      46.735  26.378  37.261  1.00  0.00    -0.200 F 
ENDBRANCH  64  87
ENDBRANCH  38  39
ENDBRANCH  30  33
ENDBRANCH  28  29
ENDBRANCH  27  28
ENDBRANCH   1  27
TORSDOF 15
ENDMDL
