MODEL 1
REMARK VINA RESULT:     -13.0      0.000      0.000
REMARK SMILES O=C(C[C@@H]([NH2+]Cc1ccccc1)C(=O)/N=c1/[nH]c(-c2ccccc2)cs1)NCCCCNC(=O)c1ccc(-c2c3nc(c(-c4c(F)c(F)c(F)c(F)c4F)c4ccc([nH]4)c(-c4c(F)c(F)c(F)c(F)c4F)c4nc(c(-c5c(F)c(F)c(F)c(F)c5F)c5ccc2[nH]5)C=C4)C=C3)cc1
REMARK SMILES IDX 28 1 27 2 1 3 2 4 3 6 4 7 5 8 6 11 7 12 8 13 12 14 9 15
REMARK SMILES IDX 11 16 10 17 13 18 14 19 15 20 16 21 17 22 26 23 18 24 25 26
REMARK SMILES IDX 19 27 20 28 24 29 21 30 23 31 22 32 29 33 30 34 31 35 32 36
REMARK SMILES IDX 33 37 34 39 35 40 36 41 97 42 37 43 96 44 38 45 39 46 40 47
REMARK SMILES IDX 90 48 41 49 95 50 89 51 91 52 42 53 94 54 88 55 87 56 43 58
REMARK SMILES IDX 75 59 55 60 74 61 56 62 59 63 73 64 92 65 57 66 58 67 72 69
REMARK SMILES IDX 93 70 60 71 44 72 45 73 53 74 46 75 47 76 51 77 54 78 48 79
REMARK SMILES IDX 49 80 52 81 50 82 76 83 77 84 85 85 78 86 79 87 83 88 86 89
REMARK SMILES IDX 80 90 81 91 84 92 82 93 61 94 62 95 70 96 63 97 64 98 68 99
REMARK SMILES IDX 71 100 65 101 66 102 69 103 67 104
REMARK H PARENT 27 5 5 9 5 10 17 25 32 38 91 57 59 68
REMARK Flexibility Score: inf
ROOT
ATOM      1  C   UNL A   1      32.595  30.081  26.921  1.00  0.00     0.116 C 
ENDROOT
BRANCH   1   2
ATOM      2  N   UNL A   1      32.652  28.712  26.468  1.00  0.00    -0.356 N 
ATOM      3  O   UNL A   1      31.115  27.862  27.953  1.00  0.00    -0.275 OA
ATOM      4  C   UNL A   1      31.955  27.699  27.082  1.00  0.00     0.226 C 
ATOM      5  H   UNL A   1      33.213  28.495  25.689  1.00  0.00     0.163 HD
BRANCH   4   6
ATOM      6  C   UNL A   1      32.397  26.342  26.614  1.00  0.00     0.175 C 
BRANCH   6   7
ATOM      7  C   UNL A   1      31.670  25.818  25.380  1.00  0.00     0.284 C 
BRANCH   7   8
ATOM      8  N   UNL A   1      32.613  25.467  24.273  1.00  0.00    -0.332 N 
ATOM      9  H   UNL A   1      32.361  26.008  23.447  1.00  0.00     0.347 HD
ATOM     10  H   UNL A   1      32.532  24.464  24.107  1.00  0.00     0.347 HD
BRANCH   8  11
ATOM     11  C   UNL A   1      34.021  25.750  24.612  1.00  0.00     0.297 C 
BRANCH  11  12
ATOM     12  C   UNL A   1      34.903  24.526  24.517  1.00  0.00     0.006 A 
ATOM     13  C   UNL A   1      35.828  24.227  25.528  1.00  0.00     0.009 A 
ATOM     14  C   UNL A   1      34.777  23.639  23.438  1.00  0.00     0.009 A 
ATOM     15  C   UNL A   1      36.571  23.047  25.490  1.00  0.00     0.001 A 
ATOM     16  C   UNL A   1      35.544  22.473  23.385  1.00  0.00     0.001 A 
ATOM     17  C   UNL A   1      36.429  22.171  24.418  1.00  0.00     0.000 A 
ENDBRANCH  11  12
ENDBRANCH   8  11
ENDBRANCH   7   8
BRANCH   7  18
ATOM     18  C   UNL A   1      30.792  24.607  25.820  1.00  0.00     0.307 C 
ATOM     19  O   UNL A   1      30.059  24.684  26.800  1.00  0.00    -0.265 OA
BRANCH  18  20
ATOM     20  N   UNL A   1      30.849  23.488  25.013  1.00  0.00    -0.180 NA
ATOM     21  C   UNL A   1      31.599  22.511  25.393  1.00  0.00     0.190 A 
ATOM     22  N   UNL A   1      31.837  21.355  24.688  1.00  0.00    -0.330 N 
ATOM     23  S   UNL A   1      32.618  22.446  26.861  1.00  0.00    -0.105 S 
ATOM     24  C   UNL A   1      32.883  20.570  25.138  1.00  0.00     0.058 A 
ATOM     25  H   UNL A   1      31.293  21.100  23.909  1.00  0.00     0.169 HD
ATOM     26  C   UNL A   1      33.470  21.059  26.247  1.00  0.00     0.095 A 
BRANCH  24  27
ATOM     27  C   UNL A   1      33.294  19.323  24.478  1.00  0.00    -0.001 A 
ATOM     28  C   UNL A   1      34.495  18.666  24.778  1.00  0.00     0.010 A 
ATOM     29  C   UNL A   1      32.477  18.782  23.468  1.00  0.00     0.010 A 
ATOM     30  C   UNL A   1      34.861  17.505  24.086  1.00  0.00     0.001 A 
ATOM     31  C   UNL A   1      32.839  17.622  22.784  1.00  0.00     0.001 A 
ATOM     32  C   UNL A   1      34.035  16.986  23.091  1.00  0.00     0.000 A 
ENDBRANCH  24  27
ENDBRANCH  18  20
ENDBRANCH   7  18
ENDBRANCH   6   7
ENDBRANCH   4   6
ENDBRANCH   1   2
BRANCH   1  33
ATOM     33  C   UNL A   1      31.539  30.865  26.143  1.00  0.00     0.023 C 
BRANCH  33  34
ATOM     34  C   UNL A   1      31.364  32.321  26.587  1.00  0.00     0.023 C 
BRANCH  34  35
ATOM     35  C   UNL A   1      32.553  32.915  27.331  1.00  0.00     0.116 C 
BRANCH  35  36
ATOM     36  N   UNL A   1      32.355  34.316  27.662  1.00  0.00    -0.352 N 
ATOM     37  C   UNL A   1      32.973  35.084  28.618  1.00  0.00     0.251 C 
ATOM     38  H   UNL A   1      31.678  34.784  27.122  1.00  0.00     0.163 HD
ATOM     39  O   UNL A   1      32.550  36.206  28.873  1.00  0.00    -0.269 OA
BRANCH  37  40
ATOM     40  C   UNL A   1      34.134  34.548  29.362  1.00  0.00     0.039 A 
ATOM     41  C   UNL A   1      33.910  33.892  30.574  1.00  0.00     0.014 A 
ATOM     42  C   UNL A   1      35.435  34.695  28.875  1.00  0.00     0.014 A 
ATOM     43  C   UNL A   1      34.983  33.325  31.264  1.00  0.00     0.010 A 
ATOM     44  C   UNL A   1      36.493  34.063  29.522  1.00  0.00     0.010 A 
ATOM     45  C   UNL A   1      36.278  33.371  30.725  1.00  0.00    -0.014 A 
BRANCH  45  46
ATOM     46  C   UNL A   1      37.417  32.696  31.401  1.00  0.00     0.031 A 
ATOM     47  C   UNL A   1      38.096  31.519  30.755  1.00  0.00     0.074 A 
ATOM     48  C   UNL A   1      37.802  33.107  32.625  1.00  0.00     0.049 A 
ATOM     49  N   UNL A   1      39.063  30.766  31.216  1.00  0.00    -0.248 NA
ATOM     50  C   UNL A   1      37.605  31.119  29.428  1.00  0.00     0.031 C 
ATOM     51  C   UNL A   1      37.200  34.210  33.374  1.00  0.00     0.029 A 
ATOM     52  N   UNL A   1      38.789  32.640  33.459  1.00  0.00    -0.354 N 
ATOM     53  C   UNL A   1      39.285  29.799  30.244  1.00  0.00     0.074 A 
ATOM     54  C   UNL A   1      38.317  30.027  29.193  1.00  0.00     0.031 C 
ATOM     55  C   UNL A   1      37.845  34.352  34.543  1.00  0.00     0.029 A 
ATOM     56  C   UNL A   1      38.875  33.325  34.647  1.00  0.00     0.049 A 
ATOM     57  H   UNL A   1      39.378  31.886  33.227  1.00  0.00     0.167 HD
ATOM     58  C   UNL A   1      40.226  28.825  30.219  1.00  0.00     0.037 A 
ATOM     59  C   UNL A   1      39.687  33.138  35.705  1.00  0.00     0.037 A 
ATOM     60  C   UNL A   1      41.201  28.614  31.257  1.00  0.00     0.049 A 
ATOM     61  C   UNL A   1      40.707  32.031  35.662  1.00  0.00     0.074 A 
ATOM     62  C   UNL A   1      42.234  27.695  31.297  1.00  0.00     0.029 A 
ATOM     63  N   UNL A   1      41.258  29.328  32.447  1.00  0.00    -0.354 N 
ATOM     64  N   UNL A   1      40.957  31.171  34.705  1.00  0.00    -0.248 NA
ATOM     65  C   UNL A   1      41.563  31.874  36.847  1.00  0.00     0.031 C 
ATOM     66  C   UNL A   1      42.877  27.810  32.534  1.00  0.00     0.029 A 
ATOM     67  C   UNL A   1      42.289  28.847  33.238  1.00  0.00     0.049 A 
ATOM     68  H   UNL A   1      40.656  30.068  32.690  1.00  0.00     0.167 HD
ATOM     69  C   UNL A   1      42.016  30.395  35.156  1.00  0.00     0.074 A 
ATOM     70  C   UNL A   1      42.372  30.897  36.467  1.00  0.00     0.031 C 
ATOM     71  C   UNL A   1      42.639  29.360  34.539  1.00  0.00     0.037 A 
BRANCH  58  72
ATOM     72  C   UNL A   1      40.245  27.903  29.032  1.00  0.00     0.064 A 
ATOM     73  C   UNL A   1      39.522  26.700  29.018  1.00  0.00     0.173 A 
ATOM     74  C   UNL A   1      40.962  28.248  27.876  1.00  0.00     0.173 A 
ATOM     75  F   UNL A   1      38.826  26.318  30.100  1.00  0.00    -0.203 F 
ATOM     76  C   UNL A   1      39.542  25.864  27.904  1.00  0.00     0.198 A 
ATOM     77  C   UNL A   1      40.951  27.427  26.752  1.00  0.00     0.198 A 
ATOM     78  F   UNL A   1      41.665  29.390  27.831  1.00  0.00    -0.203 F 
ATOM     79  F   UNL A   1      38.887  24.694  27.935  1.00  0.00    -0.200 F 
ATOM     80  C   UNL A   1      40.249  26.231  26.770  1.00  0.00     0.200 A 
ATOM     81  F   UNL A   1      41.622  27.791  25.650  1.00  0.00    -0.200 F 
ATOM     82  F   UNL A   1      40.261  25.429  25.696  1.00  0.00    -0.200 F 
ENDBRANCH  58  72
BRANCH  59  83
ATOM     83  C   UNL A   1      39.584  34.030  36.891  1.00  0.00     0.064 A 
ATOM     84  C   UNL A   1      40.254  35.261  36.925  1.00  0.00     0.173 A 
ATOM     85  C   UNL A   1      38.830  33.668  38.016  1.00  0.00     0.173 A 
ATOM     86  F   UNL A   1      41.006  35.644  35.883  1.00  0.00    -0.203 F 
ATOM     87  C   UNL A   1      40.196  36.083  38.050  1.00  0.00     0.198 A 
ATOM     88  C   UNL A   1      38.744  34.505  39.127  1.00  0.00     0.198 A 
ATOM     89  F   UNL A   1      38.164  32.503  38.034  1.00  0.00    -0.203 F 
ATOM     90  F   UNL A   1      40.890  37.229  38.076  1.00  0.00    -0.200 F 
ATOM     91  C   UNL A   1      39.436  35.707  39.147  1.00  0.00     0.200 A 
ATOM     92  F   UNL A   1      37.996  34.146  40.178  1.00  0.00    -0.200 F 
ATOM     93  F   UNL A   1      39.377  36.498  40.227  1.00  0.00    -0.200 F 
ENDBRANCH  59  83
BRANCH  71  94
ATOM     94  C   UNL A   1      43.801  28.728  35.252  1.00  0.00     0.064 A 
ATOM     95  C   UNL A   1      43.626  27.680  36.169  1.00  0.00     0.173 A 
ATOM     96  C   UNL A   1      45.112  29.152  34.985  1.00  0.00     0.173 A 
ATOM     97  F   UNL A   1      42.393  27.247  36.472  1.00  0.00    -0.203 F 
ATOM     98  C   UNL A   1      44.717  27.101  36.812  1.00  0.00     0.198 A 
ATOM     99  C   UNL A   1      46.203  28.546  35.602  1.00  0.00     0.198 A 
ATOM    100  F   UNL A   1      45.337  30.145  34.111  1.00  0.00    -0.203 F 
ATOM    101  F   UNL A   1      44.522  26.140  37.724  1.00  0.00    -0.200 F 
ATOM    102  C   UNL A   1      46.004  27.528  36.522  1.00  0.00     0.200 A 
ATOM    103  F   UNL A   1      47.447  28.950  35.307  1.00  0.00    -0.200 F 
ATOM    104  F   UNL A   1      47.053  26.964  37.136  1.00  0.00    -0.200 F 
ENDBRANCH  71  94
ENDBRANCH  45  46
ENDBRANCH  37  40
ENDBRANCH  35  36
ENDBRANCH  34  35
ENDBRANCH  33  34
ENDBRANCH   1  33
TORSDOF 18
ENDMDL
MODEL 2
REMARK VINA RESULT:     -12.8      0.560      7.039
REMARK SMILES O=C(C[C@@H]([NH2+]Cc1ccccc1)C(=O)/N=c1/[nH]c(-c2ccccc2)cs1)NCCCCNC(=O)c1ccc(-c2c3nc(c(-c4c(F)c(F)c(F)c(F)c4F)c4ccc([nH]4)c(-c4c(F)c(F)c(F)c(F)c4F)c4nc(c(-c5c(F)c(F)c(F)c(F)c5F)c5ccc2[nH]5)C=C4)C=C3)cc1
REMARK SMILES IDX 28 1 27 2 1 3 2 4 3 6 4 7 5 8 6 11 7 12 8 13 12 14 9 15
REMARK SMILES IDX 11 16 10 17 13 18 14 19 15 20 16 21 17 22 26 23 18 24 25 26
REMARK SMILES IDX 19 27 20 28 24 29 21 30 23 31 22 32 29 33 30 34 31 35 32 36
REMARK SMILES IDX 33 37 34 39 35 40 36 41 97 42 37 43 96 44 38 45 39 46 40 47
REMARK SMILES IDX 90 48 41 49 95 50 89 51 91 52 42 53 94 54 88 55 87 56 43 58
REMARK SMILES IDX 75 59 55 60 74 61 56 62 59 63 73 64 92 65 57 66 58 67 72 69
REMARK SMILES IDX 93 70 60 71 44 72 45 73 53 74 46 75 47 76 51 77 54 78 48 79
REMARK SMILES IDX 49 80 52 81 50 82 76 83 77 84 85 85 78 86 79 87 83 88 86 89
REMARK SMILES IDX 80 90 81 91 84 92 82 93 61 94 62 95 70 96 63 97 64 98 68 99
REMARK SMILES IDX 71 100 65 101 66 102 69 103 67 104
REMARK H PARENT 27 5 5 9 5 10 17 25 32 38 91 57 59 68
REMARK Flexibility Score: inf
ROOT
ATOM      1  C   UNL A   1      32.420  30.204  27.022  1.00  0.00     0.116 C 
ENDROOT
BRANCH   1   2
ATOM      2  N   UNL A   1      32.523  28.850  26.532  1.00  0.00    -0.356 N 
ATOM      3  O   UNL A   1      31.069  27.896  28.038  1.00  0.00    -0.275 OA
ATOM      4  C   UNL A   1      31.890  27.792  27.139  1.00  0.00     0.226 C 
ATOM      5  H   UNL A   1      33.070  28.678  25.732  1.00  0.00     0.163 HD
BRANCH   4   6
ATOM      6  C   UNL A   1      32.377  26.469  26.624  1.00  0.00     0.175 C 
BRANCH   6   7
ATOM      7  C   UNL A   1      31.712  25.995  25.336  1.00  0.00     0.284 C 
BRANCH   7   8
ATOM      8  N   UNL A   1      32.711  25.637  24.281  1.00  0.00    -0.332 N 
ATOM      9  H   UNL A   1      32.554  26.231  23.469  1.00  0.00     0.347 HD
ATOM     10  H   UNL A   1      32.581  24.650  24.058  1.00  0.00     0.347 HD
BRANCH   8  11
ATOM     11  C   UNL A   1      34.105  25.811  24.733  1.00  0.00     0.297 C 
BRANCH  11  12
ATOM     12  C   UNL A   1      34.934  24.557  24.571  1.00  0.00     0.006 A 
ATOM     13  C   UNL A   1      35.836  24.160  25.569  1.00  0.00     0.009 A 
ATOM     14  C   UNL A   1      34.779  23.741  23.441  1.00  0.00     0.009 A 
ATOM     15  C   UNL A   1      36.528  22.953  25.466  1.00  0.00     0.001 A 
ATOM     16  C   UNL A   1      35.495  22.549  23.324  1.00  0.00     0.001 A 
ATOM     17  C   UNL A   1      36.357  22.148  24.343  1.00  0.00     0.000 A 
ENDBRANCH  11  12
ENDBRANCH   8  11
ENDBRANCH   7   8
BRANCH   7  18
ATOM     18  C   UNL A   1      30.770  24.805  25.691  1.00  0.00     0.307 C 
ATOM     19  O   UNL A   1      29.978  24.887  26.625  1.00  0.00    -0.265 OA
BRANCH  18  20
ATOM     20  N   UNL A   1      30.843  23.701  24.866  1.00  0.00    -0.180 NA
ATOM     21  C   UNL A   1      31.547  22.698  25.264  1.00  0.00     0.190 A 
ATOM     22  N   UNL A   1      31.794  21.551  24.549  1.00  0.00    -0.330 N 
ATOM     23  S   UNL A   1      32.482  22.577  26.784  1.00  0.00    -0.105 S 
ATOM     24  C   UNL A   1      32.794  20.730  25.038  1.00  0.00     0.058 A 
ATOM     25  H   UNL A   1      31.287  21.326  23.736  1.00  0.00     0.169 HD
ATOM     26  C   UNL A   1      33.331  21.181  26.187  1.00  0.00     0.095 A 
BRANCH  24  27
ATOM     27  C   UNL A   1      33.209  19.486  24.375  1.00  0.00    -0.001 A 
ATOM     28  C   UNL A   1      32.440  18.861  23.384  1.00  0.00     0.010 A 
ATOM     29  C   UNL A   1      34.404  18.862  24.777  1.00  0.00     0.010 A 
ATOM     30  C   UNL A   1      32.859  17.651  22.818  1.00  0.00     0.001 A 
ATOM     31  C   UNL A   1      34.825  17.661  24.208  1.00  0.00     0.001 A 
ATOM     32  C   UNL A   1      34.048  17.053  23.230  1.00  0.00     0.000 A 
ENDBRANCH  24  27
ENDBRANCH  18  20
ENDBRANCH   7  18
ENDBRANCH   6   7
ENDBRANCH   4   6
ENDBRANCH   1   2
BRANCH   1  33
ATOM     33  C   UNL A   1      31.382  30.990  26.223  1.00  0.00     0.023 C 
BRANCH  33  34
ATOM     34  C   UNL A   1      31.349  32.494  26.518  1.00  0.00     0.023 C 
BRANCH  34  35
ATOM     35  C   UNL A   1      32.585  33.039  27.223  1.00  0.00     0.116 C 
BRANCH  35  36
ATOM     36  N   UNL A   1      32.394  34.398  27.703  1.00  0.00    -0.352 N 
ATOM     37  C   UNL A   1      33.021  35.057  28.731  1.00  0.00     0.251 C 
ATOM     38  H   UNL A   1      31.715  34.922  27.221  1.00  0.00     0.163 HD
ATOM     39  O   UNL A   1      32.604  36.146  29.108  1.00  0.00    -0.269 OA
BRANCH  37  40
ATOM     40  C   UNL A   1      34.185  34.441  29.405  1.00  0.00     0.039 A 
ATOM     41  C   UNL A   1      33.969  33.675  30.552  1.00  0.00     0.014 A 
ATOM     42  C   UNL A   1      35.482  34.622  28.917  1.00  0.00     0.014 A 
ATOM     43  C   UNL A   1      35.045  33.034  31.171  1.00  0.00     0.010 A 
ATOM     44  C   UNL A   1      36.541  33.920  29.488  1.00  0.00     0.010 A 
ATOM     45  C   UNL A   1      36.334  33.120  30.622  1.00  0.00    -0.014 A 
BRANCH  45  46
ATOM     46  C   UNL A   1      37.473  32.372  31.215  1.00  0.00     0.031 A 
ATOM     47  C   UNL A   1      37.995  32.736  32.578  1.00  0.00     0.074 A 
ATOM     48  C   UNL A   1      38.077  31.402  30.500  1.00  0.00     0.049 A 
ATOM     49  N   UNL A   1      39.014  32.241  33.234  1.00  0.00    -0.248 NA
ATOM     50  C   UNL A   1      37.295  33.819  33.286  1.00  0.00     0.031 C 
ATOM     51  C   UNL A   1      37.691  30.982  29.152  1.00  0.00     0.029 A 
ATOM     52  N   UNL A   1      39.148  30.598  30.804  1.00  0.00    -0.354 N 
ATOM     53  C   UNL A   1      39.085  32.958  34.421  1.00  0.00     0.074 A 
ATOM     54  C   UNL A   1      38.041  33.958  34.372  1.00  0.00     0.031 C 
ATOM     55  C   UNL A   1      38.495  29.982  28.757  1.00  0.00     0.029 A 
ATOM     56  C   UNL A   1      39.480  29.720  29.801  1.00  0.00     0.049 A 
ATOM     57  H   UNL A   1      39.632  30.647  31.660  1.00  0.00     0.167 HD
ATOM     58  C   UNL A   1      39.928  32.782  35.467  1.00  0.00     0.037 A 
ATOM     59  C   UNL A   1      40.472  28.812  29.728  1.00  0.00     0.037 A 
ATOM     60  C   UNL A   1      40.953  31.773  35.520  1.00  0.00     0.049 A 
ATOM     61  C   UNL A   1      41.412  28.656  30.894  1.00  0.00     0.074 A 
ATOM     62  C   UNL A   1      41.817  31.474  36.559  1.00  0.00     0.029 A 
ATOM     63  N   UNL A   1      41.259  30.900  34.484  1.00  0.00    -0.354 N 
ATOM     64  N   UNL A   1      41.421  29.289  32.042  1.00  0.00    -0.248 NA
ATOM     65  C   UNL A   1      42.477  27.652  30.755  1.00  0.00     0.031 C 
ATOM     66  C   UNL A   1      42.686  30.465  36.130  1.00  0.00     0.029 A 
ATOM     67  C   UNL A   1      42.320  30.086  34.850  1.00  0.00     0.049 A 
ATOM     68  H   UNL A   1      40.790  30.864  33.619  1.00  0.00     0.167 HD
ATOM     69  C   UNL A   1      42.466  28.740  32.772  1.00  0.00     0.074 A 
ATOM     70  C   UNL A   1      43.058  27.711  31.944  1.00  0.00     0.031 C 
ATOM     71  C   UNL A   1      42.895  29.059  34.019  1.00  0.00     0.037 A 
BRANCH  58  72
ATOM     72  C   UNL A   1      39.785  33.709  36.641  1.00  0.00     0.064 A 
ATOM     73  C   UNL A   1      38.947  33.406  37.725  1.00  0.00     0.173 A 
ATOM     74  C   UNL A   1      40.530  34.897  36.704  1.00  0.00     0.173 A 
ATOM     75  F   UNL A   1      38.205  32.288  37.713  1.00  0.00    -0.203 F 
ATOM     76  C   UNL A   1      38.835  34.272  38.811  1.00  0.00     0.198 A 
ATOM     77  C   UNL A   1      40.443  35.743  37.806  1.00  0.00     0.198 A 
ATOM     78  F   UNL A   1      41.354  35.234  35.699  1.00  0.00    -0.203 F 
ATOM     79  F   UNL A   1      37.986  33.987  39.808  1.00  0.00    -0.200 F 
ATOM     80  C   UNL A   1      39.589  35.434  38.854  1.00  0.00     0.200 A 
ATOM     81  F   UNL A   1      41.185  36.858  37.854  1.00  0.00    -0.200 F 
ATOM     82  F   UNL A   1      39.487  36.263  39.903  1.00  0.00    -0.200 F 
ENDBRANCH  58  72
BRANCH  59  83
ATOM     83  C   UNL A   1      40.621  27.966  28.514  1.00  0.00     0.064 A 
ATOM     84  C   UNL A   1      39.997  26.713  28.430  1.00  0.00     0.173 A 
ATOM     85  C   UNL A   1      41.397  28.381  27.422  1.00  0.00     0.173 A 
ATOM     86  F   UNL A   1      39.261  26.261  29.456  1.00  0.00    -0.203 F 
ATOM     87  C   UNL A   1      40.166  25.896  27.313  1.00  0.00     0.198 A 
ATOM     88  C   UNL A   1      41.538  27.579  26.291  1.00  0.00     0.198 A 
ATOM     89  F   UNL A   1      42.011  29.573  27.447  1.00  0.00    -0.203 F 
ATOM     90  F   UNL A   1      39.603  24.681  27.283  1.00  0.00    -0.200 F 
ATOM     91  C   UNL A   1      40.931  26.333  26.242  1.00  0.00     0.200 A 
ATOM     92  F   UNL A   1      42.264  28.012  25.253  1.00  0.00    -0.200 F 
ATOM     93  F   UNL A   1      41.092  25.550  25.167  1.00  0.00    -0.200 F 
ENDBRANCH  59  83
BRANCH  71  94
ATOM     94  C   UNL A   1      44.034  28.257  34.584  1.00  0.00     0.064 A 
ATOM     95  C   UNL A   1      43.829  27.018  35.209  1.00  0.00     0.173 A 
ATOM     96  C   UNL A   1      45.354  28.719  34.464  1.00  0.00     0.173 A 
ATOM     97  F   UNL A   1      42.587  26.537  35.364  1.00  0.00    -0.203 F 
ATOM     98  C   UNL A   1      44.899  26.286  35.718  1.00  0.00     0.198 A 
ATOM     99  C   UNL A   1      46.424  27.968  34.940  1.00  0.00     0.198 A 
ATOM    100  F   UNL A   1      45.608  29.894  33.868  1.00  0.00    -0.203 F 
ATOM    101  F   UNL A   1      44.674  25.132  36.359  1.00  0.00    -0.200 F 
ATOM    102  C   UNL A   1      46.196  26.757  35.575  1.00  0.00     0.200 A 
ATOM    103  F   UNL A   1      47.678  28.418  34.786  1.00  0.00    -0.200 F 
ATOM    104  F   UNL A   1      47.225  26.048  36.058  1.00  0.00    -0.200 F 
ENDBRANCH  71  94
ENDBRANCH  45  46
ENDBRANCH  37  40
ENDBRANCH  35  36
ENDBRANCH  34  35
ENDBRANCH  33  34
ENDBRANCH   1  33
TORSDOF 18
ENDMDL
MODEL 3
REMARK VINA RESULT:     -12.8      0.489      2.042
REMARK SMILES O=C(C[C@@H]([NH2+]Cc1ccccc1)C(=O)/N=c1/[nH]c(-c2ccccc2)cs1)NCCCCNC(=O)c1ccc(-c2c3nc(c(-c4c(F)c(F)c(F)c(F)c4F)c4ccc([nH]4)c(-c4c(F)c(F)c(F)c(F)c4F)c4nc(c(-c5c(F)c(F)c(F)c(F)c5F)c5ccc2[nH]5)C=C4)C=C3)cc1
REMARK SMILES IDX 28 1 27 2 1 3 2 4 3 6 4 7 5 8 6 11 7 12 8 13 12 14 9 15
REMARK SMILES IDX 11 16 10 17 13 18 14 19 15 20 16 21 17 22 26 23 18 24 25 26
REMARK SMILES IDX 19 27 20 28 24 29 21 30 23 31 22 32 29 33 30 34 31 35 32 36
REMARK SMILES IDX 33 37 34 39 35 40 36 41 97 42 37 43 96 44 38 45 39 46 40 47
REMARK SMILES IDX 90 48 41 49 95 50 89 51 91 52 42 53 94 54 88 55 87 56 43 58
REMARK SMILES IDX 75 59 55 60 74 61 56 62 59 63 73 64 92 65 57 66 58 67 72 69
REMARK SMILES IDX 93 70 60 71 44 72 45 73 53 74 46 75 47 76 51 77 54 78 48 79
REMARK SMILES IDX 49 80 52 81 50 82 76 83 77 84 85 85 78 86 79 87 83 88 86 89
REMARK SMILES IDX 80 90 81 91 84 92 82 93 61 94 62 95 70 96 63 97 64 98 68 99
REMARK SMILES IDX 71 100 65 101 66 102 69 103 67 104
REMARK H PARENT 27 5 5 9 5 10 17 25 32 38 91 57 59 68
REMARK Flexibility Score: inf
ROOT
ATOM      1  C   UNL A   1      32.643  30.073  26.766  1.00  0.00     0.116 C 
ENDROOT
BRANCH   1   2
ATOM      2  N   UNL A   1      32.584  28.713  26.288  1.00  0.00    -0.356 N 
ATOM      3  O   UNL A   1      31.133  27.918  27.886  1.00  0.00    -0.275 OA
ATOM      4  C   UNL A   1      31.886  27.727  26.943  1.00  0.00     0.226 C 
ATOM      5  H   UNL A   1      33.064  28.481  25.460  1.00  0.00     0.163 HD
BRANCH   4   6
ATOM      6  C   UNL A   1      32.209  26.358  26.418  1.00  0.00     0.175 C 
BRANCH   6   7
ATOM      7  C   UNL A   1      32.146  26.219  24.900  1.00  0.00     0.284 C 
BRANCH   7   8
ATOM      8  N   UNL A   1      33.446  25.760  24.319  1.00  0.00    -0.332 N 
ATOM      9  H   UNL A   1      33.838  26.516  23.760  1.00  0.00     0.347 HD
ATOM     10  H   UNL A   1      33.255  24.932  23.755  1.00  0.00     0.347 HD
BRANCH   8  11
ATOM     11  C   UNL A   1      34.429  25.377  25.351  1.00  0.00     0.297 C 
BRANCH  11  12
ATOM     12  C   UNL A   1      35.117  24.066  25.047  1.00  0.00     0.006 A 
ATOM     13  C   UNL A   1      35.314  23.650  23.722  1.00  0.00     0.009 A 
ATOM     14  C   UNL A   1      35.614  23.264  26.085  1.00  0.00     0.009 A 
ATOM     15  C   UNL A   1      36.035  22.490  23.438  1.00  0.00     0.001 A 
ATOM     16  C   UNL A   1      36.308  22.087  25.800  1.00  0.00     0.001 A 
ATOM     17  C   UNL A   1      36.532  21.709  24.478  1.00  0.00     0.000 A 
ENDBRANCH  11  12
ENDBRANCH   8  11
ENDBRANCH   7   8
BRANCH   7  18
ATOM     18  C   UNL A   1      30.968  25.258  24.555  1.00  0.00     0.307 C 
ATOM     19  O   UNL A   1      29.826  25.503  24.931  1.00  0.00    -0.265 OA
BRANCH  18  20
ATOM     20  N   UNL A   1      31.280  24.171  23.764  1.00  0.00    -0.180 NA
ATOM     21  C   UNL A   1      31.556  23.058  24.353  1.00  0.00     0.190 A 
ATOM     22  N   UNL A   1      31.958  21.898  23.738  1.00  0.00    -0.330 N 
ATOM     23  S   UNL A   1      31.610  22.760  26.116  1.00  0.00    -0.105 S 
ATOM     24  C   UNL A   1      32.471  20.915  24.565  1.00  0.00     0.058 A 
ATOM     25  H   UNL A   1      31.884  21.773  22.765  1.00  0.00     0.169 HD
ATOM     26  C   UNL A   1      32.440  21.252  25.867  1.00  0.00     0.095 A 
BRANCH  24  27
ATOM     27  C   UNL A   1      32.980  19.629  24.066  1.00  0.00    -0.001 A 
ATOM     28  C   UNL A   1      32.375  18.932  23.011  1.00  0.00     0.010 A 
ATOM     29  C   UNL A   1      34.093  19.042  24.696  1.00  0.00     0.010 A 
ATOM     30  C   UNL A   1      32.873  17.687  22.605  1.00  0.00     0.001 A 
ATOM     31  C   UNL A   1      34.592  17.806  24.287  1.00  0.00     0.001 A 
ATOM     32  C   UNL A   1      33.978  17.127  23.243  1.00  0.00     0.000 A 
ENDBRANCH  24  27
ENDBRANCH  18  20
ENDBRANCH   7  18
ENDBRANCH   6   7
ENDBRANCH   4   6
ENDBRANCH   1   2
BRANCH   1  33
ATOM     33  C   UNL A   1      31.553  30.923  26.114  1.00  0.00     0.023 C 
BRANCH  33  34
ATOM     34  C   UNL A   1      31.339  32.297  26.759  1.00  0.00     0.023 C 
BRANCH  34  35
ATOM     35  C   UNL A   1      32.601  32.961  27.294  1.00  0.00     0.116 C 
BRANCH  35  36
ATOM     36  N   UNL A   1      32.380  34.349  27.667  1.00  0.00    -0.352 N 
ATOM     37  C   UNL A   1      32.993  35.099  28.640  1.00  0.00     0.251 C 
ATOM     38  H   UNL A   1      31.689  34.819  27.147  1.00  0.00     0.163 HD
ATOM     39  O   UNL A   1      32.552  36.205  28.932  1.00  0.00    -0.269 OA
BRANCH  37  40
ATOM     40  C   UNL A   1      34.170  34.564  29.357  1.00  0.00     0.039 A 
ATOM     41  C   UNL A   1      33.991  34.026  30.634  1.00  0.00     0.014 A 
ATOM     42  C   UNL A   1      35.443  34.596  28.782  1.00  0.00     0.014 A 
ATOM     43  C   UNL A   1      35.077  33.460  31.306  1.00  0.00     0.010 A 
ATOM     44  C   UNL A   1      36.507  33.962  29.419  1.00  0.00     0.010 A 
ATOM     45  C   UNL A   1      36.336  33.388  30.688  1.00  0.00    -0.014 A 
BRANCH  45  46
ATOM     46  C   UNL A   1      37.480  32.709  31.351  1.00  0.00     0.031 A 
ATOM     47  C   UNL A   1      38.172  31.555  30.681  1.00  0.00     0.074 A 
ATOM     48  C   UNL A   1      37.858  33.097  32.585  1.00  0.00     0.049 A 
ATOM     49  N   UNL A   1      39.145  30.801  31.127  1.00  0.00    -0.248 NA
ATOM     50  C   UNL A   1      37.688  31.179  29.344  1.00  0.00     0.031 C 
ATOM     51  C   UNL A   1      37.242  34.177  33.358  1.00  0.00     0.029 A 
ATOM     52  N   UNL A   1      38.847  32.621  33.411  1.00  0.00    -0.354 N 
ATOM     53  C   UNL A   1      39.380  29.858  30.134  1.00  0.00     0.074 A 
ATOM     54  C   UNL A   1      38.411  30.100  29.087  1.00  0.00     0.031 C 
ATOM     55  C   UNL A   1      37.883  34.299  34.531  1.00  0.00     0.029 A 
ATOM     56  C   UNL A   1      38.924  33.280  34.615  1.00  0.00     0.049 A 
ATOM     57  H   UNL A   1      39.445  31.879  33.164  1.00  0.00     0.167 HD
ATOM     58  C   UNL A   1      40.331  28.895  30.090  1.00  0.00     0.037 A 
ATOM     59  C   UNL A   1      39.735  33.077  35.670  1.00  0.00     0.037 A 
ATOM     60  C   UNL A   1      41.305  28.671  31.125  1.00  0.00     0.049 A 
ATOM     61  C   UNL A   1      40.766  31.983  35.605  1.00  0.00     0.074 A 
ATOM     62  C   UNL A   1      42.348  27.761  31.146  1.00  0.00     0.029 A 
ATOM     63  N   UNL A   1      41.353  29.358  32.330  1.00  0.00    -0.354 N 
ATOM     64  N   UNL A   1      41.028  31.146  34.629  1.00  0.00    -0.248 NA
ATOM     65  C   UNL A   1      41.622  31.807  36.787  1.00  0.00     0.031 C 
ATOM     66  C   UNL A   1      42.987  27.855  32.388  1.00  0.00     0.029 A 
ATOM     67  C   UNL A   1      42.386  28.870  33.114  1.00  0.00     0.049 A 
ATOM     68  H   UNL A   1      40.742  30.087  32.589  1.00  0.00     0.167 HD
ATOM     69  C   UNL A   1      42.094  30.372  35.065  1.00  0.00     0.074 A 
ATOM     70  C   UNL A   1      42.442  30.848  36.387  1.00  0.00     0.031 C 
ATOM     71  C   UNL A   1      42.729  29.358  34.426  1.00  0.00     0.037 A 
BRANCH  58  72
ATOM     72  C   UNL A   1      40.362  28.000  28.883  1.00  0.00     0.064 A 
ATOM     73  C   UNL A   1      41.117  28.321  27.743  1.00  0.00     0.173 A 
ATOM     74  C   UNL A   1      39.661  26.784  28.881  1.00  0.00     0.173 A 
ATOM     75  F   UNL A   1      41.798  29.475  27.688  1.00  0.00    -0.203 F 
ATOM     76  C   UNL A   1      41.142  27.474  26.637  1.00  0.00     0.198 A 
ATOM     77  C   UNL A   1      39.717  25.923  27.788  1.00  0.00     0.198 A 
ATOM     78  F   UNL A   1      38.929  26.423  29.946  1.00  0.00    -0.203 F 
ATOM     79  F   UNL A   1      41.826  27.828  25.540  1.00  0.00    -0.200 F 
ATOM     80  C   UNL A   1      40.449  26.273  26.664  1.00  0.00     0.200 A 
ATOM     81  F   UNL A   1      39.060  24.756  27.822  1.00  0.00    -0.200 F 
ATOM     82  F   UNL A   1      40.481  25.455  25.602  1.00  0.00    -0.200 F 
ENDBRANCH  58  72
BRANCH  59  83
ATOM     83  C   UNL A   1      39.621  33.942  36.875  1.00  0.00     0.064 A 
ATOM     84  C   UNL A   1      38.833  33.552  37.967  1.00  0.00     0.173 A 
ATOM     85  C   UNL A   1      40.280  35.177  36.956  1.00  0.00     0.173 A 
ATOM     86  F   UNL A   1      38.166  32.389  37.931  1.00  0.00    -0.203 F 
ATOM     87  C   UNL A   1      38.688  34.376  39.083  1.00  0.00     0.198 A 
ATOM     88  C   UNL A   1      40.161  35.985  38.085  1.00  0.00     0.198 A 
ATOM     89  F   UNL A   1      41.051  35.596  35.941  1.00  0.00    -0.203 F 
ATOM     90  F   UNL A   1      37.885  34.002  40.089  1.00  0.00    -0.200 F 
ATOM     91  C   UNL A   1      39.357  35.589  39.143  1.00  0.00     0.200 A 
ATOM     92  F   UNL A   1      40.822  37.148  38.146  1.00  0.00    -0.200 F 
ATOM     93  F   UNL A   1      39.220  36.380  40.215  1.00  0.00    -0.200 F 
ENDBRANCH  59  83
BRANCH  71  94
ATOM     94  C   UNL A   1      43.895  28.721  35.128  1.00  0.00     0.064 A 
ATOM     95  C   UNL A   1      45.199  29.222  35.001  1.00  0.00     0.173 A 
ATOM     96  C   UNL A   1      43.697  27.615  35.970  1.00  0.00     0.173 A 
ATOM     97  F   UNL A   1      45.447  30.267  34.198  1.00  0.00    -0.203 F 
ATOM     98  C   UNL A   1      46.265  28.623  35.668  1.00  0.00     0.198 A 
ATOM     99  C   UNL A   1      44.759  27.042  36.664  1.00  0.00     0.198 A 
ATOM    100  F   UNL A   1      42.470  27.100  36.133  1.00  0.00    -0.203 F 
ATOM    101  F   UNL A   1      47.510  29.085  35.489  1.00  0.00    -0.200 F 
ATOM    102  C   UNL A   1      46.043  27.540  36.505  1.00  0.00     0.200 A 
ATOM    103  F   UNL A   1      44.539  26.005  37.485  1.00  0.00    -0.200 F 
ATOM    104  F   UNL A   1      47.068  26.969  37.152  1.00  0.00    -0.200 F 
ENDBRANCH  71  94
ENDBRANCH  45  46
ENDBRANCH  37  40
ENDBRANCH  35  36
ENDBRANCH  34  35
ENDBRANCH  33  34
ENDBRANCH   1  33
TORSDOF 18
ENDMDL
