MODEL 1
REMARK VINA RESULT:     -11.9      0.000      0.000
REMARK SMILES CC[C@@](C)([NH2+]CC(=O)N[C@@H](C)c1ccc(F)cc1)C(=O)NCCCCNC(=O)c1ccc(-c2c3nc(c(-c4c(F)c(F)c(F)c(F)c4F)c4ccc([nH]4)c(-c4c(F)c(F)c(F)c(F)c4F)c4nc(c(-c5c(F)c(F)c(F)c(F)c5F)c5ccc2[nH]5)C=C4)C=C3)cc1
REMARK SMILES IDX 22 1 21 2 19 3 20 4 3 6 4 7 2 8 1 9 5 10 6 13 7 14 8 15 9 16
REMARK SMILES IDX 10 18 11 19 12 20 13 21 18 22 14 23 17 24 15 25 16 26 23 27
REMARK SMILES IDX 24 28 25 29 26 30 27 31 28 33 29 34 30 35 91 36 31 37 90 38
REMARK SMILES IDX 32 39 33 40 34 41 84 42 35 43 89 44 83 45 85 46 36 47 88 48
REMARK SMILES IDX 82 49 81 50 37 52 69 53 49 54 68 55 50 56 53 57 67 58 86 59
REMARK SMILES IDX 51 60 52 61 66 63 87 64 54 65 38 66 39 67 47 68 40 69 41 70
REMARK SMILES IDX 45 71 48 72 42 73 43 74 46 75 44 76 70 77 71 78 79 79 72 80
REMARK SMILES IDX 73 81 77 82 80 83 74 84 75 85 78 86 76 87 55 88 56 89 64 90
REMARK SMILES IDX 57 91 58 92 62 93 65 94 59 95 60 96 63 97 61 98
REMARK H PARENT 21 5 5 11 5 12 9 17 26 32 85 51 53 62
REMARK Flexibility Score: inf
ROOT
ATOM      1  C   UNL A   1      33.284  29.783  26.908  1.00  0.00     0.116 C 
ENDROOT
BRANCH   1   2
ATOM      2  N   UNL A   1      33.969  29.494  25.647  1.00  0.00    -0.351 N 
ATOM      3  C   UNL A   1      33.400  28.806  24.570  1.00  0.00     0.281 C 
ATOM      4  O   UNL A   1      33.256  29.465  23.536  1.00  0.00    -0.268 OA
ATOM      5  H   UNL A   1      34.898  29.805  25.550  1.00  0.00     0.163 HD
BRANCH   3   6
ATOM      6  C   UNL A   1      33.134  27.208  24.629  1.00  0.00     0.172 C 
ATOM      7  C   UNL A   1      33.357  26.212  25.785  1.00  0.00     0.090 C 
BRANCH   6   8
ATOM      8  C   UNL A   1      31.559  27.162  24.459  1.00  0.00     0.075 C 
ATOM      9  C   UNL A   1      30.892  25.883  25.046  1.00  0.00     0.011 C 
ENDBRANCH   6   8
BRANCH   6  10
ATOM     10  N   UNL A   1      33.914  26.674  23.511  1.00  0.00    -0.326 N 
ATOM     11  H   UNL A   1      34.258  25.760  23.804  1.00  0.00     0.347 HD
ATOM     12  H   UNL A   1      34.603  27.406  23.339  1.00  0.00     0.347 HD
BRANCH  10  13
ATOM     13  C   UNL A   1      33.285  26.485  22.180  1.00  0.00     0.362 C 
BRANCH  13  14
ATOM     14  C   UNL A   1      32.958  25.162  21.392  1.00  0.00     0.275 C 
ATOM     15  O   UNL A   1      32.893  25.332  20.153  1.00  0.00    -0.268 OA
ATOM     16  N   UNL A   1      32.737  23.860  21.699  1.00  0.00    -0.345 N 
ATOM     17  H   UNL A   1      32.687  23.345  20.861  1.00  0.00     0.164 HD
BRANCH  16  18
ATOM     18  C   UNL A   1      32.543  22.931  22.834  1.00  0.00     0.109 C 
ATOM     19  C   UNL A   1      32.204  21.487  22.421  1.00  0.00     0.036 C 
BRANCH  18  20
ATOM     20  C   UNL A   1      33.751  22.864  23.770  1.00  0.00    -0.026 A 
ATOM     21  C   UNL A   1      35.031  23.217  23.299  1.00  0.00     0.009 A 
ATOM     22  C   UNL A   1      33.597  22.627  25.146  1.00  0.00     0.009 A 
ATOM     23  C   UNL A   1      36.127  23.289  24.160  1.00  0.00     0.039 A 
ATOM     24  C   UNL A   1      34.681  22.759  26.018  1.00  0.00     0.039 A 
ATOM     25  C   UNL A   1      35.937  23.072  25.516  1.00  0.00     0.123 A 
ATOM     26  F   UNL A   1      36.974  23.201  26.353  1.00  0.00    -0.207 F 
ENDBRANCH  18  20
ENDBRANCH  16  18
ENDBRANCH  13  14
ENDBRANCH  10  13
ENDBRANCH   6  10
ENDBRANCH   3   6
ENDBRANCH   1   2
BRANCH   1  27
ATOM     27  C   UNL A   1      31.835  30.258  26.826  1.00  0.00     0.023 C 
BRANCH  27  28
ATOM     28  C   UNL A   1      31.675  31.781  26.701  1.00  0.00     0.023 C 
BRANCH  28  29
ATOM     29  C   UNL A   1      32.761  32.662  27.332  1.00  0.00     0.116 C 
BRANCH  29  30
ATOM     30  N   UNL A   1      32.347  34.018  27.662  1.00  0.00    -0.352 N 
ATOM     31  C   UNL A   1      32.939  34.894  28.549  1.00  0.00     0.251 C 
ATOM     32  H   UNL A   1      31.548  34.352  27.194  1.00  0.00     0.163 HD
ATOM     33  O   UNL A   1      32.461  36.007  28.752  1.00  0.00    -0.269 OA
BRANCH  31  34
ATOM     34  C   UNL A   1      34.129  34.457  29.313  1.00  0.00     0.039 A 
ATOM     35  C   UNL A   1      33.942  33.822  30.543  1.00  0.00     0.014 A 
ATOM     36  C   UNL A   1      35.412  34.597  28.777  1.00  0.00     0.014 A 
ATOM     37  C   UNL A   1      35.032  33.233  31.188  1.00  0.00     0.010 A 
ATOM     38  C   UNL A   1      36.485  33.950  29.388  1.00  0.00     0.010 A 
ATOM     39  C   UNL A   1      36.303  33.242  30.587  1.00  0.00    -0.014 A 
BRANCH  39  40
ATOM     40  C   UNL A   1      37.438  32.488  31.183  1.00  0.00     0.031 A 
ATOM     41  C   UNL A   1      37.950  32.838  32.552  1.00  0.00     0.074 A 
ATOM     42  C   UNL A   1      38.050  31.524  30.465  1.00  0.00     0.049 A 
ATOM     43  N   UNL A   1      38.963  32.333  33.211  1.00  0.00    -0.248 NA
ATOM     44  C   UNL A   1      37.246  33.913  33.268  1.00  0.00     0.031 C 
ATOM     45  C   UNL A   1      37.683  31.120  29.107  1.00  0.00     0.029 A 
ATOM     46  N   UNL A   1      39.115  30.710  30.774  1.00  0.00    -0.354 N 
ATOM     47  C   UNL A   1      39.024  33.034  34.406  1.00  0.00     0.074 A 
ATOM     48  C   UNL A   1      37.980  34.035  34.364  1.00  0.00     0.031 C 
ATOM     49  C   UNL A   1      38.481  30.114  28.715  1.00  0.00     0.029 A 
ATOM     50  C   UNL A   1      39.444  29.827  29.775  1.00  0.00     0.049 A 
ATOM     51  H   UNL A   1      39.596  30.757  31.632  1.00  0.00     0.167 HD
ATOM     52  C   UNL A   1      39.858  32.843  35.455  1.00  0.00     0.037 A 
ATOM     53  C   UNL A   1      40.411  28.889  29.717  1.00  0.00     0.037 A 
ATOM     54  C   UNL A   1      40.874  31.825  35.512  1.00  0.00     0.049 A 
ATOM     55  C   UNL A   1      41.327  28.701  30.896  1.00  0.00     0.074 A 
ATOM     56  C   UNL A   1      41.725  31.518  36.558  1.00  0.00     0.029 A 
ATOM     57  N   UNL A   1      41.172  30.948  34.481  1.00  0.00    -0.354 N 
ATOM     58  N   UNL A   1      41.336  29.333  32.044  1.00  0.00    -0.248 NA
ATOM     59  C   UNL A   1      42.367  27.668  30.773  1.00  0.00     0.031 C 
ATOM     60  C   UNL A   1      42.567  30.481  36.146  1.00  0.00     0.029 A 
ATOM     61  C   UNL A   1      42.209  30.111  34.860  1.00  0.00     0.049 A 
ATOM     62  H   UNL A   1      40.716  30.924  33.608  1.00  0.00     0.167 HD
ATOM     63  C   UNL A   1      42.359  28.761  32.787  1.00  0.00     0.074 A 
ATOM     64  C   UNL A   1      42.944  27.723  31.966  1.00  0.00     0.031 C 
ATOM     65  C   UNL A   1      42.775  29.073  34.038  1.00  0.00     0.037 A 
BRANCH  52  66
ATOM     66  C   UNL A   1      39.700  33.740  36.646  1.00  0.00     0.064 A 
ATOM     67  C   UNL A   1      38.868  33.369  37.715  1.00  0.00     0.173 A 
ATOM     68  C   UNL A   1      40.312  35.002  36.698  1.00  0.00     0.173 A 
ATOM     69  F   UNL A   1      38.253  32.177  37.710  1.00  0.00    -0.203 F 
ATOM     70  C   UNL A   1      38.647  34.234  38.784  1.00  0.00     0.198 A 
ATOM     71  C   UNL A   1      40.110  35.852  37.781  1.00  0.00     0.198 A 
ATOM     72  F   UNL A   1      41.123  35.398  35.705  1.00  0.00    -0.203 F 
ATOM     73  F   UNL A   1      37.824  33.872  39.777  1.00  0.00    -0.200 F 
ATOM     74  C   UNL A   1      39.271  35.472  38.818  1.00  0.00     0.200 A 
ATOM     75  F   UNL A   1      40.730  37.039  37.823  1.00  0.00    -0.200 F 
ATOM     76  F   UNL A   1      39.063  36.300  39.850  1.00  0.00    -0.200 F 
ENDBRANCH  52  66
BRANCH  53  77
ATOM     77  C   UNL A   1      40.534  28.028  28.512  1.00  0.00     0.064 A 
ATOM     78  C   UNL A   1      39.911  26.774  28.440  1.00  0.00     0.173 A 
ATOM     79  C   UNL A   1      41.294  28.443  27.410  1.00  0.00     0.173 A 
ATOM     80  F   UNL A   1      39.174  26.329  29.468  1.00  0.00    -0.203 F 
ATOM     81  C   UNL A   1      40.059  25.960  27.317  1.00  0.00     0.198 A 
ATOM     82  C   UNL A   1      41.421  27.641  26.279  1.00  0.00     0.198 A 
ATOM     83  F   UNL A   1      41.890  29.645  27.423  1.00  0.00    -0.203 F 
ATOM     84  F   UNL A   1      39.478  24.753  27.285  1.00  0.00    -0.200 F 
ATOM     85  C   UNL A   1      40.810  26.396  26.236  1.00  0.00     0.200 A 
ATOM     86  F   UNL A   1      42.126  28.077  25.226  1.00  0.00    -0.200 F 
ATOM     87  F   UNL A   1      40.940  25.620  25.151  1.00  0.00    -0.200 F 
ENDBRANCH  53  77
BRANCH  65  88
ATOM     88  C   UNL A   1      43.901  28.272  34.621  1.00  0.00     0.064 A 
ATOM     89  C   UNL A   1      43.639  27.082  35.319  1.00  0.00     0.173 A 
ATOM     90  C   UNL A   1      45.227  28.726  34.569  1.00  0.00     0.173 A 
ATOM     91  F   UNL A   1      42.386  26.611  35.404  1.00  0.00    -0.203 F 
ATOM     92  C   UNL A   1      44.661  26.388  35.959  1.00  0.00     0.198 A 
ATOM     93  C   UNL A   1      46.250  28.014  35.188  1.00  0.00     0.198 A 
ATOM     94  F   UNL A   1      45.529  29.851  33.903  1.00  0.00    -0.203 F 
ATOM     95  F   UNL A   1      44.381  25.276  36.652  1.00  0.00    -0.200 F 
ATOM     96  C   UNL A   1      45.966  26.853  35.892  1.00  0.00     0.200 A 
ATOM     97  F   UNL A   1      47.514  28.453  35.104  1.00  0.00    -0.200 F 
ATOM     98  F   UNL A   1      46.950  26.181  36.506  1.00  0.00    -0.200 F 
ENDBRANCH  65  88
ENDBRANCH  39  40
ENDBRANCH  31  34
ENDBRANCH  29  30
ENDBRANCH  28  29
ENDBRANCH  27  28
ENDBRANCH   1  27
TORSDOF 17
ENDMDL
MODEL 2
REMARK VINA RESULT:     -11.8      0.745      7.451
REMARK SMILES CC[C@@](C)([NH2+]CC(=O)N[C@@H](C)c1ccc(F)cc1)C(=O)NCCCCNC(=O)c1ccc(-c2c3nc(c(-c4c(F)c(F)c(F)c(F)c4F)c4ccc([nH]4)c(-c4c(F)c(F)c(F)c(F)c4F)c4nc(c(-c5c(F)c(F)c(F)c(F)c5F)c5ccc2[nH]5)C=C4)C=C3)cc1
REMARK SMILES IDX 22 1 21 2 19 3 20 4 3 6 4 7 2 8 1 9 5 10 6 13 7 14 8 15 9 16
REMARK SMILES IDX 10 18 11 19 12 20 13 21 18 22 14 23 17 24 15 25 16 26 23 27
REMARK SMILES IDX 24 28 25 29 26 30 27 31 28 33 29 34 30 35 91 36 31 37 90 38
REMARK SMILES IDX 32 39 33 40 34 41 84 42 35 43 89 44 83 45 85 46 36 47 88 48
REMARK SMILES IDX 82 49 81 50 37 52 69 53 49 54 68 55 50 56 53 57 67 58 86 59
REMARK SMILES IDX 51 60 52 61 66 63 87 64 54 65 38 66 39 67 47 68 40 69 41 70
REMARK SMILES IDX 45 71 48 72 42 73 43 74 46 75 44 76 70 77 71 78 79 79 72 80
REMARK SMILES IDX 73 81 77 82 80 83 74 84 75 85 78 86 76 87 55 88 56 89 64 90
REMARK SMILES IDX 57 91 58 92 62 93 65 94 59 95 60 96 63 97 61 98
REMARK H PARENT 21 5 5 11 5 12 9 17 26 32 85 51 53 62
REMARK Flexibility Score: inf
ROOT
ATOM      1  C   UNL A   1      33.707  29.810  26.984  1.00  0.00     0.116 C 
ENDROOT
BRANCH   1   2
ATOM      2  N   UNL A   1      34.199  29.316  25.696  1.00  0.00    -0.351 N 
ATOM      3  C   UNL A   1      33.407  28.699  24.723  1.00  0.00     0.281 C 
ATOM      4  O   UNL A   1      33.300  29.314  23.657  1.00  0.00    -0.268 OA
ATOM      5  H   UNL A   1      35.158  29.425  25.503  1.00  0.00     0.163 HD
BRANCH   3   6
ATOM      6  C   UNL A   1      32.836  27.195  24.921  1.00  0.00     0.172 C 
ATOM      7  C   UNL A   1      32.804  26.310  26.183  1.00  0.00     0.090 C 
BRANCH   6   8
ATOM      8  C   UNL A   1      31.291  27.424  24.646  1.00  0.00     0.075 C 
ATOM      9  C   UNL A   1      30.372  26.292  25.190  1.00  0.00     0.011 C 
ENDBRANCH   6   8
BRANCH   6  10
ATOM     10  N   UNL A   1      33.553  26.404  23.920  1.00  0.00    -0.326 N 
ATOM     11  H   UNL A   1      33.720  25.488  24.335  1.00  0.00     0.347 HD
ATOM     12  H   UNL A   1      34.366  26.983  23.708  1.00  0.00     0.347 HD
BRANCH  10  13
ATOM     13  C   UNL A   1      32.954  26.164  22.584  1.00  0.00     0.362 C 
BRANCH  13  14
ATOM     14  C   UNL A   1      32.886  24.845  21.726  1.00  0.00     0.275 C 
ATOM     15  O   UNL A   1      33.229  25.016  20.534  1.00  0.00    -0.268 OA
ATOM     16  N   UNL A   1      32.561  23.546  21.939  1.00  0.00    -0.345 N 
ATOM     17  H   UNL A   1      32.781  23.032  21.128  1.00  0.00     0.164 HD
BRANCH  16  18
ATOM     18  C   UNL A   1      31.998  22.619  22.944  1.00  0.00     0.109 C 
ATOM     19  C   UNL A   1      32.117  21.129  22.572  1.00  0.00     0.036 C 
BRANCH  18  20
ATOM     20  C   UNL A   1      32.615  22.790  24.333  1.00  0.00    -0.026 A 
ATOM     21  C   UNL A   1      31.797  22.761  25.479  1.00  0.00     0.009 A 
ATOM     22  C   UNL A   1      34.008  22.803  24.517  1.00  0.00     0.009 A 
ATOM     23  C   UNL A   1      32.344  22.786  26.762  1.00  0.00     0.039 A 
ATOM     24  C   UNL A   1      34.557  22.766  25.802  1.00  0.00     0.039 A 
ATOM     25  C   UNL A   1      33.722  22.774  26.911  1.00  0.00     0.123 A 
ATOM     26  F   UNL A   1      34.250  22.736  28.141  1.00  0.00    -0.207 F 
ENDBRANCH  18  20
ENDBRANCH  16  18
ENDBRANCH  13  14
ENDBRANCH  10  13
ENDBRANCH   6  10
ENDBRANCH   3   6
ENDBRANCH   1   2
BRANCH   1  27
ATOM     27  C   UNL A   1      32.228  30.182  27.072  1.00  0.00     0.023 C 
BRANCH  27  28
ATOM     28  C   UNL A   1      31.941  31.681  26.889  1.00  0.00     0.023 C 
BRANCH  28  29
ATOM     29  C   UNL A   1      32.991  32.672  27.406  1.00  0.00     0.116 C 
BRANCH  29  30
ATOM     30  N   UNL A   1      32.495  34.009  27.697  1.00  0.00    -0.352 N 
ATOM     31  C   UNL A   1      33.005  34.929  28.589  1.00  0.00     0.251 C 
ATOM     32  H   UNL A   1      31.697  34.292  27.194  1.00  0.00     0.163 HD
ATOM     33  O   UNL A   1      32.463  36.018  28.755  1.00  0.00    -0.269 OA
BRANCH  31  34
ATOM     34  C   UNL A   1      34.188  34.569  29.403  1.00  0.00     0.039 A 
ATOM     35  C   UNL A   1      33.989  34.084  30.698  1.00  0.00     0.014 A 
ATOM     36  C   UNL A   1      35.474  34.628  28.860  1.00  0.00     0.014 A 
ATOM     37  C   UNL A   1      35.069  33.559  31.412  1.00  0.00     0.010 A 
ATOM     38  C   UNL A   1      36.537  34.042  29.547  1.00  0.00     0.010 A 
ATOM     39  C   UNL A   1      36.342  33.482  30.820  1.00  0.00    -0.014 A 
BRANCH  39  40
ATOM     40  C   UNL A   1      37.465  32.788  31.504  1.00  0.00     0.031 A 
ATOM     41  C   UNL A   1      38.159  31.630  30.845  1.00  0.00     0.074 A 
ATOM     42  C   UNL A   1      37.821  33.162  32.750  1.00  0.00     0.049 A 
ATOM     43  N   UNL A   1      39.117  30.867  31.310  1.00  0.00    -0.248 NA
ATOM     44  C   UNL A   1      37.704  31.265  29.495  1.00  0.00     0.031 C 
ATOM     45  C   UNL A   1      37.196  34.239  33.521  1.00  0.00     0.029 A 
ATOM     46  N   UNL A   1      38.794  32.677  33.593  1.00  0.00    -0.354 N 
ATOM     47  C   UNL A   1      39.368  29.930  30.319  1.00  0.00     0.074 A 
ATOM     48  C   UNL A   1      38.430  30.185  29.247  1.00  0.00     0.031 C 
ATOM     49  C   UNL A   1      37.821  34.356  34.703  1.00  0.00     0.029 A 
ATOM     50  C   UNL A   1      38.865  33.339  34.795  1.00  0.00     0.049 A 
ATOM     51  H   UNL A   1      39.384  31.925  33.356  1.00  0.00     0.167 HD
ATOM     52  C   UNL A   1      40.313  28.961  30.293  1.00  0.00     0.037 A 
ATOM     53  C   UNL A   1      39.680  33.151  35.851  1.00  0.00     0.037 A 
ATOM     54  C   UNL A   1      41.269  28.729  31.343  1.00  0.00     0.049 A 
ATOM     55  C   UNL A   1      40.719  32.064  35.798  1.00  0.00     0.074 A 
ATOM     56  C   UNL A   1      42.303  27.810  31.376  1.00  0.00     0.029 A 
ATOM     57  N   UNL A   1      41.312  29.424  32.541  1.00  0.00    -0.354 N 
ATOM     58  N   UNL A   1      40.984  31.222  34.829  1.00  0.00    -0.248 NA
ATOM     59  C   UNL A   1      41.575  31.902  36.983  1.00  0.00     0.031 C 
ATOM     60  C   UNL A   1      42.945  27.920  32.613  1.00  0.00     0.029 A 
ATOM     61  C   UNL A   1      42.342  28.940  33.330  1.00  0.00     0.049 A 
ATOM     62  H   UNL A   1      40.699  30.153  32.795  1.00  0.00     0.167 HD
ATOM     63  C   UNL A   1      42.047  30.449  35.274  1.00  0.00     0.074 A 
ATOM     64  C   UNL A   1      42.389  30.928  36.597  1.00  0.00     0.031 C 
ATOM     65  C   UNL A   1      42.681  29.433  34.640  1.00  0.00     0.037 A 
BRANCH  52  66
ATOM     66  C   UNL A   1      40.380  28.082  29.079  1.00  0.00     0.064 A 
ATOM     67  C   UNL A   1      41.142  28.463  27.963  1.00  0.00     0.173 A 
ATOM     68  C   UNL A   1      39.632  26.899  28.991  1.00  0.00     0.173 A 
ATOM     69  F   UNL A   1      41.869  29.590  27.993  1.00  0.00    -0.203 F 
ATOM     70  C   UNL A   1      41.140  27.697  26.800  1.00  0.00     0.198 A 
ATOM     71  C   UNL A   1      39.654  26.122  27.837  1.00  0.00     0.198 A 
ATOM     72  F   UNL A   1      38.896  26.488  30.034  1.00  0.00    -0.203 F 
ATOM     73  F   UNL A   1      41.849  28.097  25.735  1.00  0.00    -0.200 F 
ATOM     74  C   UNL A   1      40.400  26.526  26.739  1.00  0.00     0.200 A 
ATOM     75  F   UNL A   1      38.956  24.980  27.787  1.00  0.00    -0.200 F 
ATOM     76  F   UNL A   1      40.405  25.787  25.622  1.00  0.00    -0.200 F 
ENDBRANCH  52  66
BRANCH  53  77
ATOM     77  C   UNL A   1      39.572  34.043  37.036  1.00  0.00     0.064 A 
ATOM     78  C   UNL A   1      40.226  35.282  37.085  1.00  0.00     0.173 A 
ATOM     79  C   UNL A   1      38.817  33.659  38.154  1.00  0.00     0.173 A 
ATOM     80  F   UNL A   1      40.961  35.695  36.042  1.00  0.00    -0.203 F 
ATOM     81  C   UNL A   1      40.143  36.096  38.213  1.00  0.00     0.198 A 
ATOM     82  C   UNL A   1      38.714  34.485  39.271  1.00  0.00     0.198 A 
ATOM     83  F   UNL A   1      38.155  32.493  38.145  1.00  0.00    -0.203 F 
ATOM     84  F   UNL A   1      40.801  37.263  38.246  1.00  0.00    -0.200 F 
ATOM     85  C   UNL A   1      39.383  35.699  39.304  1.00  0.00     0.200 A 
ATOM     86  F   UNL A   1      37.959  34.109  40.312  1.00  0.00    -0.200 F 
ATOM     87  F   UNL A   1      39.292  36.488  40.383  1.00  0.00    -0.200 F 
ENDBRANCH  53  77
BRANCH  65  88
ATOM     88  C   UNL A   1      43.829  28.776  35.347  1.00  0.00     0.064 A 
ATOM     89  C   UNL A   1      45.148  29.178  35.083  1.00  0.00     0.173 A 
ATOM     90  C   UNL A   1      43.633  27.690  36.212  1.00  0.00     0.173 A 
ATOM     91  F   UNL A   1      45.389  30.206  34.256  1.00  0.00    -0.203 F 
ATOM     92  C   UNL A   1      46.227  28.504  35.646  1.00  0.00     0.198 A 
ATOM     93  C   UNL A   1      44.714  27.036  36.795  1.00  0.00     0.198 A 
ATOM     94  F   UNL A   1      42.389  27.277  36.505  1.00  0.00    -0.203 F 
ATOM     95  F   UNL A   1      47.479  28.881  35.350  1.00  0.00    -0.200 F 
ATOM     96  C   UNL A   1      46.011  27.435  36.503  1.00  0.00     0.200 A 
ATOM     97  F   UNL A   1      44.502  26.017  37.639  1.00  0.00    -0.200 F 
ATOM     98  F   UNL A   1      47.051  26.789  37.047  1.00  0.00    -0.200 F 
ENDBRANCH  65  88
ENDBRANCH  39  40
ENDBRANCH  31  34
ENDBRANCH  29  30
ENDBRANCH  28  29
ENDBRANCH  27  28
ENDBRANCH   1  27
TORSDOF 17
ENDMDL
MODEL 3
REMARK VINA RESULT:     -11.8      5.595     11.124
REMARK SMILES CC[C@@](C)([NH2+]CC(=O)N[C@@H](C)c1ccc(F)cc1)C(=O)NCCCCNC(=O)c1ccc(-c2c3nc(c(-c4c(F)c(F)c(F)c(F)c4F)c4ccc([nH]4)c(-c4c(F)c(F)c(F)c(F)c4F)c4nc(c(-c5c(F)c(F)c(F)c(F)c5F)c5ccc2[nH]5)C=C4)C=C3)cc1
REMARK SMILES IDX 22 1 21 2 19 3 20 4 3 6 4 7 2 8 1 9 5 10 6 13 7 14 8 15 9 16
REMARK SMILES IDX 10 18 11 19 12 20 13 21 18 22 14 23 17 24 15 25 16 26 23 27
REMARK SMILES IDX 24 28 25 29 26 30 27 31 28 33 29 34 30 35 91 36 31 37 90 38
REMARK SMILES IDX 32 39 33 40 34 41 84 42 35 43 89 44 83 45 85 46 36 47 88 48
REMARK SMILES IDX 82 49 81 50 37 52 69 53 49 54 68 55 50 56 53 57 67 58 86 59
REMARK SMILES IDX 51 60 52 61 66 63 87 64 54 65 38 66 39 67 47 68 40 69 41 70
REMARK SMILES IDX 45 71 48 72 42 73 43 74 46 75 44 76 70 77 71 78 79 79 72 80
REMARK SMILES IDX 73 81 77 82 80 83 74 84 75 85 78 86 76 87 55 88 56 89 64 90
REMARK SMILES IDX 57 91 58 92 62 93 65 94 59 95 60 96 63 97 61 98
REMARK H PARENT 21 5 5 11 5 12 9 17 26 32 85 51 53 62
REMARK Flexibility Score: inf
ROOT
ATOM      1  C   UNL A   1      36.359  21.696  24.653  1.00  0.00     0.116 C 
ENDROOT
BRANCH   1   2
ATOM      2  N   UNL A   1      35.285  22.315  25.433  1.00  0.00    -0.351 N 
ATOM      3  C   UNL A   1      34.181  21.631  25.952  1.00  0.00     0.281 C 
ATOM      4  O   UNL A   1      34.110  21.595  27.184  1.00  0.00    -0.268 OA
ATOM      5  H   UNL A   1      35.345  23.282  25.604  1.00  0.00     0.163 HD
BRANCH   3   6
ATOM      6  C   UNL A   1      32.986  21.098  24.995  1.00  0.00     0.172 C 
ATOM      7  C   UNL A   1      32.528  21.605  23.613  1.00  0.00     0.090 C 
BRANCH   6   8
ATOM      8  C   UNL A   1      33.509  19.642  24.650  1.00  0.00     0.075 C 
ATOM      9  C   UNL A   1      32.502  18.781  23.831  1.00  0.00     0.011 C 
ENDBRANCH   6   8
BRANCH   6  10
ATOM     10  N   UNL A   1      31.793  21.166  25.840  1.00  0.00    -0.326 N 
ATOM     11  H   UNL A   1      32.116  21.125  26.806  1.00  0.00     0.347 HD
ATOM     12  H   UNL A   1      31.223  20.392  25.498  1.00  0.00     0.347 HD
BRANCH  10  13
ATOM     13  C   UNL A   1      30.873  22.327  25.748  1.00  0.00     0.362 C 
BRANCH  13  14
ATOM     14  C   UNL A   1      30.830  23.656  26.590  1.00  0.00     0.275 C 
ATOM     15  O   UNL A   1      29.823  23.737  27.329  1.00  0.00    -0.268 OA
ATOM     16  N   UNL A   1      31.614  24.752  26.743  1.00  0.00    -0.345 N 
ATOM     17  H   UNL A   1      31.252  25.295  27.481  1.00  0.00     0.164 HD
BRANCH  16  18
ATOM     18  C   UNL A   1      32.813  25.431  26.206  1.00  0.00     0.109 C 
ATOM     19  C   UNL A   1      33.090  25.149  24.718  1.00  0.00     0.036 C 
BRANCH  18  20
ATOM     20  C   UNL A   1      32.773  26.950  26.379  1.00  0.00    -0.026 A 
ATOM     21  C   UNL A   1      31.729  27.552  27.110  1.00  0.00     0.009 A 
ATOM     22  C   UNL A   1      33.848  27.761  25.978  1.00  0.00     0.009 A 
ATOM     23  C   UNL A   1      31.735  28.918  27.393  1.00  0.00     0.039 A 
ATOM     24  C   UNL A   1      33.884  29.117  26.315  1.00  0.00     0.039 A 
ATOM     25  C   UNL A   1      32.821  29.685  27.004  1.00  0.00     0.123 A 
ATOM     26  F   UNL A   1      32.858  30.984  27.328  1.00  0.00    -0.207 F 
ENDBRANCH  18  20
ENDBRANCH  16  18
ENDBRANCH  13  14
ENDBRANCH  10  13
ENDBRANCH   6  10
ENDBRANCH   3   6
ENDBRANCH   1   2
BRANCH   1  27
ATOM     27  C   UNL A   1      36.922  20.371  25.162  1.00  0.00     0.023 C 
BRANCH  27  28
ATOM     28  C   UNL A   1      38.374  20.098  24.744  1.00  0.00     0.023 C 
BRANCH  28  29
ATOM     29  C   UNL A   1      39.450  20.157  25.836  1.00  0.00     0.116 C 
BRANCH  29  30
ATOM     30  N   UNL A   1      40.391  19.047  25.843  1.00  0.00    -0.352 N 
ATOM     31  C   UNL A   1      41.739  19.079  26.135  1.00  0.00     0.251 C 
ATOM     32  H   UNL A   1      40.020  18.165  25.612  1.00  0.00     0.163 HD
ATOM     33  O   UNL A   1      42.424  18.061  26.073  1.00  0.00    -0.269 OA
BRANCH  31  34
ATOM     34  C   UNL A   1      42.378  20.372  26.466  1.00  0.00     0.039 A 
ATOM     35  C   UNL A   1      42.961  21.115  25.436  1.00  0.00     0.014 A 
ATOM     36  C   UNL A   1      42.324  20.884  27.764  1.00  0.00     0.014 A 
ATOM     37  C   UNL A   1      43.398  22.418  25.688  1.00  0.00     0.010 A 
ATOM     38  C   UNL A   1      42.698  22.207  27.997  1.00  0.00     0.010 A 
ATOM     39  C   UNL A   1      43.217  22.995  26.957  1.00  0.00    -0.014 A 
BRANCH  39  40
ATOM     40  C   UNL A   1      43.533  24.428  27.199  1.00  0.00     0.031 A 
ATOM     41  C   UNL A   1      44.915  24.958  26.936  1.00  0.00     0.074 A 
ATOM     42  C   UNL A   1      42.590  25.242  27.716  1.00  0.00     0.049 A 
ATOM     43  N   UNL A   1      45.391  26.161  27.141  1.00  0.00    -0.248 NA
ATOM     44  C   UNL A   1      45.897  24.008  26.392  1.00  0.00     0.031 C 
ATOM     45  C   UNL A   1      41.225  24.842  28.061  1.00  0.00     0.029 A 
ATOM     46  N   UNL A   1      42.635  26.576  28.046  1.00  0.00    -0.354 N 
ATOM     47  C   UNL A   1      46.725  26.107  26.765  1.00  0.00     0.074 A 
ATOM     48  C   UNL A   1      46.999  24.743  26.366  1.00  0.00     0.031 C 
ATOM     49  C   UNL A   1      40.554  25.911  28.518  1.00  0.00     0.029 A 
ATOM     50  C   UNL A   1      41.448  27.065  28.538  1.00  0.00     0.049 A 
ATOM     51  H   UNL A   1      43.442  27.130  27.938  1.00  0.00     0.167 HD
ATOM     52  C   UNL A   1      47.634  27.110  26.729  1.00  0.00     0.037 A 
ATOM     53  C   UNL A   1      41.116  28.302  28.957  1.00  0.00     0.037 A 
ATOM     54  C   UNL A   1      47.354  28.474  27.091  1.00  0.00     0.049 A 
ATOM     55  C   UNL A   1      42.147  29.398  28.910  1.00  0.00     0.074 A 
ATOM     56  C   UNL A   1      48.195  29.570  27.028  1.00  0.00     0.029 A 
ATOM     57  N   UNL A   1      46.139  28.929  27.581  1.00  0.00    -0.354 N 
ATOM     58  N   UNL A   1      43.389  29.346  28.497  1.00  0.00    -0.248 NA
ATOM     59  C   UNL A   1      41.729  30.725  29.386  1.00  0.00     0.031 C 
ATOM     60  C   UNL A   1      47.503  30.682  27.518  1.00  0.00     0.029 A 
ATOM     61  C   UNL A   1      46.215  30.287  27.842  1.00  0.00     0.049 A 
ATOM     62  H   UNL A   1      45.340  28.369  27.722  1.00  0.00     0.167 HD
ATOM     63  C   UNL A   1      43.893  30.631  28.638  1.00  0.00     0.074 A 
ATOM     64  C   UNL A   1      42.820  31.447  29.166  1.00  0.00     0.031 C 
ATOM     65  C   UNL A   1      45.136  31.091  28.356  1.00  0.00     0.037 A 
BRANCH  52  66
ATOM     66  C   UNL A   1      49.020  26.782  26.261  1.00  0.00     0.064 A 
ATOM     67  C   UNL A   1      49.386  26.972  24.919  1.00  0.00     0.173 A 
ATOM     68  C   UNL A   1      49.966  26.208  27.124  1.00  0.00     0.173 A 
ATOM     69  F   UNL A   1      48.515  27.509  24.051  1.00  0.00    -0.203 F 
ATOM     70  C   UNL A   1      50.642  26.588  24.458  1.00  0.00     0.198 A 
ATOM     71  C   UNL A   1      51.231  25.851  26.665  1.00  0.00     0.198 A 
ATOM     72  F   UNL A   1      49.668  26.015  28.418  1.00  0.00    -0.203 F 
ATOM     73  F   UNL A   1      50.957  26.749  23.165  1.00  0.00    -0.200 F 
ATOM     74  C   UNL A   1      51.564  26.032  25.331  1.00  0.00     0.200 A 
ATOM     75  F   UNL A   1      52.128  25.334  27.515  1.00  0.00    -0.200 F 
ATOM     76  F   UNL A   1      52.775  25.670  24.888  1.00  0.00    -0.200 F 
ENDBRANCH  52  66
BRANCH  53  77
ATOM     77  C   UNL A   1      39.731  28.579  29.419  1.00  0.00     0.064 A 
ATOM     78  C   UNL A   1      38.753  29.080  28.548  1.00  0.00     0.173 A 
ATOM     79  C   UNL A   1      39.364  28.357  30.754  1.00  0.00     0.173 A 
ATOM     80  F   UNL A   1      39.054  29.311  27.262  1.00  0.00    -0.203 F 
ATOM     81  C   UNL A   1      37.466  29.366  29.000  1.00  0.00     0.198 A 
ATOM     82  C   UNL A   1      38.070  28.619  31.198  1.00  0.00     0.198 A 
ATOM     83  F   UNL A   1      40.258  27.857  31.619  1.00  0.00    -0.203 F 
ATOM     84  F   UNL A   1      36.558  29.873  28.154  1.00  0.00    -0.200 F 
ATOM     85  C   UNL A   1      37.124  29.131  30.323  1.00  0.00     0.200 A 
ATOM     86  F   UNL A   1      37.737  28.367  32.471  1.00  0.00    -0.200 F 
ATOM     87  F   UNL A   1      35.882  29.392  30.753  1.00  0.00    -0.200 F 
ENDBRANCH  53  77
BRANCH  65  88
ATOM     88  C   UNL A   1      45.411  32.548  28.583  1.00  0.00     0.064 A 
ATOM     89  C   UNL A   1      45.162  33.483  27.566  1.00  0.00     0.173 A 
ATOM     90  C   UNL A   1      46.006  33.005  29.767  1.00  0.00     0.173 A 
ATOM     91  F   UNL A   1      44.602  33.093  26.411  1.00  0.00    -0.203 F 
ATOM     92  C   UNL A   1      45.516  34.820  27.722  1.00  0.00     0.198 A 
ATOM     93  C   UNL A   1      46.334  34.348  29.929  1.00  0.00     0.198 A 
ATOM     94  F   UNL A   1      46.252  32.151  30.772  1.00  0.00    -0.203 F 
ATOM     95  F   UNL A   1      45.304  35.688  26.723  1.00  0.00    -0.200 F 
ATOM     96  C   UNL A   1      46.099  35.253  28.903  1.00  0.00     0.200 A 
ATOM     97  F   UNL A   1      46.877  34.769  31.080  1.00  0.00    -0.200 F 
ATOM     98  F   UNL A   1      46.436  36.541  29.053  1.00  0.00    -0.200 F 
ENDBRANCH  65  88
ENDBRANCH  39  40
ENDBRANCH  31  34
ENDBRANCH  29  30
ENDBRANCH  28  29
ENDBRANCH  27  28
ENDBRANCH   1  27
TORSDOF 17
ENDMDL
