MODEL 1
REMARK VINA RESULT:     -12.1      0.000      0.000
REMARK SMILES Cc1ccc([C@H](Nc2ccc(Cl)c(Br)c2)C(=O)NCCCCNC(=O)c2ccc(-c3c4nc(c(-c5c(F)c(F)c(F)c(F)c5F)c5ccc([nH]5)c(-c5c(F)c(F)c(F)c(F)c5F)c5nc(c(-c6c(F)c(F)c(F)c(F)c6F)c6ccc3[nH]6)C=C5)C=C4)cc2)s1
REMARK SMILES IDX 20 1 19 2 18 3 16 4 17 5 6 7 5 8 1 9 2 10 3 11 89 12 4 13
REMARK SMILES IDX 7 14 8 16 9 17 15 18 10 19 13 20 11 21 14 22 12 23 21 24
REMARK SMILES IDX 22 25 23 26 24 27 25 29 26 30 27 31 88 32 28 33 87 34 29 35
REMARK SMILES IDX 30 36 31 37 81 38 32 39 86 40 80 41 82 42 33 43 85 44 79 45
REMARK SMILES IDX 78 46 34 48 66 49 46 50 65 51 47 52 50 53 64 54 83 55 48 56
REMARK SMILES IDX 49 57 63 59 84 60 51 61 35 62 36 63 44 64 37 65 38 66 42 67
REMARK SMILES IDX 45 68 39 69 40 70 43 71 41 72 67 73 68 74 76 75 69 76 70 77
REMARK SMILES IDX 74 78 77 79 71 80 72 81 75 82 73 83 52 84 53 85 61 86 54 87
REMARK SMILES IDX 55 88 59 89 62 90 56 91 57 92 60 93 58 94
REMARK H PARENT 18 6 7 15 23 28 82 47 50 58
REMARK Flexibility Score: inf
ROOT
ATOM      1  C   UNL A   1      37.130  22.074  24.309  1.00  0.00     0.023 C 
ENDROOT
BRANCH   1   2
ATOM      2  C   UNL A   1      36.877  23.334  25.129  1.00  0.00     0.116 C 
BRANCH   2   3
ATOM      3  N   UNL A   1      36.142  23.065  26.350  1.00  0.00    -0.354 N 
ATOM      4  C   UNL A   1      34.793  23.134  26.564  1.00  0.00     0.247 C 
ATOM      5  O   UNL A   1      34.376  22.751  27.664  1.00  0.00    -0.272 OA
ATOM      6  H   UNL A   1      36.686  22.798  27.126  1.00  0.00     0.163 HD
BRANCH   4   7
ATOM      7  C   UNL A   1      33.825  23.640  25.461  1.00  0.00     0.210 C 
BRANCH   7   8
ATOM      8  C   UNL A   1      33.522  25.114  25.761  1.00  0.00     0.037 A 
ATOM      9  C   UNL A   1      31.533  28.236  27.108  1.00  0.00     0.056 C 
ATOM     10  C   UNL A   1      32.471  27.222  26.547  1.00  0.00     0.002 A 
ATOM     11  C   UNL A   1      33.755  27.421  26.094  1.00  0.00     0.015 A 
ATOM     12  S   UNL A   1      31.987  25.590  26.377  1.00  0.00    -0.143 S 
ATOM     13  C   UNL A   1      34.345  26.220  25.615  1.00  0.00     0.018 A 
ENDBRANCH   7   8
BRANCH   7  14
ATOM     14  N   UNL A   1      32.627  22.786  25.307  1.00  0.00    -0.369 N 
ATOM     15  H   UNL A   1      31.837  23.066  25.824  1.00  0.00     0.161 HD
BRANCH  14  16
ATOM     16  C   UNL A   1      32.463  21.652  24.540  1.00  0.00     0.036 A 
ATOM     17  C   UNL A   1      32.225  21.644  23.163  1.00  0.00     0.027 A 
ATOM     18  C   UNL A   1      32.612  20.399  25.161  1.00  0.00     0.043 A 
ATOM     19  C   UNL A   1      32.174  20.450  22.428  1.00  0.00     0.024 A 
ATOM     20  C   UNL A   1      32.531  19.196  24.443  1.00  0.00     0.038 A 
ATOM     21  C   UNL A   1      32.326  19.222  23.064  1.00  0.00     0.055 A 
ATOM     22  Br  UNL A   1      32.712  17.575  25.418  1.00  0.00    -0.049 Br
ATOM     23  Cl  UNL A   1      32.255  17.799  22.092  1.00  0.00    -0.083 Cl
ENDBRANCH  14  16
ENDBRANCH   7  14
ENDBRANCH   4   7
ENDBRANCH   2   3
ENDBRANCH   1   2
BRANCH   1  24
ATOM     24  C   UNL A   1      37.615  20.871  25.115  1.00  0.00     0.023 C 
BRANCH  24  25
ATOM     25  C   UNL A   1      38.997  21.015  25.737  1.00  0.00     0.116 C 
BRANCH  25  26
ATOM     26  N   UNL A   1      39.755  19.773  25.774  1.00  0.00    -0.352 N 
ATOM     27  C   UNL A   1      41.096  19.607  26.040  1.00  0.00     0.251 C 
ATOM     28  H   UNL A   1      39.247  18.950  25.587  1.00  0.00     0.163 HD
ATOM     29  O   UNL A   1      41.627  18.504  25.973  1.00  0.00    -0.269 OA
BRANCH  27  30
ATOM     30  C   UNL A   1      41.897  20.806  26.353  1.00  0.00     0.039 A 
ATOM     31  C   UNL A   1      42.060  21.206  27.681  1.00  0.00     0.014 A 
ATOM     32  C   UNL A   1      42.357  21.601  25.303  1.00  0.00     0.014 A 
ATOM     33  C   UNL A   1      42.520  22.488  27.950  1.00  0.00     0.010 A 
ATOM     34  C   UNL A   1      42.894  22.859  25.582  1.00  0.00     0.010 A 
ATOM     35  C   UNL A   1      42.922  23.336  26.903  1.00  0.00    -0.014 A 
BRANCH  35  36
ATOM     36  C   UNL A   1      43.336  24.727  27.205  1.00  0.00     0.031 A 
ATOM     37  C   UNL A   1      42.370  25.701  27.824  1.00  0.00     0.074 A 
ATOM     38  C   UNL A   1      44.607  25.100  26.963  1.00  0.00     0.049 A 
ATOM     39  N   UNL A   1      42.550  26.963  28.129  1.00  0.00    -0.248 NA
ATOM     40  C   UNL A   1      41.024  25.198  28.139  1.00  0.00     0.031 C 
ATOM     41  C   UNL A   1      45.637  24.239  26.382  1.00  0.00     0.029 A 
ATOM     42  N   UNL A   1      45.250  26.288  27.191  1.00  0.00    -0.354 N 
ATOM     43  C   UNL A   1      41.338  27.410  28.637  1.00  0.00     0.074 A 
ATOM     44  C   UNL A   1      40.422  26.289  28.591  1.00  0.00     0.031 C 
ATOM     45  C   UNL A   1      46.795  24.913  26.339  1.00  0.00     0.029 A 
ATOM     46  C   UNL A   1      46.574  26.270  26.829  1.00  0.00     0.049 A 
ATOM     47  H   UNL A   1      44.806  27.079  27.575  1.00  0.00     0.167 HD
ATOM     48  C   UNL A   1      41.021  28.642  29.102  1.00  0.00     0.037 A 
ATOM     49  C   UNL A   1      47.503  27.242  26.869  1.00  0.00     0.037 A 
ATOM     50  C   UNL A   1      41.946  29.743  29.183  1.00  0.00     0.049 A 
ATOM     51  C   UNL A   1      47.124  28.600  27.381  1.00  0.00     0.074 A 
ATOM     52  C   UNL A   1      41.728  31.019  29.674  1.00  0.00     0.029 A 
ATOM     53  N   UNL A   1      43.269  29.695  28.769  1.00  0.00    -0.354 N 
ATOM     54  N   UNL A   1      45.971  29.014  27.843  1.00  0.00    -0.248 NA
ATOM     55  C   UNL A   1      48.173  29.628  27.365  1.00  0.00     0.031 C 
ATOM     56  C   UNL A   1      42.909  31.754  29.523  1.00  0.00     0.029 A 
ATOM     57  C   UNL A   1      43.874  30.925  28.976  1.00  0.00     0.049 A 
ATOM     58  H   UNL A   1      43.712  28.905  28.384  1.00  0.00     0.167 HD
ATOM     59  C   UNL A   1      46.149  30.349  28.171  1.00  0.00     0.074 A 
ATOM     60  C   UNL A   1      47.532  30.670  27.879  1.00  0.00     0.031 C 
ATOM     61  C   UNL A   1      45.246  31.231  28.663  1.00  0.00     0.037 A 
BRANCH  48  62
ATOM     62  C   UNL A   1      39.609  28.880  29.548  1.00  0.00     0.064 A 
ATOM     63  C   UNL A   1      39.207  28.666  30.874  1.00  0.00     0.173 A 
ATOM     64  C   UNL A   1      38.659  29.389  28.648  1.00  0.00     0.173 A 
ATOM     65  F   UNL A   1      40.073  28.168  31.770  1.00  0.00    -0.203 F 
ATOM     66  C   UNL A   1      37.902  28.939  31.279  1.00  0.00     0.198 A 
ATOM     67  C   UNL A   1      37.363  29.682  29.062  1.00  0.00     0.198 A 
ATOM     68  F   UNL A   1      38.995  29.616  27.369  1.00  0.00    -0.203 F 
ATOM     69  F   UNL A   1      37.532  28.698  32.545  1.00  0.00    -0.200 F 
ATOM     70  C   UNL A   1      36.985  29.454  30.376  1.00  0.00     0.200 A 
ATOM     71  F   UNL A   1      36.481  30.189  28.190  1.00  0.00    -0.200 F 
ATOM     72  F   UNL A   1      35.733  29.727  30.771  1.00  0.00    -0.200 F 
ENDBRANCH  48  62
BRANCH  49  73
ATOM     73  C   UNL A   1      48.877  26.943  26.399  1.00  0.00     0.064 A 
ATOM     74  C   UNL A   1      49.839  26.424  27.275  1.00  0.00     0.173 A 
ATOM     75  C   UNL A   1      49.235  27.108  25.052  1.00  0.00     0.173 A 
ATOM     76  F   UNL A   1      49.546  26.266  28.574  1.00  0.00    -0.203 F 
ATOM     77  C   UNL A   1      51.108  26.075  26.819  1.00  0.00     0.198 A 
ATOM     78  C   UNL A   1      50.495  26.735  24.594  1.00  0.00     0.198 A 
ATOM     79  F   UNL A   1      48.344  27.595  24.177  1.00  0.00    -0.203 F 
ATOM     80  F   UNL A   1      52.016  25.593  27.678  1.00  0.00    -0.200 F 
ATOM     81  C   UNL A   1      51.431  26.220  25.478  1.00  0.00     0.200 A 
ATOM     82  F   UNL A   1      50.797  26.860  23.294  1.00  0.00    -0.200 F 
ATOM     83  F   UNL A   1      52.644  25.861  25.036  1.00  0.00    -0.200 F 
ENDBRANCH  49  73
BRANCH  61  84
ATOM     84  C   UNL A   1      45.723  32.630  28.911  1.00  0.00     0.064 A 
ATOM     85  C   UNL A   1      46.338  32.985  30.119  1.00  0.00     0.173 A 
ATOM     86  C   UNL A   1      45.603  33.612  27.917  1.00  0.00     0.173 A 
ATOM     87  F   UNL A   1      46.461  32.082  31.105  1.00  0.00    -0.203 F 
ATOM     88  C   UNL A   1      46.801  34.280  30.332  1.00  0.00     0.198 A 
ATOM     89  C   UNL A   1      46.087  34.901  28.124  1.00  0.00     0.198 A 
ATOM     90  F   UNL A   1      45.026  33.319  26.742  1.00  0.00    -0.203 F 
ATOM     91  F   UNL A   1      47.353  34.608  31.508  1.00  0.00    -0.200 F 
ATOM     92  C   UNL A   1      46.682  35.234  29.332  1.00  0.00     0.200 A 
ATOM     93  F   UNL A   1      45.979  35.820  27.155  1.00  0.00    -0.200 F 
ATOM     94  F   UNL A   1      47.132  36.480  29.536  1.00  0.00    -0.200 F 
ENDBRANCH  61  84
ENDBRANCH  35  36
ENDBRANCH  27  30
ENDBRANCH  25  26
ENDBRANCH  24  25
ENDBRANCH   1  24
TORSDOF 14
ENDMDL
MODEL 2
REMARK VINA RESULT:     -12.1      5.780     10.890
REMARK SMILES Cc1ccc([C@H](Nc2ccc(Cl)c(Br)c2)C(=O)NCCCCNC(=O)c2ccc(-c3c4nc(c(-c5c(F)c(F)c(F)c(F)c5F)c5ccc([nH]5)c(-c5c(F)c(F)c(F)c(F)c5F)c5nc(c(-c6c(F)c(F)c(F)c(F)c6F)c6ccc3[nH]6)C=C5)C=C4)cc2)s1
REMARK SMILES IDX 20 1 19 2 18 3 16 4 17 5 6 7 5 8 1 9 2 10 3 11 89 12 4 13
REMARK SMILES IDX 7 14 8 16 9 17 15 18 10 19 13 20 11 21 14 22 12 23 21 24
REMARK SMILES IDX 22 25 23 26 24 27 25 29 26 30 27 31 88 32 28 33 87 34 29 35
REMARK SMILES IDX 30 36 31 37 81 38 32 39 86 40 80 41 82 42 33 43 85 44 79 45
REMARK SMILES IDX 78 46 34 48 66 49 46 50 65 51 47 52 50 53 64 54 83 55 48 56
REMARK SMILES IDX 49 57 63 59 84 60 51 61 35 62 36 63 44 64 37 65 38 66 42 67
REMARK SMILES IDX 45 68 39 69 40 70 43 71 41 72 67 73 68 74 76 75 69 76 70 77
REMARK SMILES IDX 74 78 77 79 71 80 72 81 75 82 73 83 52 84 53 85 61 86 54 87
REMARK SMILES IDX 55 88 59 89 62 90 56 91 57 92 60 93 58 94
REMARK H PARENT 18 6 7 15 23 28 82 47 50 58
REMARK Flexibility Score: inf
ROOT
ATOM      1  C   UNL A   1      32.446  30.230  26.829  1.00  0.00     0.023 C 
ENDROOT
BRANCH   1   2
ATOM      2  C   UNL A   1      32.091  29.502  25.538  1.00  0.00     0.116 C 
BRANCH   2   3
ATOM      3  N   UNL A   1      33.165  29.542  24.564  1.00  0.00    -0.354 N 
ATOM      4  C   UNL A   1      33.331  28.771  23.446  1.00  0.00     0.247 C 
ATOM      5  O   UNL A   1      34.273  29.058  22.697  1.00  0.00    -0.272 OA
ATOM      6  H   UNL A   1      33.867  30.213  24.729  1.00  0.00     0.163 HD
BRANCH   4   7
ATOM      7  C   UNL A   1      32.359  27.607  23.117  1.00  0.00     0.210 C 
BRANCH   7   8
ATOM      8  C   UNL A   1      30.979  28.225  22.851  1.00  0.00     0.037 A 
ATOM      9  C   UNL A   1      27.087  28.746  23.160  1.00  0.00     0.056 C 
ATOM     10  C   UNL A   1      28.555  28.758  22.898  1.00  0.00     0.002 A 
ATOM     11  C   UNL A   1      29.277  29.693  22.194  1.00  0.00     0.015 A 
ATOM     12  S   UNL A   1      29.552  27.495  23.477  1.00  0.00    -0.143 S 
ATOM     13  C   UNL A   1      30.661  29.371  22.139  1.00  0.00     0.018 A 
ENDBRANCH   7   8
BRANCH   7  14
ATOM     14  N   UNL A   1      32.367  26.540  24.141  1.00  0.00    -0.369 N 
ATOM     15  H   UNL A   1      31.769  26.686  24.910  1.00  0.00     0.161 HD
BRANCH  14  16
ATOM     16  C   UNL A   1      33.097  25.370  24.170  1.00  0.00     0.036 A 
ATOM     17  C   UNL A   1      33.749  24.807  23.070  1.00  0.00     0.027 A 
ATOM     18  C   UNL A   1      33.265  24.719  25.404  1.00  0.00     0.043 A 
ATOM     19  C   UNL A   1      34.562  23.670  23.195  1.00  0.00     0.024 A 
ATOM     20  C   UNL A   1      34.049  23.562  25.537  1.00  0.00     0.038 A 
ATOM     21  C   UNL A   1      34.715  23.044  24.427  1.00  0.00     0.055 A 
ATOM     22  Br  UNL A   1      34.156  22.764  27.258  1.00  0.00    -0.049 Br
ATOM     23  Cl  UNL A   1      35.734  21.654  24.502  1.00  0.00    -0.083 Cl
ENDBRANCH  14  16
ENDBRANCH   7  14
ENDBRANCH   4   7
ENDBRANCH   2   3
ENDBRANCH   1   2
BRANCH   1  24
ATOM     24  C   UNL A   1      32.041  31.701  26.869  1.00  0.00     0.023 C 
BRANCH  24  25
ATOM     25  C   UNL A   1      33.067  32.644  27.483  1.00  0.00     0.116 C 
BRANCH  25  26
ATOM     26  N   UNL A   1      32.564  33.992  27.707  1.00  0.00    -0.352 N 
ATOM     27  C   UNL A   1      33.035  34.935  28.593  1.00  0.00     0.251 C 
ATOM     28  H   UNL A   1      31.792  34.262  27.159  1.00  0.00     0.163 HD
ATOM     29  O   UNL A   1      32.473  36.016  28.731  1.00  0.00    -0.269 OA
BRANCH  27  30
ATOM     30  C   UNL A   1      34.206  34.589  29.420  1.00  0.00     0.039 A 
ATOM     31  C   UNL A   1      35.488  34.649  28.869  1.00  0.00     0.014 A 
ATOM     32  C   UNL A   1      33.999  34.069  30.698  1.00  0.00     0.014 A 
ATOM     33  C   UNL A   1      36.537  34.019  29.526  1.00  0.00     0.010 A 
ATOM     34  C   UNL A   1      35.073  33.507  31.390  1.00  0.00     0.010 A 
ATOM     35  C   UNL A   1      36.336  33.423  30.782  1.00  0.00    -0.014 A 
BRANCH  35  36
ATOM     36  C   UNL A   1      37.449  32.688  31.431  1.00  0.00     0.031 A 
ATOM     37  C   UNL A   1      38.179  31.594  30.700  1.00  0.00     0.074 A 
ATOM     38  C   UNL A   1      37.835  33.044  32.671  1.00  0.00     0.049 A 
ATOM     39  N   UNL A   1      39.155  30.828  31.121  1.00  0.00    -0.248 NA
ATOM     40  C   UNL A   1      37.758  31.318  29.318  1.00  0.00     0.031 C 
ATOM     41  C   UNL A   1      37.216  34.101  33.471  1.00  0.00     0.029 A 
ATOM     42  N   UNL A   1      38.847  32.570  33.464  1.00  0.00    -0.354 N 
ATOM     43  C   UNL A   1      39.439  29.962  30.073  1.00  0.00     0.074 A 
ATOM     44  C   UNL A   1      38.526  30.287  28.997  1.00  0.00     0.031 C 
ATOM     45  C   UNL A   1      37.888  34.225  34.624  1.00  0.00     0.029 A 
ATOM     46  C   UNL A   1      38.943  33.218  34.670  1.00  0.00     0.049 A 
ATOM     47  H   UNL A   1      39.447  31.837  33.195  1.00  0.00     0.167 HD
ATOM     48  C   UNL A   1      40.379  28.988  30.015  1.00  0.00     0.037 A 
ATOM     49  C   UNL A   1      39.774  33.012  35.707  1.00  0.00     0.037 A 
ATOM     50  C   UNL A   1      41.311  28.694  31.072  1.00  0.00     0.049 A 
ATOM     51  C   UNL A   1      40.800  31.921  35.621  1.00  0.00     0.074 A 
ATOM     52  C   UNL A   1      42.324  27.750  31.093  1.00  0.00     0.029 A 
ATOM     53  N   UNL A   1      41.349  29.346  32.296  1.00  0.00    -0.354 N 
ATOM     54  N   UNL A   1      41.048  31.100  34.632  1.00  0.00    -0.248 NA
ATOM     55  C   UNL A   1      41.654  31.722  36.800  1.00  0.00     0.031 C 
ATOM     56  C   UNL A   1      42.952  27.806  32.342  1.00  0.00     0.029 A 
ATOM     57  C   UNL A   1      42.356  28.813  33.086  1.00  0.00     0.049 A 
ATOM     58  H   UNL A   1      40.749  30.079  32.564  1.00  0.00     0.167 HD
ATOM     59  C   UNL A   1      42.082  30.283  35.065  1.00  0.00     0.074 A 
ATOM     60  C   UNL A   1      42.433  30.726  36.399  1.00  0.00     0.031 C 
ATOM     61  C   UNL A   1      42.680  29.254  34.417  1.00  0.00     0.037 A 
BRANCH  48  62
ATOM     62  C   UNL A   1      40.442  28.149  28.773  1.00  0.00     0.064 A 
ATOM     63  C   UNL A   1      41.227  28.519  27.672  1.00  0.00     0.173 A 
ATOM     64  C   UNL A   1      39.755  26.927  28.709  1.00  0.00     0.173 A 
ATOM     65  F   UNL A   1      41.892  29.685  27.678  1.00  0.00    -0.203 F 
ATOM     66  C   UNL A   1      41.311  27.703  26.546  1.00  0.00     0.198 A 
ATOM     67  C   UNL A   1      39.860  26.103  27.591  1.00  0.00     0.198 A 
ATOM     68  F   UNL A   1      38.995  26.525  29.739  1.00  0.00    -0.203 F 
ATOM     69  F   UNL A   1      42.043  28.091  25.492  1.00  0.00    -0.200 F 
ATOM     70  C   UNL A   1      40.634  26.493  26.510  1.00  0.00     0.200 A 
ATOM     71  F   UNL A   1      39.213  24.930  27.564  1.00  0.00    -0.200 F 
ATOM     72  F   UNL A   1      40.725  25.704  25.431  1.00  0.00    -0.200 F 
ENDBRANCH  48  62
BRANCH  49  73
ATOM     73  C   UNL A   1      39.647  33.867  36.912  1.00  0.00     0.064 A 
ATOM     74  C   UNL A   1      40.277  35.117  36.974  1.00  0.00     0.173 A 
ATOM     75  C   UNL A   1      38.843  33.482  37.994  1.00  0.00     0.173 A 
ATOM     76  F   UNL A   1      41.070  35.519  35.970  1.00  0.00    -0.203 F 
ATOM     77  C   UNL A   1      40.100  35.953  38.074  1.00  0.00     0.198 A 
ATOM     78  C   UNL A   1      38.647  34.329  39.081  1.00  0.00     0.198 A 
ATOM     79  F   UNL A   1      38.216  32.297  37.975  1.00  0.00    -0.203 F 
ATOM     80  F   UNL A   1      40.724  37.138  38.118  1.00  0.00    -0.200 F 
ATOM     81  C   UNL A   1      39.277  35.564  39.121  1.00  0.00     0.200 A 
ATOM     82  F   UNL A   1      37.838  33.956  40.081  1.00  0.00    -0.200 F 
ATOM     83  F   UNL A   1      39.089  36.379  40.167  1.00  0.00    -0.200 F 
ENDBRANCH  49  73
BRANCH  61  84
ATOM     84  C   UNL A   1      43.773  28.533  35.146  1.00  0.00     0.064 A 
ATOM     85  C   UNL A   1      43.497  27.425  35.958  1.00  0.00     0.173 A 
ATOM     86  C   UNL A   1      45.111  28.926  34.996  1.00  0.00     0.173 A 
ATOM     87  F   UNL A   1      42.230  27.022  36.142  1.00  0.00    -0.203 F 
ATOM     88  C   UNL A   1      44.521  26.745  36.611  1.00  0.00     0.198 A 
ATOM     89  C   UNL A   1      46.135  28.230  35.633  1.00  0.00     0.198 A 
ATOM     90  F   UNL A   1      45.426  29.977  34.225  1.00  0.00    -0.203 F 
ATOM     91  F   UNL A   1      44.232  25.710  37.412  1.00  0.00    -0.200 F 
ATOM     92  C   UNL A   1      45.839  27.143  36.442  1.00  0.00     0.200 A 
ATOM     93  F   UNL A   1      47.408  28.610  35.463  1.00  0.00    -0.200 F 
ATOM     94  F   UNL A   1      46.824  26.485  37.068  1.00  0.00    -0.200 F 
ENDBRANCH  61  84
ENDBRANCH  35  36
ENDBRANCH  27  30
ENDBRANCH  25  26
ENDBRANCH  24  25
ENDBRANCH   1  24
TORSDOF 14
ENDMDL
MODEL 3
REMARK VINA RESULT:     -12.0      2.411      7.986
REMARK SMILES Cc1ccc([C@H](Nc2ccc(Cl)c(Br)c2)C(=O)NCCCCNC(=O)c2ccc(-c3c4nc(c(-c5c(F)c(F)c(F)c(F)c5F)c5ccc([nH]5)c(-c5c(F)c(F)c(F)c(F)c5F)c5nc(c(-c6c(F)c(F)c(F)c(F)c6F)c6ccc3[nH]6)C=C5)C=C4)cc2)s1
REMARK SMILES IDX 20 1 19 2 18 3 16 4 17 5 6 7 5 8 1 9 2 10 3 11 89 12 4 13
REMARK SMILES IDX 7 14 8 16 9 17 15 18 10 19 13 20 11 21 14 22 12 23 21 24
REMARK SMILES IDX 22 25 23 26 24 27 25 29 26 30 27 31 88 32 28 33 87 34 29 35
REMARK SMILES IDX 30 36 31 37 81 38 32 39 86 40 80 41 82 42 33 43 85 44 79 45
REMARK SMILES IDX 78 46 34 48 66 49 46 50 65 51 47 52 50 53 64 54 83 55 48 56
REMARK SMILES IDX 49 57 63 59 84 60 51 61 35 62 36 63 44 64 37 65 38 66 42 67
REMARK SMILES IDX 45 68 39 69 40 70 43 71 41 72 67 73 68 74 76 75 69 76 70 77
REMARK SMILES IDX 74 78 77 79 71 80 72 81 75 82 73 83 52 84 53 85 61 86 54 87
REMARK SMILES IDX 55 88 59 89 62 90 56 91 57 92 60 93 58 94
REMARK H PARENT 18 6 7 15 23 28 82 47 50 58
REMARK Flexibility Score: inf
ROOT
ATOM      1  C   UNL A   1      38.904  22.905  26.352  1.00  0.00     0.023 C 
ENDROOT
BRANCH   1   2
ATOM      2  C   UNL A   1      37.655  23.590  25.809  1.00  0.00     0.116 C 
BRANCH   2   3
ATOM      3  N   UNL A   1      37.417  23.284  24.411  1.00  0.00    -0.354 N 
ATOM      4  C   UNL A   1      36.222  23.171  23.755  1.00  0.00     0.247 C 
ATOM      5  O   UNL A   1      36.264  23.010  22.529  1.00  0.00    -0.272 OA
ATOM      6  H   UNL A   1      38.222  23.140  23.862  1.00  0.00     0.163 HD
BRANCH   4   7
ATOM      7  C   UNL A   1      34.872  23.270  24.514  1.00  0.00     0.210 C 
BRANCH   7   8
ATOM      8  C   UNL A   1      34.143  21.932  24.327  1.00  0.00     0.037 A 
ATOM      9  C   UNL A   1      33.392  18.089  24.750  1.00  0.00     0.056 C 
ATOM     10  C   UNL A   1      33.456  19.551  24.464  1.00  0.00     0.002 A 
ATOM     11  C   UNL A   1      32.514  20.326  23.826  1.00  0.00     0.015 A 
ATOM     12  S   UNL A   1      34.826  20.467  24.917  1.00  0.00    -0.143 S 
ATOM     13  C   UNL A   1      32.922  21.683  23.719  1.00  0.00     0.018 A 
ENDBRANCH   7   8
BRANCH   7  14
ATOM     14  N   UNL A   1      34.080  24.460  24.132  1.00  0.00    -0.369 N 
ATOM     15  H   UNL A   1      34.083  24.680  23.172  1.00  0.00     0.161 HD
BRANCH  14  16
ATOM     16  C   UNL A   1      33.341  25.304  24.933  1.00  0.00     0.036 A 
ATOM     17  C   UNL A   1      32.232  24.920  25.692  1.00  0.00     0.027 A 
ATOM     18  C   UNL A   1      33.760  26.640  25.062  1.00  0.00     0.043 A 
ATOM     19  C   UNL A   1      31.591  25.809  26.567  1.00  0.00     0.024 A 
ATOM     20  C   UNL A   1      33.108  27.548  25.909  1.00  0.00     0.038 A 
ATOM     21  C   UNL A   1      32.026  27.126  26.679  1.00  0.00     0.055 A 
ATOM     22  Br  UNL A   1      33.759  29.333  25.954  1.00  0.00    -0.049 Br
ATOM     23  Cl  UNL A   1      31.189  28.158  27.780  1.00  0.00    -0.083 Cl
ENDBRANCH  14  16
ENDBRANCH   7  14
ENDBRANCH   4   7
ENDBRANCH   2   3
ENDBRANCH   1   2
BRANCH   1  24
ATOM     24  C   UNL A   1      39.210  21.543  25.734  1.00  0.00     0.023 C 
BRANCH  24  25
ATOM     25  C   UNL A   1      39.683  20.474  26.710  1.00  0.00     0.116 C 
BRANCH  25  26
ATOM     26  N   UNL A   1      40.580  19.494  26.116  1.00  0.00    -0.352 N 
ATOM     27  C   UNL A   1      41.943  19.586  25.946  1.00  0.00     0.251 C 
ATOM     28  H   UNL A   1      40.160  18.662  25.796  1.00  0.00     0.163 HD
ATOM     29  O   UNL A   1      42.574  18.711  25.366  1.00  0.00    -0.269 OA
BRANCH  27  30
ATOM     30  C   UNL A   1      42.623  20.802  26.433  1.00  0.00     0.039 A 
ATOM     31  C   UNL A   1      42.676  21.067  27.803  1.00  0.00     0.014 A 
ATOM     32  C   UNL A   1      43.077  21.738  25.503  1.00  0.00     0.014 A 
ATOM     33  C   UNL A   1      43.013  22.344  28.233  1.00  0.00     0.010 A 
ATOM     34  C   UNL A   1      43.491  22.995  25.946  1.00  0.00     0.010 A 
ATOM     35  C   UNL A   1      43.404  23.327  27.307  1.00  0.00    -0.014 A 
BRANCH  35  36
ATOM     36  C   UNL A   1      43.685  24.706  27.778  1.00  0.00     0.031 A 
ATOM     37  C   UNL A   1      45.100  25.199  27.913  1.00  0.00     0.074 A 
ATOM     38  C   UNL A   1      42.655  25.533  28.037  1.00  0.00     0.049 A 
ATOM     39  N   UNL A   1      45.533  26.361  28.336  1.00  0.00    -0.248 NA
ATOM     40  C   UNL A   1      46.172  24.267  27.530  1.00  0.00     0.031 C 
ATOM     41  C   UNL A   1      41.242  25.173  27.925  1.00  0.00     0.029 A 
ATOM     42  N   UNL A   1      42.639  26.845  28.430  1.00  0.00    -0.354 N 
ATOM     43  C   UNL A   1      46.919  26.288  28.301  1.00  0.00     0.074 A 
ATOM     44  C   UNL A   1      47.260  24.963  27.827  1.00  0.00     0.031 C 
ATOM     45  C   UNL A   1      40.494  26.251  28.199  1.00  0.00     0.029 A 
ATOM     46  C   UNL A   1      41.372  27.357  28.567  1.00  0.00     0.049 A 
ATOM     47  H   UNL A   1      43.454  27.370  28.599  1.00  0.00     0.167 HD
ATOM     48  C   UNL A   1      47.823  27.241  28.632  1.00  0.00     0.037 A 
ATOM     49  C   UNL A   1      40.962  28.575  28.963  1.00  0.00     0.037 A 
ATOM     50  C   UNL A   1      47.480  28.571  29.066  1.00  0.00     0.049 A 
ATOM     51  C   UNL A   1      41.983  29.611  29.332  1.00  0.00     0.074 A 
ATOM     52  C   UNL A   1      48.325  29.619  29.389  1.00  0.00     0.029 A 
ATOM     53  N   UNL A   1      46.184  29.038  29.231  1.00  0.00    -0.354 N 
ATOM     54  N   UNL A   1      43.289  29.524  29.311  1.00  0.00    -0.248 NA
ATOM     55  C   UNL A   1      41.471  30.909  29.792  1.00  0.00     0.031 C 
ATOM     56  C   UNL A   1      47.542  30.709  29.783  1.00  0.00     0.029 A 
ATOM     57  C   UNL A   1      46.207  30.354  29.668  1.00  0.00     0.049 A 
ATOM     58  H   UNL A   1      45.368  28.513  29.062  1.00  0.00     0.167 HD
ATOM     59  C   UNL A   1      43.760  30.750  29.755  1.00  0.00     0.074 A 
ATOM     60  C   UNL A   1      42.597  31.574  30.015  1.00  0.00     0.031 C 
ATOM     61  C   UNL A   1      45.040  31.153  29.938  1.00  0.00     0.037 A 
BRANCH  48  62
ATOM     62  C   UNL A   1      49.278  26.883  28.557  1.00  0.00     0.064 A 
ATOM     63  C   UNL A   1      50.021  27.060  27.382  1.00  0.00     0.173 A 
ATOM     64  C   UNL A   1      49.951  26.414  29.696  1.00  0.00     0.173 A 
ATOM     65  F   UNL A   1      49.422  27.493  26.262  1.00  0.00    -0.203 F 
ATOM     66  C   UNL A   1      51.383  26.767  27.346  1.00  0.00     0.198 A 
ATOM     67  C   UNL A   1      51.316  26.144  29.662  1.00  0.00     0.198 A 
ATOM     68  F   UNL A   1      49.285  26.233  30.847  1.00  0.00    -0.203 F 
ATOM     69  F   UNL A   1      52.068  26.915  26.203  1.00  0.00    -0.200 F 
ATOM     70  C   UNL A   1      52.030  26.318  28.487  1.00  0.00     0.200 A 
ATOM     71  F   UNL A   1      51.941  25.720  30.769  1.00  0.00    -0.200 F 
ATOM     72  F   UNL A   1      53.342  26.047  28.454  1.00  0.00    -0.200 F 
ENDBRANCH  48  62
BRANCH  49  73
ATOM     73  C   UNL A   1      39.508  28.858  29.030  1.00  0.00     0.064 A 
ATOM     74  C   UNL A   1      38.809  28.745  30.239  1.00  0.00     0.173 A 
ATOM     75  C   UNL A   1      38.804  29.309  27.903  1.00  0.00     0.173 A 
ATOM     76  F   UNL A   1      39.437  28.301  31.337  1.00  0.00    -0.203 F 
ATOM     77  C   UNL A   1      37.459  29.080  30.318  1.00  0.00     0.198 A 
ATOM     78  C   UNL A   1      37.462  29.666  27.991  1.00  0.00     0.198 A 
ATOM     79  F   UNL A   1      39.434  29.438  26.727  1.00  0.00    -0.203 F 
ATOM     80  F   UNL A   1      36.808  28.950  31.482  1.00  0.00    -0.200 F 
ATOM     81  C   UNL A   1      36.790  29.550  29.198  1.00  0.00     0.200 A 
ATOM     82  F   UNL A   1      36.824  30.137  26.910  1.00  0.00    -0.200 F 
ATOM     83  F   UNL A   1      35.498  29.894  29.282  1.00  0.00    -0.200 F 
ENDBRANCH  49  73
BRANCH  61  84
ATOM     84  C   UNL A   1      45.251  32.546  30.449  1.00  0.00     0.064 A 
ATOM     85  C   UNL A   1      45.376  32.806  31.821  1.00  0.00     0.173 A 
ATOM     86  C   UNL A   1      45.372  33.622  29.559  1.00  0.00     0.173 A 
ATOM     87  F   UNL A   1      45.252  31.808  32.711  1.00  0.00    -0.203 F 
ATOM     88  C   UNL A   1      45.597  34.099  32.286  1.00  0.00     0.198 A 
ATOM     89  C   UNL A   1      45.615  34.911  30.026  1.00  0.00     0.198 A 
ATOM     90  F   UNL A   1      45.265  33.423  28.237  1.00  0.00    -0.203 F 
ATOM     91  F   UNL A   1      45.677  34.331  33.603  1.00  0.00    -0.200 F 
ATOM     92  C   UNL A   1      45.723  35.149  31.388  1.00  0.00     0.200 A 
ATOM     93  F   UNL A   1      45.745  35.923  29.158  1.00  0.00    -0.200 F 
ATOM     94  F   UNL A   1      45.941  36.393  31.836  1.00  0.00    -0.200 F 
ENDBRANCH  61  84
ENDBRANCH  35  36
ENDBRANCH  27  30
ENDBRANCH  25  26
ENDBRANCH  24  25
ENDBRANCH   1  24
TORSDOF 14
ENDMDL
