MODEL 1
REMARK VINA RESULT:     -12.4      0.000      0.000
REMARK SMILES CC1=C[C@@H]([C@@H]2N=N[C@H](S)N2/N=C/c2ccc(C(=O)NCCCCNC(=O)c3ccc(-c4c5nc(c(-c6c(F)c(F)c(F)c(F)c6F)c6ccc([nH]6)c(-c6c(F)c(F)c(F)c(F)c6F)c6nc(c(-c7c(F)c(F)c(F)c(F)c7F)c7ccc4[nH]7)C=C6)C=C5)cc3)cc2)N=N1
REMARK SMILES IDX 21 1 20 2 19 3 17 4 18 5 16 7 13 8 14 9 91 10 15 11 90 12
REMARK SMILES IDX 12 13 11 14 10 15 5 16 6 17 7 18 8 19 4 20 1 21 2 22 3 23
REMARK SMILES IDX 93 24 92 25 9 26 22 28 23 29 24 30 25 31 26 33 27 34 28 35
REMARK SMILES IDX 89 36 29 37 88 38 30 39 31 40 32 41 82 42 33 43 87 44 81 45
REMARK SMILES IDX 83 46 34 47 86 48 80 49 79 50 35 52 67 53 47 54 66 55 48 56
REMARK SMILES IDX 51 57 65 58 84 59 49 60 50 61 64 63 85 64 52 65 36 66 37 67
REMARK SMILES IDX 45 68 38 69 39 70 43 71 46 72 40 73 41 74 44 75 42 76 68 77
REMARK SMILES IDX 69 78 77 79 70 80 71 81 75 82 78 83 72 84 73 85 76 86 74 87
REMARK SMILES IDX 53 88 54 89 62 90 55 91 56 92 60 93 63 94 57 95 58 96 61 97
REMARK SMILES IDX 59 98
REMARK H PARENT 19 6 9 27 24 32 83 51 51 62
REMARK Flexibility Score: inf
ROOT
ATOM      1  C   UNL A   1      40.870  21.392  27.641  1.00  0.00     0.023 C 
ENDROOT
BRANCH   1   2
ATOM      2  C   UNL A   1      40.020  21.969  26.501  1.00  0.00     0.116 C 
BRANCH   2   3
ATOM      3  N   UNL A   1      39.319  20.928  25.779  1.00  0.00    -0.352 N 
ATOM      4  C   UNL A   1      38.037  20.823  25.304  1.00  0.00     0.251 C 
ATOM      5  O   UNL A   1      37.753  19.790  24.695  1.00  0.00    -0.269 OA
ATOM      6  H   UNL A   1      39.874  20.136  25.592  1.00  0.00     0.163 HD
BRANCH   4   7
ATOM      7  C   UNL A   1      36.997  21.886  25.442  1.00  0.00     0.039 A 
ATOM      8  C   UNL A   1      34.915  23.738  25.796  1.00  0.00    -0.005 A 
ATOM      9  C   UNL A   1      34.793  22.452  26.325  1.00  0.00     0.010 A 
ATOM     10  C   UNL A   1      36.067  24.116  25.119  1.00  0.00     0.010 A 
ATOM     11  C   UNL A   1      35.825  21.532  26.136  1.00  0.00     0.014 A 
ATOM     12  C   UNL A   1      37.113  23.200  24.974  1.00  0.00     0.014 A 
BRANCH   8  13
ATOM     13  C   UNL A   1      33.833  24.704  26.031  1.00  0.00     0.141 C 
ATOM     14  N   UNL A   1      33.917  25.948  25.676  1.00  0.00    -0.180 NA
BRANCH  14  15
ATOM     15  N   UNL A   1      32.870  26.757  25.987  1.00  0.00    -0.233 NA
ATOM     16  C   UNL A   1      31.486  26.261  25.982  1.00  0.00     0.274 C 
ATOM     17  N   UNL A   1      30.762  26.970  27.074  1.00  0.00    -0.161 NA
ATOM     18  N   UNL A   1      31.459  27.901  27.537  1.00  0.00    -0.153 NA
ATOM     19  C   UNL A   1      32.820  27.840  26.972  1.00  0.00     0.298 C 
BRANCH  16  20
ATOM     20  C   UNL A   1      30.742  26.498  24.623  1.00  0.00     0.201 C 
ATOM     21  C   UNL A   1      32.841  25.392  21.817  1.00  0.00     0.068 C 
ATOM     22  C   UNL A   1      31.930  26.073  22.771  1.00  0.00     0.058 C 
ATOM     23  C   UNL A   1      31.071  25.471  23.592  1.00  0.00     0.031 C 
ATOM     24  N   UNL A   1      32.000  27.425  22.988  1.00  0.00    -0.160 NA
ATOM     25  N   UNL A   1      31.269  27.742  23.974  1.00  0.00    -0.177 NA
ENDBRANCH  16  20
BRANCH  19  26
ATOM     26  S   UNL A   1      33.442  29.380  26.212  1.00  0.00    -0.128 SA
ATOM     27  H   UNL A   1      34.531  29.818  26.902  1.00  0.00     0.106 HD
ENDBRANCH  19  26
ENDBRANCH  14  15
ENDBRANCH   8  13
ENDBRANCH   4   7
ENDBRANCH   2   3
ENDBRANCH   1   2
BRANCH   1  28
ATOM     28  C   UNL A   1      41.790  20.223  27.260  1.00  0.00     0.023 C 
BRANCH  28  29
ATOM     29  C   UNL A   1      41.968  20.002  25.763  1.00  0.00     0.116 C 
BRANCH  29  30
ATOM     30  N   UNL A   1      43.372  19.821  25.358  1.00  0.00    -0.352 N 
ATOM     31  C   UNL A   1      44.302  20.783  25.016  1.00  0.00     0.251 C 
ATOM     32  H   UNL A   1      43.690  18.889  25.327  1.00  0.00     0.163 HD
ATOM     33  O   UNL A   1      45.313  20.498  24.358  1.00  0.00    -0.269 OA
BRANCH  31  34
ATOM     34  C   UNL A   1      44.094  22.156  25.482  1.00  0.00     0.039 A 
ATOM     35  C   UNL A   1      43.291  23.098  24.829  1.00  0.00     0.014 A 
ATOM     36  C   UNL A   1      44.711  22.464  26.684  1.00  0.00     0.014 A 
ATOM     37  C   UNL A   1      43.078  24.330  25.446  1.00  0.00     0.010 A 
ATOM     38  C   UNL A   1      44.261  23.523  27.408  1.00  0.00     0.010 A 
ATOM     39  C   UNL A   1      43.573  24.525  26.741  1.00  0.00    -0.014 A 
BRANCH  39  40
ATOM     40  C   UNL A   1      43.473  25.777  27.469  1.00  0.00     0.031 A 
ATOM     41  C   UNL A   1      44.441  26.838  27.102  1.00  0.00     0.074 A 
ATOM     42  C   UNL A   1      42.364  26.038  28.199  1.00  0.00     0.049 A 
ATOM     43  N   UNL A   1      45.322  27.398  27.862  1.00  0.00    -0.248 NA
ATOM     44  C   UNL A   1      44.498  27.281  25.702  1.00  0.00     0.031 C 
ATOM     45  C   UNL A   1      41.148  25.223  28.367  1.00  0.00     0.029 A 
ATOM     46  N   UNL A   1      42.040  27.178  28.852  1.00  0.00    -0.354 N 
ATOM     47  C   UNL A   1      45.958  28.364  27.086  1.00  0.00     0.074 A 
ATOM     48  C   UNL A   1      45.513  28.147  25.733  1.00  0.00     0.031 C 
ATOM     49  C   UNL A   1      40.153  25.987  28.866  1.00  0.00     0.029 A 
ATOM     50  C   UNL A   1      40.707  27.278  29.222  1.00  0.00     0.049 A 
ATOM     51  H   UNL A   1      42.700  27.883  29.050  1.00  0.00     0.167 HD
ATOM     52  C   UNL A   1      46.665  29.381  27.657  1.00  0.00     0.037 A 
ATOM     53  C   UNL A   1      40.107  28.368  29.754  1.00  0.00     0.037 A 
ATOM     54  C   UNL A   1      46.887  29.131  29.059  1.00  0.00     0.049 A 
ATOM     55  C   UNL A   1      41.191  29.229  30.299  1.00  0.00     0.074 A 
ATOM     56  C   UNL A   1      47.573  28.161  29.764  1.00  0.00     0.029 A 
ATOM     57  N   UNL A   1      46.031  29.716  29.962  1.00  0.00    -0.354 N 
ATOM     58  N   UNL A   1      41.944  28.883  31.311  1.00  0.00    -0.248 NA
ATOM     59  C   UNL A   1      41.764  30.235  29.414  1.00  0.00     0.031 C 
ATOM     60  C   UNL A   1      46.744  27.875  30.889  1.00  0.00     0.029 A 
ATOM     61  C   UNL A   1      45.644  28.735  30.841  1.00  0.00     0.049 A 
ATOM     62  H   UNL A   1      45.751  30.659  29.976  1.00  0.00     0.167 HD
ATOM     63  C   UNL A   1      43.222  29.305  30.969  1.00  0.00     0.074 A 
ATOM     64  C   UNL A   1      43.035  30.199  29.827  1.00  0.00     0.031 C 
ATOM     65  C   UNL A   1      44.332  28.666  31.445  1.00  0.00     0.037 A 
BRANCH  52  66
ATOM     66  C   UNL A   1      46.912  30.737  27.051  1.00  0.00     0.064 A 
ATOM     67  C   UNL A   1      48.226  31.252  27.027  1.00  0.00     0.173 A 
ATOM     68  C   UNL A   1      45.893  31.662  26.749  1.00  0.00     0.173 A 
ATOM     69  F   UNL A   1      49.276  30.463  27.304  1.00  0.00    -0.203 F 
ATOM     70  C   UNL A   1      48.487  32.605  26.800  1.00  0.00     0.198 A 
ATOM     71  C   UNL A   1      46.162  33.002  26.467  1.00  0.00     0.198 A 
ATOM     72  F   UNL A   1      44.597  31.338  26.823  1.00  0.00    -0.203 F 
ATOM     73  F   UNL A   1      49.739  33.069  26.910  1.00  0.00    -0.200 F 
ATOM     74  C   UNL A   1      47.453  33.480  26.526  1.00  0.00     0.200 A 
ATOM     75  F   UNL A   1      45.145  33.838  26.215  1.00  0.00    -0.200 F 
ATOM     76  F   UNL A   1      47.693  34.789  26.367  1.00  0.00    -0.200 F 
ENDBRANCH  52  66
BRANCH  53  77
ATOM     77  C   UNL A   1      38.715  28.824  29.542  1.00  0.00     0.064 A 
ATOM     78  C   UNL A   1      37.862  29.098  30.621  1.00  0.00     0.173 A 
ATOM     79  C   UNL A   1      38.268  29.239  28.270  1.00  0.00     0.173 A 
ATOM     80  F   UNL A   1      38.233  28.774  31.869  1.00  0.00    -0.203 F 
ATOM     81  C   UNL A   1      36.643  29.761  30.441  1.00  0.00     0.198 A 
ATOM     82  C   UNL A   1      37.050  29.894  28.091  1.00  0.00     0.198 A 
ATOM     83  F   UNL A   1      39.046  29.095  27.187  1.00  0.00    -0.203 F 
ATOM     84  F   UNL A   1      35.878  30.052  31.503  1.00  0.00    -0.200 F 
ATOM     85  C   UNL A   1      36.242  30.166  29.179  1.00  0.00     0.200 A 
ATOM     86  F   UNL A   1      36.693  30.311  26.868  1.00  0.00    -0.200 F 
ATOM     87  F   UNL A   1      35.102  30.850  29.014  1.00  0.00    -0.200 F 
ENDBRANCH  53  77
BRANCH  65  88
ATOM     88  C   UNL A   1      44.146  27.617  32.509  1.00  0.00     0.064 A 
ATOM     89  C   UNL A   1      44.064  26.239  32.238  1.00  0.00     0.173 A 
ATOM     90  C   UNL A   1      44.249  27.997  33.851  1.00  0.00     0.173 A 
ATOM     91  F   UNL A   1      44.069  25.782  30.984  1.00  0.00    -0.203 F 
ATOM     92  C   UNL A   1      44.052  25.294  33.261  1.00  0.00     0.198 A 
ATOM     93  C   UNL A   1      44.272  27.050  34.873  1.00  0.00     0.198 A 
ATOM     94  F   UNL A   1      44.394  29.293  34.172  1.00  0.00    -0.203 F 
ATOM     95  F   UNL A   1      43.975  23.986  32.968  1.00  0.00    -0.200 F 
ATOM     96  C   UNL A   1      44.165  25.700  34.579  1.00  0.00     0.200 A 
ATOM     97  F   UNL A   1      44.436  27.444  36.143  1.00  0.00    -0.200 F 
ATOM     98  F   UNL A   1      44.205  24.789  35.562  1.00  0.00    -0.200 F 
ENDBRANCH  65  88
ENDBRANCH  39  40
ENDBRANCH  31  34
ENDBRANCH  29  30
ENDBRANCH  28  29
ENDBRANCH   1  28
TORSDOF 15
ENDMDL
MODEL 2
REMARK VINA RESULT:     -12.3      4.499      7.827
REMARK SMILES CC1=C[C@@H]([C@@H]2N=N[C@H](S)N2/N=C/c2ccc(C(=O)NCCCCNC(=O)c3ccc(-c4c5nc(c(-c6c(F)c(F)c(F)c(F)c6F)c6ccc([nH]6)c(-c6c(F)c(F)c(F)c(F)c6F)c6nc(c(-c7c(F)c(F)c(F)c(F)c7F)c7ccc4[nH]7)C=C6)C=C5)cc3)cc2)N=N1
REMARK SMILES IDX 21 1 20 2 19 3 17 4 18 5 16 7 13 8 14 9 91 10 15 11 90 12
REMARK SMILES IDX 12 13 11 14 10 15 5 16 6 17 7 18 8 19 4 20 1 21 2 22 3 23
REMARK SMILES IDX 93 24 92 25 9 26 22 28 23 29 24 30 25 31 26 33 27 34 28 35
REMARK SMILES IDX 89 36 29 37 88 38 30 39 31 40 32 41 82 42 33 43 87 44 81 45
REMARK SMILES IDX 83 46 34 47 86 48 80 49 79 50 35 52 67 53 47 54 66 55 48 56
REMARK SMILES IDX 51 57 65 58 84 59 49 60 50 61 64 63 85 64 52 65 36 66 37 67
REMARK SMILES IDX 45 68 38 69 39 70 43 71 46 72 40 73 41 74 44 75 42 76 68 77
REMARK SMILES IDX 69 78 77 79 70 80 71 81 75 82 78 83 72 84 73 85 76 86 74 87
REMARK SMILES IDX 53 88 54 89 62 90 55 91 56 92 60 93 63 94 57 95 58 96 61 97
REMARK SMILES IDX 59 98
REMARK H PARENT 19 6 9 27 24 32 83 51 51 62
REMARK Flexibility Score: inf
ROOT
ATOM      1  C   UNL A   1      45.438  22.632  24.338  1.00  0.00     0.023 C 
ENDROOT
BRANCH   1   2
ATOM      2  C   UNL A   1      46.387  23.460  25.216  1.00  0.00     0.116 C 
BRANCH   2   3
ATOM      3  N   UNL A   1      46.147  24.880  25.068  1.00  0.00    -0.352 N 
ATOM      4  C   UNL A   1      45.718  25.849  25.937  1.00  0.00     0.251 C 
ATOM      5  O   UNL A   1      45.639  26.997  25.496  1.00  0.00    -0.269 OA
ATOM      6  H   UNL A   1      46.329  25.218  24.161  1.00  0.00     0.163 HD
BRANCH   4   7
ATOM      7  C   UNL A   1      45.385  25.606  27.373  1.00  0.00     0.039 A 
ATOM      8  C   UNL A   1      44.755  24.939  30.028  1.00  0.00    -0.005 A 
ATOM      9  C   UNL A   1      45.005  23.926  29.103  1.00  0.00     0.010 A 
ATOM     10  C   UNL A   1      44.841  26.274  29.653  1.00  0.00     0.010 A 
ATOM     11  C   UNL A   1      45.306  24.262  27.781  1.00  0.00     0.014 A 
ATOM     12  C   UNL A   1      45.187  26.600  28.339  1.00  0.00     0.014 A 
BRANCH   8  13
ATOM     13  C   UNL A   1      44.472  24.569  31.421  1.00  0.00     0.141 C 
ATOM     14  N   UNL A   1      45.357  24.666  32.365  1.00  0.00    -0.180 NA
BRANCH  14  15
ATOM     15  N   UNL A   1      44.993  24.252  33.607  1.00  0.00    -0.233 NA
ATOM     16  C   UNL A   1      44.098  25.054  34.453  1.00  0.00     0.274 C 
ATOM     17  N   UNL A   1      43.262  24.099  35.236  1.00  0.00    -0.161 NA
ATOM     18  N   UNL A   1      43.685  22.928  35.104  1.00  0.00    -0.153 NA
ATOM     19  C   UNL A   1      44.735  22.886  34.070  1.00  0.00     0.298 C 
BRANCH  16  20
ATOM     20  C   UNL A   1      44.857  26.009  35.437  1.00  0.00     0.201 C 
ATOM     21  C   UNL A   1      47.398  27.943  33.617  1.00  0.00     0.068 C 
ATOM     22  C   UNL A   1      46.585  27.137  34.563  1.00  0.00     0.058 C 
ATOM     23  C   UNL A   1      45.282  27.287  34.795  1.00  0.00     0.031 C 
ATOM     24  N   UNL A   1      47.106  26.040  35.200  1.00  0.00    -0.160 NA
ATOM     25  N   UNL A   1      46.182  25.407  35.795  1.00  0.00    -0.177 NA
ENDBRANCH  16  20
BRANCH  19  26
ATOM     26  S   UNL A   1      46.312  22.105  34.560  1.00  0.00    -0.128 SA
ATOM     27  H   UNL A   1      46.696  21.217  33.603  1.00  0.00     0.106 HD
ENDBRANCH  19  26
ENDBRANCH  14  15
ENDBRANCH   8  13
ENDBRANCH   4   7
ENDBRANCH   2   3
ENDBRANCH   1   2
BRANCH   1  28
ATOM     28  C   UNL A   1      44.185  22.089  25.042  1.00  0.00     0.023 C 
BRANCH  28  29
ATOM     29  C   UNL A   1      42.988  23.033  25.052  1.00  0.00     0.116 C 
BRANCH  29  30
ATOM     30  N   UNL A   1      41.755  22.412  25.565  1.00  0.00    -0.352 N 
ATOM     31  C   UNL A   1      40.936  22.839  26.591  1.00  0.00     0.251 C 
ATOM     32  H   UNL A   1      41.479  21.581  25.115  1.00  0.00     0.163 HD
ATOM     33  O   UNL A   1      40.153  22.064  27.158  1.00  0.00    -0.269 OA
BRANCH  31  34
ATOM     34  C   UNL A   1      40.978  24.252  26.979  1.00  0.00     0.039 A 
ATOM     35  C   UNL A   1      40.353  25.284  26.270  1.00  0.00     0.014 A 
ATOM     36  C   UNL A   1      41.644  24.512  28.166  1.00  0.00     0.014 A 
ATOM     37  C   UNL A   1      40.364  26.567  26.817  1.00  0.00     0.010 A 
ATOM     38  C   UNL A   1      41.393  25.673  28.827  1.00  0.00     0.010 A 
ATOM     39  C   UNL A   1      40.891  26.742  28.102  1.00  0.00    -0.014 A 
BRANCH  39  40
ATOM     40  C   UNL A   1      41.018  28.030  28.758  1.00  0.00     0.031 A 
ATOM     41  C   UNL A   1      42.141  28.893  28.318  1.00  0.00     0.074 A 
ATOM     42  C   UNL A   1      39.986  28.513  29.486  1.00  0.00     0.049 A 
ATOM     43  N   UNL A   1      43.120  29.337  29.032  1.00  0.00    -0.248 NA
ATOM     44  C   UNL A   1      42.239  29.243  26.894  1.00  0.00     0.031 C 
ATOM     45  C   UNL A   1      38.655  27.924  29.718  1.00  0.00     0.029 A 
ATOM     46  N   UNL A   1      39.871  29.725  30.078  1.00  0.00    -0.354 N 
ATOM     47  C   UNL A   1      43.890  30.139  28.194  1.00  0.00     0.074 A 
ATOM     48  C   UNL A   1      43.385  29.928  26.862  1.00  0.00     0.031 C 
ATOM     49  C   UNL A   1      37.813  28.870  30.186  1.00  0.00     0.029 A 
ATOM     50  C   UNL A   1      38.583  30.067  30.460  1.00  0.00     0.049 A 
ATOM     51  H   UNL A   1      40.644  30.319  30.227  1.00  0.00     0.167 HD
ATOM     52  C   UNL A   1      44.771  31.052  28.696  1.00  0.00     0.037 A 
ATOM     53  C   UNL A   1      38.186  31.270  30.937  1.00  0.00     0.037 A 
ATOM     54  C   UNL A   1      44.980  30.844  30.107  1.00  0.00     0.049 A 
ATOM     55  C   UNL A   1      39.411  31.965  31.417  1.00  0.00     0.074 A 
ATOM     56  C   UNL A   1      45.510  29.813  30.857  1.00  0.00     0.029 A 
ATOM     57  N   UNL A   1      44.255  31.613  30.987  1.00  0.00    -0.354 N 
ATOM     58  N   UNL A   1      40.118  31.552  32.437  1.00  0.00    -0.248 NA
ATOM     59  C   UNL A   1      40.123  32.810  30.468  1.00  0.00     0.031 C 
ATOM     60  C   UNL A   1      44.671  29.731  32.007  1.00  0.00     0.029 A 
ATOM     61  C   UNL A   1      43.729  30.760  31.926  1.00  0.00     0.049 A 
ATOM     62  H   UNL A   1      44.136  32.589  30.951  1.00  0.00     0.167 HD
ATOM     63  C   UNL A   1      41.440  31.735  32.054  1.00  0.00     0.074 A 
ATOM     64  C   UNL A   1      41.379  32.584  30.865  1.00  0.00     0.031 C 
ATOM     65  C   UNL A   1      42.439  30.945  32.551  1.00  0.00     0.037 A 
BRANCH  52  66
ATOM     66  C   UNL A   1      45.227  32.313  28.010  1.00  0.00     0.064 A 
ATOM     67  C   UNL A   1      44.287  33.332  27.746  1.00  0.00     0.173 A 
ATOM     68  C   UNL A   1      46.469  32.449  27.358  1.00  0.00     0.173 A 
ATOM     69  F   UNL A   1      43.069  33.303  28.309  1.00  0.00    -0.203 F 
ATOM     70  C   UNL A   1      44.546  34.360  26.836  1.00  0.00     0.198 A 
ATOM     71  C   UNL A   1      46.744  33.508  26.493  1.00  0.00     0.198 A 
ATOM     72  F   UNL A   1      47.420  31.511  27.442  1.00  0.00    -0.203 F 
ATOM     73  F   UNL A   1      43.578  35.233  26.526  1.00  0.00    -0.200 F 
ATOM     74  C   UNL A   1      45.772  34.443  26.205  1.00  0.00     0.200 A 
ATOM     75  F   UNL A   1      47.935  33.565  25.881  1.00  0.00    -0.200 F 
ATOM     76  F   UNL A   1      46.003  35.391  25.288  1.00  0.00    -0.200 F 
ENDBRANCH  52  66
BRANCH  53  77
ATOM     77  C   UNL A   1      36.885  31.941  30.718  1.00  0.00     0.064 A 
ATOM     78  C   UNL A   1      35.928  32.032  31.739  1.00  0.00     0.173 A 
ATOM     79  C   UNL A   1      36.652  32.727  29.570  1.00  0.00     0.173 A 
ATOM     80  F   UNL A   1      36.097  31.349  32.881  1.00  0.00    -0.203 F 
ATOM     81  C   UNL A   1      34.813  32.871  31.625  1.00  0.00     0.198 A 
ATOM     82  C   UNL A   1      35.537  33.558  29.455  1.00  0.00     0.198 A 
ATOM     83  F   UNL A   1      37.548  32.770  28.573  1.00  0.00    -0.203 F 
ATOM     84  F   UNL A   1      33.946  32.971  32.643  1.00  0.00    -0.200 F 
ATOM     85  C   UNL A   1      34.623  33.638  30.488  1.00  0.00     0.200 A 
ATOM     86  F   UNL A   1      35.387  34.321  28.363  1.00  0.00    -0.200 F 
ATOM     87  F   UNL A   1      33.586  34.483  30.403  1.00  0.00    -0.200 F 
ENDBRANCH  53  77
BRANCH  65  88
ATOM     88  C   UNL A   1      42.104  30.001  33.675  1.00  0.00     0.064 A 
ATOM     89  C   UNL A   1      41.678  28.675  33.478  1.00  0.00     0.173 A 
ATOM     90  C   UNL A   1      42.410  30.384  34.985  1.00  0.00     0.173 A 
ATOM     91  F   UNL A   1      41.468  28.194  32.251  1.00  0.00    -0.203 F 
ATOM     92  C   UNL A   1      41.533  27.789  34.544  1.00  0.00     0.198 A 
ATOM     93  C   UNL A   1      42.298  29.488  36.047  1.00  0.00     0.198 A 
ATOM     94  F   UNL A   1      42.882  31.616  35.231  1.00  0.00    -0.203 F 
ATOM     95  F   UNL A   1      41.127  26.530  34.321  1.00  0.00    -0.200 F 
ATOM     96  C   UNL A   1      41.853  28.194  35.827  1.00  0.00     0.200 A 
ATOM     97  F   UNL A   1      42.660  29.868  37.280  1.00  0.00    -0.200 F 
ATOM     98  F   UNL A   1      41.763  27.328  36.847  1.00  0.00    -0.200 F 
ENDBRANCH  65  88
ENDBRANCH  39  40
ENDBRANCH  31  34
ENDBRANCH  29  30
ENDBRANCH  28  29
ENDBRANCH   1  28
TORSDOF 15
ENDMDL
MODEL 3
REMARK VINA RESULT:     -12.1      2.449      3.437
REMARK SMILES CC1=C[C@@H]([C@@H]2N=N[C@H](S)N2/N=C/c2ccc(C(=O)NCCCCNC(=O)c3ccc(-c4c5nc(c(-c6c(F)c(F)c(F)c(F)c6F)c6ccc([nH]6)c(-c6c(F)c(F)c(F)c(F)c6F)c6nc(c(-c7c(F)c(F)c(F)c(F)c7F)c7ccc4[nH]7)C=C6)C=C5)cc3)cc2)N=N1
REMARK SMILES IDX 21 1 20 2 19 3 17 4 18 5 16 7 13 8 14 9 91 10 15 11 90 12
REMARK SMILES IDX 12 13 11 14 10 15 5 16 6 17 7 18 8 19 4 20 1 21 2 22 3 23
REMARK SMILES IDX 93 24 92 25 9 26 22 28 23 29 24 30 25 31 26 33 27 34 28 35
REMARK SMILES IDX 89 36 29 37 88 38 30 39 31 40 32 41 82 42 33 43 87 44 81 45
REMARK SMILES IDX 83 46 34 47 86 48 80 49 79 50 35 52 67 53 47 54 66 55 48 56
REMARK SMILES IDX 51 57 65 58 84 59 49 60 50 61 64 63 85 64 52 65 36 66 37 67
REMARK SMILES IDX 45 68 38 69 39 70 43 71 46 72 40 73 41 74 44 75 42 76 68 77
REMARK SMILES IDX 69 78 77 79 70 80 71 81 75 82 78 83 72 84 73 85 76 86 74 87
REMARK SMILES IDX 53 88 54 89 62 90 55 91 56 92 60 93 63 94 57 95 58 96 61 97
REMARK SMILES IDX 59 98
REMARK H PARENT 19 6 9 27 24 32 83 51 51 62
REMARK Flexibility Score: inf
ROOT
ATOM      1  C   UNL A   1      40.210  21.795  26.498  1.00  0.00     0.023 C 
ENDROOT
BRANCH   1   2
ATOM      2  C   UNL A   1      38.850  22.309  26.006  1.00  0.00     0.116 C 
BRANCH   2   3
ATOM      3  N   UNL A   1      37.972  21.220  25.632  1.00  0.00    -0.352 N 
ATOM      4  C   UNL A   1      36.676  21.177  25.186  1.00  0.00     0.251 C 
ATOM      5  O   UNL A   1      36.214  20.065  24.926  1.00  0.00    -0.269 OA
ATOM      6  H   UNL A   1      38.388  20.332  25.716  1.00  0.00     0.163 HD
BRANCH   4   7
ATOM      7  C   UNL A   1      35.822  22.382  24.961  1.00  0.00     0.039 A 
ATOM      8  C   UNL A   1      34.252  24.623  24.327  1.00  0.00    -0.005 A 
ATOM      9  C   UNL A   1      34.773  23.833  23.302  1.00  0.00     0.010 A 
ATOM     10  C   UNL A   1      34.483  24.296  25.657  1.00  0.00     0.010 A 
ATOM     11  C   UNL A   1      35.563  22.728  23.621  1.00  0.00     0.014 A 
ATOM     12  C   UNL A   1      35.238  23.161  25.966  1.00  0.00     0.014 A 
BRANCH   8  13
ATOM     13  C   UNL A   1      33.397  25.764  23.974  1.00  0.00     0.141 C 
ATOM     14  N   UNL A   1      32.226  25.950  24.500  1.00  0.00    -0.180 NA
BRANCH  14  15
ATOM     15  N   UNL A   1      31.507  27.017  24.061  1.00  0.00    -0.233 NA
ATOM     16  C   UNL A   1      32.110  28.352  23.940  1.00  0.00     0.274 C 
ATOM     17  N   UNL A   1      31.482  29.012  22.760  1.00  0.00    -0.161 NA
ATOM     18  N   UNL A   1      30.508  28.342  22.345  1.00  0.00    -0.153 NA
ATOM     19  C   UNL A   1      30.452  27.047  23.046  1.00  0.00     0.298 C 
BRANCH  16  20
ATOM     20  C   UNL A   1      31.905  29.249  25.209  1.00  0.00     0.201 C 
ATOM     21  C   UNL A   1      34.871  29.085  27.372  1.00  0.00     0.068 C 
ATOM     22  C   UNL A   1      33.520  29.135  26.757  1.00  0.00     0.058 C 
ATOM     23  C   UNL A   1      33.173  29.864  25.699  1.00  0.00     0.031 C 
ATOM     24  N   UNL A   1      32.515  28.296  27.167  1.00  0.00    -0.160 NA
ATOM     25  N   UNL A   1      31.529  28.386  26.376  1.00  0.00    -0.177 NA
ENDBRANCH  16  20
BRANCH  19  26
ATOM     26  S   UNL A   1      28.853  26.625  23.822  1.00  0.00    -0.128 SA
ATOM     27  H   UNL A   1      28.195  25.723  23.044  1.00  0.00     0.106 HD
ENDBRANCH  19  26
ENDBRANCH  14  15
ENDBRANCH   8  13
ENDBRANCH   4   7
ENDBRANCH   2   3
ENDBRANCH   1   2
BRANCH   1  28
ATOM     28  C   UNL A   1      40.671  22.332  27.861  1.00  0.00     0.023 C 
BRANCH  28  29
ATOM     29  C   UNL A   1      42.179  22.485  28.020  1.00  0.00     0.116 C 
BRANCH  29  30
ATOM     30  N   UNL A   1      42.893  22.627  26.741  1.00  0.00    -0.352 N 
ATOM     31  C   UNL A   1      42.908  23.703  25.875  1.00  0.00     0.251 C 
ATOM     32  H   UNL A   1      43.431  21.850  26.465  1.00  0.00     0.163 HD
ATOM     33  O   UNL A   1      43.238  23.573  24.688  1.00  0.00    -0.269 OA
BRANCH  31  34
ATOM     34  C   UNL A   1      42.560  25.028  26.398  1.00  0.00     0.039 A 
ATOM     35  C   UNL A   1      41.375  25.708  26.099  1.00  0.00     0.014 A 
ATOM     36  C   UNL A   1      43.478  25.563  27.287  1.00  0.00     0.014 A 
ATOM     37  C   UNL A   1      41.111  26.906  26.763  1.00  0.00     0.010 A 
ATOM     38  C   UNL A   1      43.083  26.549  28.135  1.00  0.00     0.010 A 
ATOM     39  C   UNL A   1      41.981  27.312  27.782  1.00  0.00    -0.014 A 
BRANCH  39  40
ATOM     40  C   UNL A   1      41.855  28.563  28.506  1.00  0.00     0.031 A 
ATOM     41  C   UNL A   1      42.840  29.623  28.179  1.00  0.00     0.074 A 
ATOM     42  C   UNL A   1      40.718  28.827  29.190  1.00  0.00     0.049 A 
ATOM     43  N   UNL A   1      43.691  30.180  28.974  1.00  0.00    -0.248 NA
ATOM     44  C   UNL A   1      42.955  30.066  26.782  1.00  0.00     0.031 C 
ATOM     45  C   UNL A   1      39.494  28.016  29.309  1.00  0.00     0.029 A 
ATOM     46  N   UNL A   1      40.371  29.968  29.831  1.00  0.00    -0.354 N 
ATOM     47  C   UNL A   1      44.360  31.144  28.225  1.00  0.00     0.074 A 
ATOM     48  C   UNL A   1      43.970  30.929  26.856  1.00  0.00     0.031 C 
ATOM     49  C   UNL A   1      38.482  28.782  29.767  1.00  0.00     0.029 A 
ATOM     50  C   UNL A   1      39.025  30.071  30.147  1.00  0.00     0.049 A 
ATOM     51  H   UNL A   1      41.024  30.671  30.056  1.00  0.00     0.167 HD
ATOM     52  C   UNL A   1      45.047  32.158  28.825  1.00  0.00     0.037 A 
ATOM     53  C   UNL A   1      38.407  31.163  30.655  1.00  0.00     0.037 A 
ATOM     54  C   UNL A   1      45.211  31.907  30.234  1.00  0.00     0.049 A 
ATOM     55  C   UNL A   1      39.470  32.021  31.243  1.00  0.00     0.074 A 
ATOM     56  C   UNL A   1      45.865  30.936  30.966  1.00  0.00     0.029 A 
ATOM     57  N   UNL A   1      44.321  32.494  31.103  1.00  0.00    -0.354 N 
ATOM     58  N   UNL A   1      40.181  31.672  32.285  1.00  0.00    -0.248 NA
ATOM     59  C   UNL A   1      40.081  33.025  30.383  1.00  0.00     0.031 C 
ATOM     60  C   UNL A   1      44.991  30.651  32.056  1.00  0.00     0.029 A 
ATOM     61  C   UNL A   1      43.896  31.514  31.965  1.00  0.00     0.049 A 
ATOM     62  H   UNL A   1      44.043  33.438  31.106  1.00  0.00     0.167 HD
ATOM     63  C   UNL A   1      41.472  32.091  31.995  1.00  0.00     0.074 A 
ATOM     64  C   UNL A   1      41.334  32.985  30.847  1.00  0.00     0.031 C 
ATOM     65  C   UNL A   1      42.561  31.449  32.515  1.00  0.00     0.037 A 
BRANCH  52  66
ATOM     66  C   UNL A   1      45.322  33.515  28.230  1.00  0.00     0.064 A 
ATOM     67  C   UNL A   1      46.657  33.963  28.127  1.00  0.00     0.173 A 
ATOM     68  C   UNL A   1      44.334  34.496  28.017  1.00  0.00     0.173 A 
ATOM     69  F   UNL A   1      47.681  33.116  28.315  1.00  0.00    -0.203 F 
ATOM     70  C   UNL A   1      46.971  35.306  27.909  1.00  0.00     0.198 A 
ATOM     71  C   UNL A   1      44.652  35.827  27.744  1.00  0.00     0.198 A 
ATOM     72  F   UNL A   1      43.031  34.235  28.174  1.00  0.00    -0.203 F 
ATOM     73  F   UNL A   1      48.250  35.705  27.942  1.00  0.00    -0.200 F 
ATOM     74  C   UNL A   1      45.967  36.238  27.724  1.00  0.00     0.200 A 
ATOM     75  F   UNL A   1      43.665  36.718  27.579  1.00  0.00    -0.200 F 
ATOM     76  F   UNL A   1      46.263  37.536  27.574  1.00  0.00    -0.200 F 
ENDBRANCH  52  66
BRANCH  53  77
ATOM     77  C   UNL A   1      37.026  31.623  30.386  1.00  0.00     0.064 A 
ATOM     78  C   UNL A   1      36.179  32.040  31.424  1.00  0.00     0.173 A 
ATOM     79  C   UNL A   1      36.589  31.897  29.073  1.00  0.00     0.173 A 
ATOM     80  F   UNL A   1      36.541  31.855  32.701  1.00  0.00    -0.203 F 
ATOM     81  C   UNL A   1      34.975  32.706  31.164  1.00  0.00     0.198 A 
ATOM     82  C   UNL A   1      35.386  32.555  28.815  1.00  0.00     0.198 A 
ATOM     83  F   UNL A   1      37.363  31.610  28.017  1.00  0.00    -0.203 F 
ATOM     84  F   UNL A   1      34.217  33.136  32.182  1.00  0.00    -0.200 F 
ATOM     85  C   UNL A   1      34.585  32.970  29.862  1.00  0.00     0.200 A 
ATOM     86  F   UNL A   1      35.039  32.834  27.551  1.00  0.00    -0.200 F 
ATOM     87  F   UNL A   1      33.460  33.657  29.615  1.00  0.00    -0.200 F 
ENDBRANCH  53  77
BRANCH  65  88
ATOM     88  C   UNL A   1      42.328  30.399  33.570  1.00  0.00     0.064 A 
ATOM     89  C   UNL A   1      42.220  29.025  33.291  1.00  0.00     0.173 A 
ATOM     90  C   UNL A   1      42.413  30.771  34.916  1.00  0.00     0.173 A 
ATOM     91  F   UNL A   1      42.240  28.573  32.035  1.00  0.00    -0.203 F 
ATOM     92  C   UNL A   1      42.165  28.075  34.309  1.00  0.00     0.198 A 
ATOM     93  C   UNL A   1      42.393  29.819  35.933  1.00  0.00     0.198 A 
ATOM     94  F   UNL A   1      42.582  32.061  35.246  1.00  0.00    -0.203 F 
ATOM     95  F   UNL A   1      42.064  26.772  34.008  1.00  0.00    -0.200 F 
ATOM     96  C   UNL A   1      42.261  28.473  35.631  1.00  0.00     0.200 A 
ATOM     97  F   UNL A   1      42.541  30.204  37.208  1.00  0.00    -0.200 F 
ATOM     98  F   UNL A   1      42.260  27.557  36.610  1.00  0.00    -0.200 F 
ENDBRANCH  65  88
ENDBRANCH  39  40
ENDBRANCH  31  34
ENDBRANCH  29  30
ENDBRANCH  28  29
ENDBRANCH   1  28
TORSDOF 15
ENDMDL
