MODEL 1
REMARK VINA RESULT:     -12.7      0.000      0.000
REMARK SMILES CC[C@]1(C(=O)NCCCCNC(=O)c2ccc(-c3c4nc(c(-c5c(F)c(F)c(F)c(F)c5F)c5ccc([nH]5)c(-c5c(F)c(F)c(F)c(F)c5F)c5nc(c(-c6c(F)c(F)c(F)c(F)c6F)c6ccc3[nH]6)C=C5)C=C4)cc2)CCC[N@@H+](Cc2cc(OC)ccc2F)C1
REMARK SMILES IDX 8 1 7 2 6 3 4 4 5 5 3 7 77 8 91 9 78 10 80 11 79 12 2 14
REMARK SMILES IDX 1 15 81 16 82 17 83 18 89 19 84 20 88 21 90 22 87 23 85 24
REMARK SMILES IDX 86 25 9 26 10 27 11 28 12 29 13 31 14 32 15 33 76 34 16 35
REMARK SMILES IDX 75 36 17 37 18 38 19 39 69 40 20 41 74 42 68 43 70 44 21 45
REMARK SMILES IDX 73 46 67 47 66 48 22 50 54 51 34 52 53 53 35 54 38 55 52 56
REMARK SMILES IDX 71 57 36 58 37 59 51 61 72 62 39 63 23 64 24 65 32 66 25 67
REMARK SMILES IDX 26 68 30 69 33 70 27 71 28 72 31 73 29 74 55 75 56 76 64 77
REMARK SMILES IDX 57 78 58 79 62 80 65 81 59 82 60 83 63 84 61 85 40 86 41 87
REMARK SMILES IDX 49 88 42 89 43 90 47 91 50 92 44 93 45 94 48 95 46 96
REMARK H PARENT 6 6 80 13 11 30 70 49 38 60
REMARK Flexibility Score: inf
ROOT
ATOM      1  C   UNL A   1      31.896  30.492  26.410  1.00  0.00     0.023 C 
ENDROOT
BRANCH   1   2
ATOM      2  C   UNL A   1      31.288  30.043  25.087  1.00  0.00     0.116 C 
BRANCH   2   3
ATOM      3  N   UNL A   1      32.303  29.588  24.146  1.00  0.00    -0.355 N 
ATOM      4  C   UNL A   1      32.694  28.341  23.744  1.00  0.00     0.231 C 
ATOM      5  O   UNL A   1      33.598  28.308  22.903  1.00  0.00    -0.274 OA
ATOM      6  H   UNL A   1      32.804  30.319  23.718  1.00  0.00     0.163 HD
BRANCH   4   7
ATOM      7  C   UNL A   1      32.040  27.047  24.295  1.00  0.00     0.098 C 
ATOM      8  C   UNL A   1      30.507  27.117  24.115  1.00  0.00     0.028 C 
ATOM      9  C   UNL A   1      32.675  25.853  23.523  1.00  0.00     0.279 C 
ATOM     10  C   UNL A   1      29.852  25.747  24.232  1.00  0.00     0.063 C 
ATOM     11  N   UNL A   1      31.928  24.588  23.582  1.00  0.00    -0.330 N 
ATOM     12  C   UNL A   1      30.505  24.743  23.283  1.00  0.00     0.262 C 
ATOM     13  H   UNL A   1      31.962  24.283  24.554  1.00  0.00     0.348 HD
BRANCH   7  14
ATOM     14  C   UNL A   1      32.423  26.848  25.802  1.00  0.00     0.019 C 
ATOM     15  C   UNL A   1      33.753  26.157  26.082  1.00  0.00     0.005 C 
ENDBRANCH   7  14
BRANCH  11  16
ATOM     16  C   UNL A   1      32.576  23.517  22.792  1.00  0.00     0.302 C 
BRANCH  16  17
ATOM     17  C   UNL A   1      33.196  22.367  23.560  1.00  0.00     0.046 A 
ATOM     18  C   UNL A   1      32.437  21.232  23.891  1.00  0.00     0.059 A 
ATOM     19  C   UNL A   1      34.531  22.398  23.976  1.00  0.00     0.132 A 
ATOM     20  C   UNL A   1      33.004  20.164  24.598  1.00  0.00     0.119 A 
ATOM     21  C   UNL A   1      35.125  21.311  24.612  1.00  0.00     0.043 A 
ATOM     22  F   UNL A   1      35.285  23.485  23.756  1.00  0.00    -0.206 F 
ATOM     23  C   UNL A   1      34.362  20.185  24.916  1.00  0.00     0.049 A 
BRANCH  20  24
ATOM     24  O   UNL A   1      32.142  19.149  24.916  1.00  0.00    -0.497 OA
ATOM     25  C   UNL A   1      32.745  17.984  25.478  1.00  0.00     0.278 C 
ENDBRANCH  20  24
ENDBRANCH  16  17
ENDBRANCH  11  16
ENDBRANCH   4   7
ENDBRANCH   2   3
ENDBRANCH   1   2
BRANCH   1  26
ATOM     26  C   UNL A   1      31.563  31.929  26.803  1.00  0.00     0.023 C 
BRANCH  26  27
ATOM     27  C   UNL A   1      32.739  32.745  27.331  1.00  0.00     0.116 C 
BRANCH  27  28
ATOM     28  N   UNL A   1      32.394  34.127  27.636  1.00  0.00    -0.352 N 
ATOM     29  C   UNL A   1      32.959  34.975  28.558  1.00  0.00     0.251 C 
ATOM     30  H   UNL A   1      31.654  34.506  27.109  1.00  0.00     0.163 HD
ATOM     31  O   UNL A   1      32.479  36.085  28.762  1.00  0.00    -0.269 OA
BRANCH  29  32
ATOM     32  C   UNL A   1      34.138  34.525  29.327  1.00  0.00     0.039 A 
ATOM     33  C   UNL A   1      33.947  33.960  30.590  1.00  0.00     0.014 A 
ATOM     34  C   UNL A   1      35.420  34.627  28.783  1.00  0.00     0.014 A 
ATOM     35  C   UNL A   1      35.039  33.423  31.277  1.00  0.00     0.010 A 
ATOM     36  C   UNL A   1      36.492  34.026  29.433  1.00  0.00     0.010 A 
ATOM     37  C   UNL A   1      36.312  33.415  30.685  1.00  0.00    -0.014 A 
BRANCH  37  38
ATOM     38  C   UNL A   1      37.472  32.772  31.350  1.00  0.00     0.031 A 
ATOM     39  C   UNL A   1      38.167  31.613  30.692  1.00  0.00     0.074 A 
ATOM     40  C   UNL A   1      37.847  33.173  32.581  1.00  0.00     0.049 A 
ATOM     41  N   UNL A   1      39.121  30.845  31.154  1.00  0.00    -0.248 NA
ATOM     42  C   UNL A   1      37.705  31.249  29.343  1.00  0.00     0.031 C 
ATOM     43  C   UNL A   1      37.221  34.252  33.346  1.00  0.00     0.029 A 
ATOM     44  N   UNL A   1      38.834  32.706  33.413  1.00  0.00    -0.354 N 
ATOM     45  C   UNL A   1      39.361  29.903  30.163  1.00  0.00     0.074 A 
ATOM     46  C   UNL A   1      38.417  30.160  29.097  1.00  0.00     0.031 C 
ATOM     47  C   UNL A   1      37.844  34.370  34.530  1.00  0.00     0.029 A 
ATOM     48  C   UNL A   1      38.886  33.354  34.623  1.00  0.00     0.049 A 
ATOM     49  H   UNL A   1      39.446  31.974  33.165  1.00  0.00     0.167 HD
ATOM     50  C   UNL A   1      40.301  28.929  30.134  1.00  0.00     0.037 A 
ATOM     51  C   UNL A   1      39.678  33.141  35.691  1.00  0.00     0.037 A 
ATOM     52  C   UNL A   1      41.255  28.691  31.185  1.00  0.00     0.049 A 
ATOM     53  C   UNL A   1      40.715  32.051  35.634  1.00  0.00     0.074 A 
ATOM     54  C   UNL A   1      42.277  27.761  31.229  1.00  0.00     0.029 A 
ATOM     55  N   UNL A   1      41.301  29.395  32.380  1.00  0.00    -0.354 N 
ATOM     56  N   UNL A   1      40.973  31.206  34.667  1.00  0.00    -0.248 NA
ATOM     57  C   UNL A   1      41.575  31.892  36.815  1.00  0.00     0.031 C 
ATOM     58  C   UNL A   1      42.920  27.875  32.466  1.00  0.00     0.029 A 
ATOM     59  C   UNL A   1      42.327  28.908  33.174  1.00  0.00     0.049 A 
ATOM     60  H   UNL A   1      40.695  30.130  32.627  1.00  0.00     0.167 HD
ATOM     61  C   UNL A   1      42.040  30.435  35.108  1.00  0.00     0.074 A 
ATOM     62  C   UNL A   1      42.390  30.922  36.426  1.00  0.00     0.031 C 
ATOM     63  C   UNL A   1      42.670  29.413  34.478  1.00  0.00     0.037 A 
BRANCH  50  64
ATOM     64  C   UNL A   1      40.350  28.052  28.917  1.00  0.00     0.064 A 
ATOM     65  C   UNL A   1      41.106  28.408  27.788  1.00  0.00     0.173 A 
ATOM     66  C   UNL A   1      39.661  26.831  28.887  1.00  0.00     0.173 A 
ATOM     67  F   UNL A   1      41.772  29.571  27.762  1.00  0.00    -0.203 F 
ATOM     68  C   UNL A   1      41.146  27.585  26.665  1.00  0.00     0.198 A 
ATOM     69  C   UNL A   1      39.728  25.998  27.774  1.00  0.00     0.198 A 
ATOM     70  F   UNL A   1      38.928  26.442  29.940  1.00  0.00    -0.203 F 
ATOM     71  F   UNL A   1      41.833  27.971  25.581  1.00  0.00    -0.200 F 
ATOM     72  C   UNL A   1      40.464  26.378  26.661  1.00  0.00     0.200 A 
ATOM     73  F   UNL A   1      39.078  24.825  27.775  1.00  0.00    -0.200 F 
ATOM     74  F   UNL A   1      40.507  25.586  25.582  1.00  0.00    -0.200 F 
ENDBRANCH  50  64
BRANCH  51  75
ATOM     75  C   UNL A   1      39.533  33.990  36.903  1.00  0.00     0.064 A 
ATOM     76  C   UNL A   1      40.163  35.239  36.988  1.00  0.00     0.173 A 
ATOM     77  C   UNL A   1      38.770  33.568  38.001  1.00  0.00     0.173 A 
ATOM     78  F   UNL A   1      40.921  35.675  35.971  1.00  0.00    -0.203 F 
ATOM     79  C   UNL A   1      40.054  36.024  38.134  1.00  0.00     0.198 A 
ATOM     80  C   UNL A   1      38.638  34.367  39.136  1.00  0.00     0.198 A 
ATOM     81  F   UNL A   1      38.141  32.383  37.968  1.00  0.00    -0.203 F 
ATOM     82  F   UNL A   1      40.706  37.193  38.206  1.00  0.00    -0.200 F 
ATOM     83  C   UNL A   1      39.287  35.590  39.204  1.00  0.00     0.200 A 
ATOM     84  F   UNL A   1      37.884  33.951  40.163  1.00  0.00    -0.200 F 
ATOM     85  F   UNL A   1      39.180  36.347  40.304  1.00  0.00    -0.200 F 
ENDBRANCH  51  75
BRANCH  63  86
ATOM     86  C   UNL A   1      43.829  28.777  35.188  1.00  0.00     0.064 A 
ATOM     87  C   UNL A   1      43.652  27.703  36.072  1.00  0.00     0.173 A 
ATOM     88  C   UNL A   1      45.138  29.219  34.944  1.00  0.00     0.173 A 
ATOM     89  F   UNL A   1      42.418  27.255  36.350  1.00  0.00    -0.203 F 
ATOM     90  C   UNL A   1      44.742  27.107  36.701  1.00  0.00     0.198 A 
ATOM     91  C   UNL A   1      46.228  28.603  35.552  1.00  0.00     0.198 A 
ATOM     92  F   UNL A   1      45.362  30.240  34.101  1.00  0.00    -0.203 F 
ATOM     93  F   UNL A   1      44.545  26.109  37.574  1.00  0.00    -0.200 F 
ATOM     94  C   UNL A   1      46.028  27.552  36.434  1.00  0.00     0.200 A 
ATOM     95  F   UNL A   1      47.471  29.026  35.284  1.00  0.00    -0.200 F 
ATOM     96  F   UNL A   1      47.077  26.971  37.034  1.00  0.00    -0.200 F 
ENDBRANCH  63  86
ENDBRANCH  37  38
ENDBRANCH  29  32
ENDBRANCH  27  28
ENDBRANCH  26  27
ENDBRANCH   1  26
TORSDOF 15
ENDMDL
MODEL 2
REMARK VINA RESULT:     -12.7      0.162      1.583
REMARK SMILES CC[C@]1(C(=O)NCCCCNC(=O)c2ccc(-c3c4nc(c(-c5c(F)c(F)c(F)c(F)c5F)c5ccc([nH]5)c(-c5c(F)c(F)c(F)c(F)c5F)c5nc(c(-c6c(F)c(F)c(F)c(F)c6F)c6ccc3[nH]6)C=C5)C=C4)cc2)CCC[N@@H+](Cc2cc(OC)ccc2F)C1
REMARK SMILES IDX 8 1 7 2 6 3 4 4 5 5 3 7 77 8 91 9 78 10 80 11 79 12 2 14
REMARK SMILES IDX 1 15 81 16 82 17 83 18 89 19 84 20 88 21 90 22 87 23 85 24
REMARK SMILES IDX 86 25 9 26 10 27 11 28 12 29 13 31 14 32 15 33 76 34 16 35
REMARK SMILES IDX 75 36 17 37 18 38 19 39 69 40 20 41 74 42 68 43 70 44 21 45
REMARK SMILES IDX 73 46 67 47 66 48 22 50 54 51 34 52 53 53 35 54 38 55 52 56
REMARK SMILES IDX 71 57 36 58 37 59 51 61 72 62 39 63 23 64 24 65 32 66 25 67
REMARK SMILES IDX 26 68 30 69 33 70 27 71 28 72 31 73 29 74 55 75 56 76 64 77
REMARK SMILES IDX 57 78 58 79 62 80 65 81 59 82 60 83 63 84 61 85 40 86 41 87
REMARK SMILES IDX 49 88 42 89 43 90 47 91 50 92 44 93 45 94 48 95 46 96
REMARK H PARENT 6 6 80 13 11 30 70 49 38 60
REMARK Flexibility Score: inf
ROOT
ATOM      1  C   UNL A   1      32.065  30.458  26.320  1.00  0.00     0.023 C 
ENDROOT
BRANCH   1   2
ATOM      2  C   UNL A   1      31.311  29.987  25.082  1.00  0.00     0.116 C 
BRANCH   2   3
ATOM      3  N   UNL A   1      32.215  29.536  24.031  1.00  0.00    -0.355 N 
ATOM      4  C   UNL A   1      32.549  28.290  23.576  1.00  0.00     0.231 C 
ATOM      5  O   UNL A   1      33.357  28.261  22.642  1.00  0.00    -0.274 OA
ATOM      6  H   UNL A   1      32.672  30.268  23.560  1.00  0.00     0.163 HD
BRANCH   4   7
ATOM      7  C   UNL A   1      31.948  26.995  24.181  1.00  0.00     0.098 C 
ATOM      8  C   UNL A   1      30.409  27.016  24.041  1.00  0.00     0.028 C 
ATOM      9  C   UNL A   1      32.597  25.797  23.427  1.00  0.00     0.279 C 
ATOM     10  C   UNL A   1      29.798  25.631  24.214  1.00  0.00     0.063 C 
ATOM     11  N   UNL A   1      31.890  24.514  23.541  1.00  0.00    -0.330 N 
ATOM     12  C   UNL A   1      30.455  24.620  23.276  1.00  0.00     0.262 C 
ATOM     13  H   UNL A   1      31.957  24.238  24.520  1.00  0.00     0.348 HD
BRANCH   7  14
ATOM     14  C   UNL A   1      32.375  26.851  25.682  1.00  0.00     0.019 C 
ATOM     15  C   UNL A   1      33.869  26.717  25.956  1.00  0.00     0.005 C 
ENDBRANCH   7  14
BRANCH  11  16
ATOM     16  C   UNL A   1      32.548  23.439  22.765  1.00  0.00     0.302 C 
BRANCH  16  17
ATOM     17  C   UNL A   1      33.167  22.297  23.546  1.00  0.00     0.046 A 
ATOM     18  C   UNL A   1      32.439  21.123  23.799  1.00  0.00     0.059 A 
ATOM     19  C   UNL A   1      34.468  22.375  24.053  1.00  0.00     0.132 A 
ATOM     20  C   UNL A   1      33.004  20.062  24.518  1.00  0.00     0.119 A 
ATOM     21  C   UNL A   1      35.065  21.299  24.703  1.00  0.00     0.043 A 
ATOM     22  F   UNL A   1      35.185  23.500  23.910  1.00  0.00    -0.206 F 
ATOM     23  C   UNL A   1      34.335  20.134  24.928  1.00  0.00     0.049 A 
BRANCH  20  24
ATOM     24  O   UNL A   1      32.170  19.003  24.754  1.00  0.00    -0.497 OA
ATOM     25  C   UNL A   1      32.673  18.010  25.645  1.00  0.00     0.278 C 
ENDBRANCH  20  24
ENDBRANCH  16  17
ENDBRANCH  11  16
ENDBRANCH   4   7
ENDBRANCH   2   3
ENDBRANCH   1   2
BRANCH   1  26
ATOM     26  C   UNL A   1      31.692  31.862  26.790  1.00  0.00     0.023 C 
BRANCH  26  27
ATOM     27  C   UNL A   1      32.854  32.697  27.319  1.00  0.00     0.116 C 
BRANCH  27  28
ATOM     28  N   UNL A   1      32.481  34.067  27.645  1.00  0.00    -0.352 N 
ATOM     29  C   UNL A   1      33.023  34.909  28.586  1.00  0.00     0.251 C 
ATOM     30  H   UNL A   1      31.738  34.441  27.118  1.00  0.00     0.163 HD
ATOM     31  O   UNL A   1      32.520  36.006  28.806  1.00  0.00    -0.269 OA
BRANCH  29  32
ATOM     32  C   UNL A   1      34.203  34.468  29.357  1.00  0.00     0.039 A 
ATOM     33  C   UNL A   1      34.012  33.842  30.591  1.00  0.00     0.014 A 
ATOM     34  C   UNL A   1      35.490  34.638  28.842  1.00  0.00     0.014 A 
ATOM     35  C   UNL A   1      35.109  33.314  31.274  1.00  0.00     0.010 A 
ATOM     36  C   UNL A   1      36.572  34.047  29.486  1.00  0.00     0.010 A 
ATOM     37  C   UNL A   1      36.392  33.376  30.706  1.00  0.00    -0.014 A 
BRANCH  37  38
ATOM     38  C   UNL A   1      37.563  32.746  31.364  1.00  0.00     0.031 A 
ATOM     39  C   UNL A   1      38.275  31.603  30.696  1.00  0.00     0.074 A 
ATOM     40  C   UNL A   1      37.934  33.143  32.598  1.00  0.00     0.049 A 
ATOM     41  N   UNL A   1      39.241  30.846  31.152  1.00  0.00    -0.248 NA
ATOM     42  C   UNL A   1      37.816  31.243  29.345  1.00  0.00     0.031 C 
ATOM     43  C   UNL A   1      37.293  34.207  33.373  1.00  0.00     0.029 A 
ATOM     44  N   UNL A   1      38.929  32.684  33.425  1.00  0.00    -0.354 N 
ATOM     45  C   UNL A   1      39.494  29.916  30.153  1.00  0.00     0.074 A 
ATOM     46  C   UNL A   1      38.545  30.167  29.090  1.00  0.00     0.031 C 
ATOM     47  C   UNL A   1      37.915  34.325  34.556  1.00  0.00     0.029 A 
ATOM     48  C   UNL A   1      38.973  33.324  34.640  1.00  0.00     0.049 A 
ATOM     49  H   UNL A   1      39.551  31.965  33.171  1.00  0.00     0.167 HD
ATOM     50  C   UNL A   1      40.448  28.956  30.115  1.00  0.00     0.037 A 
ATOM     51  C   UNL A   1      39.770  33.115  35.706  1.00  0.00     0.037 A 
ATOM     52  C   UNL A   1      41.407  28.725  31.163  1.00  0.00     0.049 A 
ATOM     53  C   UNL A   1      40.823  32.042  35.639  1.00  0.00     0.074 A 
ATOM     54  C   UNL A   1      42.444  27.810  31.198  1.00  0.00     0.029 A 
ATOM     55  N   UNL A   1      41.445  29.420  32.363  1.00  0.00    -0.354 N 
ATOM     56  N   UNL A   1      41.092  31.208  34.664  1.00  0.00    -0.248 NA
ATOM     57  C   UNL A   1      41.687  31.886  36.817  1.00  0.00     0.031 C 
ATOM     58  C   UNL A   1      43.086  27.924  32.436  1.00  0.00     0.029 A 
ATOM     59  C   UNL A   1      42.479  28.943  33.152  1.00  0.00     0.049 A 
ATOM     60  H   UNL A   1      40.828  30.143  32.617  1.00  0.00     0.167 HD
ATOM     61  C   UNL A   1      42.171  30.450  35.098  1.00  0.00     0.074 A 
ATOM     62  C   UNL A   1      42.516  30.932  36.419  1.00  0.00     0.031 C 
ATOM     63  C   UNL A   1      42.817  29.442  34.459  1.00  0.00     0.037 A 
BRANCH  50  64
ATOM     64  C   UNL A   1      40.509  28.090  28.891  1.00  0.00     0.064 A 
ATOM     65  C   UNL A   1      39.798  26.882  28.813  1.00  0.00     0.173 A 
ATOM     66  C   UNL A   1      41.258  28.484  27.772  1.00  0.00     0.173 A 
ATOM     67  F   UNL A   1      39.077  26.454  29.860  1.00  0.00    -0.203 F 
ATOM     68  C   UNL A   1      39.859  26.086  27.672  1.00  0.00     0.198 A 
ATOM     69  C   UNL A   1      41.292  27.700  26.622  1.00  0.00     0.198 A 
ATOM     70  F   UNL A   1      41.952  29.631  27.792  1.00  0.00    -0.203 F 
ATOM     71  F   UNL A   1      39.214  24.912  27.641  1.00  0.00    -0.200 F 
ATOM     72  C   UNL A   1      40.600  26.500  26.575  1.00  0.00     0.200 A 
ATOM     73  F   UNL A   1      41.999  28.106  25.557  1.00  0.00    -0.200 F 
ATOM     74  F   UNL A   1      40.654  25.736  25.475  1.00  0.00    -0.200 F 
ENDBRANCH  50  64
BRANCH  51  75
ATOM     75  C   UNL A   1      39.613  33.952  36.925  1.00  0.00     0.064 A 
ATOM     76  C   UNL A   1      38.823  33.519  37.999  1.00  0.00     0.173 A 
ATOM     77  C   UNL A   1      40.242  35.200  37.038  1.00  0.00     0.173 A 
ATOM     78  F   UNL A   1      38.185  32.341  37.927  1.00  0.00    -0.203 F 
ATOM     79  C   UNL A   1      38.650  34.313  39.131  1.00  0.00     0.198 A 
ATOM     80  C   UNL A   1      40.091  35.980  38.183  1.00  0.00     0.198 A 
ATOM     81  F   UNL A   1      41.013  35.657  36.041  1.00  0.00    -0.203 F 
ATOM     82  F   UNL A   1      37.851  33.895  40.122  1.00  0.00    -0.200 F 
ATOM     83  C   UNL A   1      39.288  35.540  39.224  1.00  0.00     0.200 A 
ATOM     84  F   UNL A   1      40.721  37.159  38.276  1.00  0.00    -0.200 F 
ATOM     85  F   UNL A   1      39.124  36.301  40.314  1.00  0.00    -0.200 F 
ENDBRANCH  51  75
BRANCH  63  86
ATOM     86  C   UNL A   1      43.985  28.819  35.163  1.00  0.00     0.064 A 
ATOM     87  C   UNL A   1      43.834  27.702  35.996  1.00  0.00     0.173 A 
ATOM     88  C   UNL A   1      45.282  29.318  34.962  1.00  0.00     0.173 A 
ATOM     89  F   UNL A   1      42.613  27.198  36.233  1.00  0.00    -0.203 F 
ATOM     90  C   UNL A   1      44.934  27.119  36.620  1.00  0.00     0.198 A 
ATOM     91  C   UNL A   1      46.384  28.716  35.563  1.00  0.00     0.198 A 
ATOM     92  F   UNL A   1      45.481  30.382  34.168  1.00  0.00    -0.203 F 
ATOM     93  F   UNL A   1      44.760  26.078  37.446  1.00  0.00    -0.200 F 
ATOM     94  C   UNL A   1      46.208  27.622  36.396  1.00  0.00     0.200 A 
ATOM     95  F   UNL A   1      47.614  29.195  35.336  1.00  0.00    -0.200 F 
ATOM     96  F   UNL A   1      47.267  27.053  36.990  1.00  0.00    -0.200 F 
ENDBRANCH  63  86
ENDBRANCH  37  38
ENDBRANCH  29  32
ENDBRANCH  27  28
ENDBRANCH  26  27
ENDBRANCH   1  26
TORSDOF 15
ENDMDL
MODEL 3
REMARK VINA RESULT:     -12.7      0.878      1.970
REMARK SMILES CC[C@]1(C(=O)NCCCCNC(=O)c2ccc(-c3c4nc(c(-c5c(F)c(F)c(F)c(F)c5F)c5ccc([nH]5)c(-c5c(F)c(F)c(F)c(F)c5F)c5nc(c(-c6c(F)c(F)c(F)c(F)c6F)c6ccc3[nH]6)C=C5)C=C4)cc2)CCC[N@@H+](Cc2cc(OC)ccc2F)C1
REMARK SMILES IDX 8 1 7 2 6 3 4 4 5 5 3 7 77 8 91 9 78 10 80 11 79 12 2 14
REMARK SMILES IDX 1 15 81 16 82 17 83 18 89 19 84 20 88 21 90 22 87 23 85 24
REMARK SMILES IDX 86 25 9 26 10 27 11 28 12 29 13 31 14 32 15 33 76 34 16 35
REMARK SMILES IDX 75 36 17 37 18 38 19 39 69 40 20 41 74 42 68 43 70 44 21 45
REMARK SMILES IDX 73 46 67 47 66 48 22 50 54 51 34 52 53 53 35 54 38 55 52 56
REMARK SMILES IDX 71 57 36 58 37 59 51 61 72 62 39 63 23 64 24 65 32 66 25 67
REMARK SMILES IDX 26 68 30 69 33 70 27 71 28 72 31 73 29 74 55 75 56 76 64 77
REMARK SMILES IDX 57 78 58 79 62 80 65 81 59 82 60 83 63 84 61 85 40 86 41 87
REMARK SMILES IDX 49 88 42 89 43 90 47 91 50 92 44 93 45 94 48 95 46 96
REMARK H PARENT 6 6 80 13 11 30 70 49 38 60
REMARK Flexibility Score: inf
ROOT
ATOM      1  C   UNL A   1      31.950  30.496  26.442  1.00  0.00     0.023 C 
ENDROOT
BRANCH   1   2
ATOM      2  C   UNL A   1      31.316  30.035  25.135  1.00  0.00     0.116 C 
BRANCH   2   3
ATOM      3  N   UNL A   1      32.317  29.649  24.149  1.00  0.00    -0.355 N 
ATOM      4  C   UNL A   1      32.743  28.430  23.697  1.00  0.00     0.231 C 
ATOM      5  O   UNL A   1      33.620  28.458  22.828  1.00  0.00    -0.274 OA
ATOM      6  H   UNL A   1      32.775  30.411  23.729  1.00  0.00     0.163 HD
BRANCH   4   7
ATOM      7  C   UNL A   1      32.158  27.096  24.229  1.00  0.00     0.098 C 
ATOM      8  C   UNL A   1      30.629  27.068  24.005  1.00  0.00     0.028 C 
ATOM      9  C   UNL A   1      32.890  25.946  23.476  1.00  0.00     0.279 C 
ATOM     10  C   UNL A   1      30.061  25.658  24.102  1.00  0.00     0.063 C 
ATOM     11  N   UNL A   1      32.225  24.636  23.513  1.00  0.00    -0.330 N 
ATOM     12  C   UNL A   1      30.804  24.700  23.172  1.00  0.00     0.262 C 
ATOM     13  H   UNL A   1      32.250  24.332  24.486  1.00  0.00     0.348 HD
BRANCH   7  14
ATOM     14  C   UNL A   1      32.508  26.919  25.747  1.00  0.00     0.019 C 
ATOM     15  C   UNL A   1      33.930  27.277  26.164  1.00  0.00     0.005 C 
ENDBRANCH   7  14
BRANCH  11  16
ATOM     16  C   UNL A   1      32.964  23.610  22.742  1.00  0.00     0.302 C 
BRANCH  16  17
ATOM     17  C   UNL A   1      33.840  22.652  23.524  1.00  0.00     0.046 A 
ATOM     18  C   UNL A   1      35.205  22.921  23.717  1.00  0.00     0.059 A 
ATOM     19  C   UNL A   1      33.330  21.468  24.065  1.00  0.00     0.132 A 
ATOM     20  C   UNL A   1      36.021  22.043  24.441  1.00  0.00     0.119 A 
ATOM     21  C   UNL A   1      34.113  20.625  24.849  1.00  0.00     0.043 A 
ATOM     22  F   UNL A   1      32.053  21.118  23.850  1.00  0.00    -0.206 F 
ATOM     23  C   UNL A   1      35.461  20.918  25.047  1.00  0.00     0.049 A 
BRANCH  20  24
ATOM     24  O   UNL A   1      37.345  22.386  24.500  1.00  0.00    -0.497 OA
ATOM     25  C   UNL A   1      38.136  21.626  25.410  1.00  0.00     0.278 C 
ENDBRANCH  20  24
ENDBRANCH  16  17
ENDBRANCH  11  16
ENDBRANCH   4   7
ENDBRANCH   2   3
ENDBRANCH   1   2
BRANCH   1  26
ATOM     26  C   UNL A   1      31.606  31.928  26.842  1.00  0.00     0.023 C 
BRANCH  26  27
ATOM     27  C   UNL A   1      32.788  32.772  27.310  1.00  0.00     0.116 C 
BRANCH  27  28
ATOM     28  N   UNL A   1      32.426  34.144  27.639  1.00  0.00    -0.352 N 
ATOM     29  C   UNL A   1      32.976  34.980  28.580  1.00  0.00     0.251 C 
ATOM     30  H   UNL A   1      31.683  34.524  27.115  1.00  0.00     0.163 HD
ATOM     31  O   UNL A   1      32.482  36.080  28.803  1.00  0.00    -0.269 OA
BRANCH  29  32
ATOM     32  C   UNL A   1      34.155  34.530  29.347  1.00  0.00     0.039 A 
ATOM     33  C   UNL A   1      33.968  33.973  30.614  1.00  0.00     0.014 A 
ATOM     34  C   UNL A   1      35.436  34.622  28.797  1.00  0.00     0.014 A 
ATOM     35  C   UNL A   1      35.059  33.435  31.299  1.00  0.00     0.010 A 
ATOM     36  C   UNL A   1      36.508  34.020  29.446  1.00  0.00     0.010 A 
ATOM     37  C   UNL A   1      36.330  33.418  30.701  1.00  0.00    -0.014 A 
BRANCH  37  38
ATOM     38  C   UNL A   1      37.491  32.772  31.365  1.00  0.00     0.031 A 
ATOM     39  C   UNL A   1      38.182  31.612  30.707  1.00  0.00     0.074 A 
ATOM     40  C   UNL A   1      37.868  33.175  32.595  1.00  0.00     0.049 A 
ATOM     41  N   UNL A   1      39.135  30.843  31.169  1.00  0.00    -0.248 NA
ATOM     42  C   UNL A   1      37.716  31.247  29.360  1.00  0.00     0.031 C 
ATOM     43  C   UNL A   1      37.246  34.256  33.360  1.00  0.00     0.029 A 
ATOM     44  N   UNL A   1      38.856  32.707  33.426  1.00  0.00    -0.354 N 
ATOM     45  C   UNL A   1      39.371  29.898  30.179  1.00  0.00     0.074 A 
ATOM     46  C   UNL A   1      38.426  30.156  29.115  1.00  0.00     0.031 C 
ATOM     47  C   UNL A   1      37.871  34.375  34.542  1.00  0.00     0.029 A 
ATOM     48  C   UNL A   1      38.912  33.356  34.635  1.00  0.00     0.049 A 
ATOM     49  H   UNL A   1      39.465  31.974  33.178  1.00  0.00     0.167 HD
ATOM     50  C   UNL A   1      40.309  28.922  30.150  1.00  0.00     0.037 A 
ATOM     51  C   UNL A   1      39.705  33.144  35.702  1.00  0.00     0.037 A 
ATOM     52  C   UNL A   1      41.264  28.684  31.199  1.00  0.00     0.049 A 
ATOM     53  C   UNL A   1      40.739  32.051  35.644  1.00  0.00     0.074 A 
ATOM     54  C   UNL A   1      42.284  27.752  31.243  1.00  0.00     0.029 A 
ATOM     55  N   UNL A   1      41.314  29.389  32.393  1.00  0.00    -0.354 N 
ATOM     56  N   UNL A   1      40.994  31.205  34.678  1.00  0.00    -0.248 NA
ATOM     57  C   UNL A   1      41.601  31.892  36.824  1.00  0.00     0.031 C 
ATOM     58  C   UNL A   1      42.929  27.866  32.479  1.00  0.00     0.029 A 
ATOM     59  C   UNL A   1      42.340  28.901  33.187  1.00  0.00     0.049 A 
ATOM     60  H   UNL A   1      40.710  30.126  32.641  1.00  0.00     0.167 HD
ATOM     61  C   UNL A   1      42.060  30.431  35.118  1.00  0.00     0.074 A 
ATOM     62  C   UNL A   1      42.413  30.919  36.435  1.00  0.00     0.031 C 
ATOM     63  C   UNL A   1      42.687  29.407  34.489  1.00  0.00     0.037 A 
BRANCH  50  64
ATOM     64  C   UNL A   1      40.354  28.043  28.933  1.00  0.00     0.064 A 
ATOM     65  C   UNL A   1      41.108  28.396  27.803  1.00  0.00     0.173 A 
ATOM     66  C   UNL A   1      39.662  26.823  28.907  1.00  0.00     0.173 A 
ATOM     67  F   UNL A   1      41.777  29.558  27.774  1.00  0.00    -0.203 F 
ATOM     68  C   UNL A   1      41.145  27.572  26.681  1.00  0.00     0.198 A 
ATOM     69  C   UNL A   1      39.726  25.989  27.795  1.00  0.00     0.198 A 
ATOM     70  F   UNL A   1      38.930  26.437  29.962  1.00  0.00    -0.203 F 
ATOM     71  F   UNL A   1      41.830  27.954  25.595  1.00  0.00    -0.200 F 
ATOM     72  C   UNL A   1      40.460  26.366  26.681  1.00  0.00     0.200 A 
ATOM     73  F   UNL A   1      39.073  24.817  27.800  1.00  0.00    -0.200 F 
ATOM     74  F   UNL A   1      40.500  25.572  25.602  1.00  0.00    -0.200 F 
ENDBRANCH  50  64
BRANCH  51  75
ATOM     75  C   UNL A   1      39.564  33.994  36.913  1.00  0.00     0.064 A 
ATOM     76  C   UNL A   1      38.784  33.576  38.000  1.00  0.00     0.173 A 
ATOM     77  C   UNL A   1      40.196  35.242  37.006  1.00  0.00     0.173 A 
ATOM     78  F   UNL A   1      38.142  32.399  37.949  1.00  0.00    -0.203 F 
ATOM     79  C   UNL A   1      38.625  34.382  39.125  1.00  0.00     0.198 A 
ATOM     80  C   UNL A   1      40.060  36.035  38.144  1.00  0.00     0.198 A 
ATOM     81  F   UNL A   1      40.959  35.686  35.995  1.00  0.00    -0.203 F 
ATOM     82  F   UNL A   1      37.836  33.977  40.130  1.00  0.00    -0.200 F 
ATOM     83  C   UNL A   1      39.267  35.609  39.198  1.00  0.00     0.200 A 
ATOM     84  F   UNL A   1      40.694  37.214  38.217  1.00  0.00    -0.200 F 
ATOM     85  F   UNL A   1      39.116  36.382  40.282  1.00  0.00    -0.200 F 
ENDBRANCH  51  75
BRANCH  63  86
ATOM     86  C   UNL A   1      43.845  28.770  35.198  1.00  0.00     0.064 A 
ATOM     87  C   UNL A   1      45.154  29.252  35.053  1.00  0.00     0.173 A 
ATOM     88  C   UNL A   1      43.635  27.692  36.071  1.00  0.00     0.173 A 
ATOM     89  F   UNL A   1      45.408  30.270  34.216  1.00  0.00    -0.203 F 
ATOM     90  C   UNL A   1      46.213  28.665  35.740  1.00  0.00     0.198 A 
ATOM     91  C   UNL A   1      44.691  27.126  36.780  1.00  0.00     0.198 A 
ATOM     92  F   UNL A   1      42.400  27.198  36.251  1.00  0.00    -0.203 F 
ATOM     93  F   UNL A   1      47.462  29.115  35.554  1.00  0.00    -0.200 F 
ATOM     94  C   UNL A   1      45.979  27.609  36.609  1.00  0.00     0.200 A 
ATOM     95  F   UNL A   1      44.462  26.114  37.627  1.00  0.00    -0.200 F 
ATOM     96  F   UNL A   1      46.999  27.052  37.276  1.00  0.00    -0.200 F 
ENDBRANCH  63  86
ENDBRANCH  37  38
ENDBRANCH  29  32
ENDBRANCH  27  28
ENDBRANCH  26  27
ENDBRANCH   1  26
TORSDOF 15
ENDMDL
