MODEL 1
REMARK VINA RESULT:     -10.7      0.000      0.000
REMARK SMILES Cc1c(C[C@@H](C)O)c(=O)oc2cc(OCC(=O)NCCCCNC(=O)c3ccc(-c4c5nc(c(-c6c(F)c(F)c(F)c(F)c6F)c6ccc([nH]6)c(-c6c(F)c(F)c(F)c(F)c6F)c6nc(c(-c7c(F)c(F)c(F)c(F)c7F)c7ccc4[nH]7)C=C6)C=C5)cc3)ccc12
REMARK SMILES IDX 19 1 18 2 16 3 17 4 15 6 14 7 13 8 1 9 2 10 3 11 91 12 8 13
REMARK SMILES IDX 11 14 90 15 9 16 10 17 12 18 89 19 4 20 5 21 6 22 7 23 20 25
REMARK SMILES IDX 21 26 22 27 23 28 24 29 25 31 26 32 27 33 88 34 28 35 87 36
REMARK SMILES IDX 29 37 30 38 31 39 81 40 32 41 86 42 80 43 82 44 33 45 85 46
REMARK SMILES IDX 79 47 78 48 34 50 66 51 46 52 65 53 47 54 50 55 64 56 83 57
REMARK SMILES IDX 48 58 49 59 63 61 84 62 51 63 35 64 36 65 44 66 37 67 38 68
REMARK SMILES IDX 42 69 45 70 39 71 40 72 43 73 41 74 67 75 68 76 76 77 69 78
REMARK SMILES IDX 70 79 74 80 77 81 71 82 72 83 75 84 73 85 52 86 53 87 61 88
REMARK SMILES IDX 54 89 55 90 59 91 62 92 56 93 57 94 60 95 58 96
REMARK H PARENT 18 5 7 24 23 30 82 49 50 60
REMARK Flexibility Score: inf
ROOT
ATOM      1  C   UNL A   1      33.514  36.228  29.562  1.00  0.00     0.116 C 
ENDROOT
BRANCH   1   2
ATOM      2  N   UNL A   1      32.427  36.433  30.499  1.00  0.00    -0.353 N 
ATOM      3  C   UNL A   1      32.388  36.143  31.831  1.00  0.00     0.257 C 
ATOM      4  O   UNL A   1      31.376  36.439  32.470  1.00  0.00    -0.271 OA
ATOM      5  H   UNL A   1      31.610  36.836  30.124  1.00  0.00     0.163 HD
BRANCH   3   6
ATOM      6  C   UNL A   1      33.604  35.506  32.510  1.00  0.00     0.329 C 
BRANCH   6   7
ATOM      7  O   UNL A   1      33.888  34.161  32.160  1.00  0.00    -0.484 OA
BRANCH   7   8
ATOM      8  C   UNL A   1      35.092  33.636  32.532  1.00  0.00     0.123 A 
ATOM      9  C   UNL A   1      40.015  33.412  34.174  1.00  0.00     0.046 C 
ATOM     10  C   UNL A   1      39.034  32.368  33.708  1.00  0.00    -0.030 A 
ATOM     11  C   UNL A   1      39.298  31.043  33.647  1.00  0.00     0.044 A 
ATOM     12  C   UNL A   1      37.704  32.846  33.287  1.00  0.00     0.021 A 
ATOM     13  C   UNL A   1      38.238  30.062  33.268  1.00  0.00     0.339 A 
ATOM     14  C   UNL A   1      36.693  31.918  33.065  1.00  0.00     0.142 A 
ATOM     15  C   UNL A   1      37.391  34.196  33.091  1.00  0.00     0.016 A 
ATOM     16  O   UNL A   1      38.485  28.868  33.124  1.00  0.00    -0.246 OA
ATOM     17  O   UNL A   1      36.946  30.541  33.140  1.00  0.00    -0.422 OA
ATOM     18  C   UNL A   1      35.390  32.290  32.717  1.00  0.00     0.094 A 
ATOM     19  C   UNL A   1      36.100  34.582  32.713  1.00  0.00     0.047 A 
BRANCH  11  20
ATOM     20  C   UNL A   1      40.632  30.407  33.981  1.00  0.00     0.075 C 
BRANCH  20  21
ATOM     21  C   UNL A   1      40.763  29.923  35.438  1.00  0.00     0.116 C 
ATOM     22  C   UNL A   1      41.684  30.780  36.301  1.00  0.00     0.038 C 
BRANCH  21  23
ATOM     23  O   UNL A   1      39.468  29.934  36.046  1.00  0.00    -0.393 OA
ATOM     24  H   UNL A   1      39.102  29.036  36.043  1.00  0.00     0.210 HD
ENDBRANCH  21  23
ENDBRANCH  20  21
ENDBRANCH  11  20
ENDBRANCH   7   8
ENDBRANCH   6   7
ENDBRANCH   3   6
ENDBRANCH   1   2
BRANCH   1  25
ATOM     25  C   UNL A   1      33.346  34.944  28.750  1.00  0.00     0.023 C 
BRANCH  25  26
ATOM     26  C   UNL A   1      34.653  34.266  28.327  1.00  0.00     0.023 C 
BRANCH  26  27
ATOM     27  C   UNL A   1      34.925  32.904  28.958  1.00  0.00     0.116 C 
BRANCH  27  28
ATOM     28  N   UNL A   1      34.089  31.845  28.417  1.00  0.00    -0.352 N 
ATOM     29  C   UNL A   1      34.429  30.563  28.049  1.00  0.00     0.251 C 
ATOM     30  H   UNL A   1      33.139  32.079  28.296  1.00  0.00     0.163 HD
ATOM     31  O   UNL A   1      33.610  29.843  27.497  1.00  0.00    -0.269 OA
BRANCH  29  32
ATOM     32  C   UNL A   1      35.805  30.069  28.287  1.00  0.00     0.039 A 
ATOM     33  C   UNL A   1      36.731  30.136  27.242  1.00  0.00     0.014 A 
ATOM     34  C   UNL A   1      36.186  29.557  29.529  1.00  0.00     0.014 A 
ATOM     35  C   UNL A   1      38.059  29.767  27.468  1.00  0.00     0.010 A 
ATOM     36  C   UNL A   1      37.525  29.257  29.773  1.00  0.00     0.010 A 
ATOM     37  C   UNL A   1      38.477  29.367  28.747  1.00  0.00    -0.014 A 
BRANCH  37  38
ATOM     38  C   UNL A   1      39.907  29.085  29.039  1.00  0.00     0.031 A 
ATOM     39  C   UNL A   1      40.762  30.119  29.719  1.00  0.00     0.074 A 
ATOM     40  C   UNL A   1      40.456  27.928  28.622  1.00  0.00     0.049 A 
ATOM     41  N   UNL A   1      42.045  30.091  29.980  1.00  0.00    -0.248 NA
ATOM     42  C   UNL A   1      40.091  31.359  30.138  1.00  0.00     0.031 C 
ATOM     43  C   UNL A   1      39.746  26.864  27.909  1.00  0.00     0.029 A 
ATOM     44  N   UNL A   1      41.743  27.458  28.720  1.00  0.00    -0.354 N 
ATOM     45  C   UNL A   1      42.336  31.310  30.576  1.00  0.00     0.074 A 
ATOM     46  C   UNL A   1      41.108  32.075  30.596  1.00  0.00     0.031 C 
ATOM     47  C   UNL A   1      40.600  25.862  27.648  1.00  0.00     0.029 A 
ATOM     48  C   UNL A   1      41.927  26.228  28.136  1.00  0.00     0.049 A 
ATOM     49  H   UNL A   1      42.465  27.954  29.168  1.00  0.00     0.167 HD
ATOM     50  C   UNL A   1      43.516  31.745  31.080  1.00  0.00     0.037 A 
ATOM     51  C   UNL A   1      43.041  25.485  27.993  1.00  0.00     0.037 A 
ATOM     52  C   UNL A   1      44.731  30.972  31.080  1.00  0.00     0.049 A 
ATOM     53  C   UNL A   1      44.342  25.997  28.550  1.00  0.00     0.074 A 
ATOM     54  C   UNL A   1      45.959  31.296  31.631  1.00  0.00     0.029 A 
ATOM     55  N   UNL A   1      44.874  29.723  30.493  1.00  0.00    -0.354 N 
ATOM     56  N   UNL A   1      44.587  27.118  29.184  1.00  0.00    -0.248 NA
ATOM     57  C   UNL A   1      45.522  25.137  28.377  1.00  0.00     0.031 C 
ATOM     58  C   UNL A   1      46.859  30.269  31.329  1.00  0.00     0.029 A 
ATOM     59  C   UNL A   1      46.179  29.277  30.642  1.00  0.00     0.049 A 
ATOM     60  H   UNL A   1      44.156  29.226  30.038  1.00  0.00     0.167 HD
ATOM     61  C   UNL A   1      45.937  27.086  29.508  1.00  0.00     0.074 A 
ATOM     62  C   UNL A   1      46.456  25.827  29.016  1.00  0.00     0.031 C 
ATOM     63  C   UNL A   1      46.681  28.017  30.155  1.00  0.00     0.037 A 
BRANCH  50  64
ATOM     64  C   UNL A   1      43.556  33.123  31.675  1.00  0.00     0.064 A 
ATOM     65  C   UNL A   1      43.473  33.331  33.060  1.00  0.00     0.173 A 
ATOM     66  C   UNL A   1      43.728  34.248  30.854  1.00  0.00     0.173 A 
ATOM     67  F   UNL A   1      43.299  32.292  33.891  1.00  0.00    -0.203 F 
ATOM     68  C   UNL A   1      43.533  34.615  33.597  1.00  0.00     0.198 A 
ATOM     69  C   UNL A   1      43.820  35.526  31.396  1.00  0.00     0.198 A 
ATOM     70  F   UNL A   1      43.822  34.105  29.522  1.00  0.00    -0.203 F 
ATOM     71  F   UNL A   1      43.403  34.792  34.919  1.00  0.00    -0.200 F 
ATOM     72  C   UNL A   1      43.714  35.710  32.766  1.00  0.00     0.200 A 
ATOM     73  F   UNL A   1      44.010  36.582  30.592  1.00  0.00    -0.200 F 
ATOM     74  F   UNL A   1      43.781  36.943  33.286  1.00  0.00    -0.200 F 
ENDBRANCH  50  64
BRANCH  51  75
ATOM     75  C   UNL A   1      42.976  24.171  27.300  1.00  0.00     0.064 A 
ATOM     76  C   UNL A   1      42.591  23.011  27.989  1.00  0.00     0.173 A 
ATOM     77  C   UNL A   1      43.304  24.043  25.943  1.00  0.00     0.173 A 
ATOM     78  F   UNL A   1      42.288  23.078  29.293  1.00  0.00    -0.203 F 
ATOM     79  C   UNL A   1      42.561  21.772  27.353  1.00  0.00     0.198 A 
ATOM     80  C   UNL A   1      43.243  22.809  25.299  1.00  0.00     0.198 A 
ATOM     81  F   UNL A   1      43.673  25.122  25.237  1.00  0.00    -0.203 F 
ATOM     82  F   UNL A   1      42.239  20.672  28.047  1.00  0.00    -0.200 F 
ATOM     83  C   UNL A   1      42.881  21.673  26.007  1.00  0.00     0.200 A 
ATOM     84  F   UNL A   1      43.537  22.720  23.995  1.00  0.00    -0.200 F 
ATOM     85  F   UNL A   1      42.848  20.482  25.395  1.00  0.00    -0.200 F 
ENDBRANCH  51  75
BRANCH  63  86
ATOM     86  C   UNL A   1      48.127  27.699  30.402  1.00  0.00     0.064 A 
ATOM     87  C   UNL A   1      49.133  28.088  29.505  1.00  0.00     0.173 A 
ATOM     88  C   UNL A   1      48.516  27.034  31.576  1.00  0.00     0.173 A 
ATOM     89  F   UNL A   1      48.812  28.712  28.362  1.00  0.00    -0.203 F 
ATOM     90  C   UNL A   1      50.471  27.804  29.763  1.00  0.00     0.198 A 
ATOM     91  C   UNL A   1      49.857  26.780  31.846  1.00  0.00     0.198 A 
ATOM     92  F   UNL A   1      47.595  26.646  32.470  1.00  0.00    -0.203 F 
ATOM     93  F   UNL A   1      51.411  28.144  28.869  1.00  0.00    -0.200 F 
ATOM     94  C   UNL A   1      50.833  27.158  30.936  1.00  0.00     0.200 A 
ATOM     95  F   UNL A   1      50.206  26.171  32.987  1.00  0.00    -0.200 F 
ATOM     96  F   UNL A   1      52.123  26.896  31.187  1.00  0.00    -0.200 F 
ENDBRANCH  63  86
ENDBRANCH  37  38
ENDBRANCH  29  32
ENDBRANCH  27  28
ENDBRANCH  26  27
ENDBRANCH  25  26
ENDBRANCH   1  25
TORSDOF 16
ENDMDL
MODEL 2
REMARK VINA RESULT:     -10.4      4.468     10.403
REMARK SMILES Cc1c(C[C@@H](C)O)c(=O)oc2cc(OCC(=O)NCCCCNC(=O)c3ccc(-c4c5nc(c(-c6c(F)c(F)c(F)c(F)c6F)c6ccc([nH]6)c(-c6c(F)c(F)c(F)c(F)c6F)c6nc(c(-c7c(F)c(F)c(F)c(F)c7F)c7ccc4[nH]7)C=C6)C=C5)cc3)ccc12
REMARK SMILES IDX 19 1 18 2 16 3 17 4 15 6 14 7 13 8 1 9 2 10 3 11 91 12 8 13
REMARK SMILES IDX 11 14 90 15 9 16 10 17 12 18 89 19 4 20 5 21 6 22 7 23 20 25
REMARK SMILES IDX 21 26 22 27 23 28 24 29 25 31 26 32 27 33 88 34 28 35 87 36
REMARK SMILES IDX 29 37 30 38 31 39 81 40 32 41 86 42 80 43 82 44 33 45 85 46
REMARK SMILES IDX 79 47 78 48 34 50 66 51 46 52 65 53 47 54 50 55 64 56 83 57
REMARK SMILES IDX 48 58 49 59 63 61 84 62 51 63 35 64 36 65 44 66 37 67 38 68
REMARK SMILES IDX 42 69 45 70 39 71 40 72 43 73 41 74 67 75 68 76 76 77 69 78
REMARK SMILES IDX 70 79 74 80 77 81 71 82 72 83 75 84 73 85 52 86 53 87 61 88
REMARK SMILES IDX 54 89 55 90 59 91 62 92 56 93 57 94 60 95 58 96
REMARK H PARENT 18 5 7 24 23 30 82 49 50 60
REMARK Flexibility Score: inf
ROOT
ATOM      1  C   UNL A   1      34.140  21.599  26.681  1.00  0.00     0.116 C 
ENDROOT
BRANCH   1   2
ATOM      2  N   UNL A   1      33.413  20.402  26.306  1.00  0.00    -0.353 N 
ATOM      3  C   UNL A   1      32.784  20.124  25.127  1.00  0.00     0.257 C 
ATOM      4  O   UNL A   1      32.255  19.020  24.987  1.00  0.00    -0.271 OA
ATOM      5  H   UNL A   1      33.367  19.697  26.992  1.00  0.00     0.163 HD
BRANCH   3   6
ATOM      6  C   UNL A   1      32.789  21.159  23.997  1.00  0.00     0.329 C 
BRANCH   6   7
ATOM      7  O   UNL A   1      31.667  22.022  23.929  1.00  0.00    -0.484 OA
BRANCH   7   8
ATOM      8  C   UNL A   1      31.852  23.347  24.203  1.00  0.00     0.123 A 
ATOM      9  C   UNL A   1      33.372  28.280  23.617  1.00  0.00     0.046 C 
ATOM     10  C   UNL A   1      32.686  27.536  24.734  1.00  0.00    -0.030 A 
ATOM     11  C   UNL A   1      32.294  28.099  25.899  1.00  0.00     0.044 A 
ATOM     12  C   UNL A   1      32.444  26.097  24.525  1.00  0.00     0.021 A 
ATOM     13  C   UNL A   1      31.530  27.315  26.916  1.00  0.00     0.339 A 
ATOM     14  C   UNL A   1      31.622  25.414  25.414  1.00  0.00     0.142 A 
ATOM     15  C   UNL A   1      33.001  25.361  23.472  1.00  0.00     0.016 A 
ATOM     16  O   UNL A   1      31.244  27.786  28.012  1.00  0.00    -0.246 OA
ATOM     17  O   UNL A   1      31.105  26.049  26.553  1.00  0.00    -0.422 OA
ATOM     18  C   UNL A   1      31.297  24.063  25.258  1.00  0.00     0.094 A 
ATOM     19  C   UNL A   1      32.710  24.001  23.319  1.00  0.00     0.047 A 
BRANCH  11  20
ATOM     20  C   UNL A   1      32.530  29.543  26.289  1.00  0.00     0.075 C 
BRANCH  20  21
ATOM     21  C   UNL A   1      33.899  29.814  26.943  1.00  0.00     0.116 C 
ATOM     22  C   UNL A   1      34.093  31.251  27.417  1.00  0.00     0.038 C 
BRANCH  21  23
ATOM     23  O   UNL A   1      34.042  28.960  28.082  1.00  0.00    -0.393 OA
ATOM     24  H   UNL A   1      33.807  29.450  28.886  1.00  0.00     0.210 HD
ENDBRANCH  21  23
ENDBRANCH  20  21
ENDBRANCH  11  20
ENDBRANCH   7   8
ENDBRANCH   6   7
ENDBRANCH   3   6
ENDBRANCH   1   2
BRANCH   1  25
ATOM     25  C   UNL A   1      35.461  21.737  25.926  1.00  0.00     0.023 C 
BRANCH  25  26
ATOM     26  C   UNL A   1      35.636  23.050  25.156  1.00  0.00     0.023 C 
BRANCH  26  27
ATOM     27  C   UNL A   1      36.988  23.738  25.322  1.00  0.00     0.116 C 
BRANCH  27  28
ATOM     28  N   UNL A   1      38.069  22.812  25.615  1.00  0.00    -0.352 N 
ATOM     29  C   UNL A   1      39.257  23.035  26.275  1.00  0.00     0.251 C 
ATOM     30  H   UNL A   1      37.933  21.890  25.296  1.00  0.00     0.163 HD
ATOM     31  O   UNL A   1      40.107  22.158  26.325  1.00  0.00    -0.269 OA
BRANCH  29  32
ATOM     32  C   UNL A   1      39.521  24.355  26.891  1.00  0.00     0.039 A 
ATOM     33  C   UNL A   1      39.127  24.567  28.216  1.00  0.00     0.014 A 
ATOM     34  C   UNL A   1      40.161  25.372  26.180  1.00  0.00     0.014 A 
ATOM     35  C   UNL A   1      39.449  25.768  28.852  1.00  0.00     0.010 A 
ATOM     36  C   UNL A   1      40.544  26.540  26.836  1.00  0.00     0.010 A 
ATOM     37  C   UNL A   1      40.200  26.747  28.181  1.00  0.00    -0.014 A 
BRANCH  37  38
ATOM     38  C   UNL A   1      40.656  27.979  28.875  1.00  0.00     0.031 A 
ATOM     39  C   UNL A   1      42.066  28.085  29.389  1.00  0.00     0.074 A 
ATOM     40  C   UNL A   1      39.778  28.973  29.112  1.00  0.00     0.049 A 
ATOM     41  N   UNL A   1      42.622  29.040  30.091  1.00  0.00    -0.248 NA
ATOM     42  C   UNL A   1      42.961  26.956  29.096  1.00  0.00     0.031 C 
ATOM     43  C   UNL A   1      38.371  28.973  28.708  1.00  0.00     0.029 A 
ATOM     44  N   UNL A   1      39.934  30.172  29.766  1.00  0.00    -0.354 N 
ATOM     45  C   UNL A   1      43.922  28.620  30.337  1.00  0.00     0.074 A 
ATOM     46  C   UNL A   1      44.059  27.304  29.751  1.00  0.00     0.031 C 
ATOM     47  C   UNL A   1      37.797  30.118  29.108  1.00  0.00     0.029 A 
ATOM     48  C   UNL A   1      38.781  30.916  29.834  1.00  0.00     0.049 A 
ATOM     49  H   UNL A   1      40.790  30.470  30.149  1.00  0.00     0.167 HD
ATOM     50  C   UNL A   1      44.917  29.281  30.976  1.00  0.00     0.037 A 
ATOM     51  C   UNL A   1      38.538  32.101  30.428  1.00  0.00     0.037 A 
ATOM     52  C   UNL A   1      44.784  30.601  31.537  1.00  0.00     0.049 A 
ATOM     53  C   UNL A   1      39.658  32.808  31.143  1.00  0.00     0.074 A 
ATOM     54  C   UNL A   1      45.754  31.383  32.140  1.00  0.00     0.029 A 
ATOM     55  N   UNL A   1      43.604  31.330  31.572  1.00  0.00    -0.354 N 
ATOM     56  N   UNL A   1      40.905  32.436  31.299  1.00  0.00    -0.248 NA
ATOM     57  C   UNL A   1      39.338  34.103  31.761  1.00  0.00     0.031 C 
ATOM     58  C   UNL A   1      45.150  32.561  32.590  1.00  0.00     0.029 A 
ATOM     59  C   UNL A   1      43.816  32.541  32.214  1.00  0.00     0.049 A 
ATOM     60  H   UNL A   1      42.744  31.032  31.197  1.00  0.00     0.167 HD
ATOM     61  C   UNL A   1      41.523  33.460  32.005  1.00  0.00     0.074 A 
ATOM     62  C   UNL A   1      40.518  34.477  32.233  1.00  0.00     0.031 C 
ATOM     63  C   UNL A   1      42.809  33.549  32.428  1.00  0.00     0.037 A 
BRANCH  50  64
ATOM     64  C   UNL A   1      46.243  28.589  31.107  1.00  0.00     0.064 A 
ATOM     65  C   UNL A   1      47.242  28.718  30.130  1.00  0.00     0.173 A 
ATOM     66  C   UNL A   1      46.538  27.826  32.247  1.00  0.00     0.173 A 
ATOM     67  F   UNL A   1      47.010  29.429  29.015  1.00  0.00    -0.203 F 
ATOM     68  C   UNL A   1      48.475  28.086  30.276  1.00  0.00     0.198 A 
ATOM     69  C   UNL A   1      47.782  27.222  32.405  1.00  0.00     0.198 A 
ATOM     70  F   UNL A   1      45.622  27.676  33.216  1.00  0.00    -0.203 F 
ATOM     71  F   UNL A   1      49.395  28.184  29.307  1.00  0.00    -0.200 F 
ATOM     72  C   UNL A   1      48.747  27.345  31.417  1.00  0.00     0.200 A 
ATOM     73  F   UNL A   1      48.048  26.519  33.515  1.00  0.00    -0.200 F 
ATOM     74  F   UNL A   1      49.936  26.746  31.560  1.00  0.00    -0.200 F 
ENDBRANCH  50  64
BRANCH  51  75
ATOM     75  C   UNL A   1      37.179  32.700  30.365  1.00  0.00     0.064 A 
ATOM     76  C   UNL A   1      36.220  32.413  31.348  1.00  0.00     0.173 A 
ATOM     77  C   UNL A   1      36.804  33.559  29.323  1.00  0.00     0.173 A 
ATOM     78  F   UNL A   1      36.522  31.580  32.355  1.00  0.00    -0.203 F 
ATOM     79  C   UNL A   1      34.934  32.943  31.276  1.00  0.00     0.198 A 
ATOM     80  C   UNL A   1      35.528  34.114  29.269  1.00  0.00     0.198 A 
ATOM     81  F   UNL A   1      37.685  33.870  28.360  1.00  0.00    -0.203 F 
ATOM     82  F   UNL A   1      34.022  32.613  32.202  1.00  0.00    -0.200 F 
ATOM     83  C   UNL A   1      34.590  33.799  30.240  1.00  0.00     0.200 A 
ATOM     84  F   UNL A   1      35.206  34.953  28.275  1.00  0.00    -0.200 F 
ATOM     85  F   UNL A   1      33.355  34.312  30.174  1.00  0.00    -0.200 F 
ENDBRANCH  51  75
BRANCH  63  86
ATOM     86  C   UNL A   1      43.215  34.802  33.149  1.00  0.00     0.064 A 
ATOM     87  C   UNL A   1      43.714  35.919  32.464  1.00  0.00     0.173 A 
ATOM     88  C   UNL A   1      43.061  34.900  34.541  1.00  0.00     0.173 A 
ATOM     89  F   UNL A   1      43.894  35.871  31.135  1.00  0.00    -0.203 F 
ATOM     90  C   UNL A   1      44.063  37.081  33.147  1.00  0.00     0.198 A 
ATOM     91  C   UNL A   1      43.381  36.073  35.217  1.00  0.00     0.198 A 
ATOM     92  F   UNL A   1      42.583  33.862  35.243  1.00  0.00    -0.203 F 
ATOM     93  F   UNL A   1      44.582  38.120  32.478  1.00  0.00    -0.200 F 
ATOM     94  C   UNL A   1      43.890  37.160  34.521  1.00  0.00     0.200 A 
ATOM     95  F   UNL A   1      43.197  36.153  36.542  1.00  0.00    -0.200 F 
ATOM     96  F   UNL A   1      44.216  38.283  35.176  1.00  0.00    -0.200 F 
ENDBRANCH  63  86
ENDBRANCH  37  38
ENDBRANCH  29  32
ENDBRANCH  27  28
ENDBRANCH  26  27
ENDBRANCH  25  26
ENDBRANCH   1  25
TORSDOF 16
ENDMDL
MODEL 3
REMARK VINA RESULT:     -10.3      5.045     13.368
REMARK SMILES Cc1c(C[C@@H](C)O)c(=O)oc2cc(OCC(=O)NCCCCNC(=O)c3ccc(-c4c5nc(c(-c6c(F)c(F)c(F)c(F)c6F)c6ccc([nH]6)c(-c6c(F)c(F)c(F)c(F)c6F)c6nc(c(-c7c(F)c(F)c(F)c(F)c7F)c7ccc4[nH]7)C=C6)C=C5)cc3)ccc12
REMARK SMILES IDX 19 1 18 2 16 3 17 4 15 6 14 7 13 8 1 9 2 10 3 11 91 12 8 13
REMARK SMILES IDX 11 14 90 15 9 16 10 17 12 18 89 19 4 20 5 21 6 22 7 23 20 25
REMARK SMILES IDX 21 26 22 27 23 28 24 29 25 31 26 32 27 33 88 34 28 35 87 36
REMARK SMILES IDX 29 37 30 38 31 39 81 40 32 41 86 42 80 43 82 44 33 45 85 46
REMARK SMILES IDX 79 47 78 48 34 50 66 51 46 52 65 53 47 54 50 55 64 56 83 57
REMARK SMILES IDX 48 58 49 59 63 61 84 62 51 63 35 64 36 65 44 66 37 67 38 68
REMARK SMILES IDX 42 69 45 70 39 71 40 72 43 73 41 74 67 75 68 76 76 77 69 78
REMARK SMILES IDX 70 79 74 80 77 81 71 82 72 83 75 84 73 85 52 86 53 87 61 88
REMARK SMILES IDX 54 89 55 90 59 91 62 92 56 93 57 94 60 95 58 96
REMARK H PARENT 18 5 7 24 23 30 82 49 50 60
REMARK Flexibility Score: inf
ROOT
ATOM      1  C   UNL A   1      49.077  26.584  30.439  1.00  0.00     0.116 C 
ENDROOT
BRANCH   1   2
ATOM      2  N   UNL A   1      49.509  25.401  29.719  1.00  0.00    -0.353 N 
ATOM      3  C   UNL A   1      49.546  25.193  28.372  1.00  0.00     0.257 C 
ATOM      4  O   UNL A   1      49.993  24.124  27.952  1.00  0.00    -0.271 OA
ATOM      5  H   UNL A   1      49.816  24.650  30.277  1.00  0.00     0.163 HD
BRANCH   3   6
ATOM      6  C   UNL A   1      49.081  26.296  27.415  1.00  0.00     0.329 C 
BRANCH   6   7
ATOM      7  O   UNL A   1      47.691  26.575  27.405  1.00  0.00    -0.484 OA
BRANCH   7   8
ATOM      8  C   UNL A   1      46.825  25.541  27.191  1.00  0.00     0.123 A 
ATOM      9  C   UNL A   1      42.938  22.190  27.998  1.00  0.00     0.046 C 
ATOM     10  C   UNL A   1      43.969  22.333  26.908  1.00  0.00    -0.030 A 
ATOM     11  C   UNL A   1      44.054  21.527  25.826  1.00  0.00     0.044 A 
ATOM     12  C   UNL A   1      44.946  23.427  27.057  1.00  0.00     0.021 A 
ATOM     13  C   UNL A   1      45.042  21.796  24.739  1.00  0.00     0.339 A 
ATOM     14  C   UNL A   1      45.771  23.745  25.983  1.00  0.00     0.142 A 
ATOM     15  C   UNL A   1      45.103  24.175  28.229  1.00  0.00     0.016 A 
ATOM     16  O   UNL A   1      45.190  21.026  23.796  1.00  0.00    -0.246 OA
ATOM     17  O   UNL A   1      45.752  22.982  24.807  1.00  0.00    -0.422 OA
ATOM     18  C   UNL A   1      46.686  24.802  26.022  1.00  0.00     0.094 A 
ATOM     19  C   UNL A   1      46.036  25.215  28.294  1.00  0.00     0.047 A 
BRANCH  11  20
ATOM     20  C   UNL A   1      43.168  20.326  25.566  1.00  0.00     0.075 C 
BRANCH  20  21
ATOM     21  C   UNL A   1      43.774  18.978  26.002  1.00  0.00     0.116 C 
ATOM     22  C   UNL A   1      42.750  17.965  26.502  1.00  0.00     0.038 C 
BRANCH  21  23
ATOM     23  O   UNL A   1      44.450  18.394  24.884  1.00  0.00    -0.393 OA
ATOM     24  H   UNL A   1      44.057  17.530  24.684  1.00  0.00     0.210 HD
ENDBRANCH  21  23
ENDBRANCH  20  21
ENDBRANCH  11  20
ENDBRANCH   7   8
ENDBRANCH   6   7
ENDBRANCH   3   6
ENDBRANCH   1   2
BRANCH   1  25
ATOM     25  C   UNL A   1      48.261  26.241  31.684  1.00  0.00     0.023 C 
BRANCH  25  26
ATOM     26  C   UNL A   1      49.030  25.500  32.783  1.00  0.00     0.023 C 
BRANCH  26  27
ATOM     27  C   UNL A   1      48.198  24.569  33.658  1.00  0.00     0.116 C 
BRANCH  27  28
ATOM     28  N   UNL A   1      48.366  24.817  35.080  1.00  0.00    -0.352 N 
ATOM     29  C   UNL A   1      47.631  25.623  35.921  1.00  0.00     0.251 C 
ATOM     30  H   UNL A   1      49.115  24.340  35.506  1.00  0.00     0.163 HD
ATOM     31  O   UNL A   1      47.993  25.803  37.073  1.00  0.00    -0.269 OA
BRANCH  29  32
ATOM     32  C   UNL A   1      46.417  26.305  35.413  1.00  0.00     0.039 A 
ATOM     33  C   UNL A   1      46.552  27.572  34.839  1.00  0.00     0.014 A 
ATOM     34  C   UNL A   1      45.162  25.699  35.487  1.00  0.00     0.014 A 
ATOM     35  C   UNL A   1      45.441  28.196  34.267  1.00  0.00     0.010 A 
ATOM     36  C   UNL A   1      44.070  26.289  34.853  1.00  0.00     0.010 A 
ATOM     37  C   UNL A   1      44.200  27.540  34.228  1.00  0.00    -0.014 A 
BRANCH  37  38
ATOM     38  C   UNL A   1      43.036  28.132  33.519  1.00  0.00     0.031 A 
ATOM     39  C   UNL A   1      42.800  27.835  32.064  1.00  0.00     0.074 A 
ATOM     40  C   UNL A   1      42.234  29.001  34.167  1.00  0.00     0.049 A 
ATOM     41  N   UNL A   1      41.893  28.322  31.256  1.00  0.00    -0.248 NA
ATOM     42  C   UNL A   1      43.723  26.882  31.428  1.00  0.00     0.031 C 
ATOM     43  C   UNL A   1      42.384  29.410  35.564  1.00  0.00     0.029 A 
ATOM     44  N   UNL A   1      41.142  29.711  33.729  1.00  0.00    -0.354 N 
ATOM     45  C   UNL A   1      42.145  27.750  30.016  1.00  0.00     0.074 A 
ATOM     46  C   UNL A   1      43.318  26.917  30.166  1.00  0.00     0.031 C 
ATOM     47  C   UNL A   1      41.414  30.284  35.874  1.00  0.00     0.029 A 
ATOM     48  C   UNL A   1      40.599  30.532  34.688  1.00  0.00     0.049 A 
ATOM     49  H   UNL A   1      40.782  29.638  32.817  1.00  0.00     0.167 HD
ATOM     50  C   UNL A   1      41.449  27.892  28.862  1.00  0.00     0.037 A 
ATOM     51  C   UNL A   1      39.571  31.400  34.617  1.00  0.00     0.037 A 
ATOM     52  C   UNL A   1      40.267  28.703  28.723  1.00  0.00     0.049 A 
ATOM     53  C   UNL A   1      38.824  31.548  33.319  1.00  0.00     0.074 A 
ATOM     54  C   UNL A   1      39.451  28.854  27.615  1.00  0.00     0.029 A 
ATOM     55  N   UNL A   1      39.739  29.509  29.721  1.00  0.00    -0.354 N 
ATOM     56  N   UNL A   1      39.023  30.941  32.175  1.00  0.00    -0.248 NA
ATOM     57  C   UNL A   1      37.703  32.500  33.305  1.00  0.00     0.031 C 
ATOM     58  C   UNL A   1      38.462  29.793  27.925  1.00  0.00     0.029 A 
ATOM     59  C   UNL A   1      38.624  30.182  29.245  1.00  0.00     0.049 A 
ATOM     60  H   UNL A   1      40.100  29.590  30.633  1.00  0.00     0.167 HD
ATOM     61  C   UNL A   1      38.040  31.413  31.315  1.00  0.00     0.074 A 
ATOM     62  C   UNL A   1      37.234  32.346  32.074  1.00  0.00     0.031 C 
ATOM     63  C   UNL A   1      37.825  31.102  30.013  1.00  0.00     0.037 A 
BRANCH  50  64
ATOM     64  C   UNL A   1      41.945  27.154  27.653  1.00  0.00     0.064 A 
ATOM     65  C   UNL A   1      43.011  27.639  26.879  1.00  0.00     0.173 A 
ATOM     66  C   UNL A   1      41.380  25.922  27.289  1.00  0.00     0.173 A 
ATOM     67  F   UNL A   1      43.582  28.816  27.176  1.00  0.00    -0.203 F 
ATOM     68  C   UNL A   1      43.472  26.931  25.771  1.00  0.00     0.198 A 
ATOM     69  C   UNL A   1      41.865  25.202  26.201  1.00  0.00     0.198 A 
ATOM     70  F   UNL A   1      40.363  25.409  28.000  1.00  0.00    -0.203 F 
ATOM     71  F   UNL A   1      44.459  27.438  25.019  1.00  0.00    -0.200 F 
ATOM     72  C   UNL A   1      42.905  25.711  25.438  1.00  0.00     0.200 A 
ATOM     73  F   UNL A   1      41.324  24.016  25.889  1.00  0.00    -0.200 F 
ATOM     74  F   UNL A   1      43.357  25.027  24.378  1.00  0.00    -0.200 F 
ENDBRANCH  50  64
BRANCH  51  75
ATOM     75  C   UNL A   1      39.182  32.192  35.813  1.00  0.00     0.064 A 
ATOM     76  C   UNL A   1      38.298  31.667  36.768  1.00  0.00     0.173 A 
ATOM     77  C   UNL A   1      39.673  33.488  36.025  1.00  0.00     0.173 A 
ATOM     78  F   UNL A   1      37.783  30.440  36.600  1.00  0.00    -0.203 F 
ATOM     79  C   UNL A   1      37.903  32.418  37.873  1.00  0.00     0.198 A 
ATOM     80  C   UNL A   1      39.302  34.226  37.147  1.00  0.00     0.198 A 
ATOM     81  F   UNL A   1      40.526  34.034  35.145  1.00  0.00    -0.203 F 
ATOM     82  F   UNL A   1      37.018  31.911  38.743  1.00  0.00    -0.200 F 
ATOM     83  C   UNL A   1      38.410  33.694  38.065  1.00  0.00     0.200 A 
ATOM     84  F   UNL A   1      39.808  35.451  37.337  1.00  0.00    -0.200 F 
ATOM     85  F   UNL A   1      38.033  34.414  39.130  1.00  0.00    -0.200 F 
ENDBRANCH  51  75
BRANCH  63  86
ATOM     86  C   UNL A   1      36.652  31.747  29.332  1.00  0.00     0.064 A 
ATOM     87  C   UNL A   1      35.510  31.014  28.976  1.00  0.00     0.173 A 
ATOM     88  C   UNL A   1      36.654  33.127  29.073  1.00  0.00     0.173 A 
ATOM     89  F   UNL A   1      35.465  29.690  29.188  1.00  0.00    -0.203 F 
ATOM     90  C   UNL A   1      34.423  31.635  28.366  1.00  0.00     0.198 A 
ATOM     91  C   UNL A   1      35.553  33.749  28.493  1.00  0.00     0.198 A 
ATOM     92  F   UNL A   1      37.718  33.875  29.400  1.00  0.00    -0.203 F 
ATOM     93  F   UNL A   1      33.362  30.906  27.992  1.00  0.00    -0.200 F 
ATOM     94  C   UNL A   1      34.442  33.002  28.133  1.00  0.00     0.200 A 
ATOM     95  F   UNL A   1      35.566  35.073  28.283  1.00  0.00    -0.200 F 
ATOM     96  F   UNL A   1      33.390  33.598  27.556  1.00  0.00    -0.200 F 
ENDBRANCH  63  86
ENDBRANCH  37  38
ENDBRANCH  29  32
ENDBRANCH  27  28
ENDBRANCH  26  27
ENDBRANCH  25  26
ENDBRANCH   1  25
TORSDOF 16
ENDMDL
