MODEL 1
REMARK VINA RESULT:     -10.5      0.000      0.000
REMARK SMILES C[C@]12c3ccccc3[C@](C)(c3ccccc31)[C@@H]1C(=O)N(c3ccc(C(=O)NCCCCNC(=O)c4ccc(-c5c6nc(c(-c7c(F)c(F)c(F)c(F)c7F)c7ccc([nH]7)c(-c7c(F)c(F)c(F)c(F)c7F)c7nc(c(-c8c(F)c(F)c(F)c(F)c8F)c8ccc5[nH]8)C=C7)C=C6)cc4)cc3)C(=O)[C@H]12
REMARK SMILES IDX 30 1 29 2 28 3 27 4 25 5 26 6 24 8 21 9 22 10 99 11 23 12
REMARK SMILES IDX 98 13 20 14 1 15 2 16 16 17 3 18 102 19 15 20 11 21 8 22
REMARK SMILES IDX 4 23 17 24 100 25 14 26 12 27 9 28 7 29 5 30 18 31 101 32
REMARK SMILES IDX 13 33 10 34 6 35 19 36 31 37 32 38 33 39 34 41 35 42 36 43
REMARK SMILES IDX 97 44 37 45 96 46 38 47 39 48 40 49 90 50 41 51 95 52 89 53
REMARK SMILES IDX 91 54 42 55 94 56 88 57 87 58 43 60 75 61 55 62 74 63 56 64
REMARK SMILES IDX 59 65 73 66 92 67 57 68 58 69 72 71 93 72 60 73 44 74 45 75
REMARK SMILES IDX 53 76 46 77 47 78 51 79 54 80 48 81 49 82 52 83 50 84 76 85
REMARK SMILES IDX 77 86 85 87 78 88 79 89 83 90 86 91 80 92 81 93 84 94 82 95
REMARK SMILES IDX 61 96 62 97 70 98 63 99 64 100 68 101 71 102 65 103 66 104
REMARK SMILES IDX 69 105 67 106
REMARK H PARENT 27 7 32 40 91 59 59 70
REMARK Flexibility Score: inf
ROOT
ATOM      1  C   UNL A   1      35.489  33.083  30.102  1.00  0.00     0.023 C 
ENDROOT
BRANCH   1   2
ATOM      2  C   UNL A   1      36.990  33.000  30.342  1.00  0.00     0.023 C 
BRANCH   2   3
ATOM      3  C   UNL A   1      37.535  33.864  31.473  1.00  0.00     0.116 C 
BRANCH   3   4
ATOM      4  N   UNL A   1      36.882  33.657  32.754  1.00  0.00    -0.352 N 
ATOM      5  C   UNL A   1      37.183  32.769  33.763  1.00  0.00     0.251 C 
ATOM      6  O   UNL A   1      36.477  32.731  34.767  1.00  0.00    -0.269 OA
ATOM      7  H   UNL A   1      36.106  34.238  32.927  1.00  0.00     0.163 HD
BRANCH   5   8
ATOM      8  C   UNL A   1      38.305  31.811  33.619  1.00  0.00     0.039 A 
ATOM      9  C   UNL A   1      40.403  29.943  33.742  1.00  0.00     0.052 A 
ATOM     10  C   UNL A   1      40.611  31.275  34.124  1.00  0.00     0.027 A 
ATOM     11  C   UNL A   1      39.166  29.593  33.185  1.00  0.00     0.027 A 
ATOM     12  C   UNL A   1      39.572  32.209  34.051  1.00  0.00     0.016 A 
ATOM     13  C   UNL A   1      38.127  30.524  33.108  1.00  0.00     0.016 A 
BRANCH   9  14
ATOM     14  N   UNL A   1      41.388  28.954  33.978  1.00  0.00    -0.250 N 
ATOM     15  C   UNL A   1      44.846  26.864  31.932  1.00  0.00     0.022 C 
ATOM     16  C   UNL A   1      44.452  26.799  33.407  1.00  0.00     0.030 C 
ATOM     17  C   UNL A   1      45.509  27.348  34.399  1.00  0.00    -0.033 A 
ATOM     18  C   UNL A   1      44.156  25.359  33.938  1.00  0.00    -0.033 A 
ATOM     19  C   UNL A   1      43.058  27.424  33.664  1.00  0.00     0.108 C 
ATOM     20  C   UNL A   1      46.760  27.863  34.066  1.00  0.00     0.005 A 
ATOM     21  C   UNL A   1      45.144  27.218  35.784  1.00  0.00    -0.033 A 
ATOM     22  C   UNL A   1      43.654  25.341  35.285  1.00  0.00    -0.033 A 
ATOM     23  C   UNL A   1      44.295  24.175  33.220  1.00  0.00     0.005 A 
ATOM     24  C   UNL A   1      42.954  27.787  35.146  1.00  0.00     0.108 C 
ATOM     25  C   UNL A   1      42.417  28.639  33.074  1.00  0.00     0.238 C 
ATOM     26  C   UNL A   1      47.641  28.228  35.086  1.00  0.00     0.000 A 
ATOM     27  C   UNL A   1      46.039  27.573  36.791  1.00  0.00     0.005 A 
ATOM     28  C   UNL A   1      43.679  26.718  35.991  1.00  0.00     0.030 C 
ATOM     29  C   UNL A   1      43.273  24.133  35.862  1.00  0.00     0.005 A 
ATOM     30  C   UNL A   1      43.918  22.974  33.820  1.00  0.00     0.000 A 
ATOM     31  C   UNL A   1      41.542  28.265  35.189  1.00  0.00     0.238 C 
ATOM     32  O   UNL A   1      42.715  29.160  32.016  1.00  0.00    -0.274 OA
ATOM     33  C   UNL A   1      47.289  28.076  36.434  1.00  0.00     0.000 A 
ATOM     34  C   UNL A   1      43.204  26.722  37.443  1.00  0.00     0.022 C 
ATOM     35  C   UNL A   1      43.402  22.955  35.123  1.00  0.00     0.000 A 
ATOM     36  O   UNL A   1      40.781  28.167  36.137  1.00  0.00    -0.274 OA
ENDBRANCH   9  14
ENDBRANCH   5   8
ENDBRANCH   3   4
ENDBRANCH   2   3
ENDBRANCH   1   2
BRANCH   1  37
ATOM     37  C   UNL A   1      35.042  32.923  28.655  1.00  0.00     0.116 C 
BRANCH  37  38
ATOM     38  N   UNL A   1      34.127  31.810  28.437  1.00  0.00    -0.352 N 
ATOM     39  C   UNL A   1      34.382  30.467  28.265  1.00  0.00     0.251 C 
ATOM     40  H   UNL A   1      33.174  32.058  28.408  1.00  0.00     0.163 HD
ATOM     41  O   UNL A   1      33.468  29.694  28.000  1.00  0.00    -0.269 OA
BRANCH  39  42
ATOM     42  C   UNL A   1      35.771  29.964  28.348  1.00  0.00     0.039 A 
ATOM     43  C   UNL A   1      36.267  29.448  29.543  1.00  0.00     0.014 A 
ATOM     44  C   UNL A   1      36.606  30.060  27.230  1.00  0.00     0.014 A 
ATOM     45  C   UNL A   1      37.635  29.270  29.694  1.00  0.00     0.010 A 
ATOM     46  C   UNL A   1      37.965  29.750  27.349  1.00  0.00     0.010 A 
ATOM     47  C   UNL A   1      38.506  29.419  28.601  1.00  0.00    -0.014 A 
BRANCH  47  48
ATOM     48  C   UNL A   1      39.967  29.226  28.815  1.00  0.00     0.031 A 
ATOM     49  C   UNL A   1      40.671  27.983  28.332  1.00  0.00     0.074 A 
ATOM     50  C   UNL A   1      40.681  30.226  29.372  1.00  0.00     0.049 A 
ATOM     51  N   UNL A   1      41.949  27.695  28.366  1.00  0.00    -0.248 NA
ATOM     52  C   UNL A   1      39.841  26.922  27.740  1.00  0.00     0.031 C 
ATOM     53  C   UNL A   1      40.113  31.477  29.877  1.00  0.00     0.029 A 
ATOM     54  N   UNL A   1      42.030  30.372  29.571  1.00  0.00    -0.354 N 
ATOM     55  C   UNL A   1      42.071  26.425  27.816  1.00  0.00     0.074 A 
ATOM     56  C   UNL A   1      40.735  25.975  27.494  1.00  0.00     0.031 C 
ATOM     57  C   UNL A   1      41.107  32.293  30.252  1.00  0.00     0.029 A 
ATOM     58  C   UNL A   1      42.379  31.595  30.090  1.00  0.00     0.049 A 
ATOM     59  H   UNL A   1      42.686  29.668  29.361  1.00  0.00     0.167 HD
ATOM     60  C   UNL A   1      43.198  25.710  27.580  1.00  0.00     0.037 A 
ATOM     61  C   UNL A   1      43.584  32.102  30.412  1.00  0.00     0.037 A 
ATOM     62  C   UNL A   1      44.528  26.173  27.880  1.00  0.00     0.049 A 
ATOM     63  C   UNL A   1      44.811  31.267  30.187  1.00  0.00     0.074 A 
ATOM     64  C   UNL A   1      45.732  25.527  27.656  1.00  0.00     0.029 A 
ATOM     65  N   UNL A   1      44.831  27.392  28.467  1.00  0.00    -0.354 N 
ATOM     66  N   UNL A   1      44.911  30.080  29.641  1.00  0.00    -0.248 NA
ATOM     67  C   UNL A   1      46.092  31.834  30.629  1.00  0.00     0.031 C 
ATOM     68  C   UNL A   1      46.759  26.331  28.158  1.00  0.00     0.029 A 
ATOM     69  C   UNL A   1      46.201  27.505  28.637  1.00  0.00     0.049 A 
ATOM     70  H   UNL A   1      44.170  28.076  28.723  1.00  0.00     0.167 HD
ATOM     71  C   UNL A   1      46.262  29.767  29.654  1.00  0.00     0.074 A 
ATOM     72  C   UNL A   1      46.948  30.895  30.248  1.00  0.00     0.031 C 
ATOM     73  C   UNL A   1      46.875  28.641  29.214  1.00  0.00     0.037 A 
BRANCH  60  74
ATOM     74  C   UNL A   1      43.058  24.345  26.966  1.00  0.00     0.064 A 
ATOM     75  C   UNL A   1      43.396  24.105  25.626  1.00  0.00     0.173 A 
ATOM     76  C   UNL A   1      42.669  23.247  27.749  1.00  0.00     0.173 A 
ATOM     77  F   UNL A   1      43.768  25.119  24.830  1.00  0.00    -0.203 F 
ATOM     78  C   UNL A   1      43.339  22.820  25.090  1.00  0.00     0.198 A 
ATOM     79  C   UNL A   1      42.642  21.959  27.219  1.00  0.00     0.198 A 
ATOM     80  F   UNL A   1      42.345  23.418  29.040  1.00  0.00    -0.203 F 
ATOM     81  F   UNL A   1      43.637  22.620  23.799  1.00  0.00    -0.200 F 
ATOM     82  C   UNL A   1      42.973  21.747  25.889  1.00  0.00     0.200 A 
ATOM     83  F   UNL A   1      42.308  20.921  27.999  1.00  0.00    -0.200 F 
ATOM     84  F   UNL A   1      42.940  20.509  25.378  1.00  0.00    -0.200 F 
ENDBRANCH  60  74
BRANCH  61  85
ATOM     85  C   UNL A   1      43.675  33.478  30.969  1.00  0.00     0.064 A 
ATOM     86  C   UNL A   1      43.768  34.593  30.126  1.00  0.00     0.173 A 
ATOM     87  C   UNL A   1      43.628  33.709  32.353  1.00  0.00     0.173 A 
ATOM     88  F   UNL A   1      43.833  34.424  28.797  1.00  0.00    -0.203 F 
ATOM     89  C   UNL A   1      43.817  35.885  30.645  1.00  0.00     0.198 A 
ATOM     90  C   UNL A   1      43.643  35.002  32.869  1.00  0.00     0.198 A 
ATOM     91  F   UNL A   1      43.534  32.676  33.204  1.00  0.00    -0.203 F 
ATOM     92  F   UNL A   1      43.938  36.933  29.818  1.00  0.00    -0.200 F 
ATOM     93  C   UNL A   1      43.743  36.090  32.016  1.00  0.00     0.200 A 
ATOM     94  F   UNL A   1      43.549  35.194  34.192  1.00  0.00    -0.200 F 
ATOM     95  F   UNL A   1      43.770  37.334  32.512  1.00  0.00    -0.200 F 
ENDBRANCH  61  85
BRANCH  73  96
ATOM     96  C   UNL A   1      48.369  28.564  29.326  1.00  0.00     0.064 A 
ATOM     97  C   UNL A   1      48.991  27.873  30.375  1.00  0.00     0.173 A 
ATOM     98  C   UNL A   1      49.182  29.088  28.308  1.00  0.00     0.173 A 
ATOM     99  F   UNL A   1      48.258  27.366  31.377  1.00  0.00    -0.203 F 
ATOM    100  C   UNL A   1      50.373  27.708  30.401  1.00  0.00     0.198 A 
ATOM    101  C   UNL A   1      50.561  28.896  28.323  1.00  0.00     0.198 A 
ATOM    102  F   UNL A   1      48.634  29.752  27.278  1.00  0.00    -0.203 F 
ATOM    103  F   UNL A   1      50.948  27.060  31.423  1.00  0.00    -0.200 F 
ATOM    104  C   UNL A   1      51.154  28.205  29.368  1.00  0.00     0.200 A 
ATOM    105  F   UNL A   1      51.311  29.360  27.314  1.00  0.00    -0.200 F 
ATOM    106  F   UNL A   1      52.481  28.018  29.379  1.00  0.00    -0.200 F 
ENDBRANCH  73  96
ENDBRANCH  47  48
ENDBRANCH  39  42
ENDBRANCH  37  38
ENDBRANCH   1  37
TORSDOF 12
ENDMDL
MODEL 2
REMARK VINA RESULT:     -10.4      0.390      2.608
REMARK SMILES C[C@]12c3ccccc3[C@](C)(c3ccccc31)[C@@H]1C(=O)N(c3ccc(C(=O)NCCCCNC(=O)c4ccc(-c5c6nc(c(-c7c(F)c(F)c(F)c(F)c7F)c7ccc([nH]7)c(-c7c(F)c(F)c(F)c(F)c7F)c7nc(c(-c8c(F)c(F)c(F)c(F)c8F)c8ccc5[nH]8)C=C7)C=C6)cc4)cc3)C(=O)[C@H]12
REMARK SMILES IDX 30 1 29 2 28 3 27 4 25 5 26 6 24 8 21 9 22 10 99 11 23 12
REMARK SMILES IDX 98 13 20 14 1 15 2 16 16 17 3 18 102 19 15 20 11 21 8 22
REMARK SMILES IDX 4 23 17 24 100 25 14 26 12 27 9 28 7 29 5 30 18 31 101 32
REMARK SMILES IDX 13 33 10 34 6 35 19 36 31 37 32 38 33 39 34 41 35 42 36 43
REMARK SMILES IDX 97 44 37 45 96 46 38 47 39 48 40 49 90 50 41 51 95 52 89 53
REMARK SMILES IDX 91 54 42 55 94 56 88 57 87 58 43 60 75 61 55 62 74 63 56 64
REMARK SMILES IDX 59 65 73 66 92 67 57 68 58 69 72 71 93 72 60 73 44 74 45 75
REMARK SMILES IDX 53 76 46 77 47 78 51 79 54 80 48 81 49 82 52 83 50 84 76 85
REMARK SMILES IDX 77 86 85 87 78 88 79 89 83 90 86 91 80 92 81 93 84 94 82 95
REMARK SMILES IDX 61 96 62 97 70 98 63 99 64 100 68 101 71 102 65 103 66 104
REMARK SMILES IDX 69 105 67 106
REMARK H PARENT 27 7 32 40 91 59 59 70
REMARK Flexibility Score: inf
ROOT
ATOM      1  C   UNL A   1      35.595  32.829  30.224  1.00  0.00     0.023 C 
ENDROOT
BRANCH   1   2
ATOM      2  C   UNL A   1      37.105  32.894  30.406  1.00  0.00     0.023 C 
BRANCH   2   3
ATOM      3  C   UNL A   1      37.605  33.783  31.538  1.00  0.00     0.116 C 
BRANCH   3   4
ATOM      4  N   UNL A   1      36.928  33.576  32.807  1.00  0.00    -0.352 N 
ATOM      5  C   UNL A   1      37.265  32.755  33.861  1.00  0.00     0.251 C 
ATOM      6  O   UNL A   1      36.531  32.701  34.844  1.00  0.00    -0.269 OA
ATOM      7  H   UNL A   1      36.105  34.100  32.932  1.00  0.00     0.163 HD
BRANCH   5   8
ATOM      8  C   UNL A   1      38.461  31.883  33.790  1.00  0.00     0.039 A 
ATOM      9  C   UNL A   1      40.680  30.174  34.049  1.00  0.00     0.052 A 
ATOM     10  C   UNL A   1      40.761  31.515  34.448  1.00  0.00     0.027 A 
ATOM     11  C   UNL A   1      39.512  29.739  33.408  1.00  0.00     0.027 A 
ATOM     12  C   UNL A   1      39.664  32.370  34.308  1.00  0.00     0.016 A 
ATOM     13  C   UNL A   1      38.415  30.591  33.264  1.00  0.00     0.016 A 
BRANCH   9  14
ATOM     14  N   UNL A   1      41.716  29.258  34.348  1.00  0.00    -0.250 N 
ATOM     15  C   UNL A   1      42.961  26.249  37.496  1.00  0.00     0.022 C 
ATOM     16  C   UNL A   1      43.583  26.476  36.119  1.00  0.00     0.030 C 
ATOM     17  C   UNL A   1      43.502  25.269  35.150  1.00  0.00    -0.033 A 
ATOM     18  C   UNL A   1      45.105  26.832  36.143  1.00  0.00    -0.033 A 
ATOM     19  C   UNL A   1      43.060  27.772  35.452  1.00  0.00     0.108 C 
ATOM     20  C   UNL A   1      42.942  24.025  35.430  1.00  0.00     0.005 A 
ATOM     21  C   UNL A   1      44.149  25.483  33.883  1.00  0.00    -0.033 A 
ATOM     22  C   UNL A   1      45.629  27.177  34.849  1.00  0.00    -0.033 A 
ATOM     23  C   UNL A   1      45.919  26.879  37.271  1.00  0.00     0.005 A 
ATOM     24  C   UNL A   1      43.300  27.675  33.945  1.00  0.00     0.108 C 
ATOM     25  C   UNL A   1      41.689  28.370  35.437  1.00  0.00     0.238 C 
ATOM     26  C   UNL A   1      43.034  23.005  34.481  1.00  0.00     0.000 A 
ATOM     27  C   UNL A   1      44.246  24.452  32.952  1.00  0.00     0.005 A 
ATOM     28  C   UNL A   1      44.639  26.953  33.682  1.00  0.00     0.030 C 
ATOM     29  C   UNL A   1      46.952  27.592  34.731  1.00  0.00     0.005 A 
ATOM     30  C   UNL A   1      47.244  27.287  37.129  1.00  0.00     0.000 A 
ATOM     31  C   UNL A   1      42.827  29.027  33.527  1.00  0.00     0.238 C 
ATOM     32  O   UNL A   1      40.807  28.151  36.247  1.00  0.00    -0.274 OA
ATOM     33  C   UNL A   1      43.688  23.213  33.259  1.00  0.00     0.000 A 
ATOM     34  C   UNL A   1      45.185  27.257  32.288  1.00  0.00     0.022 C 
ATOM     35  C   UNL A   1      47.752  27.650  35.875  1.00  0.00     0.000 A 
ATOM     36  O   UNL A   1      43.261  29.680  32.592  1.00  0.00    -0.274 OA
ENDBRANCH   9  14
ENDBRANCH   5   8
ENDBRANCH   3   4
ENDBRANCH   2   3
ENDBRANCH   1   2
BRANCH   1  37
ATOM     37  C   UNL A   1      35.105  32.797  28.783  1.00  0.00     0.116 C 
BRANCH  37  38
ATOM     38  N   UNL A   1      34.217  31.680  28.484  1.00  0.00    -0.352 N 
ATOM     39  C   UNL A   1      34.504  30.351  28.254  1.00  0.00     0.251 C 
ATOM     40  H   UNL A   1      33.261  31.911  28.440  1.00  0.00     0.163 HD
ATOM     41  O   UNL A   1      33.612  29.576  27.925  1.00  0.00    -0.269 OA
BRANCH  39  42
ATOM     42  C   UNL A   1      35.899  29.870  28.351  1.00  0.00     0.039 A 
ATOM     43  C   UNL A   1      36.386  29.349  29.548  1.00  0.00     0.014 A 
ATOM     44  C   UNL A   1      36.749  29.991  27.247  1.00  0.00     0.014 A 
ATOM     45  C   UNL A   1      37.755  29.191  29.717  1.00  0.00     0.010 A 
ATOM     46  C   UNL A   1      38.111  29.702  27.383  1.00  0.00     0.010 A 
ATOM     47  C   UNL A   1      38.639  29.366  28.639  1.00  0.00    -0.014 A 
BRANCH  47  48
ATOM     48  C   UNL A   1      40.100  29.194  28.872  1.00  0.00     0.031 A 
ATOM     49  C   UNL A   1      40.823  27.951  28.421  1.00  0.00     0.074 A 
ATOM     50  C   UNL A   1      40.796  30.213  29.417  1.00  0.00     0.049 A 
ATOM     51  N   UNL A   1      42.104  27.678  28.474  1.00  0.00    -0.248 NA
ATOM     52  C   UNL A   1      40.011  26.869  27.841  1.00  0.00     0.031 C 
ATOM     53  C   UNL A   1      40.208  31.468  29.892  1.00  0.00     0.029 A 
ATOM     54  N   UNL A   1      42.141  30.379  29.628  1.00  0.00    -0.354 N 
ATOM     55  C   UNL A   1      42.246  26.400  27.951  1.00  0.00     0.074 A 
ATOM     56  C   UNL A   1      40.919  25.928  27.623  1.00  0.00     0.031 C 
ATOM     57  C   UNL A   1      41.189  32.302  30.261  1.00  0.00     0.029 A 
ATOM     58  C   UNL A   1      42.470  31.616  30.126  1.00  0.00     0.049 A 
ATOM     59  H   UNL A   1      42.807  29.679  29.439  1.00  0.00     0.167 HD
ATOM     60  C   UNL A   1      43.384  25.693  27.741  1.00  0.00     0.037 A 
ATOM     61  C   UNL A   1      43.665  32.144  30.451  1.00  0.00     0.037 A 
ATOM     62  C   UNL A   1      44.705  26.177  28.046  1.00  0.00     0.049 A 
ATOM     63  C   UNL A   1      44.904  31.318  30.255  1.00  0.00     0.074 A 
ATOM     64  C   UNL A   1      45.919  25.541  27.847  1.00  0.00     0.029 A 
ATOM     65  N   UNL A   1      44.987  27.412  28.612  1.00  0.00    -0.354 N 
ATOM     66  N   UNL A   1      45.024  30.122  29.735  1.00  0.00    -0.248 NA
ATOM     67  C   UNL A   1      46.174  31.909  30.700  1.00  0.00     0.031 C 
ATOM     68  C   UNL A   1      46.931  26.367  28.344  1.00  0.00     0.029 A 
ATOM     69  C   UNL A   1      46.354  27.544  28.794  1.00  0.00     0.049 A 
ATOM     70  H   UNL A   1      44.316  28.092  28.848  1.00  0.00     0.167 HD
ATOM     71  C   UNL A   1      46.379  29.825  29.768  1.00  0.00     0.074 A 
ATOM     72  C   UNL A   1      47.045  30.972  30.347  1.00  0.00     0.031 C 
ATOM     73  C   UNL A   1      47.009  28.698  29.357  1.00  0.00     0.037 A 
BRANCH  60  74
ATOM     74  C   UNL A   1      43.266  24.315  27.152  1.00  0.00     0.064 A 
ATOM     75  C   UNL A   1      42.840  23.221  27.920  1.00  0.00     0.173 A 
ATOM     76  C   UNL A   1      43.491  24.104  25.782  1.00  0.00     0.173 A 
ATOM     77  F   UNL A   1      42.616  23.366  29.236  1.00  0.00    -0.203 F 
ATOM     78  C   UNL A   1      42.657  21.967  27.344  1.00  0.00     0.198 A 
ATOM     79  C   UNL A   1      43.278  22.856  25.203  1.00  0.00     0.198 A 
ATOM     80  F   UNL A   1      43.889  25.118  24.998  1.00  0.00    -0.203 F 
ATOM     81  F   UNL A   1      42.280  20.930  28.104  1.00  0.00    -0.200 F 
ATOM     82  C   UNL A   1      42.865  21.787  25.984  1.00  0.00     0.200 A 
ATOM     83  F   UNL A   1      43.460  22.689  23.885  1.00  0.00    -0.200 F 
ATOM     84  F   UNL A   1      42.668  20.585  25.427  1.00  0.00    -0.200 F 
ENDBRANCH  60  74
BRANCH  61  85
ATOM     85  C   UNL A   1      43.734  33.531  30.982  1.00  0.00     0.064 A 
ATOM     86  C   UNL A   1      43.814  34.630  30.118  1.00  0.00     0.173 A 
ATOM     87  C   UNL A   1      43.681  33.787  32.361  1.00  0.00     0.173 A 
ATOM     88  F   UNL A   1      43.885  34.438  28.793  1.00  0.00    -0.203 F 
ATOM     89  C   UNL A   1      43.842  35.933  30.613  1.00  0.00     0.198 A 
ATOM     90  C   UNL A   1      43.675  35.090  32.853  1.00  0.00     0.198 A 
ATOM     91  F   UNL A   1      43.598  32.770  33.232  1.00  0.00    -0.203 F 
ATOM     92  F   UNL A   1      43.951  36.966  29.766  1.00  0.00    -0.200 F 
ATOM     93  C   UNL A   1      43.762  36.163  31.979  1.00  0.00     0.200 A 
ATOM     94  F   UNL A   1      43.574  35.306  34.172  1.00  0.00    -0.200 F 
ATOM     95  F   UNL A   1      43.769  37.416  32.452  1.00  0.00    -0.200 F 
ENDBRANCH  61  85
BRANCH  73  96
ATOM     96  C   UNL A   1      48.503  28.641  29.485  1.00  0.00     0.064 A 
ATOM     97  C   UNL A   1      49.344  29.113  28.469  1.00  0.00     0.173 A 
ATOM     98  C   UNL A   1      49.093  28.215  30.685  1.00  0.00     0.173 A 
ATOM     99  F   UNL A   1      48.828  29.518  27.299  1.00  0.00    -0.203 F 
ATOM    100  C   UNL A   1      50.724  29.164  28.650  1.00  0.00     0.198 A 
ATOM    101  C   UNL A   1      50.470  28.295  30.874  1.00  0.00     0.198 A 
ATOM    102  F   UNL A   1      48.330  27.761  31.692  1.00  0.00    -0.203 F 
ATOM    103  F   UNL A   1      51.511  29.602  27.658  1.00  0.00    -0.200 F 
ATOM    104  C   UNL A   1      51.283  28.771  29.857  1.00  0.00     0.200 A 
ATOM    105  F   UNL A   1      51.007  27.933  32.047  1.00  0.00    -0.200 F 
ATOM    106  F   UNL A   1      52.608  28.850  30.040  1.00  0.00    -0.200 F 
ENDBRANCH  73  96
ENDBRANCH  47  48
ENDBRANCH  39  42
ENDBRANCH  37  38
ENDBRANCH   1  37
TORSDOF 12
ENDMDL
MODEL 3
REMARK VINA RESULT:     -10.3      2.708      8.043
REMARK SMILES C[C@]12c3ccccc3[C@](C)(c3ccccc31)[C@@H]1C(=O)N(c3ccc(C(=O)NCCCCNC(=O)c4ccc(-c5c6nc(c(-c7c(F)c(F)c(F)c(F)c7F)c7ccc([nH]7)c(-c7c(F)c(F)c(F)c(F)c7F)c7nc(c(-c8c(F)c(F)c(F)c(F)c8F)c8ccc5[nH]8)C=C7)C=C6)cc4)cc3)C(=O)[C@H]12
REMARK SMILES IDX 30 1 29 2 28 3 27 4 25 5 26 6 24 8 21 9 22 10 99 11 23 12
REMARK SMILES IDX 98 13 20 14 1 15 2 16 16 17 3 18 102 19 15 20 11 21 8 22
REMARK SMILES IDX 4 23 17 24 100 25 14 26 12 27 9 28 7 29 5 30 18 31 101 32
REMARK SMILES IDX 13 33 10 34 6 35 19 36 31 37 32 38 33 39 34 41 35 42 36 43
REMARK SMILES IDX 97 44 37 45 96 46 38 47 39 48 40 49 90 50 41 51 95 52 89 53
REMARK SMILES IDX 91 54 42 55 94 56 88 57 87 58 43 60 75 61 55 62 74 63 56 64
REMARK SMILES IDX 59 65 73 66 92 67 57 68 58 69 72 71 93 72 60 73 44 74 45 75
REMARK SMILES IDX 53 76 46 77 47 78 51 79 54 80 48 81 49 82 52 83 50 84 76 85
REMARK SMILES IDX 77 86 85 87 78 88 79 89 83 90 86 91 80 92 81 93 84 94 82 95
REMARK SMILES IDX 61 96 62 97 70 98 63 99 64 100 68 101 71 102 65 103 66 104
REMARK SMILES IDX 69 105 67 106
REMARK H PARENT 27 7 32 40 91 59 59 70
REMARK Flexibility Score: inf
ROOT
ATOM      1  C   UNL A   1      36.857  34.093  34.792  1.00  0.00     0.023 C 
ENDROOT
BRANCH   1   2
ATOM      2  C   UNL A   1      37.175  33.331  33.513  1.00  0.00     0.023 C 
BRANCH   2   3
ATOM      3  C   UNL A   1      36.276  32.140  33.203  1.00  0.00     0.116 C 
BRANCH   3   4
ATOM      4  N   UNL A   1      35.548  32.249  31.950  1.00  0.00    -0.352 N 
ATOM      5  C   UNL A   1      35.838  31.714  30.714  1.00  0.00     0.251 C 
ATOM      6  O   UNL A   1      35.100  31.954  29.762  1.00  0.00    -0.269 OA
ATOM      7  H   UNL A   1      34.724  32.786  31.989  1.00  0.00     0.163 HD
BRANCH   5   8
ATOM      8  C   UNL A   1      37.068  30.913  30.504  1.00  0.00     0.039 A 
ATOM      9  C   UNL A   1      39.246  29.304  29.748  1.00  0.00     0.052 A 
ATOM     10  C   UNL A   1      38.050  28.724  30.190  1.00  0.00     0.027 A 
ATOM     11  C   UNL A   1      39.373  30.699  29.808  1.00  0.00     0.027 A 
ATOM     12  C   UNL A   1      36.970  29.522  30.579  1.00  0.00     0.016 A 
ATOM     13  C   UNL A   1      38.297  31.499  30.198  1.00  0.00     0.016 A 
BRANCH   9  14
ATOM     14  N   UNL A   1      40.277  28.514  29.186  1.00  0.00    -0.250 N 
ATOM     15  C   UNL A   1      44.040  26.278  30.352  1.00  0.00     0.022 C 
ATOM     16  C   UNL A   1      43.304  26.241  29.014  1.00  0.00     0.030 C 
ATOM     17  C   UNL A   1      42.734  24.856  28.611  1.00  0.00    -0.033 A 
ATOM     18  C   UNL A   1      44.172  26.658  27.782  1.00  0.00    -0.033 A 
ATOM     19  C   UNL A   1      42.225  27.347  28.912  1.00  0.00     0.108 C 
ATOM     20  C   UNL A   1      42.851  23.675  29.340  1.00  0.00     0.005 A 
ATOM     21  C   UNL A   1      42.102  24.830  27.319  1.00  0.00    -0.033 A 
ATOM     22  C   UNL A   1      43.421  26.748  26.560  1.00  0.00    -0.033 A 
ATOM     23  C   UNL A   1      45.528  26.972  27.803  1.00  0.00     0.005 A 
ATOM     24  C   UNL A   1      41.220  26.950  27.829  1.00  0.00     0.108 C 
ATOM     25  C   UNL A   1      41.273  27.871  29.940  1.00  0.00     0.238 C 
ATOM     26  C   UNL A   1      42.365  22.485  28.793  1.00  0.00     0.000 A 
ATOM     27  C   UNL A   1      41.635  23.634  26.781  1.00  0.00     0.005 A 
ATOM     28  C   UNL A   1      41.961  26.246  26.672  1.00  0.00     0.030 C 
ATOM     29  C   UNL A   1      44.048  27.185  25.397  1.00  0.00     0.005 A 
ATOM     30  C   UNL A   1      46.139  27.396  26.625  1.00  0.00     0.000 A 
ATOM     31  C   UNL A   1      40.355  28.164  27.832  1.00  0.00     0.238 C 
ATOM     32  O   UNL A   1      41.410  27.787  31.146  1.00  0.00    -0.274 OA
ATOM     33  C   UNL A   1      41.773  22.462  27.523  1.00  0.00     0.000 A 
ATOM     34  C   UNL A   1      41.153  26.276  25.377  1.00  0.00     0.022 C 
ATOM     35  C   UNL A   1      45.405  27.512  25.437  1.00  0.00     0.000 A 
ATOM     36  O   UNL A   1      39.768  28.627  26.867  1.00  0.00    -0.274 OA
ENDBRANCH   9  14
ENDBRANCH   5   8
ENDBRANCH   3   4
ENDBRANCH   2   3
ENDBRANCH   1   2
BRANCH   1  37
ATOM     37  C   UNL A   1      37.801  33.843  35.960  1.00  0.00     0.116 C 
BRANCH  37  38
ATOM     38  N   UNL A   1      37.503  32.632  36.714  1.00  0.00    -0.352 N 
ATOM     39  C   UNL A   1      38.073  31.379  36.648  1.00  0.00     0.251 C 
ATOM     40  H   UNL A   1      36.780  32.724  37.377  1.00  0.00     0.163 HD
ATOM     41  O   UNL A   1      37.613  30.456  37.313  1.00  0.00    -0.269 OA
BRANCH  39  42
ATOM     42  C   UNL A   1      39.209  31.132  35.733  1.00  0.00     0.039 A 
ATOM     43  C   UNL A   1      39.025  30.416  34.553  1.00  0.00     0.014 A 
ATOM     44  C   UNL A   1      40.487  31.575  36.088  1.00  0.00     0.014 A 
ATOM     45  C   UNL A   1      40.131  29.932  33.869  1.00  0.00     0.010 A 
ATOM     46  C   UNL A   1      41.593  31.197  35.318  1.00  0.00     0.010 A 
ATOM     47  C   UNL A   1      41.432  30.312  34.240  1.00  0.00    -0.014 A 
BRANCH  47  48
ATOM     48  C   UNL A   1      42.588  29.759  33.481  1.00  0.00     0.031 A 
ATOM     49  C   UNL A   1      43.142  30.470  32.273  1.00  0.00     0.074 A 
ATOM     50  C   UNL A   1      43.198  28.649  33.944  1.00  0.00     0.049 A 
ATOM     51  N   UNL A   1      44.191  30.167  31.548  1.00  0.00    -0.248 NA
ATOM     52  C   UNL A   1      42.430  31.671  31.809  1.00  0.00     0.031 C 
ATOM     53  C   UNL A   1      42.756  27.874  35.104  1.00  0.00     0.029 A 
ATOM     54  N   UNL A   1      44.335  28.002  33.529  1.00  0.00    -0.354 N 
ATOM     55  C   UNL A   1      44.255  31.124  30.545  1.00  0.00     0.074 A 
ATOM     56  C   UNL A   1      43.117  31.998  30.723  1.00  0.00     0.031 C 
ATOM     57  C   UNL A   1      43.651  26.909  35.358  1.00  0.00     0.029 A 
ATOM     58  C   UNL A   1      44.688  26.945  34.332  1.00  0.00     0.049 A 
ATOM     59  H   UNL A   1      44.848  28.271  32.733  1.00  0.00     0.167 HD
ATOM     60  C   UNL A   1      45.192  31.275  29.577  1.00  0.00     0.037 A 
ATOM     61  C   UNL A   1      45.724  26.088  34.252  1.00  0.00     0.037 A 
ATOM     62  C   UNL A   1      46.338  30.418  29.420  1.00  0.00     0.049 A 
ATOM     63  C   UNL A   1      46.719  26.249  33.138  1.00  0.00     0.074 A 
ATOM     64  C   UNL A   1      47.354  30.506  28.483  1.00  0.00     0.029 A 
ATOM     65  N   UNL A   1      46.622  29.318  30.216  1.00  0.00    -0.354 N 
ATOM     66  N   UNL A   1      46.780  27.176  32.214  1.00  0.00    -0.248 NA
ATOM     67  C   UNL A   1      47.785  25.242  33.049  1.00  0.00     0.031 C 
ATOM     68  C   UNL A   1      48.221  29.428  28.676  1.00  0.00     0.029 A 
ATOM     69  C   UNL A   1      47.782  28.704  29.773  1.00  0.00     0.049 A 
ATOM     70  H   UNL A   1      46.080  29.019  30.982  1.00  0.00     0.167 HD
ATOM     71  C   UNL A   1      47.897  26.878  31.449  1.00  0.00     0.074 A 
ATOM     72  C   UNL A   1      48.495  25.693  32.024  1.00  0.00     0.031 C 
ATOM     73  C   UNL A   1      48.379  27.532  30.363  1.00  0.00     0.037 A 
BRANCH  60  74
ATOM     74  C   UNL A   1      45.032  32.409  28.604  1.00  0.00     0.064 A 
ATOM     75  C   UNL A   1      45.582  33.675  28.853  1.00  0.00     0.173 A 
ATOM     76  C   UNL A   1      44.404  32.202  27.365  1.00  0.00     0.173 A 
ATOM     77  F   UNL A   1      46.188  33.930  30.023  1.00  0.00    -0.203 F 
ATOM     78  C   UNL A   1      45.496  34.695  27.908  1.00  0.00     0.198 A 
ATOM     79  C   UNL A   1      44.347  33.213  26.410  1.00  0.00     0.198 A 
ATOM     80  F   UNL A   1      43.870  31.007  27.069  1.00  0.00    -0.203 F 
ATOM     81  F   UNL A   1      46.001  35.905  28.182  1.00  0.00    -0.200 F 
ATOM     82  C   UNL A   1      44.889  34.460  26.683  1.00  0.00     0.200 A 
ATOM     83  F   UNL A   1      43.778  32.979  25.219  1.00  0.00    -0.200 F 
ATOM     84  F   UNL A   1      44.827  35.435  25.766  1.00  0.00    -0.200 F 
ENDBRANCH  60  74
BRANCH  61  85
ATOM     85  C   UNL A   1      45.867  25.015  35.270  1.00  0.00     0.064 A 
ATOM     86  C   UNL A   1      46.472  25.271  36.508  1.00  0.00     0.173 A 
ATOM     87  C   UNL A   1      45.366  23.723  35.044  1.00  0.00     0.173 A 
ATOM     88  F   UNL A   1      46.981  26.484  36.766  1.00  0.00    -0.203 F 
ATOM     89  C   UNL A   1      46.575  24.275  37.478  1.00  0.00     0.198 A 
ATOM     90  C   UNL A   1      45.439  22.739  36.026  1.00  0.00     0.198 A 
ATOM     91  F   UNL A   1      44.773  23.427  33.877  1.00  0.00    -0.203 F 
ATOM     92  F   UNL A   1      47.186  24.537  38.641  1.00  0.00    -0.200 F 
ATOM     93  C   UNL A   1      46.049  23.013  37.240  1.00  0.00     0.200 A 
ATOM     94  F   UNL A   1      44.910  21.529  35.799  1.00  0.00    -0.200 F 
ATOM     95  F   UNL A   1      46.130  22.063  38.181  1.00  0.00    -0.200 F 
ENDBRANCH  61  85
BRANCH  73  96
ATOM     96  C   UNL A   1      49.632  27.008  29.725  1.00  0.00     0.064 A 
ATOM     97  C   UNL A   1      49.586  26.096  28.663  1.00  0.00     0.173 A 
ATOM     98  C   UNL A   1      50.884  27.515  30.107  1.00  0.00     0.173 A 
ATOM     99  F   UNL A   1      48.415  25.573  28.271  1.00  0.00    -0.203 F 
ATOM    100  C   UNL A   1      50.750  25.710  28.002  1.00  0.00     0.198 A 
ATOM    101  C   UNL A   1      52.042  27.150  29.425  1.00  0.00     0.198 A 
ATOM    102  F   UNL A   1      50.980  28.397  31.114  1.00  0.00    -0.203 F 
ATOM    103  F   UNL A   1      50.685  24.822  27.001  1.00  0.00    -0.200 F 
ATOM    104  C   UNL A   1      51.973  26.249  28.373  1.00  0.00     0.200 A 
ATOM    105  F   UNL A   1      53.219  27.687  29.772  1.00  0.00    -0.200 F 
ATOM    106  F   UNL A   1      53.088  25.901  27.716  1.00  0.00    -0.200 F 
ENDBRANCH  73  96
ENDBRANCH  47  48
ENDBRANCH  39  42
ENDBRANCH  37  38
ENDBRANCH   1  37
TORSDOF 12
ENDMDL
