MODEL 1
REMARK VINA RESULT:     -12.1      0.000      0.000
REMARK SMILES CC[C@H](C)[C@@H](C)NC(=O)N1CC[C@H](C(=O)NCCCCNC(=O)c2ccc(-c3c4nc(c(-c5c(F)c(F)c(F)c(F)c5F)c5ccc([nH]5)c(-c5c(F)c(F)c(F)c(F)c5F)c5nc(c(-c6c(F)c(F)c(F)c(F)c6F)c6ccc3[nH]6)C=C5)C=C4)cc2)[C@@H]1C
REMARK SMILES IDX 17 1 16 2 14 3 15 4 13 6 10 7 11 8 87 9 12 10 88 11 8 12
REMARK SMILES IDX 7 13 9 15 5 16 6 17 3 18 4 19 2 20 1 21 18 22 19 23 20 24
REMARK SMILES IDX 21 25 22 26 23 28 24 29 25 30 86 31 26 32 85 33 27 34 28 35
REMARK SMILES IDX 29 36 79 37 30 38 84 39 78 40 80 41 31 42 83 43 77 44 76 45
REMARK SMILES IDX 32 47 64 48 44 49 63 50 45 51 48 52 62 53 81 54 46 55 47 56
REMARK SMILES IDX 61 58 82 59 49 60 33 61 34 62 42 63 35 64 36 65 40 66 43 67
REMARK SMILES IDX 37 68 38 69 41 70 39 71 65 72 66 73 74 74 67 75 68 76 72 77
REMARK SMILES IDX 75 78 69 79 70 80 73 81 71 82 50 83 51 84 59 85 52 86 53 87
REMARK SMILES IDX 57 88 60 89 54 90 55 91 58 92 56 93
REMARK H PARENT 16 5 7 14 21 27 80 46 48 57
REMARK Flexibility Score: inf
ROOT
ATOM      1  C   UNL A   1      33.458  29.958  26.271  1.00  0.00     0.116 C 
ENDROOT
BRANCH   1   2
ATOM      2  N   UNL A   1      33.196  29.434  24.947  1.00  0.00    -0.356 N 
ATOM      3  C   UNL A   1      32.406  28.441  24.475  1.00  0.00     0.225 C 
ATOM      4  O   UNL A   1      32.520  28.208  23.264  1.00  0.00    -0.275 OA
ATOM      5  H   UNL A   1      33.697  29.900  24.240  1.00  0.00     0.163 HD
BRANCH   3   6
ATOM      6  C   UNL A   1      31.425  27.602  25.295  1.00  0.00     0.102 C 
ATOM      7  N   UNL A   1      31.393  25.232  25.653  1.00  0.00    -0.321 N 
ATOM      8  C   UNL A   1      30.707  25.498  24.418  1.00  0.00     0.122 C 
ATOM      9  C   UNL A   1      32.075  26.453  26.129  1.00  0.00     0.096 C 
ATOM     10  C   UNL A   1      30.229  26.920  24.636  1.00  0.00     0.037 C 
ATOM     11  C   UNL A   1      33.592  26.304  26.021  1.00  0.00     0.032 C 
BRANCH   7  12
ATOM     12  C   UNL A   1      31.446  23.954  26.110  1.00  0.00     0.317 C 
ATOM     13  N   UNL A   1      32.031  22.995  25.360  1.00  0.00    -0.335 N 
ATOM     14  H   UNL A   1      31.759  22.074  25.573  1.00  0.00     0.165 HD
ATOM     15  O   UNL A   1      31.066  23.651  27.242  1.00  0.00    -0.249 OA
BRANCH  13  16
ATOM     16  C   UNL A   1      33.005  23.120  24.280  1.00  0.00     0.083 C 
ATOM     17  C   UNL A   1      32.565  22.186  23.153  1.00  0.00     0.031 C 
BRANCH  16  18
ATOM     18  C   UNL A   1      34.453  22.820  24.769  1.00  0.00     0.008 C 
ATOM     19  C   UNL A   1      34.775  21.321  24.649  1.00  0.00     0.010 C 
BRANCH  18  20
ATOM     20  C   UNL A   1      35.559  23.642  24.064  1.00  0.00     0.002 C 
ATOM     21  C   UNL A   1      36.642  22.834  23.365  1.00  0.00     0.004 C 
ENDBRANCH  18  20
ENDBRANCH  16  18
ENDBRANCH  13  16
ENDBRANCH   7  12
ENDBRANCH   3   6
ENDBRANCH   1   2
BRANCH   1  22
ATOM     22  C   UNL A   1      32.170  30.354  26.996  1.00  0.00     0.023 C 
BRANCH  22  23
ATOM     23  C   UNL A   1      31.833  31.841  26.939  1.00  0.00     0.023 C 
BRANCH  23  24
ATOM     24  C   UNL A   1      32.935  32.767  27.434  1.00  0.00     0.116 C 
BRANCH  24  25
ATOM     25  N   UNL A   1      32.492  34.129  27.694  1.00  0.00    -0.352 N 
ATOM     26  C   UNL A   1      33.013  35.017  28.606  1.00  0.00     0.251 C 
ATOM     27  H   UNL A   1      31.733  34.452  27.157  1.00  0.00     0.163 HD
ATOM     28  O   UNL A   1      32.499  36.113  28.792  1.00  0.00    -0.269 OA
BRANCH  26  29
ATOM     29  C   UNL A   1      34.179  34.593  29.403  1.00  0.00     0.039 A 
ATOM     30  C   UNL A   1      33.965  34.060  30.675  1.00  0.00     0.014 A 
ATOM     31  C   UNL A   1      35.462  34.638  28.850  1.00  0.00     0.014 A 
ATOM     32  C   UNL A   1      35.036  33.498  31.368  1.00  0.00     0.010 A 
ATOM     33  C   UNL A   1      36.512  34.014  29.511  1.00  0.00     0.010 A 
ATOM     34  C   UNL A   1      36.307  33.435  30.773  1.00  0.00    -0.014 A 
BRANCH  34  35
ATOM     35  C   UNL A   1      37.440  32.766  31.454  1.00  0.00     0.031 A 
ATOM     36  C   UNL A   1      38.136  31.614  30.788  1.00  0.00     0.074 A 
ATOM     37  C   UNL A   1      37.787  33.145  32.699  1.00  0.00     0.049 A 
ATOM     38  N   UNL A   1      39.093  30.849  31.246  1.00  0.00    -0.248 NA
ATOM     39  C   UNL A   1      37.672  31.255  29.439  1.00  0.00     0.031 C 
ATOM     40  C   UNL A   1      37.144  34.212  33.468  1.00  0.00     0.029 A 
ATOM     41  N   UNL A   1      38.759  32.668  33.539  1.00  0.00    -0.354 N 
ATOM     42  C   UNL A   1      39.331  29.911  30.251  1.00  0.00     0.074 A 
ATOM     43  C   UNL A   1      38.386  30.169  29.187  1.00  0.00     0.031 C 
ATOM     44  C   UNL A   1      37.753  34.322  34.659  1.00  0.00     0.029 A 
ATOM     45  C   UNL A   1      38.806  33.316  34.750  1.00  0.00     0.049 A 
ATOM     46  H   UNL A   1      39.366  31.931  33.299  1.00  0.00     0.167 HD
ATOM     47  C   UNL A   1      40.272  28.938  30.219  1.00  0.00     0.037 A 
ATOM     48  C   UNL A   1      39.611  33.116  35.811  1.00  0.00     0.037 A 
ATOM     49  C   UNL A   1      41.232  28.709  31.265  1.00  0.00     0.049 A 
ATOM     50  C   UNL A   1      40.662  32.042  35.740  1.00  0.00     0.074 A 
ATOM     51  C   UNL A   1      42.269  27.793  31.301  1.00  0.00     0.029 A 
ATOM     52  N   UNL A   1      41.273  29.410  32.462  1.00  0.00    -0.354 N 
ATOM     53  N   UNL A   1      40.926  31.206  34.765  1.00  0.00    -0.248 NA
ATOM     54  C   UNL A   1      41.533  31.890  36.914  1.00  0.00     0.031 C 
ATOM     55  C   UNL A   1      42.917  27.917  32.535  1.00  0.00     0.029 A 
ATOM     56  C   UNL A   1      42.310  28.936  33.250  1.00  0.00     0.049 A 
ATOM     57  H   UNL A   1      40.658  30.135  32.713  1.00  0.00     0.167 HD
ATOM     58  C   UNL A   1      42.006  30.448  35.195  1.00  0.00     0.074 A 
ATOM     59  C   UNL A   1      42.358  30.932  36.514  1.00  0.00     0.031 C 
ATOM     60  C   UNL A   1      42.648  29.440  34.556  1.00  0.00     0.037 A 
BRANCH  47  61
ATOM     61  C   UNL A   1      40.311  28.057  29.006  1.00  0.00     0.064 A 
ATOM     62  C   UNL A   1      41.057  28.406  27.870  1.00  0.00     0.173 A 
ATOM     63  C   UNL A   1      39.616  26.840  28.987  1.00  0.00     0.173 A 
ATOM     64  F   UNL A   1      41.728  29.567  27.834  1.00  0.00    -0.203 F 
ATOM     65  C   UNL A   1      41.081  27.583  26.748  1.00  0.00     0.198 A 
ATOM     66  C   UNL A   1      39.665  26.005  27.874  1.00  0.00     0.198 A 
ATOM     67  F   UNL A   1      38.890  26.458  30.049  1.00  0.00    -0.203 F 
ATOM     68  F   UNL A   1      41.759  27.961  25.656  1.00  0.00    -0.200 F 
ATOM     69  C   UNL A   1      40.391  26.380  26.754  1.00  0.00     0.200 A 
ATOM     70  F   UNL A   1      39.006  24.837  27.883  1.00  0.00    -0.200 F 
ATOM     71  F   UNL A   1      40.418  25.586  25.674  1.00  0.00    -0.200 F 
ENDBRANCH  47  61
BRANCH  48  72
ATOM     72  C   UNL A   1      39.479  33.975  37.015  1.00  0.00     0.064 A 
ATOM     73  C   UNL A   1      40.111  35.225  37.075  1.00  0.00     0.173 A 
ATOM     74  C   UNL A   1      38.722  33.571  38.122  1.00  0.00     0.173 A 
ATOM     75  F   UNL A   1      40.861  35.646  36.046  1.00  0.00    -0.203 F 
ATOM     76  C   UNL A   1      40.007  36.030  38.208  1.00  0.00     0.198 A 
ATOM     77  C   UNL A   1      38.599  34.387  39.245  1.00  0.00     0.198 A 
ATOM     78  F   UNL A   1      38.092  32.387  38.111  1.00  0.00    -0.203 F 
ATOM     79  F   UNL A   1      40.656  37.201  38.256  1.00  0.00    -0.200 F 
ATOM     80  C   UNL A   1      39.247  35.611  39.290  1.00  0.00     0.200 A 
ATOM     81  F   UNL A   1      37.853  33.986  40.285  1.00  0.00    -0.200 F 
ATOM     82  F   UNL A   1      39.145  36.387  40.379  1.00  0.00    -0.200 F 
ENDBRANCH  48  72
BRANCH  60  83
ATOM     83  C   UNL A   1      43.816  28.817  35.261  1.00  0.00     0.064 A 
ATOM     84  C   UNL A   1      45.124  29.283  35.066  1.00  0.00     0.173 A 
ATOM     85  C   UNL A   1      43.617  27.771  36.174  1.00  0.00     0.173 A 
ATOM     86  F   UNL A   1      45.365  30.271  34.191  1.00  0.00    -0.203 F 
ATOM     87  C   UNL A   1      46.194  28.709  35.747  1.00  0.00     0.198 A 
ATOM     88  C   UNL A   1      44.686  27.217  36.872  1.00  0.00     0.198 A 
ATOM     89  F   UNL A   1      42.383  27.294  36.398  1.00  0.00    -0.203 F 
ATOM     90  F   UNL A   1      47.441  29.143  35.516  1.00  0.00    -0.200 F 
ATOM     91  C   UNL A   1      45.974  27.683  36.653  1.00  0.00     0.200 A 
ATOM     92  F   UNL A   1      44.471  26.233  37.755  1.00  0.00    -0.200 F 
ATOM     93  F   UNL A   1      47.006  27.138  37.312  1.00  0.00    -0.200 F 
ENDBRANCH  60  83
ENDBRANCH  34  35
ENDBRANCH  26  29
ENDBRANCH  24  25
ENDBRANCH  23  24
ENDBRANCH  22  23
ENDBRANCH   1  22
TORSDOF 15
ENDMDL
MODEL 2
REMARK VINA RESULT:     -12.1      0.934      7.536
REMARK SMILES CC[C@H](C)[C@@H](C)NC(=O)N1CC[C@H](C(=O)NCCCCNC(=O)c2ccc(-c3c4nc(c(-c5c(F)c(F)c(F)c(F)c5F)c5ccc([nH]5)c(-c5c(F)c(F)c(F)c(F)c5F)c5nc(c(-c6c(F)c(F)c(F)c(F)c6F)c6ccc3[nH]6)C=C5)C=C4)cc2)[C@@H]1C
REMARK SMILES IDX 17 1 16 2 14 3 15 4 13 6 10 7 11 8 87 9 12 10 88 11 8 12
REMARK SMILES IDX 7 13 9 15 5 16 6 17 3 18 4 19 2 20 1 21 18 22 19 23 20 24
REMARK SMILES IDX 21 25 22 26 23 28 24 29 25 30 86 31 26 32 85 33 27 34 28 35
REMARK SMILES IDX 29 36 79 37 30 38 84 39 78 40 80 41 31 42 83 43 77 44 76 45
REMARK SMILES IDX 32 47 64 48 44 49 63 50 45 51 48 52 62 53 81 54 46 55 47 56
REMARK SMILES IDX 61 58 82 59 49 60 33 61 34 62 42 63 35 64 36 65 40 66 43 67
REMARK SMILES IDX 37 68 38 69 41 70 39 71 65 72 66 73 74 74 67 75 68 76 72 77
REMARK SMILES IDX 75 78 69 79 70 80 73 81 71 82 50 83 51 84 59 85 52 86 53 87
REMARK SMILES IDX 57 88 60 89 54 90 55 91 58 92 56 93
REMARK H PARENT 16 5 7 14 21 27 80 46 48 57
REMARK Flexibility Score: inf
ROOT
ATOM      1  C   UNL A   1      31.412  29.817  25.454  1.00  0.00     0.116 C 
ENDROOT
BRANCH   1   2
ATOM      2  N   UNL A   1      32.284  29.696  24.304  1.00  0.00    -0.356 N 
ATOM      3  C   UNL A   1      33.129  28.731  23.870  1.00  0.00     0.225 C 
ATOM      4  O   UNL A   1      33.802  29.031  22.874  1.00  0.00    -0.275 OA
ATOM      5  H   UNL A   1      32.256  30.483  23.713  1.00  0.00     0.163 HD
BRANCH   3   6
ATOM      6  C   UNL A   1      33.321  27.351  24.499  1.00  0.00     0.102 C 
ATOM      7  N   UNL A   1      31.700  25.919  25.531  1.00  0.00    -0.321 N 
ATOM      8  C   UNL A   1      32.163  26.846  26.527  1.00  0.00     0.122 C 
ATOM      9  C   UNL A   1      32.187  26.321  24.195  1.00  0.00     0.096 C 
ATOM     10  C   UNL A   1      33.541  27.194  26.002  1.00  0.00     0.037 C 
ATOM     11  C   UNL A   1      31.034  26.814  23.323  1.00  0.00     0.032 C 
BRANCH   7  12
ATOM     12  C   UNL A   1      30.819  24.951  25.895  1.00  0.00     0.317 C 
ATOM     13  N   UNL A   1      31.126  23.651  25.692  1.00  0.00    -0.335 N 
ATOM     14  H   UNL A   1      30.356  23.039  25.665  1.00  0.00     0.165 HD
ATOM     15  O   UNL A   1      29.781  25.211  26.505  1.00  0.00    -0.249 OA
BRANCH  13  16
ATOM     16  C   UNL A   1      32.428  23.018  25.505  1.00  0.00     0.083 C 
ATOM     17  C   UNL A   1      32.189  21.520  25.316  1.00  0.00     0.031 C 
BRANCH  16  18
ATOM     18  C   UNL A   1      33.393  23.320  26.691  1.00  0.00     0.008 C 
ATOM     19  C   UNL A   1      33.232  22.277  27.811  1.00  0.00     0.010 C 
BRANCH  18  20
ATOM     20  C   UNL A   1      34.887  23.428  26.299  1.00  0.00     0.002 C 
ATOM     21  C   UNL A   1      35.176  24.080  24.956  1.00  0.00     0.004 C 
ENDBRANCH  18  20
ENDBRANCH  16  18
ENDBRANCH  13  16
ENDBRANCH   7  12
ENDBRANCH   3   6
ENDBRANCH   1   2
BRANCH   1  22
ATOM     22  C   UNL A   1      32.107  30.505  26.630  1.00  0.00     0.023 C 
BRANCH  22  23
ATOM     23  C   UNL A   1      31.733  31.972  26.827  1.00  0.00     0.023 C 
BRANCH  23  24
ATOM     24  C   UNL A   1      32.880  32.872  27.264  1.00  0.00     0.116 C 
BRANCH  24  25
ATOM     25  N   UNL A   1      32.465  34.208  27.664  1.00  0.00    -0.352 N 
ATOM     26  C   UNL A   1      33.006  34.988  28.659  1.00  0.00     0.251 C 
ATOM     27  H   UNL A   1      31.710  34.599  27.166  1.00  0.00     0.163 HD
ATOM     28  O   UNL A   1      32.514  36.070  28.957  1.00  0.00    -0.269 OA
BRANCH  26  29
ATOM     29  C   UNL A   1      34.167  34.463  29.401  1.00  0.00     0.039 A 
ATOM     30  C   UNL A   1      33.942  33.740  30.574  1.00  0.00     0.014 A 
ATOM     31  C   UNL A   1      35.457  34.609  28.885  1.00  0.00     0.014 A 
ATOM     32  C   UNL A   1      35.011  33.093  31.192  1.00  0.00     0.010 A 
ATOM     33  C   UNL A   1      36.507  33.906  29.461  1.00  0.00     0.010 A 
ATOM     34  C   UNL A   1      36.291  33.138  30.617  1.00  0.00    -0.014 A 
BRANCH  34  35
ATOM     35  C   UNL A   1      37.424  32.387  31.208  1.00  0.00     0.031 A 
ATOM     36  C   UNL A   1      37.928  32.753  32.574  1.00  0.00     0.074 A 
ATOM     37  C   UNL A   1      38.042  31.436  30.483  1.00  0.00     0.049 A 
ATOM     38  N   UNL A   1      38.951  32.272  33.233  1.00  0.00    -0.248 NA
ATOM     39  C   UNL A   1      37.205  33.821  33.280  1.00  0.00     0.031 C 
ATOM     40  C   UNL A   1      37.676  31.037  29.123  1.00  0.00     0.029 A 
ATOM     41  N   UNL A   1      39.116  30.638  30.787  1.00  0.00    -0.354 N 
ATOM     42  C   UNL A   1      39.004  32.991  34.419  1.00  0.00     0.074 A 
ATOM     43  C   UNL A   1      37.944  33.974  34.368  1.00  0.00     0.031 C 
ATOM     44  C   UNL A   1      38.499  30.056  28.718  1.00  0.00     0.029 A 
ATOM     45  C   UNL A   1      39.466  29.778  29.775  1.00  0.00     0.049 A 
ATOM     46  H   UNL A   1      39.591  30.679  31.648  1.00  0.00     0.167 HD
ATOM     47  C   UNL A   1      39.845  32.828  35.467  1.00  0.00     0.037 A 
ATOM     48  C   UNL A   1      40.458  28.870  29.711  1.00  0.00     0.037 A 
ATOM     49  C   UNL A   1      40.875  31.825  35.526  1.00  0.00     0.049 A 
ATOM     50  C   UNL A   1      41.366  28.694  30.898  1.00  0.00     0.074 A 
ATOM     51  C   UNL A   1      41.737  31.534  36.568  1.00  0.00     0.029 A 
ATOM     52  N   UNL A   1      41.177  30.947  34.495  1.00  0.00    -0.354 N 
ATOM     53  N   UNL A   1      41.362  29.331  32.044  1.00  0.00    -0.248 NA
ATOM     54  C   UNL A   1      42.411  27.667  30.786  1.00  0.00     0.031 C 
ATOM     55  C   UNL A   1      42.585  30.499  36.155  1.00  0.00     0.029 A 
ATOM     56  C   UNL A   1      42.224  30.121  34.872  1.00  0.00     0.049 A 
ATOM     57  H   UNL A   1      40.716  30.915  33.627  1.00  0.00     0.167 HD
ATOM     58  C   UNL A   1      42.382  28.768  32.797  1.00  0.00     0.074 A 
ATOM     59  C   UNL A   1      42.976  27.726  31.984  1.00  0.00     0.031 C 
ATOM     60  C   UNL A   1      42.792  29.084  34.050  1.00  0.00     0.037 A 
BRANCH  47  61
ATOM     61  C   UNL A   1      39.677  33.751  36.636  1.00  0.00     0.064 A 
ATOM     62  C   UNL A   1      38.874  33.404  37.735  1.00  0.00     0.173 A 
ATOM     63  C   UNL A   1      40.343  34.984  36.673  1.00  0.00     0.173 A 
ATOM     64  F   UNL A   1      38.205  32.242  37.740  1.00  0.00    -0.203 F 
ATOM     65  C   UNL A   1      38.721  34.271  38.812  1.00  0.00     0.198 A 
ATOM     66  C   UNL A   1      40.210  35.837  37.766  1.00  0.00     0.198 A 
ATOM     67  F   UNL A   1      41.124  35.362  35.651  1.00  0.00    -0.203 F 
ATOM     68  F   UNL A   1      37.909  33.940  39.826  1.00  0.00    -0.200 F 
ATOM     69  C   UNL A   1      39.394  35.483  38.830  1.00  0.00     0.200 A 
ATOM     70  F   UNL A   1      40.868  37.005  37.787  1.00  0.00    -0.200 F 
ATOM     71  F   UNL A   1      39.248  36.316  39.871  1.00  0.00    -0.200 F 
ENDBRANCH  47  61
BRANCH  48  72
ATOM     72  C   UNL A   1      40.621  28.032  28.497  1.00  0.00     0.064 A 
ATOM     73  C   UNL A   1      40.001  26.778  28.403  1.00  0.00     0.173 A 
ATOM     74  C   UNL A   1      41.392  28.463  27.409  1.00  0.00     0.173 A 
ATOM     75  F   UNL A   1      39.268  26.317  29.427  1.00  0.00    -0.203 F 
ATOM     76  C   UNL A   1      40.163  25.978  27.274  1.00  0.00     0.198 A 
ATOM     77  C   UNL A   1      41.534  27.672  26.270  1.00  0.00     0.198 A 
ATOM     78  F   UNL A   1      42.000  29.658  27.446  1.00  0.00    -0.203 F 
ATOM     79  F   UNL A   1      39.594  24.766  27.229  1.00  0.00    -0.200 F 
ATOM     80  C   UNL A   1      40.926  26.428  26.207  1.00  0.00     0.200 A 
ATOM     81  F   UNL A   1      42.261  28.115  25.235  1.00  0.00    -0.200 F 
ATOM     82  F   UNL A   1      41.079  25.659  25.120  1.00  0.00    -0.200 F 
ENDBRANCH  48  72
BRANCH  60  83
ATOM     83  C   UNL A   1      43.913  28.273  34.629  1.00  0.00     0.064 A 
ATOM     84  C   UNL A   1      45.246  28.701  34.547  1.00  0.00     0.173 A 
ATOM     85  C   UNL A   1      43.643  27.078  35.312  1.00  0.00     0.173 A 
ATOM     86  F   UNL A   1      45.553  29.830  33.890  1.00  0.00    -0.203 F 
ATOM     87  C   UNL A   1      46.271  27.949  35.111  1.00  0.00     0.198 A 
ATOM     88  C   UNL A   1      44.669  26.342  35.897  1.00  0.00     0.198 A 
ATOM     89  F   UNL A   1      42.384  26.630  35.421  1.00  0.00    -0.203 F 
ATOM     90  F   UNL A   1      47.543  28.355  34.987  1.00  0.00    -0.200 F 
ATOM     91  C   UNL A   1      45.983  26.776  35.791  1.00  0.00     0.200 A 
ATOM     92  F   UNL A   1      44.388  25.214  36.564  1.00  0.00    -0.200 F 
ATOM     93  F   UNL A   1      46.972  26.057  36.340  1.00  0.00    -0.200 F 
ENDBRANCH  60  83
ENDBRANCH  34  35
ENDBRANCH  26  29
ENDBRANCH  24  25
ENDBRANCH  23  24
ENDBRANCH  22  23
ENDBRANCH   1  22
TORSDOF 15
ENDMDL
MODEL 3
REMARK VINA RESULT:     -12.1      0.950      7.533
REMARK SMILES CC[C@H](C)[C@@H](C)NC(=O)N1CC[C@H](C(=O)NCCCCNC(=O)c2ccc(-c3c4nc(c(-c5c(F)c(F)c(F)c(F)c5F)c5ccc([nH]5)c(-c5c(F)c(F)c(F)c(F)c5F)c5nc(c(-c6c(F)c(F)c(F)c(F)c6F)c6ccc3[nH]6)C=C5)C=C4)cc2)[C@@H]1C
REMARK SMILES IDX 17 1 16 2 14 3 15 4 13 6 10 7 11 8 87 9 12 10 88 11 8 12
REMARK SMILES IDX 7 13 9 15 5 16 6 17 3 18 4 19 2 20 1 21 18 22 19 23 20 24
REMARK SMILES IDX 21 25 22 26 23 28 24 29 25 30 86 31 26 32 85 33 27 34 28 35
REMARK SMILES IDX 29 36 79 37 30 38 84 39 78 40 80 41 31 42 83 43 77 44 76 45
REMARK SMILES IDX 32 47 64 48 44 49 63 50 45 51 48 52 62 53 81 54 46 55 47 56
REMARK SMILES IDX 61 58 82 59 49 60 33 61 34 62 42 63 35 64 36 65 40 66 43 67
REMARK SMILES IDX 37 68 38 69 41 70 39 71 65 72 66 73 74 74 67 75 68 76 72 77
REMARK SMILES IDX 75 78 69 79 70 80 73 81 71 82 50 83 51 84 59 85 52 86 53 87
REMARK SMILES IDX 57 88 60 89 54 90 55 91 58 92 56 93
REMARK H PARENT 16 5 7 14 21 27 80 46 48 57
REMARK Flexibility Score: inf
ROOT
ATOM      1  C   UNL A   1      31.410  29.797  25.420  1.00  0.00     0.116 C 
ENDROOT
BRANCH   1   2
ATOM      2  N   UNL A   1      32.249  29.682  24.245  1.00  0.00    -0.356 N 
ATOM      3  C   UNL A   1      33.084  28.722  23.784  1.00  0.00     0.225 C 
ATOM      4  O   UNL A   1      33.728  29.026  22.770  1.00  0.00    -0.275 OA
ATOM      5  H   UNL A   1      32.200  30.470  23.656  1.00  0.00     0.163 HD
BRANCH   3   6
ATOM      6  C   UNL A   1      33.301  27.341  24.404  1.00  0.00     0.102 C 
ATOM      7  N   UNL A   1      31.715  25.898  25.475  1.00  0.00    -0.321 N 
ATOM      8  C   UNL A   1      32.199  26.825  26.461  1.00  0.00     0.122 C 
ATOM      9  C   UNL A   1      32.163  26.306  24.129  1.00  0.00     0.096 C 
ATOM     10  C   UNL A   1      33.561  27.182  25.900  1.00  0.00     0.037 C 
ATOM     11  C   UNL A   1      30.985  26.796  23.288  1.00  0.00     0.032 C 
BRANCH   7  12
ATOM     12  C   UNL A   1      30.849  24.925  25.861  1.00  0.00     0.317 C 
ATOM     13  N   UNL A   1      31.158  23.627  25.650  1.00  0.00    -0.335 N 
ATOM     14  H   UNL A   1      30.391  23.011  25.641  1.00  0.00     0.165 HD
ATOM     15  O   UNL A   1      29.824  25.179  26.496  1.00  0.00    -0.249 OA
BRANCH  13  16
ATOM     16  C   UNL A   1      32.459  23.002  25.430  1.00  0.00     0.083 C 
ATOM     17  C   UNL A   1      32.222  21.504  25.234  1.00  0.00     0.031 C 
BRANCH  16  18
ATOM     18  C   UNL A   1      33.447  23.299  26.597  1.00  0.00     0.008 C 
ATOM     19  C   UNL A   1      33.446  22.155  27.625  1.00  0.00     0.010 C 
BRANCH  18  20
ATOM     20  C   UNL A   1      34.901  23.593  26.156  1.00  0.00     0.002 C 
ATOM     21  C   UNL A   1      35.100  23.885  24.676  1.00  0.00     0.004 C 
ENDBRANCH  18  20
ENDBRANCH  16  18
ENDBRANCH  13  16
ENDBRANCH   7  12
ENDBRANCH   3   6
ENDBRANCH   1   2
BRANCH   1  22
ATOM     22  C   UNL A   1      32.136  30.484  26.577  1.00  0.00     0.023 C 
BRANCH  22  23
ATOM     23  C   UNL A   1      31.762  31.948  26.791  1.00  0.00     0.023 C 
BRANCH  23  24
ATOM     24  C   UNL A   1      32.906  32.842  27.248  1.00  0.00     0.116 C 
BRANCH  24  25
ATOM     25  N   UNL A   1      32.490  34.178  27.650  1.00  0.00    -0.352 N 
ATOM     26  C   UNL A   1      33.024  34.952  28.653  1.00  0.00     0.251 C 
ATOM     27  H   UNL A   1      31.742  34.572  27.147  1.00  0.00     0.163 HD
ATOM     28  O   UNL A   1      32.532  36.034  28.951  1.00  0.00    -0.269 OA
BRANCH  26  29
ATOM     29  C   UNL A   1      34.177  34.421  29.404  1.00  0.00     0.039 A 
ATOM     30  C   UNL A   1      33.938  33.674  30.558  1.00  0.00     0.014 A 
ATOM     31  C   UNL A   1      35.474  34.586  28.912  1.00  0.00     0.014 A 
ATOM     32  C   UNL A   1      35.002  33.022  31.181  1.00  0.00     0.010 A 
ATOM     33  C   UNL A   1      36.519  33.880  29.492  1.00  0.00     0.010 A 
ATOM     34  C   UNL A   1      36.291  33.088  30.628  1.00  0.00    -0.014 A 
BRANCH  34  35
ATOM     35  C   UNL A   1      37.420  32.334  31.223  1.00  0.00     0.031 A 
ATOM     36  C   UNL A   1      37.912  32.689  32.596  1.00  0.00     0.074 A 
ATOM     37  C   UNL A   1      38.046  31.389  30.496  1.00  0.00     0.049 A 
ATOM     38  N   UNL A   1      38.930  32.204  33.261  1.00  0.00    -0.248 NA
ATOM     39  C   UNL A   1      37.181  33.751  33.304  1.00  0.00     0.031 C 
ATOM     40  C   UNL A   1      37.693  31.001  29.129  1.00  0.00     0.029 A 
ATOM     41  N   UNL A   1      39.118  30.591  30.803  1.00  0.00    -0.354 N 
ATOM     42  C   UNL A   1      38.970  32.914  34.453  1.00  0.00     0.074 A 
ATOM     43  C   UNL A   1      37.909  33.896  34.400  1.00  0.00     0.031 C 
ATOM     44  C   UNL A   1      38.521  30.024  28.724  1.00  0.00     0.029 A 
ATOM     45  C   UNL A   1      39.479  29.740  29.787  1.00  0.00     0.049 A 
ATOM     46  H   UNL A   1      39.586  30.625  31.669  1.00  0.00     0.167 HD
ATOM     47  C   UNL A   1      39.803  32.744  35.507  1.00  0.00     0.037 A 
ATOM     48  C   UNL A   1      40.472  28.834  29.725  1.00  0.00     0.037 A 
ATOM     49  C   UNL A   1      40.833  31.742  35.567  1.00  0.00     0.049 A 
ATOM     50  C   UNL A   1      41.371  28.650  30.918  1.00  0.00     0.074 A 
ATOM     51  C   UNL A   1      41.687  31.443  36.614  1.00  0.00     0.029 A 
ATOM     52  N   UNL A   1      41.147  30.872  34.532  1.00  0.00    -0.354 N 
ATOM     53  N   UNL A   1      41.355  29.277  32.069  1.00  0.00    -0.248 NA
ATOM     54  C   UNL A   1      42.418  27.624  30.807  1.00  0.00     0.031 C 
ATOM     55  C   UNL A   1      42.540  30.413  36.200  1.00  0.00     0.029 A 
ATOM     56  C   UNL A   1      42.191  30.045  34.911  1.00  0.00     0.049 A 
ATOM     57  H   UNL A   1      40.693  30.847  33.659  1.00  0.00     0.167 HD
ATOM     58  C   UNL A   1      42.369  28.709  32.827  1.00  0.00     0.074 A 
ATOM     59  C   UNL A   1      42.972  27.675  32.010  1.00  0.00     0.031 C 
ATOM     60  C   UNL A   1      42.768  29.016  34.085  1.00  0.00     0.037 A 
BRANCH  47  61
ATOM     61  C   UNL A   1      39.623  33.656  36.682  1.00  0.00     0.064 A 
ATOM     62  C   UNL A   1      40.259  34.906  36.745  1.00  0.00     0.173 A 
ATOM     63  C   UNL A   1      38.787  33.291  37.747  1.00  0.00     0.173 A 
ATOM     64  F   UNL A   1      41.080  35.294  35.758  1.00  0.00    -0.203 F 
ATOM     65  C   UNL A   1      40.089  35.742  37.844  1.00  0.00     0.198 A 
ATOM     66  C   UNL A   1      38.597  34.143  38.832  1.00  0.00     0.198 A 
ATOM     67  F   UNL A   1      38.153  32.109  37.736  1.00  0.00    -0.203 F 
ATOM     68  F   UNL A   1      40.747  36.908  37.904  1.00  0.00    -0.200 F 
ATOM     69  C   UNL A   1      39.253  35.363  38.883  1.00  0.00     0.200 A 
ATOM     70  F   UNL A   1      37.780  33.780  39.832  1.00  0.00    -0.200 F 
ATOM     71  F   UNL A   1      39.087  36.172  39.939  1.00  0.00    -0.200 F 
ENDBRANCH  47  61
BRANCH  48  72
ATOM     72  C   UNL A   1      40.647  28.006  28.505  1.00  0.00     0.064 A 
ATOM     73  C   UNL A   1      40.015  26.761  28.388  1.00  0.00     0.173 A 
ATOM     74  C   UNL A   1      41.443  28.439  27.435  1.00  0.00     0.173 A 
ATOM     75  F   UNL A   1      39.258  26.298  29.394  1.00  0.00    -0.203 F 
ATOM     76  C   UNL A   1      40.188  25.969  27.254  1.00  0.00     0.198 A 
ATOM     77  C   UNL A   1      41.596  27.657  26.291  1.00  0.00     0.198 A 
ATOM     78  F   UNL A   1      42.064  29.626  27.496  1.00  0.00    -0.203 F 
ATOM     79  F   UNL A   1      39.605  24.765  27.186  1.00  0.00    -0.200 F 
ATOM     80  C   UNL A   1      40.975  26.421  26.205  1.00  0.00     0.200 A 
ATOM     81  F   UNL A   1      42.347  28.101  25.274  1.00  0.00    -0.200 F 
ATOM     82  F   UNL A   1      41.139  25.661  25.113  1.00  0.00    -0.200 F 
ENDBRANCH  48  72
BRANCH  60  83
ATOM     83  C   UNL A   1      43.885  28.202  34.667  1.00  0.00     0.064 A 
ATOM     84  C   UNL A   1      43.639  27.007  35.359  1.00  0.00     0.173 A 
ATOM     85  C   UNL A   1      45.218  28.601  34.491  1.00  0.00     0.173 A 
ATOM     86  F   UNL A   1      42.380  26.594  35.565  1.00  0.00    -0.203 F 
ATOM     87  C   UNL A   1      44.689  26.252  35.872  1.00  0.00     0.198 A 
ATOM     88  C   UNL A   1      46.266  27.830  34.983  1.00  0.00     0.198 A 
ATOM     89  F   UNL A   1      45.504  29.734  33.832  1.00  0.00    -0.203 F 
ATOM     90  F   UNL A   1      44.431  25.134  36.565  1.00  0.00    -0.200 F 
ATOM     91  C   UNL A   1      46.001  26.658  35.678  1.00  0.00     0.200 A 
ATOM     92  F   UNL A   1      47.534  28.218  34.785  1.00  0.00    -0.200 F 
ATOM     93  F   UNL A   1      47.010  25.925  36.166  1.00  0.00    -0.200 F 
ENDBRANCH  60  83
ENDBRANCH  34  35
ENDBRANCH  26  29
ENDBRANCH  24  25
ENDBRANCH  23  24
ENDBRANCH  22  23
ENDBRANCH   1  22
TORSDOF 15
ENDMDL
