MODEL 1
REMARK VINA RESULT:     -13.1      0.000      0.000
REMARK SMILES C[C@]1(C(=O)NCCCCNC(=O)c2ccc(-c3c4nc(c(-c5c(F)c(F)c(F)c(F)c5F)c5ccc([nH]5)c(-c5c(F)c(F)c(F)c(F)c5F)c5nc(c(-c6c(F)c(F)c(F)c(F)c6F)c6ccc3[nH]6)C=C5)C=C4)cc2)COC[C@H]1Nc1ccc2nnnn2n1
REMARK SMILES IDX 7 1 6 2 5 3 3 4 4 5 2 7 1 8 76 9 79 10 77 11 78 12 80 13
REMARK SMILES IDX 81 15 82 16 89 17 83 18 88 19 84 20 87 21 85 22 86 23 8 24
REMARK SMILES IDX 9 25 10 26 11 27 12 29 13 30 14 31 75 32 15 33 74 34 16 35
REMARK SMILES IDX 17 36 18 37 68 38 19 39 73 40 67 41 69 42 20 43 72 44 66 45
REMARK SMILES IDX 65 46 21 48 53 49 33 50 52 51 34 52 37 53 51 54 70 55 35 56
REMARK SMILES IDX 36 57 50 59 71 60 38 61 22 62 23 63 31 64 24 65 25 66 29 67
REMARK SMILES IDX 32 68 26 69 27 70 30 71 28 72 54 73 55 74 63 75 56 76 57 77
REMARK SMILES IDX 61 78 64 79 58 80 59 81 62 82 60 83 39 84 40 85 48 86 41 87
REMARK SMILES IDX 42 88 46 89 49 90 43 91 44 92 47 93 45 94
REMARK H PARENT 5 6 80 14 10 28 69 47 37 58
REMARK Flexibility Score: inf
ROOT
ATOM      1  C   UNL A   1      31.778  30.650  26.033  1.00  0.00     0.023 C 
ENDROOT
BRANCH   1   2
ATOM      2  C   UNL A   1      32.480  29.682  26.974  1.00  0.00     0.116 C 
BRANCH   2   3
ATOM      3  N   UNL A   1      31.684  28.488  27.202  1.00  0.00    -0.355 N 
ATOM      4  C   UNL A   1      31.597  27.282  26.585  1.00  0.00     0.230 C 
ATOM      5  O   UNL A   1      30.669  26.568  26.981  1.00  0.00    -0.274 OA
ATOM      6  H   UNL A   1      31.076  28.571  27.972  1.00  0.00     0.163 HD
BRANCH   4   7
ATOM      7  C   UNL A   1      32.500  26.818  25.439  1.00  0.00     0.092 C 
ATOM      8  C   UNL A   1      33.646  27.794  25.099  1.00  0.00     0.026 C 
ATOM      9  C   UNL A   1      33.172  25.501  25.883  1.00  0.00     0.179 C 
ATOM     10  C   UNL A   1      31.805  26.378  24.134  1.00  0.00     0.124 C 
ATOM     11  O   UNL A   1      33.471  24.782  24.681  1.00  0.00    -0.378 OA
ATOM     12  C   UNL A   1      32.338  24.975  23.835  1.00  0.00     0.186 C 
BRANCH  10  13
ATOM     13  N   UNL A   1      30.332  26.419  24.037  1.00  0.00    -0.362 N 
ATOM     14  H   UNL A   1      29.765  25.784  24.531  1.00  0.00     0.162 HD
BRANCH  13  15
ATOM     15  C   UNL A   1      29.787  27.391  23.223  1.00  0.00     0.149 A 
ATOM     16  C   UNL A   1      30.707  28.254  22.409  1.00  0.00     0.053 A 
ATOM     17  N   UNL A   1      28.512  27.634  23.331  1.00  0.00    -0.129 NA
ATOM     18  C   UNL A   1      30.402  29.555  22.336  1.00  0.00     0.057 A 
ATOM     19  N   UNL A   1      28.225  28.938  23.044  1.00  0.00    -0.108 N 
ATOM     20  C   UNL A   1      29.127  29.950  22.776  1.00  0.00     0.200 A 
ATOM     21  N   UNL A   1      27.035  29.490  23.327  1.00  0.00    -0.022 NA
ATOM     22  N   UNL A   1      28.539  31.106  22.974  1.00  0.00    -0.107 NA
ATOM     23  N   UNL A   1      27.239  30.802  23.313  1.00  0.00    -0.022 NA
ENDBRANCH  13  15
ENDBRANCH  10  13
ENDBRANCH   4   7
ENDBRANCH   2   3
ENDBRANCH   1   2
BRANCH   1  24
ATOM     24  C   UNL A   1      31.434  31.977  26.713  1.00  0.00     0.023 C 
BRANCH  24  25
ATOM     25  C   UNL A   1      32.630  32.703  27.295  1.00  0.00     0.116 C 
BRANCH  25  26
ATOM     26  N   UNL A   1      32.352  34.101  27.593  1.00  0.00    -0.352 N 
ATOM     27  C   UNL A   1      32.962  34.943  28.496  1.00  0.00     0.251 C 
ATOM     28  H   UNL A   1      31.620  34.503  27.073  1.00  0.00     0.163 HD
ATOM     29  O   UNL A   1      32.539  36.066  28.684  1.00  0.00    -0.269 OA
BRANCH  27  30
ATOM     30  C   UNL A   1      34.127  34.449  29.261  1.00  0.00     0.039 A 
ATOM     31  C   UNL A   1      33.903  33.772  30.464  1.00  0.00     0.014 A 
ATOM     32  C   UNL A   1      35.424  34.619  28.778  1.00  0.00     0.014 A 
ATOM     33  C   UNL A   1      34.982  33.211  31.147  1.00  0.00     0.010 A 
ATOM     34  C   UNL A   1      36.480  33.968  29.398  1.00  0.00     0.010 A 
ATOM     35  C   UNL A   1      36.273  33.273  30.598  1.00  0.00    -0.014 A 
BRANCH  35  36
ATOM     36  C   UNL A   1      37.437  32.650  31.273  1.00  0.00     0.031 A 
ATOM     37  C   UNL A   1      38.170  31.526  30.594  1.00  0.00     0.074 A 
ATOM     38  C   UNL A   1      37.777  33.035  32.517  1.00  0.00     0.049 A 
ATOM     39  N   UNL A   1      39.134  30.768  31.051  1.00  0.00    -0.248 NA
ATOM     40  C   UNL A   1      37.731  31.178  29.232  1.00  0.00     0.031 C 
ATOM     41  C   UNL A   1      37.104  34.074  33.297  1.00  0.00     0.029 A 
ATOM     42  N   UNL A   1      38.771  32.585  33.350  1.00  0.00    -0.354 N 
ATOM     43  C   UNL A   1      39.392  29.844  30.047  1.00  0.00     0.074 A 
ATOM     44  C   UNL A   1      38.443  30.090  28.985  1.00  0.00     0.031 C 
ATOM     45  C   UNL A   1      37.720  34.202  34.484  1.00  0.00     0.029 A 
ATOM     46  C   UNL A   1      38.802  33.227  34.564  1.00  0.00     0.049 A 
ATOM     47  H   UNL A   1      39.400  31.871  33.102  1.00  0.00     0.167 HD
ATOM     48  C   UNL A   1      40.354  28.892  30.003  1.00  0.00     0.037 A 
ATOM     49  C   UNL A   1      39.614  33.042  35.623  1.00  0.00     0.037 A 
ATOM     50  C   UNL A   1      41.324  28.685  31.045  1.00  0.00     0.049 A 
ATOM     51  C   UNL A   1      40.688  31.991  35.541  1.00  0.00     0.074 A 
ATOM     52  C   UNL A   1      42.386  27.800  31.072  1.00  0.00     0.029 A 
ATOM     53  N   UNL A   1      41.349  29.381  32.245  1.00  0.00    -0.354 N 
ATOM     54  N   UNL A   1      40.968  31.167  34.561  1.00  0.00    -0.248 NA
ATOM     55  C   UNL A   1      41.565  31.850  36.712  1.00  0.00     0.031 C 
ATOM     56  C   UNL A   1      43.028  27.930  32.308  1.00  0.00     0.029 A 
ATOM     57  C   UNL A   1      42.398  28.932  33.029  1.00  0.00     0.049 A 
ATOM     58  H   UNL A   1      40.714  30.089  32.501  1.00  0.00     0.167 HD
ATOM     59  C   UNL A   1      42.066  30.431  34.981  1.00  0.00     0.074 A 
ATOM     60  C   UNL A   1      42.413  30.918  36.301  1.00  0.00     0.031 C 
ATOM     61  C   UNL A   1      42.730  29.441  34.335  1.00  0.00     0.037 A 
BRANCH  48  62
ATOM     62  C   UNL A   1      40.410  28.017  28.784  1.00  0.00     0.064 A 
ATOM     63  C   UNL A   1      41.153  28.378  27.650  1.00  0.00     0.173 A 
ATOM     64  C   UNL A   1      39.731  26.790  28.758  1.00  0.00     0.173 A 
ATOM     65  F   UNL A   1      41.811  29.547  27.617  1.00  0.00    -0.203 F 
ATOM     66  C   UNL A   1      41.185  27.562  26.522  1.00  0.00     0.198 A 
ATOM     67  C   UNL A   1      39.792  25.959  27.641  1.00  0.00     0.198 A 
ATOM     68  F   UNL A   1      39.007  26.393  29.816  1.00  0.00    -0.203 F 
ATOM     69  F   UNL A   1      41.853  27.956  25.430  1.00  0.00    -0.200 F 
ATOM     70  C   UNL A   1      40.511  26.350  26.522  1.00  0.00     0.200 A 
ATOM     71  F   UNL A   1      39.150  24.783  27.647  1.00  0.00    -0.200 F 
ATOM     72  F   UNL A   1      40.547  25.562  25.438  1.00  0.00    -0.200 F 
ENDBRANCH  48  62
BRANCH  49  73
ATOM     73  C   UNL A   1      39.462  33.891  36.833  1.00  0.00     0.064 A 
ATOM     74  C   UNL A   1      38.720  33.443  37.936  1.00  0.00     0.173 A 
ATOM     75  C   UNL A   1      40.047  35.163  36.916  1.00  0.00     0.173 A 
ATOM     76  F   UNL A   1      38.124  32.241  37.897  1.00  0.00    -0.203 F 
ATOM     77  C   UNL A   1      38.552  34.241  39.065  1.00  0.00     0.198 A 
ATOM     78  C   UNL A   1      39.903  35.949  38.057  1.00  0.00     0.198 A 
ATOM     79  F   UNL A   1      40.771  35.637  35.892  1.00  0.00    -0.203 F 
ATOM     80  F   UNL A   1      37.798  33.806  40.084  1.00  0.00    -0.200 F 
ATOM     81  C   UNL A   1      39.148  35.491  39.128  1.00  0.00     0.200 A 
ATOM     82  F   UNL A   1      40.491  37.152  38.120  1.00  0.00    -0.200 F 
ATOM     83  F   UNL A   1      38.987  36.258  40.215  1.00  0.00    -0.200 F 
ENDBRANCH  49  73
BRANCH  61  84
ATOM     84  C   UNL A   1      43.918  28.844  35.029  1.00  0.00     0.064 A 
ATOM     85  C   UNL A   1      43.798  27.725  35.866  1.00  0.00     0.173 A 
ATOM     86  C   UNL A   1      45.201  29.370  34.813  1.00  0.00     0.173 A 
ATOM     87  F   UNL A   1      42.591  27.195  36.114  1.00  0.00    -0.203 F 
ATOM     88  C   UNL A   1      44.916  27.169  36.480  1.00  0.00     0.198 A 
ATOM     89  C   UNL A   1      46.321  28.792  35.404  1.00  0.00     0.198 A 
ATOM     90  F   UNL A   1      45.371  30.435  34.014  1.00  0.00    -0.203 F 
ATOM     91  F   UNL A   1      44.773  26.128  37.312  1.00  0.00    -0.200 F 
ATOM     92  C   UNL A   1      46.177  27.698  36.243  1.00  0.00     0.200 A 
ATOM     93  F   UNL A   1      47.539  29.295  35.160  1.00  0.00    -0.200 F 
ATOM     94  F   UNL A   1      47.254  27.155  36.827  1.00  0.00    -0.200 F 
ENDBRANCH  61  84
ENDBRANCH  35  36
ENDBRANCH  27  30
ENDBRANCH  25  26
ENDBRANCH  24  25
ENDBRANCH   1  24
TORSDOF 13
ENDMDL
MODEL 2
REMARK VINA RESULT:     -13.1      0.141      1.955
REMARK SMILES C[C@]1(C(=O)NCCCCNC(=O)c2ccc(-c3c4nc(c(-c5c(F)c(F)c(F)c(F)c5F)c5ccc([nH]5)c(-c5c(F)c(F)c(F)c(F)c5F)c5nc(c(-c6c(F)c(F)c(F)c(F)c6F)c6ccc3[nH]6)C=C5)C=C4)cc2)COC[C@H]1Nc1ccc2nnnn2n1
REMARK SMILES IDX 7 1 6 2 5 3 3 4 4 5 2 7 1 8 76 9 79 10 77 11 78 12 80 13
REMARK SMILES IDX 81 15 82 16 89 17 83 18 88 19 84 20 87 21 85 22 86 23 8 24
REMARK SMILES IDX 9 25 10 26 11 27 12 29 13 30 14 31 75 32 15 33 74 34 16 35
REMARK SMILES IDX 17 36 18 37 68 38 19 39 73 40 67 41 69 42 20 43 72 44 66 45
REMARK SMILES IDX 65 46 21 48 53 49 33 50 52 51 34 52 37 53 51 54 70 55 35 56
REMARK SMILES IDX 36 57 50 59 71 60 38 61 22 62 23 63 31 64 24 65 25 66 29 67
REMARK SMILES IDX 32 68 26 69 27 70 30 71 28 72 54 73 55 74 63 75 56 76 57 77
REMARK SMILES IDX 61 78 64 79 58 80 59 81 62 82 60 83 39 84 40 85 48 86 41 87
REMARK SMILES IDX 42 88 46 89 49 90 43 91 44 92 47 93 45 94
REMARK H PARENT 5 6 80 14 10 28 69 47 37 58
REMARK Flexibility Score: inf
ROOT
ATOM      1  C   UNL A   1      31.759  30.730  26.102  1.00  0.00     0.023 C 
ENDROOT
BRANCH   1   2
ATOM      2  C   UNL A   1      32.492  29.713  26.963  1.00  0.00     0.116 C 
BRANCH   2   3
ATOM      3  N   UNL A   1      31.682  28.529  27.198  1.00  0.00    -0.355 N 
ATOM      4  C   UNL A   1      31.591  27.316  26.598  1.00  0.00     0.230 C 
ATOM      5  O   UNL A   1      30.651  26.616  26.991  1.00  0.00    -0.274 OA
ATOM      6  H   UNL A   1      31.064  28.630  27.958  1.00  0.00     0.163 HD
BRANCH   4   7
ATOM      7  C   UNL A   1      32.506  26.826  25.471  1.00  0.00     0.092 C 
ATOM      8  C   UNL A   1      33.642  27.805  25.105  1.00  0.00     0.026 C 
ATOM      9  C   UNL A   1      33.192  25.533  25.960  1.00  0.00     0.179 C 
ATOM     10  C   UNL A   1      31.823  26.336  24.178  1.00  0.00     0.124 C 
ATOM     11  O   UNL A   1      33.505  24.779  24.784  1.00  0.00    -0.378 OA
ATOM     12  C   UNL A   1      32.374  24.931  23.927  1.00  0.00     0.186 C 
BRANCH  10  13
ATOM     13  N   UNL A   1      30.350  26.356  24.073  1.00  0.00    -0.362 N 
ATOM     14  H   UNL A   1      29.789  25.714  24.566  1.00  0.00     0.162 HD
BRANCH  13  15
ATOM     15  C   UNL A   1      29.796  27.317  23.253  1.00  0.00     0.149 A 
ATOM     16  C   UNL A   1      30.707  28.185  22.435  1.00  0.00     0.053 A 
ATOM     17  N   UNL A   1      28.518  27.547  23.359  1.00  0.00    -0.129 NA
ATOM     18  C   UNL A   1      30.389  29.483  22.354  1.00  0.00     0.057 A 
ATOM     19  N   UNL A   1      28.218  28.847  23.063  1.00  0.00    -0.108 N 
ATOM     20  C   UNL A   1      29.110  29.866  22.790  1.00  0.00     0.200 A 
ATOM     21  N   UNL A   1      27.022  29.389  23.342  1.00  0.00    -0.022 NA
ATOM     22  N   UNL A   1      28.509  31.017  22.981  1.00  0.00    -0.107 NA
ATOM     23  N   UNL A   1      27.212  30.702  23.321  1.00  0.00    -0.022 NA
ENDBRANCH  13  15
ENDBRANCH  10  13
ENDBRANCH   4   7
ENDBRANCH   2   3
ENDBRANCH   1   2
BRANCH   1  24
ATOM     24  C   UNL A   1      31.447  32.020  26.862  1.00  0.00     0.023 C 
BRANCH  24  25
ATOM     25  C   UNL A   1      32.674  32.798  27.294  1.00  0.00     0.116 C 
BRANCH  25  26
ATOM     26  N   UNL A   1      32.377  34.186  27.618  1.00  0.00    -0.352 N 
ATOM     27  C   UNL A   1      32.969  35.016  28.544  1.00  0.00     0.251 C 
ATOM     28  H   UNL A   1      31.646  34.591  27.099  1.00  0.00     0.163 HD
ATOM     29  O   UNL A   1      32.532  36.130  28.751  1.00  0.00    -0.269 OA
BRANCH  27  30
ATOM     30  C   UNL A   1      34.132  34.518  29.310  1.00  0.00     0.039 A 
ATOM     31  C   UNL A   1      33.911  33.918  30.553  1.00  0.00     0.014 A 
ATOM     32  C   UNL A   1      35.423  34.611  28.790  1.00  0.00     0.014 A 
ATOM     33  C   UNL A   1      34.983  33.352  31.243  1.00  0.00     0.010 A 
ATOM     34  C   UNL A   1      36.467  33.953  29.423  1.00  0.00     0.010 A 
ATOM     35  C   UNL A   1      36.263  33.333  30.664  1.00  0.00    -0.014 A 
BRANCH  35  36
ATOM     36  C   UNL A   1      37.417  32.702  31.347  1.00  0.00     0.031 A 
ATOM     37  C   UNL A   1      38.146  31.571  30.675  1.00  0.00     0.074 A 
ATOM     38  C   UNL A   1      37.753  33.086  32.593  1.00  0.00     0.049 A 
ATOM     39  N   UNL A   1      39.101  30.806  31.139  1.00  0.00    -0.248 NA
ATOM     40  C   UNL A   1      37.712  31.224  29.310  1.00  0.00     0.031 C 
ATOM     41  C   UNL A   1      37.083  34.132  33.367  1.00  0.00     0.029 A 
ATOM     42  N   UNL A   1      38.737  32.630  33.433  1.00  0.00    -0.354 N 
ATOM     43  C   UNL A   1      39.357  29.878  30.138  1.00  0.00     0.074 A 
ATOM     44  C   UNL A   1      38.418  30.130  29.070  1.00  0.00     0.031 C 
ATOM     45  C   UNL A   1      37.692  34.257  34.557  1.00  0.00     0.029 A 
ATOM     46  C   UNL A   1      38.767  33.274  34.646  1.00  0.00     0.049 A 
ATOM     47  H   UNL A   1      39.363  31.910  33.190  1.00  0.00     0.167 HD
ATOM     48  C   UNL A   1      40.312  28.919  30.102  1.00  0.00     0.037 A 
ATOM     49  C   UNL A   1      39.570  33.085  35.710  1.00  0.00     0.037 A 
ATOM     50  C   UNL A   1      41.274  28.706  31.150  1.00  0.00     0.049 A 
ATOM     51  C   UNL A   1      40.637  32.025  35.637  1.00  0.00     0.074 A 
ATOM     52  C   UNL A   1      42.329  27.813  31.185  1.00  0.00     0.029 A 
ATOM     53  N   UNL A   1      41.297  29.405  32.349  1.00  0.00    -0.354 N 
ATOM     54  N   UNL A   1      40.916  31.198  34.659  1.00  0.00    -0.248 NA
ATOM     55  C   UNL A   1      41.505  31.880  36.813  1.00  0.00     0.031 C 
ATOM     56  C   UNL A   1      42.965  27.940  32.425  1.00  0.00     0.029 A 
ATOM     57  C   UNL A   1      42.338  28.948  33.140  1.00  0.00     0.049 A 
ATOM     58  H   UNL A   1      40.667  30.118  32.600  1.00  0.00     0.167 HD
ATOM     59  C   UNL A   1      42.006  30.453  35.088  1.00  0.00     0.074 A 
ATOM     60  C   UNL A   1      42.348  30.940  36.409  1.00  0.00     0.031 C 
ATOM     61  C   UNL A   1      42.666  29.457  34.448  1.00  0.00     0.037 A 
BRANCH  48  62
ATOM     62  C   UNL A   1      40.369  28.041  28.885  1.00  0.00     0.064 A 
ATOM     63  C   UNL A   1      39.680  26.820  28.823  1.00  0.00     0.173 A 
ATOM     64  C   UNL A   1      41.104  28.435  27.758  1.00  0.00     0.173 A 
ATOM     65  F   UNL A   1      38.972  26.390  29.879  1.00  0.00    -0.203 F 
ATOM     66  C   UNL A   1      39.753  26.010  27.693  1.00  0.00     0.198 A 
ATOM     67  C   UNL A   1      41.148  27.639  26.615  1.00  0.00     0.198 A 
ATOM     68  F   UNL A   1      41.781  29.594  27.760  1.00  0.00    -0.203 F 
ATOM     69  F   UNL A   1      39.134  24.822  27.680  1.00  0.00    -0.200 F 
ATOM     70  C   UNL A   1      40.480  26.424  26.587  1.00  0.00     0.200 A 
ATOM     71  F   UNL A   1      41.842  28.045  25.543  1.00  0.00    -0.200 F 
ATOM     72  F   UNL A   1      40.546  25.646  25.498  1.00  0.00    -0.200 F 
ENDBRANCH  48  62
BRANCH  49  73
ATOM     73  C   UNL A   1      39.417  33.937  36.918  1.00  0.00     0.064 A 
ATOM     74  C   UNL A   1      39.991  35.215  36.973  1.00  0.00     0.173 A 
ATOM     75  C   UNL A   1      38.701  33.496  38.040  1.00  0.00     0.173 A 
ATOM     76  F   UNL A   1      40.703  35.673  35.932  1.00  0.00    -0.203 F 
ATOM     77  C   UNL A   1      39.874  36.010  38.110  1.00  0.00     0.198 A 
ATOM     78  C   UNL A   1      38.559  34.303  39.167  1.00  0.00     0.198 A 
ATOM     79  F   UNL A   1      38.128  32.283  38.038  1.00  0.00    -0.203 F 
ATOM     80  F   UNL A   1      40.473  37.208  38.153  1.00  0.00    -0.200 F 
ATOM     81  C   UNL A   1      39.153  35.557  39.205  1.00  0.00     0.200 A 
ATOM     82  F   UNL A   1      37.851  33.867  40.218  1.00  0.00    -0.200 F 
ATOM     83  F   UNL A   1      39.038  36.323  40.298  1.00  0.00    -0.200 F 
ENDBRANCH  49  73
BRANCH  61  84
ATOM     84  C   UNL A   1      43.845  28.852  35.150  1.00  0.00     0.064 A 
ATOM     85  C   UNL A   1      45.144  29.348  34.971  1.00  0.00     0.173 A 
ATOM     86  C   UNL A   1      43.663  27.793  36.054  1.00  0.00     0.173 A 
ATOM     87  F   UNL A   1      45.370  30.350  34.107  1.00  0.00    -0.203 F 
ATOM     88  C   UNL A   1      46.222  28.790  35.651  1.00  0.00     0.198 A 
ATOM     89  C   UNL A   1      44.739  27.259  36.757  1.00  0.00     0.198 A 
ATOM     90  F   UNL A   1      42.438  27.289  36.268  1.00  0.00    -0.203 F 
ATOM     91  F   UNL A   1      47.461  29.250  35.430  1.00  0.00    -0.200 F 
ATOM     92  C   UNL A   1      46.018  27.753  36.549  1.00  0.00     0.200 A 
ATOM     93  F   UNL A   1      44.537  26.268  37.636  1.00  0.00    -0.200 F 
ATOM     94  F   UNL A   1      47.056  27.224  37.212  1.00  0.00    -0.200 F 
ENDBRANCH  61  84
ENDBRANCH  35  36
ENDBRANCH  27  30
ENDBRANCH  25  26
ENDBRANCH  24  25
ENDBRANCH   1  24
TORSDOF 13
ENDMDL
MODEL 3
REMARK VINA RESULT:     -13.0      4.341     10.483
REMARK SMILES C[C@]1(C(=O)NCCCCNC(=O)c2ccc(-c3c4nc(c(-c5c(F)c(F)c(F)c(F)c5F)c5ccc([nH]5)c(-c5c(F)c(F)c(F)c(F)c5F)c5nc(c(-c6c(F)c(F)c(F)c(F)c6F)c6ccc3[nH]6)C=C5)C=C4)cc2)COC[C@H]1Nc1ccc2nnnn2n1
REMARK SMILES IDX 7 1 6 2 5 3 3 4 4 5 2 7 1 8 76 9 79 10 77 11 78 12 80 13
REMARK SMILES IDX 81 15 82 16 89 17 83 18 88 19 84 20 87 21 85 22 86 23 8 24
REMARK SMILES IDX 9 25 10 26 11 27 12 29 13 30 14 31 75 32 15 33 74 34 16 35
REMARK SMILES IDX 17 36 18 37 68 38 19 39 73 40 67 41 69 42 20 43 72 44 66 45
REMARK SMILES IDX 65 46 21 48 53 49 33 50 52 51 34 52 37 53 51 54 70 55 35 56
REMARK SMILES IDX 36 57 50 59 71 60 38 61 22 62 23 63 31 64 24 65 25 66 29 67
REMARK SMILES IDX 32 68 26 69 27 70 30 71 28 72 54 73 55 74 63 75 56 76 57 77
REMARK SMILES IDX 61 78 64 79 58 80 59 81 62 82 60 83 39 84 40 85 48 86 41 87
REMARK SMILES IDX 42 88 46 89 49 90 43 91 44 92 47 93 45 94
REMARK H PARENT 5 6 80 14 10 28 69 47 37 58
REMARK Flexibility Score: inf
ROOT
ATOM      1  C   UNL A   1      36.554  33.875  28.747  1.00  0.00     0.023 C 
ENDROOT
BRANCH   1   2
ATOM      2  C   UNL A   1      37.135  32.979  29.830  1.00  0.00     0.116 C 
BRANCH   2   3
ATOM      3  N   UNL A   1      38.101  33.691  30.651  1.00  0.00    -0.355 N 
ATOM      4  C   UNL A   1      38.404  33.677  31.974  1.00  0.00     0.230 C 
ATOM      5  O   UNL A   1      39.194  34.560  32.329  1.00  0.00    -0.274 OA
ATOM      6  H   UNL A   1      38.655  34.320  30.136  1.00  0.00     0.163 HD
BRANCH   4   7
ATOM      7  C   UNL A   1      37.797  32.718  33.001  1.00  0.00     0.092 C 
ATOM      8  C   UNL A   1      37.238  31.412  32.398  1.00  0.00     0.026 C 
ATOM      9  C   UNL A   1      38.925  32.299  33.968  1.00  0.00     0.179 C 
ATOM     10  C   UNL A   1      36.761  33.306  33.982  1.00  0.00     0.124 C 
ATOM     11  O   UNL A   1      38.285  31.963  35.204  1.00  0.00    -0.378 OA
ATOM     12  C   UNL A   1      37.266  32.946  35.380  1.00  0.00     0.186 C 
BRANCH  10  13
ATOM     13  N   UNL A   1      36.400  34.736  33.897  1.00  0.00    -0.362 N 
ATOM     14  H   UNL A   1      37.029  35.443  34.169  1.00  0.00     0.162 HD
BRANCH  13  15
ATOM     15  C   UNL A   1      35.140  35.034  33.419  1.00  0.00     0.149 A 
ATOM     16  C   UNL A   1      34.537  34.152  32.365  1.00  0.00     0.053 A 
ATOM     17  N   UNL A   1      34.605  36.167  33.775  1.00  0.00    -0.129 NA
ATOM     18  C   UNL A   1      33.875  34.763  31.376  1.00  0.00     0.057 A 
ATOM     19  N   UNL A   1      33.771  36.651  32.807  1.00  0.00    -0.108 N 
ATOM     20  C   UNL A   1      33.560  36.122  31.548  1.00  0.00     0.200 A 
ATOM     21  N   UNL A   1      33.303  37.909  32.826  1.00  0.00    -0.022 NA
ATOM     22  N   UNL A   1      33.055  37.055  30.776  1.00  0.00    -0.107 NA
ATOM     23  N   UNL A   1      32.900  38.158  31.586  1.00  0.00    -0.022 NA
ENDBRANCH  13  15
ENDBRANCH  10  13
ENDBRANCH   4   7
ENDBRANCH   2   3
ENDBRANCH   1   2
BRANCH   1  24
ATOM     24  C   UNL A   1      35.264  33.308  28.152  1.00  0.00     0.023 C 
BRANCH  24  25
ATOM     25  C   UNL A   1      34.585  32.269  29.022  1.00  0.00     0.116 C 
BRANCH  25  26
ATOM     26  N   UNL A   1      34.061  31.147  28.256  1.00  0.00    -0.352 N 
ATOM     27  C   UNL A   1      34.700  30.008  27.821  1.00  0.00     0.251 C 
ATOM     28  H   UNL A   1      33.110  31.213  28.012  1.00  0.00     0.163 HD
ATOM     29  O   UNL A   1      34.130  29.207  27.106  1.00  0.00    -0.269 OA
BRANCH  27  30
ATOM     30  C   UNL A   1      36.109  29.784  28.213  1.00  0.00     0.039 A 
ATOM     31  C   UNL A   1      36.378  29.231  29.468  1.00  0.00     0.014 A 
ATOM     32  C   UNL A   1      37.151  30.082  27.335  1.00  0.00     0.014 A 
ATOM     33  C   UNL A   1      37.693  28.918  29.813  1.00  0.00     0.010 A 
ATOM     34  C   UNL A   1      38.441  29.671  27.635  1.00  0.00     0.010 A 
ATOM     35  C   UNL A   1      38.729  29.101  28.883  1.00  0.00    -0.014 A 
BRANCH  35  36
ATOM     36  C   UNL A   1      40.131  28.740  29.198  1.00  0.00     0.031 A 
ATOM     37  C   UNL A   1      40.989  29.706  29.968  1.00  0.00     0.074 A 
ATOM     38  C   UNL A   1      40.652  27.592  28.723  1.00  0.00     0.049 A 
ATOM     39  N   UNL A   1      42.265  29.642  30.249  1.00  0.00    -0.248 NA
ATOM     40  C   UNL A   1      40.331  30.932  30.452  1.00  0.00     0.031 C 
ATOM     41  C   UNL A   1      39.934  26.605  27.916  1.00  0.00     0.029 A 
ATOM     42  N   UNL A   1      41.915  27.069  28.842  1.00  0.00    -0.354 N 
ATOM     43  C   UNL A   1      42.563  30.825  30.912  1.00  0.00     0.074 A 
ATOM     44  C   UNL A   1      41.355  31.618  30.935  1.00  0.00     0.031 C 
ATOM     45  C   UNL A   1      40.758  25.583  27.635  1.00  0.00     0.029 A 
ATOM     46  C   UNL A   1      42.072  25.862  28.206  1.00  0.00     0.049 A 
ATOM     47  H   UNL A   1      42.640  27.516  29.335  1.00  0.00     0.167 HD
ATOM     48  C   UNL A   1      43.733  31.205  31.477  1.00  0.00     0.037 A 
ATOM     49  C   UNL A   1      43.158  25.075  28.094  1.00  0.00     0.037 A 
ATOM     50  C   UNL A   1      44.918  30.389  31.489  1.00  0.00     0.049 A 
ATOM     51  C   UNL A   1      44.443  25.509  28.748  1.00  0.00     0.074 A 
ATOM     52  C   UNL A   1      46.134  30.643  32.096  1.00  0.00     0.029 A 
ATOM     53  N   UNL A   1      45.027  29.153  30.868  1.00  0.00    -0.354 N 
ATOM     54  N   UNL A   1      44.696  26.599  29.432  1.00  0.00    -0.248 NA
ATOM     55  C   UNL A   1      45.590  24.600  28.621  1.00  0.00     0.031 C 
ATOM     56  C   UNL A   1      46.996  29.580  31.803  1.00  0.00     0.029 A 
ATOM     57  C   UNL A   1      46.299  28.640  31.060  1.00  0.00     0.049 A 
ATOM     58  H   UNL A   1      44.308  28.708  30.364  1.00  0.00     0.167 HD
ATOM     59  C   UNL A   1      46.018  26.495  29.839  1.00  0.00     0.074 A 
ATOM     60  C   UNL A   1      46.510  25.227  29.340  1.00  0.00     0.031 C 
ATOM     61  C   UNL A   1      46.761  27.369  30.562  1.00  0.00     0.037 A 
BRANCH  48  62
ATOM     62  C   UNL A   1      43.781  32.552  32.138  1.00  0.00     0.064 A 
ATOM     63  C   UNL A   1      43.463  32.721  33.494  1.00  0.00     0.173 A 
ATOM     64  C   UNL A   1      44.172  33.686  31.412  1.00  0.00     0.173 A 
ATOM     65  F   UNL A   1      43.070  31.671  34.232  1.00  0.00    -0.203 F 
ATOM     66  C   UNL A   1      43.499  33.979  34.090  1.00  0.00     0.198 A 
ATOM     67  C   UNL A   1      44.241  34.939  32.019  1.00  0.00     0.198 A 
ATOM     68  F   UNL A   1      44.490  33.584  30.113  1.00  0.00    -0.203 F 
ATOM     69  F   UNL A   1      43.135  34.123  35.371  1.00  0.00    -0.200 F 
ATOM     70  C   UNL A   1      43.896  35.085  33.354  1.00  0.00     0.200 A 
ATOM     71  F   UNL A   1      44.636  36.005  31.309  1.00  0.00    -0.200 F 
ATOM     72  F   UNL A   1      43.936  36.295  33.929  1.00  0.00    -0.200 F 
ENDBRANCH  48  62
BRANCH  49  73
ATOM     73  C   UNL A   1      43.069  23.784  27.362  1.00  0.00     0.064 A 
ATOM     74  C   UNL A   1      43.488  23.685  26.028  1.00  0.00     0.173 A 
ATOM     75  C   UNL A   1      42.565  22.627  27.974  1.00  0.00     0.173 A 
ATOM     76  F   UNL A   1      43.959  24.769  25.393  1.00  0.00    -0.203 F 
ATOM     77  C   UNL A   1      43.385  22.486  25.326  1.00  0.00     0.198 A 
ATOM     78  C   UNL A   1      42.489  21.420  27.281  1.00  0.00     0.198 A 
ATOM     79  F   UNL A   1      42.155  22.666  29.250  1.00  0.00    -0.203 F 
ATOM     80  F   UNL A   1      43.748  22.433  24.038  1.00  0.00    -0.200 F 
ATOM     81  C   UNL A   1      42.892  21.353  25.955  1.00  0.00     0.200 A 
ATOM     82  F   UNL A   1      42.023  20.324  27.895  1.00  0.00    -0.200 F 
ATOM     83  F   UNL A   1      42.795  20.199  25.281  1.00  0.00    -0.200 F 
ENDBRANCH  49  73
BRANCH  61  84
ATOM     84  C   UNL A   1      48.170  26.969  30.888  1.00  0.00     0.064 A 
ATOM     85  C   UNL A   1      48.468  26.143  31.980  1.00  0.00     0.173 A 
ATOM     86  C   UNL A   1      49.229  27.379  30.063  1.00  0.00     0.173 A 
ATOM     87  F   UNL A   1      47.490  25.737  32.806  1.00  0.00    -0.203 F 
ATOM     88  C   UNL A   1      49.778  25.761  32.251  1.00  0.00     0.198 A 
ATOM     89  C   UNL A   1      50.535  26.969  30.318  1.00  0.00     0.198 A 
ATOM     90  F   UNL A   1      48.996  28.163  28.999  1.00  0.00    -0.203 F 
ATOM     91  F   UNL A   1      50.045  25.008  33.327  1.00  0.00    -0.200 F 
ATOM     92  C   UNL A   1      50.809  26.167  31.416  1.00  0.00     0.200 A 
ATOM     93  F   UNL A   1      51.526  27.349  29.501  1.00  0.00    -0.200 F 
ATOM     94  F   UNL A   1      52.069  25.789  31.672  1.00  0.00    -0.200 F 
ENDBRANCH  61  84
ENDBRANCH  35  36
ENDBRANCH  27  30
ENDBRANCH  25  26
ENDBRANCH  24  25
ENDBRANCH   1  24
TORSDOF 13
ENDMDL
