MODEL 1
REMARK VINA RESULT:     -11.4      0.000      0.000
REMARK SMILES C=CCN(CC(=O)NCCCCNC(=O)c1ccc(-c2c3nc(c(-c4c(F)c(F)c(F)c(F)c4F)c4ccc([nH]4)c(-c4c(F)c(F)c(F)c(F)c4F)c4nc(c(-c5c(F)c(F)c(F)c(F)c5F)c5ccc2[nH]5)C=C4)C=C3)cc1)C(=O)c1ccc(N(C)C)nc1
REMARK SMILES IDX 9 1 8 2 6 3 7 4 5 6 4 7 3 8 2 9 1 10 79 11 80 12 81 13 82 14
REMARK SMILES IDX 89 15 83 16 88 17 84 18 85 19 86 20 87 21 10 22 11 23 12 24
REMARK SMILES IDX 13 25 14 26 15 28 16 29 17 30 78 31 18 32 77 33 19 34 20 35
REMARK SMILES IDX 21 36 71 37 22 38 76 39 70 40 72 41 23 42 75 43 69 44 68 45
REMARK SMILES IDX 24 47 56 48 36 49 55 50 37 51 40 52 54 53 73 54 38 55 39 56
REMARK SMILES IDX 53 58 74 59 41 60 25 61 26 62 34 63 27 64 28 65 32 66 35 67
REMARK SMILES IDX 29 68 30 69 33 70 31 71 57 72 58 73 66 74 59 75 60 76 64 77
REMARK SMILES IDX 67 78 61 79 62 80 65 81 63 82 42 83 43 84 51 85 44 86 45 87
REMARK SMILES IDX 49 88 52 89 46 90 47 91 50 92 48 93
REMARK H PARENT 8 5 13 27 72 46 40 57
REMARK Flexibility Score: inf
ROOT
ATOM      1  C   UNL A   1      31.707  30.009  25.224  1.00  0.00     0.116 C 
ENDROOT
BRANCH   1   2
ATOM      2  N   UNL A   1      32.948  29.573  24.625  1.00  0.00    -0.355 N 
ATOM      3  C   UNL A   1      33.183  28.938  23.442  1.00  0.00     0.239 C 
ATOM      4  O   UNL A   1      34.346  28.976  23.027  1.00  0.00    -0.273 OA
ATOM      5  H   UNL A   1      33.753  29.768  25.157  1.00  0.00     0.163 HD
BRANCH   3   6
ATOM      6  C   UNL A   1      32.071  28.310  22.575  1.00  0.00     0.220 C 
BRANCH   6   7
ATOM      7  N   UNL A   1      31.902  26.851  22.628  1.00  0.00    -0.326 N 
BRANCH   7   8
ATOM      8  C   UNL A   1      30.657  26.326  23.183  1.00  0.00     0.147 C 
BRANCH   8   9
ATOM      9  C   UNL A   1      30.519  26.670  24.633  1.00  0.00    -0.014 C 
ATOM     10  C   UNL A   1      30.969  25.875  25.614  1.00  0.00     0.006 C 
ENDBRANCH   8   9
ENDBRANCH   7   8
BRANCH   7  11
ATOM     11  C   UNL A   1      32.818  25.932  22.100  1.00  0.00     0.256 C 
ATOM     12  O   UNL A   1      33.366  26.075  21.010  1.00  0.00    -0.269 OA
BRANCH  11  13
ATOM     13  C   UNL A   1      33.183  24.725  22.861  1.00  0.00     0.058 A 
ATOM     14  C   UNL A   1      32.681  23.468  22.566  1.00  0.00     0.019 A 
ATOM     15  C   UNL A   1      34.156  24.808  23.838  1.00  0.00     0.127 A 
ATOM     16  C   UNL A   1      33.108  22.371  23.319  1.00  0.00     0.048 A 
ATOM     17  N   UNL A   1      34.597  23.743  24.558  1.00  0.00    -0.239 NA
ATOM     18  C   UNL A   1      34.077  22.517  24.315  1.00  0.00     0.127 A 
BRANCH  18  19
ATOM     19  N   UNL A   1      34.534  21.441  25.051  1.00  0.00    -0.363 N 
ATOM     20  C   UNL A   1      34.052  20.102  24.753  1.00  0.00     0.144 C 
ATOM     21  C   UNL A   1      35.462  21.592  26.156  1.00  0.00     0.144 C 
ENDBRANCH  18  19
ENDBRANCH  11  13
ENDBRANCH   7  11
ENDBRANCH   6   7
ENDBRANCH   3   6
ENDBRANCH   1   2
BRANCH   1  22
ATOM     22  C   UNL A   1      31.863  30.541  26.648  1.00  0.00     0.023 C 
BRANCH  22  23
ATOM     23  C   UNL A   1      31.576  32.031  26.832  1.00  0.00     0.023 C 
BRANCH  23  24
ATOM     24  C   UNL A   1      32.768  32.894  27.220  1.00  0.00     0.116 C 
BRANCH  24  25
ATOM     25  N   UNL A   1      32.409  34.243  27.628  1.00  0.00    -0.352 N 
ATOM     26  C   UNL A   1      32.978  35.036  28.595  1.00  0.00     0.251 C 
ATOM     27  H   UNL A   1      31.650  34.643  27.144  1.00  0.00     0.163 HD
ATOM     28  O   UNL A   1      32.488  36.129  28.862  1.00  0.00    -0.269 OA
BRANCH  26  29
ATOM     29  C   UNL A   1      34.157  34.554  29.346  1.00  0.00     0.039 A 
ATOM     30  C   UNL A   1      33.958  33.967  30.599  1.00  0.00     0.014 A 
ATOM     31  C   UNL A   1      35.445  34.658  28.818  1.00  0.00     0.014 A 
ATOM     32  C   UNL A   1      35.042  33.416  31.287  1.00  0.00     0.010 A 
ATOM     33  C   UNL A   1      36.513  34.045  29.469  1.00  0.00     0.010 A 
ATOM     34  C   UNL A   1      36.322  33.414  30.708  1.00  0.00    -0.014 A 
BRANCH  34  35
ATOM     35  C   UNL A   1      37.468  32.746  31.376  1.00  0.00     0.031 A 
ATOM     36  C   UNL A   1      38.156  31.583  30.717  1.00  0.00     0.074 A 
ATOM     37  C   UNL A   1      37.845  33.143  32.607  1.00  0.00     0.049 A 
ATOM     38  N   UNL A   1      39.121  30.825  31.173  1.00  0.00    -0.248 NA
ATOM     39  C   UNL A   1      37.677  31.205  29.379  1.00  0.00     0.031 C 
ATOM     40  C   UNL A   1      37.226  34.226  33.373  1.00  0.00     0.029 A 
ATOM     41  N   UNL A   1      38.832  32.672  33.437  1.00  0.00    -0.354 N 
ATOM     42  C   UNL A   1      39.353  29.875  30.188  1.00  0.00     0.074 A 
ATOM     43  C   UNL A   1      38.395  30.118  29.132  1.00  0.00     0.031 C 
ATOM     44  C   UNL A   1      37.858  34.350  34.551  1.00  0.00     0.029 A 
ATOM     45  C   UNL A   1      38.902  33.333  34.640  1.00  0.00     0.049 A 
ATOM     46  H   UNL A   1      39.433  31.932  33.195  1.00  0.00     0.167 HD
ATOM     47  C   UNL A   1      40.295  28.903  30.157  1.00  0.00     0.037 A 
ATOM     48  C   UNL A   1      39.711  33.135  35.699  1.00  0.00     0.037 A 
ATOM     49  C   UNL A   1      41.266  28.681  31.196  1.00  0.00     0.049 A 
ATOM     50  C   UNL A   1      40.748  32.046  35.638  1.00  0.00     0.074 A 
ATOM     51  C   UNL A   1      42.301  27.762  31.229  1.00  0.00     0.029 A 
ATOM     52  N   UNL A   1      41.321  29.386  32.390  1.00  0.00    -0.354 N 
ATOM     53  N   UNL A   1      41.003  31.199  34.671  1.00  0.00    -0.248 NA
ATOM     54  C   UNL A   1      41.613  31.890  36.815  1.00  0.00     0.031 C 
ATOM     55  C   UNL A   1      42.953  27.879  32.460  1.00  0.00     0.029 A 
ATOM     56  C   UNL A   1      42.357  28.906  33.175  1.00  0.00     0.049 A 
ATOM     57  H   UNL A   1      40.712  30.117  32.642  1.00  0.00     0.167 HD
ATOM     58  C   UNL A   1      42.075  30.433  35.108  1.00  0.00     0.074 A 
ATOM     59  C   UNL A   1      42.432  30.925  36.422  1.00  0.00     0.031 C 
ATOM     60  C   UNL A   1      42.707  29.413  34.477  1.00  0.00     0.037 A 
BRANCH  47  61
ATOM     61  C   UNL A   1      40.330  28.005  28.955  1.00  0.00     0.064 A 
ATOM     62  C   UNL A   1      41.094  28.323  27.820  1.00  0.00     0.173 A 
ATOM     63  C   UNL A   1      39.626  26.791  28.952  1.00  0.00     0.173 A 
ATOM     64  F   UNL A   1      41.776  29.477  27.768  1.00  0.00    -0.203 F 
ATOM     65  C   UNL A   1      41.131  27.471  26.720  1.00  0.00     0.198 A 
ATOM     66  C   UNL A   1      39.692  25.927  27.860  1.00  0.00     0.198 A 
ATOM     67  F   UNL A   1      38.885  26.437  30.011  1.00  0.00    -0.203 F 
ATOM     68  F   UNL A   1      41.831  27.819  25.631  1.00  0.00    -0.200 F 
ATOM     69  C   UNL A   1      40.437  26.271  26.744  1.00  0.00     0.200 A 
ATOM     70  F   UNL A   1      39.030  24.762  27.890  1.00  0.00    -0.200 F 
ATOM     71  F   UNL A   1      40.483  25.448  25.686  1.00  0.00    -0.200 F 
ENDBRANCH  47  61
BRANCH  48  72
ATOM     72  C   UNL A   1      39.588  34.000  36.901  1.00  0.00     0.064 A 
ATOM     73  C   UNL A   1      40.254  35.232  36.972  1.00  0.00     0.173 A 
ATOM     74  C   UNL A   1      38.819  33.610  38.007  1.00  0.00     0.173 A 
ATOM     75  F   UNL A   1      41.020  35.638  35.949  1.00  0.00    -0.203 F 
ATOM     76  C   UNL A   1      40.175  36.030  38.111  1.00  0.00     0.198 A 
ATOM     77  C   UNL A   1      38.715  34.423  39.135  1.00  0.00     0.198 A 
ATOM     78  F   UNL A   1      38.158  32.443  37.989  1.00  0.00    -0.203 F 
ATOM     79  F   UNL A   1      40.862  37.178  38.172  1.00  0.00    -0.200 F 
ATOM     80  C   UNL A   1      39.401  35.627  39.190  1.00  0.00     0.200 A 
ATOM     81  F   UNL A   1      37.957  34.037  40.169  1.00  0.00    -0.200 F 
ATOM     82  F   UNL A   1      39.324  36.394  40.286  1.00  0.00    -0.200 F 
ENDBRANCH  48  72
BRANCH  60  83
ATOM     83  C   UNL A   1      43.874  28.784  35.182  1.00  0.00     0.064 A 
ATOM     84  C   UNL A   1      45.185  29.244  34.993  1.00  0.00     0.173 A 
ATOM     85  C   UNL A   1      43.671  27.733  36.091  1.00  0.00     0.173 A 
ATOM     86  F   UNL A   1      45.433  30.237  34.125  1.00  0.00    -0.203 F 
ATOM     87  C   UNL A   1      46.254  28.657  35.666  1.00  0.00     0.198 A 
ATOM     88  C   UNL A   1      44.737  27.170  36.784  1.00  0.00     0.198 A 
ATOM     89  F   UNL A   1      42.435  27.261  36.313  1.00  0.00    -0.203 F 
ATOM     90  F   UNL A   1      47.503  29.081  35.433  1.00  0.00    -0.200 F 
ATOM     91  C   UNL A   1      46.028  27.627  36.566  1.00  0.00     0.200 A 
ATOM     92  F   UNL A   1      44.516  26.183  37.665  1.00  0.00    -0.200 F 
ATOM     93  F   UNL A   1      47.057  27.068  37.219  1.00  0.00    -0.200 F 
ENDBRANCH  60  83
ENDBRANCH  34  35
ENDBRANCH  26  29
ENDBRANCH  24  25
ENDBRANCH  23  24
ENDBRANCH  22  23
ENDBRANCH   1  22
TORSDOF 17
ENDMDL
MODEL 2
REMARK VINA RESULT:     -11.0      5.530     11.201
REMARK SMILES C=CCN(CC(=O)NCCCCNC(=O)c1ccc(-c2c3nc(c(-c4c(F)c(F)c(F)c(F)c4F)c4ccc([nH]4)c(-c4c(F)c(F)c(F)c(F)c4F)c4nc(c(-c5c(F)c(F)c(F)c(F)c5F)c5ccc2[nH]5)C=C4)C=C3)cc1)C(=O)c1ccc(N(C)C)nc1
REMARK SMILES IDX 9 1 8 2 6 3 7 4 5 6 4 7 3 8 2 9 1 10 79 11 80 12 81 13 82 14
REMARK SMILES IDX 89 15 83 16 88 17 84 18 85 19 86 20 87 21 10 22 11 23 12 24
REMARK SMILES IDX 13 25 14 26 15 28 16 29 17 30 78 31 18 32 77 33 19 34 20 35
REMARK SMILES IDX 21 36 71 37 22 38 76 39 70 40 72 41 23 42 75 43 69 44 68 45
REMARK SMILES IDX 24 47 56 48 36 49 55 50 37 51 40 52 54 53 73 54 38 55 39 56
REMARK SMILES IDX 53 58 74 59 41 60 25 61 26 62 34 63 27 64 28 65 32 66 35 67
REMARK SMILES IDX 29 68 30 69 33 70 31 71 57 72 58 73 66 74 59 75 60 76 64 77
REMARK SMILES IDX 67 78 61 79 62 80 65 81 63 82 42 83 43 84 51 85 44 86 45 87
REMARK SMILES IDX 49 88 52 89 46 90 47 91 50 92 48 93
REMARK H PARENT 8 5 13 27 72 46 40 57
REMARK Flexibility Score: inf
ROOT
ATOM      1  C   UNL A   1      37.113  22.143  25.651  1.00  0.00     0.116 C 
ENDROOT
BRANCH   1   2
ATOM      2  N   UNL A   1      36.407  23.301  25.151  1.00  0.00    -0.355 N 
ATOM      3  C   UNL A   1      35.237  23.868  25.560  1.00  0.00     0.239 C 
ATOM      4  O   UNL A   1      35.032  25.026  25.180  1.00  0.00    -0.273 OA
ATOM      5  H   UNL A   1      36.843  23.754  24.393  1.00  0.00     0.163 HD
BRANCH   3   6
ATOM      6  C   UNL A   1      34.262  23.192  26.547  1.00  0.00     0.220 C 
BRANCH   6   7
ATOM      7  N   UNL A   1      32.860  23.044  26.131  1.00  0.00    -0.326 N 
BRANCH   7   8
ATOM      8  C   UNL A   1      32.517  21.912  25.273  1.00  0.00     0.147 C 
BRANCH   8   9
ATOM      9  C   UNL A   1      33.249  20.674  25.688  1.00  0.00    -0.014 C 
ATOM     10  C   UNL A   1      33.055  19.484  25.100  1.00  0.00     0.006 C 
ENDBRANCH   8   9
ENDBRANCH   7   8
BRANCH   7  11
ATOM     11  C   UNL A   1      31.815  23.864  26.574  1.00  0.00     0.256 C 
ATOM     12  O   UNL A   1      31.071  23.566  27.506  1.00  0.00    -0.269 OA
BRANCH  11  13
ATOM     13  C   UNL A   1      31.566  25.166  25.930  1.00  0.00     0.058 A 
ATOM     14  C   UNL A   1      30.665  25.332  24.892  1.00  0.00     0.019 A 
ATOM     15  C   UNL A   1      32.157  26.302  26.448  1.00  0.00     0.127 A 
ATOM     16  C   UNL A   1      30.465  26.610  24.362  1.00  0.00     0.048 A 
ATOM     17  N   UNL A   1      31.950  27.552  25.957  1.00  0.00    -0.239 NA
ATOM     18  C   UNL A   1      31.112  27.723  24.909  1.00  0.00     0.127 A 
BRANCH  18  19
ATOM     19  N   UNL A   1      30.907  28.998  24.419  1.00  0.00    -0.363 N 
ATOM     20  C   UNL A   1      30.365  29.183  23.083  1.00  0.00     0.144 C 
ATOM     21  C   UNL A   1      31.250  30.187  25.176  1.00  0.00     0.144 C 
ENDBRANCH  18  19
ENDBRANCH  11  13
ENDBRANCH   7  11
ENDBRANCH   6   7
ENDBRANCH   3   6
ENDBRANCH   1   2
BRANCH   1  22
ATOM     22  C   UNL A   1      36.999  20.915  24.750  1.00  0.00     0.023 C 
BRANCH  22  23
ATOM     23  C   UNL A   1      37.971  19.777  25.058  1.00  0.00     0.023 C 
BRANCH  23  24
ATOM     24  C   UNL A   1      39.269  20.179  25.746  1.00  0.00     0.116 C 
BRANCH  24  25
ATOM     25  N   UNL A   1      40.245  19.105  25.833  1.00  0.00    -0.352 N 
ATOM     26  C   UNL A   1      41.587  19.175  26.120  1.00  0.00     0.251 C 
ATOM     27  H   UNL A   1      39.895  18.201  25.661  1.00  0.00     0.163 HD
ATOM     28  O   UNL A   1      42.281  18.164  26.071  1.00  0.00    -0.269 OA
BRANCH  26  29
ATOM     29  C   UNL A   1      42.205  20.478  26.446  1.00  0.00     0.039 A 
ATOM     30  C   UNL A   1      42.726  21.252  25.404  1.00  0.00     0.014 A 
ATOM     31  C   UNL A   1      42.256  20.948  27.760  1.00  0.00     0.014 A 
ATOM     32  C   UNL A   1      43.228  22.527  25.672  1.00  0.00     0.010 A 
ATOM     33  C   UNL A   1      42.689  22.246  28.016  1.00  0.00     0.010 A 
ATOM     34  C   UNL A   1      43.176  23.051  26.974  1.00  0.00    -0.014 A 
BRANCH  34  35
ATOM     35  C   UNL A   1      43.611  24.441  27.263  1.00  0.00     0.031 A 
ATOM     36  C   UNL A   1      42.626  25.451  27.781  1.00  0.00     0.074 A 
ATOM     37  C   UNL A   1      44.878  24.812  26.992  1.00  0.00     0.049 A 
ATOM     38  N   UNL A   1      42.797  26.727  28.021  1.00  0.00    -0.248 NA
ATOM     39  C   UNL A   1      41.261  24.970  28.039  1.00  0.00     0.031 C 
ATOM     40  C   UNL A   1      45.915  23.940  26.440  1.00  0.00     0.029 A 
ATOM     41  N   UNL A   1      45.505  26.026  27.132  1.00  0.00    -0.354 N 
ATOM     42  C   UNL A   1      41.562  27.201  28.442  1.00  0.00     0.074 A 
ATOM     43  C   UNL A   1      40.637  26.090  28.376  1.00  0.00     0.031 C 
ATOM     44  C   UNL A   1      47.054  24.638  26.307  1.00  0.00     0.029 A 
ATOM     45  C   UNL A   1      46.818  26.017  26.727  1.00  0.00     0.049 A 
ATOM     46  H   UNL A   1      45.058  26.826  27.488  1.00  0.00     0.167 HD
ATOM     47  C   UNL A   1      41.233  28.445  28.867  1.00  0.00     0.037 A 
ATOM     48  C   UNL A   1      47.728  27.010  26.691  1.00  0.00     0.037 A 
ATOM     49  C   UNL A   1      42.161  29.542  28.958  1.00  0.00     0.049 A 
ATOM     50  C   UNL A   1      47.335  28.383  27.168  1.00  0.00     0.074 A 
ATOM     51  C   UNL A   1      41.940  30.822  29.435  1.00  0.00     0.029 A 
ATOM     52  N   UNL A   1      43.490  29.488  28.560  1.00  0.00    -0.354 N 
ATOM     53  N   UNL A   1      46.183  28.800  27.630  1.00  0.00    -0.248 NA
ATOM     54  C   UNL A   1      48.375  29.421  27.123  1.00  0.00     0.031 C 
ATOM     55  C   UNL A   1      43.120  31.556  29.284  1.00  0.00     0.029 A 
ATOM     56  C   UNL A   1      44.093  30.719  28.761  1.00  0.00     0.049 A 
ATOM     57  H   UNL A   1      43.936  28.693  28.190  1.00  0.00     0.167 HD
ATOM     58  C   UNL A   1      46.366  30.136  27.959  1.00  0.00     0.074 A 
ATOM     59  C   UNL A   1      47.744  30.456  27.657  1.00  0.00     0.031 C 
ATOM     60  C   UNL A   1      45.470  31.020  28.465  1.00  0.00     0.037 A 
BRANCH  47  61
ATOM     61  C   UNL A   1      39.809  28.688  29.274  1.00  0.00     0.064 A 
ATOM     62  C   UNL A   1      39.372  28.466  30.590  1.00  0.00     0.173 A 
ATOM     63  C   UNL A   1      38.880  29.192  28.351  1.00  0.00     0.173 A 
ATOM     64  F   UNL A   1      40.218  27.974  31.507  1.00  0.00    -0.203 F 
ATOM     65  C   UNL A   1      38.053  28.714  30.958  1.00  0.00     0.198 A 
ATOM     66  C   UNL A   1      37.569  29.468  28.732  1.00  0.00     0.198 A 
ATOM     67  F   UNL A   1      39.247  29.427  27.083  1.00  0.00    -0.203 F 
ATOM     68  F   UNL A   1      37.648  28.449  32.208  1.00  0.00    -0.200 F 
ATOM     69  C   UNL A   1      37.155  29.222  30.032  1.00  0.00     0.200 A 
ATOM     70  F   UNL A   1      36.706  29.971  27.839  1.00  0.00    -0.200 F 
ATOM     71  F   UNL A   1      35.888  29.469  30.392  1.00  0.00    -0.200 F 
ENDBRANCH  47  61
BRANCH  48  72
ATOM     72  C   UNL A   1      49.106  26.740  26.206  1.00  0.00     0.064 A 
ATOM     73  C   UNL A   1      49.456  26.972  24.868  1.00  0.00     0.173 A 
ATOM     74  C   UNL A   1      50.095  26.230  27.059  1.00  0.00     0.173 A 
ATOM     75  F   UNL A   1      48.538  27.439  24.008  1.00  0.00    -0.203 F 
ATOM     76  C   UNL A   1      50.735  26.685  24.396  1.00  0.00     0.198 A 
ATOM     77  C   UNL A   1      51.383  25.970  26.594  1.00  0.00     0.198 A 
ATOM     78  F   UNL A   1      49.813  25.994  28.348  1.00  0.00    -0.203 F 
ATOM     79  F   UNL A   1      51.027  26.869  23.102  1.00  0.00    -0.200 F 
ATOM     80  C   UNL A   1      51.699  26.189  25.261  1.00  0.00     0.200 A 
ATOM     81  F   UNL A   1      52.316  25.504  27.435  1.00  0.00    -0.200 F 
ATOM     82  F   UNL A   1      52.930  25.912  24.809  1.00  0.00    -0.200 F 
ENDBRANCH  48  72
BRANCH  60  83
ATOM     83  C   UNL A   1      45.963  32.407  28.761  1.00  0.00     0.064 A 
ATOM     84  C   UNL A   1      45.877  33.437  27.814  1.00  0.00     0.173 A 
ATOM     85  C   UNL A   1      46.491  32.716  30.024  1.00  0.00     0.173 A 
ATOM     86  F   UNL A   1      45.393  33.189  26.588  1.00  0.00    -0.203 F 
ATOM     87  C   UNL A   1      46.327  34.722  28.112  1.00  0.00     0.198 A 
ATOM     88  C   UNL A   1      46.911  34.008  30.328  1.00  0.00     0.198 A 
ATOM     89  F   UNL A   1      46.588  31.768  30.968  1.00  0.00    -0.203 F 
ATOM     90  F   UNL A   1      46.280  35.679  27.175  1.00  0.00    -0.200 F 
ATOM     91  C   UNL A   1      46.836  35.008  29.370  1.00  0.00     0.200 A 
ATOM     92  F   UNL A   1      47.390  34.285  31.549  1.00  0.00    -0.200 F 
ATOM     93  F   UNL A   1      47.262  36.245  29.656  1.00  0.00    -0.200 F 
ENDBRANCH  60  83
ENDBRANCH  34  35
ENDBRANCH  26  29
ENDBRANCH  24  25
ENDBRANCH  23  24
ENDBRANCH  22  23
ENDBRANCH   1  22
TORSDOF 17
ENDMDL
MODEL 3
REMARK VINA RESULT:     -11.0      0.982      7.433
REMARK SMILES C=CCN(CC(=O)NCCCCNC(=O)c1ccc(-c2c3nc(c(-c4c(F)c(F)c(F)c(F)c4F)c4ccc([nH]4)c(-c4c(F)c(F)c(F)c(F)c4F)c4nc(c(-c5c(F)c(F)c(F)c(F)c5F)c5ccc2[nH]5)C=C4)C=C3)cc1)C(=O)c1ccc(N(C)C)nc1
REMARK SMILES IDX 9 1 8 2 6 3 7 4 5 6 4 7 3 8 2 9 1 10 79 11 80 12 81 13 82 14
REMARK SMILES IDX 89 15 83 16 88 17 84 18 85 19 86 20 87 21 10 22 11 23 12 24
REMARK SMILES IDX 13 25 14 26 15 28 16 29 17 30 78 31 18 32 77 33 19 34 20 35
REMARK SMILES IDX 21 36 71 37 22 38 76 39 70 40 72 41 23 42 75 43 69 44 68 45
REMARK SMILES IDX 24 47 56 48 36 49 55 50 37 51 40 52 54 53 73 54 38 55 39 56
REMARK SMILES IDX 53 58 74 59 41 60 25 61 26 62 34 63 27 64 28 65 32 66 35 67
REMARK SMILES IDX 29 68 30 69 33 70 31 71 57 72 58 73 66 74 59 75 60 76 64 77
REMARK SMILES IDX 67 78 61 79 62 80 65 81 63 82 42 83 43 84 51 85 44 86 45 87
REMARK SMILES IDX 49 88 52 89 46 90 47 91 50 92 48 93
REMARK H PARENT 8 5 13 27 72 46 40 57
REMARK Flexibility Score: inf
ROOT
ATOM      1  C   UNL A   1      31.741  30.018  25.403  1.00  0.00     0.116 C 
ENDROOT
BRANCH   1   2
ATOM      2  N   UNL A   1      32.992  29.493  24.906  1.00  0.00    -0.355 N 
ATOM      3  C   UNL A   1      33.278  28.840  23.744  1.00  0.00     0.239 C 
ATOM      4  O   UNL A   1      34.471  28.793  23.426  1.00  0.00    -0.273 OA
ATOM      5  H   UNL A   1      33.763  29.630  25.503  1.00  0.00     0.163 HD
BRANCH   3   6
ATOM      6  C   UNL A   1      32.199  28.293  22.786  1.00  0.00     0.220 C 
BRANCH   6   7
ATOM      7  N   UNL A   1      32.034  26.835  22.699  1.00  0.00    -0.326 N 
BRANCH   7   8
ATOM      8  C   UNL A   1      30.711  26.279  22.975  1.00  0.00     0.147 C 
BRANCH   8   9
ATOM      9  C   UNL A   1      30.190  26.746  24.299  1.00  0.00    -0.014 C 
ATOM     10  C   UNL A   1      30.768  26.419  25.463  1.00  0.00     0.006 C 
ENDBRANCH   8   9
ENDBRANCH   7   8
BRANCH   7  11
ATOM     11  C   UNL A   1      33.037  25.951  22.284  1.00  0.00     0.256 C 
ATOM     12  O   UNL A   1      33.575  26.010  21.180  1.00  0.00    -0.269 OA
BRANCH  11  13
ATOM     13  C   UNL A   1      33.516  24.890  23.187  1.00  0.00     0.058 A 
ATOM     14  C   UNL A   1      33.714  23.583  22.775  1.00  0.00     0.019 A 
ATOM     15  C   UNL A   1      33.902  25.218  24.472  1.00  0.00     0.127 A 
ATOM     16  C   UNL A   1      34.203  22.648  23.690  1.00  0.00     0.048 A 
ATOM     17  N   UNL A   1      34.403  24.321  25.363  1.00  0.00    -0.239 NA
ATOM     18  C   UNL A   1      34.553  23.029  24.989  1.00  0.00     0.127 A 
BRANCH  18  19
ATOM     19  N   UNL A   1      35.065  22.126  25.900  1.00  0.00    -0.363 N 
ATOM     20  C   UNL A   1      34.321  21.816  27.110  1.00  0.00     0.144 C 
ATOM     21  C   UNL A   1      36.356  21.489  25.723  1.00  0.00     0.144 C 
ENDBRANCH  18  19
ENDBRANCH  11  13
ENDBRANCH   7  11
ENDBRANCH   6   7
ENDBRANCH   3   6
ENDBRANCH   1   2
BRANCH   1  22
ATOM     22  C   UNL A   1      31.844  30.648  26.790  1.00  0.00     0.023 C 
BRANCH  22  23
ATOM     23  C   UNL A   1      31.611  32.158  26.849  1.00  0.00     0.023 C 
BRANCH  23  24
ATOM     24  C   UNL A   1      32.818  33.002  27.236  1.00  0.00     0.116 C 
BRANCH  24  25
ATOM     25  N   UNL A   1      32.472  34.305  27.781  1.00  0.00    -0.352 N 
ATOM     26  C   UNL A   1      33.083  35.011  28.790  1.00  0.00     0.251 C 
ATOM     27  H   UNL A   1      31.691  34.742  27.371  1.00  0.00     0.163 HD
ATOM     28  O   UNL A   1      32.602  36.072  29.178  1.00  0.00    -0.269 OA
BRANCH  26  29
ATOM     29  C   UNL A   1      34.297  34.471  29.439  1.00  0.00     0.039 A 
ATOM     30  C   UNL A   1      34.154  33.736  30.619  1.00  0.00     0.014 A 
ATOM     31  C   UNL A   1      35.563  34.667  28.884  1.00  0.00     0.014 A 
ATOM     32  C   UNL A   1      35.273  33.134  31.201  1.00  0.00     0.010 A 
ATOM     33  C   UNL A   1      36.665  34.007  29.422  1.00  0.00     0.010 A 
ATOM     34  C   UNL A   1      36.531  33.230  30.584  1.00  0.00    -0.014 A 
BRANCH  34  35
ATOM     35  C   UNL A   1      37.712  32.515  31.129  1.00  0.00     0.031 A 
ATOM     36  C   UNL A   1      38.420  33.040  32.347  1.00  0.00     0.074 A 
ATOM     37  C   UNL A   1      38.191  31.431  30.486  1.00  0.00     0.049 A 
ATOM     38  N   UNL A   1      39.508  32.600  32.927  1.00  0.00    -0.248 NA
ATOM     39  C   UNL A   1      37.842  34.233  32.983  1.00  0.00     0.031 C 
ATOM     40  C   UNL A   1      37.624  30.853  29.267  1.00  0.00     0.029 A 
ATOM     41  N   UNL A   1      39.271  30.630  30.762  1.00  0.00    -0.354 N 
ATOM     42  C   UNL A   1      39.752  33.468  33.982  1.00  0.00     0.074 A 
ATOM     43  C   UNL A   1      38.730  34.491  33.933  1.00  0.00     0.031 C 
ATOM     44  C   UNL A   1      38.349  29.781  28.910  1.00  0.00     0.029 A 
ATOM     45  C   UNL A   1      39.452  29.616  29.853  1.00  0.00     0.049 A 
ATOM     46  H   UNL A   1      39.861  30.769  31.537  1.00  0.00     0.167 HD
ATOM     47  C   UNL A   1      40.727  33.406  34.920  1.00  0.00     0.037 A 
ATOM     48  C   UNL A   1      40.404  28.667  29.781  1.00  0.00     0.037 A 
ATOM     49  C   UNL A   1      41.727  32.372  34.983  1.00  0.00     0.049 A 
ATOM     50  C   UNL A   1      41.477  28.622  30.837  1.00  0.00     0.074 A 
ATOM     51  C   UNL A   1      42.718  32.186  35.931  1.00  0.00     0.029 A 
ATOM     52  N   UNL A   1      41.864  31.348  34.057  1.00  0.00    -0.354 N 
ATOM     53  N   UNL A   1      41.655  29.408  31.869  1.00  0.00    -0.248 NA
ATOM     54  C   UNL A   1      42.477  27.552  30.717  1.00  0.00     0.031 C 
ATOM     55  C   UNL A   1      43.483  31.078  35.555  1.00  0.00     0.029 A 
ATOM     56  C   UNL A   1      42.937  30.541  34.399  1.00  0.00     0.049 A 
ATOM     57  H   UNL A   1      41.284  31.215  33.273  1.00  0.00     0.167 HD
ATOM     58  C   UNL A   1      42.765  28.911  32.539  1.00  0.00     0.074 A 
ATOM     59  C   UNL A   1      43.211  27.747  31.804  1.00  0.00     0.031 C 
ATOM     60  C   UNL A   1      43.362  29.379  33.663  1.00  0.00     0.037 A 
BRANCH  47  61
ATOM     61  C   UNL A   1      40.759  34.484  35.964  1.00  0.00     0.064 A 
ATOM     62  C   UNL A   1      41.689  35.535  35.908  1.00  0.00     0.173 A 
ATOM     63  C   UNL A   1      39.821  34.494  37.007  1.00  0.00     0.173 A 
ATOM     64  F   UNL A   1      42.613  35.566  34.937  1.00  0.00    -0.203 F 
ATOM     65  C   UNL A   1      41.695  36.538  36.873  1.00  0.00     0.198 A 
ATOM     66  C   UNL A   1      39.811  35.517  37.953  1.00  0.00     0.198 A 
ATOM     67  F   UNL A   1      38.907  33.517  37.104  1.00  0.00    -0.203 F 
ATOM     68  F   UNL A   1      42.622  37.505  36.824  1.00  0.00    -0.200 F 
ATOM     69  C   UNL A   1      40.751  36.534  37.889  1.00  0.00     0.200 A 
ATOM     70  F   UNL A   1      38.891  35.517  38.927  1.00  0.00    -0.200 F 
ATOM     71  F   UNL A   1      40.753  37.507  38.811  1.00  0.00    -0.200 F 
ENDBRANCH  47  61
BRANCH  48  72
ATOM     72  C   UNL A   1      40.377  27.666  28.683  1.00  0.00     0.064 A 
ATOM     73  C   UNL A   1      39.649  26.474  28.814  1.00  0.00     0.173 A 
ATOM     74  C   UNL A   1      41.085  27.869  27.491  1.00  0.00     0.173 A 
ATOM     75  F   UNL A   1      38.972  26.224  29.945  1.00  0.00    -0.203 F 
ATOM     76  C   UNL A   1      39.650  25.514  27.805  1.00  0.00     0.198 A 
ATOM     77  C   UNL A   1      41.063  26.921  26.469  1.00  0.00     0.198 A 
ATOM     78  F   UNL A   1      41.794  28.993  27.314  1.00  0.00    -0.203 F 
ATOM     79  F   UNL A   1      38.987  24.362  27.977  1.00  0.00    -0.200 F 
ATOM     80  C   UNL A   1      40.352  25.741  26.631  1.00  0.00     0.200 A 
ATOM     81  F   UNL A   1      41.732  27.149  25.331  1.00  0.00    -0.200 F 
ATOM     82  F   UNL A   1      40.354  24.818  25.659  1.00  0.00    -0.200 F 
ENDBRANCH  48  72
BRANCH  60  83
ATOM     83  C   UNL A   1      44.539  28.609  34.188  1.00  0.00     0.064 A 
ATOM     84  C   UNL A   1      44.381  27.534  35.074  1.00  0.00     0.173 A 
ATOM     85  C   UNL A   1      45.840  28.929  33.768  1.00  0.00     0.173 A 
ATOM     86  F   UNL A   1      43.160  27.198  35.517  1.00  0.00    -0.203 F 
ATOM     87  C   UNL A   1      45.484  26.822  35.541  1.00  0.00     0.198 A 
ATOM     88  C   UNL A   1      46.937  28.196  34.213  1.00  0.00     0.198 A 
ATOM     89  F   UNL A   1      46.045  29.944  32.916  1.00  0.00    -0.203 F 
ATOM     90  F   UNL A   1      45.313  25.830  36.425  1.00  0.00    -0.200 F 
ATOM     91  C   UNL A   1      46.759  27.149  35.104  1.00  0.00     0.200 A 
ATOM     92  F   UNL A   1      48.167  28.505  33.778  1.00  0.00    -0.200 F 
ATOM     93  F   UNL A   1      47.818  26.460  35.549  1.00  0.00    -0.200 F 
ENDBRANCH  60  83
ENDBRANCH  34  35
ENDBRANCH  26  29
ENDBRANCH  24  25
ENDBRANCH  23  24
ENDBRANCH  22  23
ENDBRANCH   1  22
TORSDOF 17
ENDMDL
