MODEL 1
REMARK VINA RESULT:     -12.2      0.000      0.000
REMARK SMILES CC1(C)C(CNC(=O)[C@H]2C[C@H]2C(=O)NCCCCNC(=O)c2ccc(-c3c4nc(c(-c5c(F)c(F)c(F)c(F)c5F)c5ccc([nH]5)c(-c5c(F)c(F)c(F)c(F)c5F)c5nc(c(-c6c(F)c(F)c(F)c(F)c6F)c6ccc3[nH]6)C=C5)C=C4)cc2)C1(C)C
REMARK SMILES IDX 16 1 15 2 14 3 12 4 13 5 11 7 9 8 10 9 7 10 6 11 8 13 5 14
REMARK SMILES IDX 4 15 1 16 2 17 3 18 85 19 86 20 87 21 17 22 18 23 19 24
REMARK SMILES IDX 20 25 21 27 22 28 23 29 84 30 24 31 83 32 25 33 26 34 27 35
REMARK SMILES IDX 77 36 28 37 82 38 76 39 78 40 29 41 81 42 75 43 74 44 30 46
REMARK SMILES IDX 62 47 42 48 61 49 43 50 46 51 60 52 79 53 44 54 45 55 59 57
REMARK SMILES IDX 80 58 47 59 31 60 32 61 40 62 33 63 34 64 38 65 41 66 35 67
REMARK SMILES IDX 36 68 39 69 37 70 63 71 64 72 72 73 65 74 66 75 70 76 73 77
REMARK SMILES IDX 67 78 68 79 71 80 69 81 48 82 49 83 57 84 50 85 51 86 55 87
REMARK SMILES IDX 58 88 52 89 53 90 56 91 54 92
REMARK H PARENT 14 6 6 12 19 26 78 45 46 56
REMARK Flexibility Score: inf
ROOT
ATOM      1  C   UNL A   1      31.725  30.572  26.670  1.00  0.00     0.023 C 
ENDROOT
BRANCH   1   2
ATOM      2  C   UNL A   1      32.551  30.089  25.474  1.00  0.00     0.116 C 
BRANCH   2   3
ATOM      3  N   UNL A   1      31.710  29.615  24.397  1.00  0.00    -0.356 N 
ATOM      4  C   UNL A   1      31.948  28.898  23.259  1.00  0.00     0.223 C 
ATOM      5  O   UNL A   1      31.024  28.833  22.447  1.00  0.00    -0.275 OA
ATOM      6  H   UNL A   1      30.763  29.862  24.507  1.00  0.00     0.163 HD
BRANCH   4   7
ATOM      7  C   UNL A   1      33.165  28.106  22.958  1.00  0.00     0.091 C 
ATOM      8  C   UNL A   1      33.677  26.943  23.776  1.00  0.00     0.091 C 
ATOM      9  C   UNL A   1      33.282  26.756  22.323  1.00  0.00     0.028 C 
BRANCH   8  10
ATOM     10  C   UNL A   1      32.909  26.279  24.849  1.00  0.00     0.223 C 
ATOM     11  N   UNL A   1      33.383  25.095  25.340  1.00  0.00    -0.356 N 
ATOM     12  H   UNL A   1      32.747  24.548  25.857  1.00  0.00     0.163 HD
ATOM     13  O   UNL A   1      31.888  26.779  25.307  1.00  0.00    -0.275 OA
BRANCH  11  14
ATOM     14  C   UNL A   1      34.717  24.557  25.185  1.00  0.00     0.120 C 
BRANCH  14  15
ATOM     15  C   UNL A   1      34.593  23.068  25.085  1.00  0.00     0.021 C 
ATOM     16  C   UNL A   1      33.093  21.209  24.085  1.00  0.00     0.012 C 
ATOM     17  C   UNL A   1      34.066  22.346  23.847  1.00  0.00    -0.025 C 
ATOM     18  C   UNL A   1      33.735  23.098  22.576  1.00  0.00     0.012 C 
ATOM     19  C   UNL A   1      35.542  22.192  24.283  1.00  0.00    -0.025 C 
ATOM     20  C   UNL A   1      35.992  20.898  24.935  1.00  0.00     0.012 C 
ATOM     21  C   UNL A   1      36.658  22.830  23.486  1.00  0.00     0.012 C 
ENDBRANCH  14  15
ENDBRANCH  11  14
ENDBRANCH   8  10
ENDBRANCH   4   7
ENDBRANCH   2   3
ENDBRANCH   1   2
BRANCH   1  22
ATOM     22  C   UNL A   1      31.535  32.085  26.774  1.00  0.00     0.023 C 
BRANCH  22  23
ATOM     23  C   UNL A   1      32.760  32.862  27.234  1.00  0.00     0.116 C 
BRANCH  23  24
ATOM     24  N   UNL A   1      32.446  34.220  27.656  1.00  0.00    -0.352 N 
ATOM     25  C   UNL A   1      32.994  34.984  28.656  1.00  0.00     0.251 C 
ATOM     26  H   UNL A   1      31.727  34.657  27.145  1.00  0.00     0.163 HD
ATOM     27  O   UNL A   1      32.490  36.065  28.948  1.00  0.00    -0.269 OA
BRANCH  25  28
ATOM     28  C   UNL A   1      34.171  34.498  29.406  1.00  0.00     0.039 A 
ATOM     29  C   UNL A   1      33.976  33.910  30.660  1.00  0.00     0.014 A 
ATOM     30  C   UNL A   1      35.460  34.618  28.882  1.00  0.00     0.014 A 
ATOM     31  C   UNL A   1      35.065  33.373  31.350  1.00  0.00     0.010 A 
ATOM     32  C   UNL A   1      36.531  34.014  29.533  1.00  0.00     0.010 A 
ATOM     33  C   UNL A   1      36.344  33.384  30.773  1.00  0.00    -0.014 A 
BRANCH  33  34
ATOM     34  C   UNL A   1      37.501  32.740  31.444  1.00  0.00     0.031 A 
ATOM     35  C   UNL A   1      38.210  31.590  30.786  1.00  0.00     0.074 A 
ATOM     36  C   UNL A   1      37.862  33.138  32.680  1.00  0.00     0.049 A 
ATOM     37  N   UNL A   1      39.173  30.834  31.250  1.00  0.00    -0.248 NA
ATOM     38  C   UNL A   1      37.755  31.221  29.436  1.00  0.00     0.031 C 
ATOM     39  C   UNL A   1      37.219  34.206  33.447  1.00  0.00     0.029 A 
ATOM     40  N   UNL A   1      38.850  32.676  33.516  1.00  0.00    -0.354 N 
ATOM     41  C   UNL A   1      39.420  29.890  30.263  1.00  0.00     0.074 A 
ATOM     42  C   UNL A   1      38.477  30.137  29.194  1.00  0.00     0.031 C 
ATOM     43  C   UNL A   1      37.840  34.331  34.632  1.00  0.00     0.029 A 
ATOM     44  C   UNL A   1      38.899  33.331  34.722  1.00  0.00     0.049 A 
ATOM     45  H   UNL A   1      39.463  31.946  33.272  1.00  0.00     0.167 HD
ATOM     46  C   UNL A   1      40.363  28.918  30.242  1.00  0.00     0.037 A 
ATOM     47  C   UNL A   1      39.703  33.139  35.784  1.00  0.00     0.037 A 
ATOM     48  C   UNL A   1      41.325  28.698  31.289  1.00  0.00     0.049 A 
ATOM     49  C   UNL A   1      40.754  32.065  35.727  1.00  0.00     0.074 A 
ATOM     50  C   UNL A   1      42.362  27.783  31.331  1.00  0.00     0.029 A 
ATOM     51  N   UNL A   1      41.367  29.406  32.481  1.00  0.00    -0.354 N 
ATOM     52  N   UNL A   1      41.021  31.219  34.762  1.00  0.00    -0.248 NA
ATOM     53  C   UNL A   1      41.622  31.923  36.905  1.00  0.00     0.031 C 
ATOM     54  C   UNL A   1      43.011  27.913  32.563  1.00  0.00     0.029 A 
ATOM     55  C   UNL A   1      42.404  28.937  33.272  1.00  0.00     0.049 A 
ATOM     56  H   UNL A   1      40.751  30.132  32.729  1.00  0.00     0.167 HD
ATOM     57  C   UNL A   1      42.099  30.465  35.203  1.00  0.00     0.074 A 
ATOM     58  C   UNL A   1      42.447  30.961  36.518  1.00  0.00     0.031 C 
ATOM     59  C   UNL A   1      42.743  29.451  34.574  1.00  0.00     0.037 A 
BRANCH  46  60
ATOM     60  C   UNL A   1      40.407  28.022  29.038  1.00  0.00     0.064 A 
ATOM     61  C   UNL A   1      39.661  26.836  28.979  1.00  0.00     0.173 A 
ATOM     62  C   UNL A   1      41.177  28.371  27.919  1.00  0.00     0.173 A 
ATOM     63  F   UNL A   1      38.919  26.452  30.028  1.00  0.00    -0.203 F 
ATOM     64  C   UNL A   1      39.707  26.017  27.854  1.00  0.00     0.198 A 
ATOM     65  C   UNL A   1      41.199  27.564  26.785  1.00  0.00     0.198 A 
ATOM     66  F   UNL A   1      41.906  29.497  27.922  1.00  0.00    -0.203 F 
ATOM     67  F   UNL A   1      39.023  24.864  27.839  1.00  0.00    -0.200 F 
ATOM     68  C   UNL A   1      40.470  26.383  26.756  1.00  0.00     0.200 A 
ATOM     69  F   UNL A   1      41.928  27.925  25.719  1.00  0.00    -0.200 F 
ATOM     70  F   UNL A   1      40.509  25.597  25.672  1.00  0.00    -0.200 F 
ENDBRANCH  46  60
BRANCH  47  71
ATOM     71  C   UNL A   1      39.566  34.005  36.983  1.00  0.00     0.064 A 
ATOM     72  C   UNL A   1      38.801  33.591  38.083  1.00  0.00     0.173 A 
ATOM     73  C   UNL A   1      40.193  35.258  37.057  1.00  0.00     0.173 A 
ATOM     74  F   UNL A   1      38.167  32.410  38.048  1.00  0.00    -0.203 F 
ATOM     75  C   UNL A   1      38.652  34.405  39.203  1.00  0.00     0.198 A 
ATOM     76  C   UNL A   1      40.063  36.060  38.189  1.00  0.00     0.198 A 
ATOM     77  F   UNL A   1      40.938  35.697  36.033  1.00  0.00    -0.203 F 
ATOM     78  F   UNL A   1      37.880  34.003  40.222  1.00  0.00    -0.200 F 
ATOM     79  C   UNL A   1      39.287  35.637  39.257  1.00  0.00     0.200 A 
ATOM     80  F   UNL A   1      40.686  37.245  38.243  1.00  0.00    -0.200 F 
ATOM     81  F   UNL A   1      39.145  36.419  40.335  1.00  0.00    -0.200 F 
ENDBRANCH  47  71
BRANCH  59  82
ATOM     82  C   UNL A   1      43.911  28.835  35.284  1.00  0.00     0.064 A 
ATOM     83  C   UNL A   1      43.751  27.752  36.159  1.00  0.00     0.173 A 
ATOM     84  C   UNL A   1      45.212  29.309  35.051  1.00  0.00     0.173 A 
ATOM     85  F   UNL A   1      42.525  27.275  36.425  1.00  0.00    -0.203 F 
ATOM     86  C   UNL A   1      44.849  27.178  36.794  1.00  0.00     0.198 A 
ATOM     87  C   UNL A   1      46.309  28.714  35.666  1.00  0.00     0.198 A 
ATOM     88  F   UNL A   1      45.417  30.338  34.218  1.00  0.00    -0.203 F 
ATOM     89  F   UNL A   1      44.669  26.170  37.659  1.00  0.00    -0.200 F 
ATOM     90  C   UNL A   1      46.127  27.654  36.541  1.00  0.00     0.200 A 
ATOM     91  F   UNL A   1      47.544  29.168  35.413  1.00  0.00    -0.200 F 
ATOM     92  F   UNL A   1      47.183  27.094  37.147  1.00  0.00    -0.200 F 
ENDBRANCH  59  82
ENDBRANCH  33  34
ENDBRANCH  25  28
ENDBRANCH  23  24
ENDBRANCH  22  23
ENDBRANCH   1  22
TORSDOF 14
ENDMDL
MODEL 2
REMARK VINA RESULT:     -12.1      0.679      1.951
REMARK SMILES CC1(C)C(CNC(=O)[C@H]2C[C@H]2C(=O)NCCCCNC(=O)c2ccc(-c3c4nc(c(-c5c(F)c(F)c(F)c(F)c5F)c5ccc([nH]5)c(-c5c(F)c(F)c(F)c(F)c5F)c5nc(c(-c6c(F)c(F)c(F)c(F)c6F)c6ccc3[nH]6)C=C5)C=C4)cc2)C1(C)C
REMARK SMILES IDX 16 1 15 2 14 3 12 4 13 5 11 7 9 8 10 9 7 10 6 11 8 13 5 14
REMARK SMILES IDX 4 15 1 16 2 17 3 18 85 19 86 20 87 21 17 22 18 23 19 24
REMARK SMILES IDX 20 25 21 27 22 28 23 29 84 30 24 31 83 32 25 33 26 34 27 35
REMARK SMILES IDX 77 36 28 37 82 38 76 39 78 40 29 41 81 42 75 43 74 44 30 46
REMARK SMILES IDX 62 47 42 48 61 49 43 50 46 51 60 52 79 53 44 54 45 55 59 57
REMARK SMILES IDX 80 58 47 59 31 60 32 61 40 62 33 63 34 64 38 65 41 66 35 67
REMARK SMILES IDX 36 68 39 69 37 70 63 71 64 72 72 73 65 74 66 75 70 76 73 77
REMARK SMILES IDX 67 78 68 79 71 80 69 81 48 82 49 83 57 84 50 85 51 86 55 87
REMARK SMILES IDX 58 88 52 89 53 90 56 91 54 92
REMARK H PARENT 14 6 6 12 19 26 78 45 46 56
REMARK Flexibility Score: inf
ROOT
ATOM      1  C   UNL A   1      31.590  30.513  26.685  1.00  0.00     0.023 C 
ENDROOT
BRANCH   1   2
ATOM      2  C   UNL A   1      32.291  29.976  25.433  1.00  0.00     0.116 C 
BRANCH   2   3
ATOM      3  N   UNL A   1      31.360  29.759  24.348  1.00  0.00    -0.356 N 
ATOM      4  C   UNL A   1      30.748  28.651  23.837  1.00  0.00     0.223 C 
ATOM      5  O   UNL A   1      30.155  28.794  22.767  1.00  0.00    -0.275 OA
ATOM      6  H   UNL A   1      31.116  30.588  23.875  1.00  0.00     0.163 HD
BRANCH   4   7
ATOM      7  C   UNL A   1      30.637  27.326  24.496  1.00  0.00     0.091 C 
ATOM      8  C   UNL A   1      31.741  26.299  24.589  1.00  0.00     0.091 C 
ATOM      9  C   UNL A   1      31.126  26.895  25.842  1.00  0.00     0.028 C 
BRANCH   8  10
ATOM     10  C   UNL A   1      33.154  26.565  24.252  1.00  0.00     0.223 C 
ATOM     11  N   UNL A   1      34.117  25.862  24.920  1.00  0.00    -0.356 N 
ATOM     12  H   UNL A   1      35.033  26.220  24.875  1.00  0.00     0.163 HD
ATOM     13  O   UNL A   1      33.464  27.374  23.385  1.00  0.00    -0.275 OA
BRANCH  11  14
ATOM     14  C   UNL A   1      33.938  24.648  25.686  1.00  0.00     0.120 C 
BRANCH  14  15
ATOM     15  C   UNL A   1      34.445  23.511  24.853  1.00  0.00     0.021 C 
ATOM     16  C   UNL A   1      36.498  22.757  23.465  1.00  0.00     0.012 C 
ATOM     17  C   UNL A   1      35.907  23.072  24.825  1.00  0.00    -0.025 C 
ATOM     18  C   UNL A   1      36.936  23.698  25.742  1.00  0.00     0.012 C 
ATOM     19  C   UNL A   1      34.816  22.149  25.416  1.00  0.00    -0.025 C 
ATOM     20  C   UNL A   1      34.361  20.937  24.625  1.00  0.00     0.012 C 
ATOM     21  C   UNL A   1      34.729  21.905  26.906  1.00  0.00     0.012 C 
ENDBRANCH  14  15
ENDBRANCH  11  14
ENDBRANCH   8  10
ENDBRANCH   4   7
ENDBRANCH   2   3
ENDBRANCH   1   2
BRANCH   1  22
ATOM     22  C   UNL A   1      31.452  32.033  26.765  1.00  0.00     0.023 C 
BRANCH  22  23
ATOM     23  C   UNL A   1      32.692  32.773  27.244  1.00  0.00     0.116 C 
BRANCH  23  24
ATOM     24  N   UNL A   1      32.419  34.153  27.623  1.00  0.00    -0.352 N 
ATOM     25  C   UNL A   1      32.995  34.934  28.593  1.00  0.00     0.251 C 
ATOM     26  H   UNL A   1      31.710  34.593  27.101  1.00  0.00     0.163 HD
ATOM     27  O   UNL A   1      32.524  36.038  28.851  1.00  0.00    -0.269 OA
BRANCH  25  28
ATOM     28  C   UNL A   1      34.164  34.440  29.352  1.00  0.00     0.039 A 
ATOM     29  C   UNL A   1      33.953  33.839  30.597  1.00  0.00     0.014 A 
ATOM     30  C   UNL A   1      35.459  34.565  28.844  1.00  0.00     0.014 A 
ATOM     31  C   UNL A   1      35.034  33.295  31.295  1.00  0.00     0.010 A 
ATOM     32  C   UNL A   1      36.521  33.954  29.502  1.00  0.00     0.010 A 
ATOM     33  C   UNL A   1      36.320  33.312  30.733  1.00  0.00    -0.014 A 
BRANCH  33  34
ATOM     34  C   UNL A   1      37.469  32.660  31.411  1.00  0.00     0.031 A 
ATOM     35  C   UNL A   1      38.171  31.502  30.760  1.00  0.00     0.074 A 
ATOM     36  C   UNL A   1      37.827  33.059  32.647  1.00  0.00     0.049 A 
ATOM     37  N   UNL A   1      39.126  30.739  31.231  1.00  0.00    -0.248 NA
ATOM     38  C   UNL A   1      37.718  31.132  29.410  1.00  0.00     0.031 C 
ATOM     39  C   UNL A   1      37.191  34.135  33.408  1.00  0.00     0.029 A 
ATOM     40  N   UNL A   1      38.808  32.593  33.488  1.00  0.00    -0.354 N 
ATOM     41  C   UNL A   1      39.368  29.790  30.248  1.00  0.00     0.074 A 
ATOM     42  C   UNL A   1      38.432  30.041  29.174  1.00  0.00     0.031 C 
ATOM     43  C   UNL A   1      37.808  34.260  34.594  1.00  0.00     0.029 A 
ATOM     44  C   UNL A   1      38.858  33.251  34.693  1.00  0.00     0.049 A 
ATOM     45  H   UNL A   1      39.416  31.856  33.250  1.00  0.00     0.167 HD
ATOM     46  C   UNL A   1      40.303  28.810  30.235  1.00  0.00     0.037 A 
ATOM     47  C   UNL A   1      39.656  33.057  35.758  1.00  0.00     0.037 A 
ATOM     48  C   UNL A   1      41.258  28.586  31.287  1.00  0.00     0.049 A 
ATOM     49  C   UNL A   1      40.699  31.973  35.709  1.00  0.00     0.074 A 
ATOM     50  C   UNL A   1      42.288  27.661  31.337  1.00  0.00     0.029 A 
ATOM     51  N   UNL A   1      41.302  29.297  32.476  1.00  0.00    -0.354 N 
ATOM     52  N   UNL A   1      40.962  31.122  34.749  1.00  0.00    -0.248 NA
ATOM     53  C   UNL A   1      41.560  31.829  36.892  1.00  0.00     0.031 C 
ATOM     54  C   UNL A   1      42.933  27.791  32.571  1.00  0.00     0.029 A 
ATOM     55  C   UNL A   1      42.332  28.823  33.273  1.00  0.00     0.049 A 
ATOM     56  H   UNL A   1      40.691  30.030  32.719  1.00  0.00     0.167 HD
ATOM     57  C   UNL A   1      42.032  30.361  35.197  1.00  0.00     0.074 A 
ATOM     58  C   UNL A   1      42.379  30.858  36.512  1.00  0.00     0.031 C 
ATOM     59  C   UNL A   1      42.670  29.339  34.574  1.00  0.00     0.037 A 
BRANCH  46  60
ATOM     60  C   UNL A   1      40.344  27.909  29.035  1.00  0.00     0.064 A 
ATOM     61  C   UNL A   1      41.094  28.236  27.897  1.00  0.00     0.173 A 
ATOM     62  C   UNL A   1      39.651  26.689  29.037  1.00  0.00     0.173 A 
ATOM     63  F   UNL A   1      41.764  29.397  27.840  1.00  0.00    -0.203 F 
ATOM     64  C   UNL A   1      41.128  27.389  26.792  1.00  0.00     0.198 A 
ATOM     65  C   UNL A   1      39.709  25.831  27.942  1.00  0.00     0.198 A 
ATOM     66  F   UNL A   1      38.922  26.325  30.102  1.00  0.00    -0.203 F 
ATOM     67  F   UNL A   1      41.814  27.746  25.697  1.00  0.00    -0.200 F 
ATOM     68  C   UNL A   1      40.441  26.185  26.817  1.00  0.00     0.200 A 
ATOM     69  F   UNL A   1      39.054  24.662  27.971  1.00  0.00    -0.200 F 
ATOM     70  F   UNL A   1      40.479  25.368  25.756  1.00  0.00    -0.200 F 
ENDBRANCH  46  60
BRANCH  47  71
ATOM     71  C   UNL A   1      39.522  33.929  36.954  1.00  0.00     0.064 A 
ATOM     72  C   UNL A   1      40.168  35.172  37.010  1.00  0.00     0.173 A 
ATOM     73  C   UNL A   1      38.752  33.542  38.059  1.00  0.00     0.173 A 
ATOM     74  F   UNL A   1      40.932  35.574  35.984  1.00  0.00    -0.203 F 
ATOM     75  C   UNL A   1      40.063  35.987  38.134  1.00  0.00     0.198 A 
ATOM     76  C   UNL A   1      38.628  34.369  39.174  1.00  0.00     0.198 A 
ATOM     77  F   UNL A   1      38.113  32.363  38.053  1.00  0.00    -0.203 F 
ATOM     78  F   UNL A   1      40.725  37.152  38.178  1.00  0.00    -0.200 F 
ATOM     79  C   UNL A   1      39.289  35.588  39.213  1.00  0.00     0.200 A 
ATOM     80  F   UNL A   1      37.871  33.985  40.210  1.00  0.00    -0.200 F 
ATOM     81  F   UNL A   1      39.187  36.372  40.293  1.00  0.00    -0.200 F 
ENDBRANCH  47  71
BRANCH  59  82
ATOM     82  C   UNL A   1      43.830  28.715  35.292  1.00  0.00     0.064 A 
ATOM     83  C   UNL A   1      43.658  27.632  36.164  1.00  0.00     0.173 A 
ATOM     84  C   UNL A   1      45.134  29.183  35.068  1.00  0.00     0.173 A 
ATOM     85  F   UNL A   1      42.428  27.161  36.421  1.00  0.00    -0.203 F 
ATOM     86  C   UNL A   1      44.749  27.051  36.805  1.00  0.00     0.198 A 
ATOM     87  C   UNL A   1      46.225  28.581  35.690  1.00  0.00     0.198 A 
ATOM     88  F   UNL A   1      45.351  30.212  34.238  1.00  0.00    -0.203 F 
ATOM     89  F   UNL A   1      44.558  26.043  37.667  1.00  0.00    -0.200 F 
ATOM     90  C   UNL A   1      46.031  27.521  36.562  1.00  0.00     0.200 A 
ATOM     91  F   UNL A   1      47.464  29.029  35.446  1.00  0.00    -0.200 F 
ATOM     92  F   UNL A   1      47.080  26.955  37.174  1.00  0.00    -0.200 F 
ENDBRANCH  59  82
ENDBRANCH  33  34
ENDBRANCH  25  28
ENDBRANCH  23  24
ENDBRANCH  22  23
ENDBRANCH   1  22
TORSDOF 14
ENDMDL
MODEL 3
REMARK VINA RESULT:     -12.1      0.803      1.577
REMARK SMILES CC1(C)C(CNC(=O)[C@H]2C[C@H]2C(=O)NCCCCNC(=O)c2ccc(-c3c4nc(c(-c5c(F)c(F)c(F)c(F)c5F)c5ccc([nH]5)c(-c5c(F)c(F)c(F)c(F)c5F)c5nc(c(-c6c(F)c(F)c(F)c(F)c6F)c6ccc3[nH]6)C=C5)C=C4)cc2)C1(C)C
REMARK SMILES IDX 16 1 15 2 14 3 12 4 13 5 11 7 9 8 10 9 7 10 6 11 8 13 5 14
REMARK SMILES IDX 4 15 1 16 2 17 3 18 85 19 86 20 87 21 17 22 18 23 19 24
REMARK SMILES IDX 20 25 21 27 22 28 23 29 84 30 24 31 83 32 25 33 26 34 27 35
REMARK SMILES IDX 77 36 28 37 82 38 76 39 78 40 29 41 81 42 75 43 74 44 30 46
REMARK SMILES IDX 62 47 42 48 61 49 43 50 46 51 60 52 79 53 44 54 45 55 59 57
REMARK SMILES IDX 80 58 47 59 31 60 32 61 40 62 33 63 34 64 38 65 41 66 35 67
REMARK SMILES IDX 36 68 39 69 37 70 63 71 64 72 72 73 65 74 66 75 70 76 73 77
REMARK SMILES IDX 67 78 68 79 71 80 69 81 48 82 49 83 57 84 50 85 51 86 55 87
REMARK SMILES IDX 58 88 52 89 53 90 56 91 54 92
REMARK H PARENT 14 6 6 12 19 26 78 45 46 56
REMARK Flexibility Score: inf
ROOT
ATOM      1  C   UNL A   1      31.538  30.601  26.698  1.00  0.00     0.023 C 
ENDROOT
BRANCH   1   2
ATOM      2  C   UNL A   1      31.867  29.935  25.358  1.00  0.00     0.116 C 
BRANCH   2   3
ATOM      3  N   UNL A   1      30.801  30.109  24.396  1.00  0.00    -0.356 N 
ATOM      4  C   UNL A   1      30.173  29.269  23.521  1.00  0.00     0.223 C 
ATOM      5  O   UNL A   1      29.426  29.794  22.694  1.00  0.00    -0.275 OA
ATOM      6  H   UNL A   1      30.453  31.029  24.365  1.00  0.00     0.163 HD
BRANCH   4   7
ATOM      7  C   UNL A   1      30.218  27.787  23.540  1.00  0.00     0.091 C 
ATOM      8  C   UNL A   1      31.377  26.940  23.066  1.00  0.00     0.091 C 
ATOM      9  C   UNL A   1      30.903  26.873  24.506  1.00  0.00     0.028 C 
BRANCH   8  10
ATOM     10  C   UNL A   1      32.718  27.470  22.746  1.00  0.00     0.223 C 
ATOM     11  N   UNL A   1      33.786  26.624  22.852  1.00  0.00    -0.356 N 
ATOM     12  H   UNL A   1      34.677  27.043  22.886  1.00  0.00     0.163 HD
ATOM     13  O   UNL A   1      32.876  28.628  22.374  1.00  0.00    -0.275 OA
BRANCH  11  14
ATOM     14  C   UNL A   1      33.751  25.179  22.918  1.00  0.00     0.120 C 
BRANCH  14  15
ATOM     15  C   UNL A   1      34.220  24.780  24.282  1.00  0.00     0.021 C 
ATOM     16  C   UNL A   1      33.434  23.579  26.439  1.00  0.00     0.012 C 
ATOM     17  C   UNL A   1      33.804  23.482  24.972  1.00  0.00    -0.025 C 
ATOM     18  C   UNL A   1      32.963  22.445  24.259  1.00  0.00     0.012 C 
ATOM     19  C   UNL A   1      35.270  23.711  24.537  1.00  0.00    -0.025 C 
ATOM     20  C   UNL A   1      36.317  24.019  25.590  1.00  0.00     0.012 C 
ATOM     21  C   UNL A   1      35.862  22.949  23.372  1.00  0.00     0.012 C 
ENDBRANCH  14  15
ENDBRANCH  11  14
ENDBRANCH   8  10
ENDBRANCH   4   7
ENDBRANCH   2   3
ENDBRANCH   1   2
BRANCH   1  22
ATOM     22  C   UNL A   1      31.475  32.127  26.680  1.00  0.00     0.023 C 
BRANCH  22  23
ATOM     23  C   UNL A   1      32.692  32.835  27.256  1.00  0.00     0.116 C 
BRANCH  23  24
ATOM     24  N   UNL A   1      32.419  34.213  27.641  1.00  0.00    -0.352 N 
ATOM     25  C   UNL A   1      33.002  34.992  28.608  1.00  0.00     0.251 C 
ATOM     26  H   UNL A   1      31.705  34.653  27.126  1.00  0.00     0.163 HD
ATOM     27  O   UNL A   1      32.531  36.094  28.874  1.00  0.00    -0.269 OA
BRANCH  25  28
ATOM     28  C   UNL A   1      34.178  34.499  29.356  1.00  0.00     0.039 A 
ATOM     29  C   UNL A   1      33.979  33.879  30.593  1.00  0.00     0.014 A 
ATOM     30  C   UNL A   1      35.470  34.644  28.845  1.00  0.00     0.014 A 
ATOM     31  C   UNL A   1      35.067  33.335  31.279  1.00  0.00     0.010 A 
ATOM     32  C   UNL A   1      36.541  34.034  29.490  1.00  0.00     0.010 A 
ATOM     33  C   UNL A   1      36.351  33.372  30.712  1.00  0.00    -0.014 A 
BRANCH  33  34
ATOM     34  C   UNL A   1      37.509  32.722  31.376  1.00  0.00     0.031 A 
ATOM     35  C   UNL A   1      38.210  31.571  30.713  1.00  0.00     0.074 A 
ATOM     36  C   UNL A   1      37.876  33.116  32.611  1.00  0.00     0.049 A 
ATOM     37  N   UNL A   1      39.173  30.810  31.171  1.00  0.00    -0.248 NA
ATOM     38  C   UNL A   1      37.747  31.206  29.365  1.00  0.00     0.031 C 
ATOM     39  C   UNL A   1      37.242  34.185  33.383  1.00  0.00     0.029 A 
ATOM     40  N   UNL A   1      38.867  32.650  33.441  1.00  0.00    -0.354 N 
ATOM     41  C   UNL A   1      39.411  29.867  30.181  1.00  0.00     0.074 A 
ATOM     42  C   UNL A   1      38.464  30.120  29.117  1.00  0.00     0.031 C 
ATOM     43  C   UNL A   1      37.869  34.307  34.565  1.00  0.00     0.029 A 
ATOM     44  C   UNL A   1      38.925  33.302  34.649  1.00  0.00     0.049 A 
ATOM     45  H   UNL A   1      39.476  31.918  33.194  1.00  0.00     0.167 HD
ATOM     46  C   UNL A   1      40.350  28.891  30.154  1.00  0.00     0.037 A 
ATOM     47  C   UNL A   1      39.733  33.105  35.706  1.00  0.00     0.037 A 
ATOM     48  C   UNL A   1      41.316  28.666  31.197  1.00  0.00     0.049 A 
ATOM     49  C   UNL A   1      40.780  32.027  35.642  1.00  0.00     0.074 A 
ATOM     50  C   UNL A   1      42.350  27.746  31.232  1.00  0.00     0.029 A 
ATOM     51  N   UNL A   1      41.366  29.371  32.389  1.00  0.00    -0.354 N 
ATOM     52  N   UNL A   1      41.039  31.182  34.674  1.00  0.00    -0.248 NA
ATOM     53  C   UNL A   1      41.652  31.880  36.816  1.00  0.00     0.031 C 
ATOM     54  C   UNL A   1      43.005  27.872  32.461  1.00  0.00     0.029 A 
ATOM     55  C   UNL A   1      42.405  28.898  33.174  1.00  0.00     0.049 A 
ATOM     56  H   UNL A   1      40.754  30.100  32.642  1.00  0.00     0.167 HD
ATOM     57  C   UNL A   1      42.116  30.423  35.109  1.00  0.00     0.074 A 
ATOM     58  C   UNL A   1      42.472  30.915  36.423  1.00  0.00     0.031 C 
ATOM     59  C   UNL A   1      42.753  29.408  34.475  1.00  0.00     0.037 A 
BRANCH  46  60
ATOM     60  C   UNL A   1      40.384  27.997  28.949  1.00  0.00     0.064 A 
ATOM     61  C   UNL A   1      41.164  28.309  27.826  1.00  0.00     0.173 A 
ATOM     62  C   UNL A   1      39.655  26.799  28.931  1.00  0.00     0.173 A 
ATOM     63  F   UNL A   1      41.869  29.450  27.789  1.00  0.00    -0.203 F 
ATOM     64  C   UNL A   1      41.190  27.468  26.716  1.00  0.00     0.198 A 
ATOM     65  C   UNL A   1      39.706  25.947  27.831  1.00  0.00     0.198 A 
ATOM     66  F   UNL A   1      38.897  26.451  29.981  1.00  0.00    -0.203 F 
ATOM     67  F   UNL A   1      41.905  27.811  25.635  1.00  0.00    -0.200 F 
ATOM     68  C   UNL A   1      40.467  26.285  26.722  1.00  0.00     0.200 A 
ATOM     69  F   UNL A   1      39.016  24.797  27.841  1.00  0.00    -0.200 F 
ATOM     70  F   UNL A   1      40.499  25.474  25.656  1.00  0.00    -0.200 F 
ENDBRANCH  46  60
BRANCH  47  71
ATOM     71  C   UNL A   1      39.606  33.970  36.908  1.00  0.00     0.064 A 
ATOM     72  C   UNL A   1      38.832  33.563  38.004  1.00  0.00     0.173 A 
ATOM     73  C   UNL A   1      40.249  35.213  36.987  1.00  0.00     0.173 A 
ATOM     74  F   UNL A   1      38.181  32.392  37.965  1.00  0.00    -0.203 F 
ATOM     75  C   UNL A   1      38.691  34.376  39.126  1.00  0.00     0.198 A 
ATOM     76  C   UNL A   1      40.127  36.014  38.120  1.00  0.00     0.198 A 
ATOM     77  F   UNL A   1      41.003  35.645  35.965  1.00  0.00    -0.203 F 
ATOM     78  F   UNL A   1      37.911  33.982  40.142  1.00  0.00    -0.200 F 
ATOM     79  C   UNL A   1      39.344  35.599  39.186  1.00  0.00     0.200 A 
ATOM     80  F   UNL A   1      40.767  37.190  38.179  1.00  0.00    -0.200 F 
ATOM     81  F   UNL A   1      39.210  36.379  40.266  1.00  0.00    -0.200 F 
ENDBRANCH  47  71
BRANCH  59  82
ATOM     82  C   UNL A   1      43.922  28.786  35.179  1.00  0.00     0.064 A 
ATOM     83  C   UNL A   1      43.765  27.685  36.032  1.00  0.00     0.173 A 
ATOM     84  C   UNL A   1      45.220  29.272  34.961  1.00  0.00     0.173 A 
ATOM     85  F   UNL A   1      42.541  27.196  36.284  1.00  0.00    -0.203 F 
ATOM     86  C   UNL A   1      44.865  27.106  36.661  1.00  0.00     0.198 A 
ATOM     87  C   UNL A   1      46.319  28.674  35.569  1.00  0.00     0.198 A 
ATOM     88  F   UNL A   1      45.423  30.319  34.148  1.00  0.00    -0.203 F 
ATOM     89  F   UNL A   1      44.687  26.081  37.505  1.00  0.00    -0.200 F 
ATOM     90  C   UNL A   1      46.141  27.595  36.423  1.00  0.00     0.200 A 
ATOM     91  F   UNL A   1      47.552  29.140  35.330  1.00  0.00    -0.200 F 
ATOM     92  F   UNL A   1      47.198  27.032  37.023  1.00  0.00    -0.200 F 
ENDBRANCH  59  82
ENDBRANCH  33  34
ENDBRANCH  25  28
ENDBRANCH  23  24
ENDBRANCH  22  23
ENDBRANCH   1  22
TORSDOF 14
ENDMDL
