MODEL 1
REMARK VINA RESULT:     -11.1      0.000      0.000
REMARK SMILES C[C@H]([NH2+]CCc1ccco1)[C@@H](C)C(=O)NCCCCNC(=O)c1ccc(-c2c3nc(c(-c4c(F)c(F)c(F)c(F)c4F)c4ccc([nH]4)c(-c4c(F)c(F)c(F)c(F)c4F)c4nc(c(-c5c(F)c(F)c(F)c(F)c5F)c5ccc2[nH]5)C=C4)C=C3)cc1
REMARK SMILES IDX 16 1 15 2 13 3 14 4 11 6 12 7 2 8 1 9 3 10 4 13 5 14 6 15
REMARK SMILES IDX 7 16 10 17 8 18 9 19 17 20 18 21 19 22 20 23 21 24 22 26
REMARK SMILES IDX 23 27 24 28 85 29 25 30 84 31 26 32 27 33 28 34 78 35 29 36
REMARK SMILES IDX 83 37 77 38 79 39 30 40 82 41 76 42 75 43 31 45 63 46 43 47
REMARK SMILES IDX 62 48 44 49 47 50 61 51 80 52 45 53 46 54 60 56 81 57 48 58
REMARK SMILES IDX 32 59 33 60 41 61 34 62 35 63 39 64 42 65 36 66 37 67 40 68
REMARK SMILES IDX 38 69 64 70 65 71 73 72 66 73 67 74 71 75 74 76 68 77 69 78
REMARK SMILES IDX 72 79 70 80 49 81 50 82 58 83 51 84 52 85 56 86 59 87 53 88
REMARK SMILES IDX 54 89 57 90 55 91
REMARK H PARENT 15 5 3 11 3 12 20 25 79 44 47 55
REMARK Flexibility Score: inf
ROOT
ATOM      1  C   UNL A   1      33.070  30.131  26.618  1.00  0.00     0.116 C 
ENDROOT
BRANCH   1   2
ATOM      2  N   UNL A   1      33.510  29.617  25.334  1.00  0.00    -0.356 N 
ATOM      3  C   UNL A   1      33.569  28.349  24.840  1.00  0.00     0.228 C 
ATOM      4  O   UNL A   1      33.988  28.215  23.686  1.00  0.00    -0.275 OA
ATOM      5  H   UNL A   1      33.822  30.309  24.706  1.00  0.00     0.163 HD
BRANCH   3   6
ATOM      6  C   UNL A   1      33.121  27.123  25.644  1.00  0.00     0.133 C 
ATOM      7  C   UNL A   1      34.051  25.949  25.318  1.00  0.00     0.024 C 
BRANCH   6   8
ATOM      8  C   UNL A   1      31.598  26.856  25.504  1.00  0.00     0.191 C 
ATOM      9  C   UNL A   1      31.319  25.390  25.124  1.00  0.00     0.076 C 
BRANCH   8  10
ATOM     10  N   UNL A   1      30.860  27.826  24.682  1.00  0.00    -0.343 N 
ATOM     11  H   UNL A   1      31.400  28.692  24.668  1.00  0.00     0.346 HD
ATOM     12  H   UNL A   1      29.941  27.901  25.119  1.00  0.00     0.346 HD
BRANCH  10  13
ATOM     13  C   UNL A   1      30.593  27.449  23.295  1.00  0.00     0.268 C 
BRANCH  13  14
ATOM     14  C   UNL A   1      30.717  28.654  22.350  1.00  0.00     0.136 C 
BRANCH  14  15
ATOM     15  C   UNL A   1      29.611  29.629  22.537  1.00  0.00     0.109 A 
ATOM     16  C   UNL A   1      29.345  30.582  23.498  1.00  0.00     0.046 A 
ATOM     17  O   UNL A   1      28.623  29.621  21.600  1.00  0.00    -0.469 OA
ATOM     18  C   UNL A   1      28.127  31.195  23.122  1.00  0.00     0.042 A 
ATOM     19  C   UNL A   1      27.731  30.580  21.958  1.00  0.00     0.195 A 
ENDBRANCH  14  15
ENDBRANCH  13  14
ENDBRANCH  10  13
ENDBRANCH   8  10
ENDBRANCH   6   8
ENDBRANCH   3   6
ENDBRANCH   1   2
BRANCH   1  20
ATOM     20  C   UNL A   1      31.611  30.592  26.588  1.00  0.00     0.023 C 
BRANCH  20  21
ATOM     21  C   UNL A   1      31.409  32.098  26.738  1.00  0.00     0.023 C 
BRANCH  21  22
ATOM     22  C   UNL A   1      32.654  32.885  27.123  1.00  0.00     0.116 C 
BRANCH  22  23
ATOM     23  N   UNL A   1      32.355  34.210  27.643  1.00  0.00    -0.352 N 
ATOM     24  C   UNL A   1      32.971  34.911  28.647  1.00  0.00     0.251 C 
ATOM     25  H   UNL A   1      31.600  34.671  27.210  1.00  0.00     0.163 HD
ATOM     26  O   UNL A   1      32.492  35.976  29.032  1.00  0.00    -0.269 OA
BRANCH  24  27
ATOM     27  C   UNL A   1      34.186  34.374  29.296  1.00  0.00     0.039 A 
ATOM     28  C   UNL A   1      34.035  33.577  30.432  1.00  0.00     0.014 A 
ATOM     29  C   UNL A   1      35.463  34.650  28.798  1.00  0.00     0.014 A 
ATOM     30  C   UNL A   1      35.160  33.013  31.035  1.00  0.00     0.010 A 
ATOM     31  C   UNL A   1      36.575  34.015  29.346  1.00  0.00     0.010 A 
ATOM     32  C   UNL A   1      36.436  33.197  30.476  1.00  0.00    -0.014 A 
BRANCH  32  33
ATOM     33  C   UNL A   1      37.616  32.520  31.070  1.00  0.00     0.031 A 
ATOM     34  C   UNL A   1      38.115  32.897  32.436  1.00  0.00     0.074 A 
ATOM     35  C   UNL A   1      38.253  31.569  30.358  1.00  0.00     0.049 A 
ATOM     36  N   UNL A   1      39.089  32.368  33.136  1.00  0.00    -0.248 NA
ATOM     37  C   UNL A   1      37.453  34.031  33.098  1.00  0.00     0.031 C 
ATOM     38  C   UNL A   1      37.912  31.169  28.992  1.00  0.00     0.029 A 
ATOM     39  N   UNL A   1      39.311  30.759  30.687  1.00  0.00    -0.354 N 
ATOM     40  C   UNL A   1      39.156  33.104  34.311  1.00  0.00     0.074 A 
ATOM     41  C   UNL A   1      38.170  34.157  34.206  1.00  0.00     0.031 C 
ATOM     42  C   UNL A   1      38.712  30.159  28.617  1.00  0.00     0.029 A 
ATOM     43  C   UNL A   1      39.642  29.862  29.702  1.00  0.00     0.049 A 
ATOM     44  H   UNL A   1      39.786  30.816  31.546  1.00  0.00     0.167 HD
ATOM     45  C   UNL A   1      39.946  32.902  35.393  1.00  0.00     0.037 A 
ATOM     46  C   UNL A   1      40.583  28.900  29.679  1.00  0.00     0.037 A 
ATOM     47  C   UNL A   1      40.919  31.844  35.496  1.00  0.00     0.049 A 
ATOM     48  C   UNL A   1      41.434  28.684  30.900  1.00  0.00     0.074 A 
ATOM     49  C   UNL A   1      41.729  31.517  36.569  1.00  0.00     0.029 A 
ATOM     50  N   UNL A   1      41.219  30.945  34.483  1.00  0.00    -0.354 N 
ATOM     51  N   UNL A   1      41.424  29.326  32.043  1.00  0.00    -0.248 NA
ATOM     52  C   UNL A   1      42.416  27.593  30.832  1.00  0.00     0.031 C 
ATOM     53  C   UNL A   1      42.559  30.458  36.186  1.00  0.00     0.029 A 
ATOM     54  C   UNL A   1      42.220  30.080  34.898  1.00  0.00     0.049 A 
ATOM     55  H   UNL A   1      40.785  30.924  33.599  1.00  0.00     0.167 HD
ATOM     56  C   UNL A   1      42.374  28.702  32.840  1.00  0.00     0.074 A 
ATOM     57  C   UNL A   1      42.923  27.613  32.056  1.00  0.00     0.031 C 
ATOM     58  C   UNL A   1      42.760  29.002  34.106  1.00  0.00     0.037 A 
BRANCH  45  59
ATOM     59  C   UNL A   1      39.793  33.845  36.553  1.00  0.00     0.064 A 
ATOM     60  C   UNL A   1      38.950  33.552  37.637  1.00  0.00     0.173 A 
ATOM     61  C   UNL A   1      40.525  35.042  36.600  1.00  0.00     0.173 A 
ATOM     62  F   UNL A   1      38.218  32.428  37.639  1.00  0.00    -0.203 F 
ATOM     63  C   UNL A   1      38.822  34.435  38.707  1.00  0.00     0.198 A 
ATOM     64  C   UNL A   1      40.420  35.905  37.689  1.00  0.00     0.198 A 
ATOM     65  F   UNL A   1      41.350  35.372  35.595  1.00  0.00    -0.203 F 
ATOM     66  F   UNL A   1      37.970  34.157  39.703  1.00  0.00    -0.200 F 
ATOM     67  C   UNL A   1      39.563  35.606  38.736  1.00  0.00     0.200 A 
ATOM     68  F   UNL A   1      41.150  37.030  37.723  1.00  0.00    -0.200 F 
ATOM     69  F   UNL A   1      39.445  36.449  39.771  1.00  0.00    -0.200 F 
ENDBRANCH  45  59
BRANCH  46  70
ATOM     70  C   UNL A   1      40.740  28.042  28.474  1.00  0.00     0.064 A 
ATOM     71  C   UNL A   1      41.549  28.443  27.401  1.00  0.00     0.173 A 
ATOM     72  C   UNL A   1      40.083  26.808  28.368  1.00  0.00     0.173 A 
ATOM     73  F   UNL A   1      42.186  29.622  27.445  1.00  0.00    -0.203 F 
ATOM     74  C   UNL A   1      41.673  27.654  26.258  1.00  0.00     0.198 A 
ATOM     75  C   UNL A   1      40.234  26.005  27.240  1.00  0.00     0.198 A 
ATOM     76  F   UNL A   1      39.305  26.374  29.371  1.00  0.00    -0.203 F 
ATOM     77  F   UNL A   1      42.410  28.086  25.226  1.00  0.00    -0.200 F 
ATOM     78  C   UNL A   1      41.020  26.434  26.182  1.00  0.00     0.200 A 
ATOM     79  F   UNL A   1      39.616  24.818  27.179  1.00  0.00    -0.200 F 
ATOM     80  F   UNL A   1      41.143  25.673  25.085  1.00  0.00    -0.200 F 
ENDBRANCH  46  70
BRANCH  58  81
ATOM     81  C   UNL A   1      43.800  28.115  34.730  1.00  0.00     0.064 A 
ATOM     82  C   UNL A   1      45.169  28.416  34.666  1.00  0.00     0.173 A 
ATOM     83  C   UNL A   1      43.420  26.942  35.402  1.00  0.00     0.173 A 
ATOM     84  F   UNL A   1      45.588  29.518  34.026  1.00  0.00    -0.203 F 
ATOM     85  C   UNL A   1      46.119  27.553  35.205  1.00  0.00     0.198 A 
ATOM     86  C   UNL A   1      44.371  26.101  35.974  1.00  0.00     0.198 A 
ATOM     87  F   UNL A   1      42.123  26.610  35.505  1.00  0.00    -0.203 F 
ATOM     88  F   UNL A   1      47.424  27.825  35.064  1.00  0.00    -0.200 F 
ATOM     89  C   UNL A   1      45.719  26.399  35.862  1.00  0.00     0.200 A 
ATOM     90  F   UNL A   1      43.980  24.996  36.625  1.00  0.00    -0.200 F 
ATOM     91  F   UNL A   1      46.636  25.567  36.376  1.00  0.00    -0.200 F 
ENDBRANCH  58  81
ENDBRANCH  32  33
ENDBRANCH  24  27
ENDBRANCH  22  23
ENDBRANCH  21  22
ENDBRANCH  20  21
ENDBRANCH   1  20
TORSDOF 16
ENDMDL
MODEL 2
REMARK VINA RESULT:     -11.0      0.806      2.217
REMARK SMILES C[C@H]([NH2+]CCc1ccco1)[C@@H](C)C(=O)NCCCCNC(=O)c1ccc(-c2c3nc(c(-c4c(F)c(F)c(F)c(F)c4F)c4ccc([nH]4)c(-c4c(F)c(F)c(F)c(F)c4F)c4nc(c(-c5c(F)c(F)c(F)c(F)c5F)c5ccc2[nH]5)C=C4)C=C3)cc1
REMARK SMILES IDX 16 1 15 2 13 3 14 4 11 6 12 7 2 8 1 9 3 10 4 13 5 14 6 15
REMARK SMILES IDX 7 16 10 17 8 18 9 19 17 20 18 21 19 22 20 23 21 24 22 26
REMARK SMILES IDX 23 27 24 28 85 29 25 30 84 31 26 32 27 33 28 34 78 35 29 36
REMARK SMILES IDX 83 37 77 38 79 39 30 40 82 41 76 42 75 43 31 45 63 46 43 47
REMARK SMILES IDX 62 48 44 49 47 50 61 51 80 52 45 53 46 54 60 56 81 57 48 58
REMARK SMILES IDX 32 59 33 60 41 61 34 62 35 63 39 64 42 65 36 66 37 67 40 68
REMARK SMILES IDX 38 69 64 70 65 71 73 72 66 73 67 74 71 75 74 76 68 77 69 78
REMARK SMILES IDX 72 79 70 80 49 81 50 82 58 83 51 84 52 85 56 86 59 87 53 88
REMARK SMILES IDX 54 89 57 90 55 91
REMARK H PARENT 15 5 3 11 3 12 20 25 79 44 47 55
REMARK Flexibility Score: inf
ROOT
ATOM      1  C   UNL A   1      32.213  29.963  27.131  1.00  0.00     0.116 C 
ENDROOT
BRANCH   1   2
ATOM      2  N   UNL A   1      31.545  28.682  27.271  1.00  0.00    -0.356 N 
ATOM      3  C   UNL A   1      31.796  27.466  26.710  1.00  0.00     0.228 C 
ATOM      4  O   UNL A   1      31.050  26.536  27.031  1.00  0.00    -0.275 OA
ATOM      5  H   UNL A   1      30.772  28.693  27.881  1.00  0.00     0.163 HD
BRANCH   3   6
ATOM      6  C   UNL A   1      32.959  27.223  25.741  1.00  0.00     0.133 C 
ATOM      7  C   UNL A   1      34.209  27.927  26.279  1.00  0.00     0.024 C 
BRANCH   6   8
ATOM      8  C   UNL A   1      32.570  27.535  24.271  1.00  0.00     0.191 C 
ATOM      9  C   UNL A   1      33.431  28.675  23.694  1.00  0.00     0.076 C 
BRANCH   8  10
ATOM     10  N   UNL A   1      31.131  27.703  24.020  1.00  0.00    -0.343 N 
ATOM     11  H   UNL A   1      30.645  27.565  24.908  1.00  0.00     0.346 HD
ATOM     12  H   UNL A   1      30.905  27.019  23.298  1.00  0.00     0.346 HD
BRANCH  10  13
ATOM     13  C   UNL A   1      30.700  28.989  23.477  1.00  0.00     0.268 C 
BRANCH  13  14
ATOM     14  C   UNL A   1      29.303  28.895  22.845  1.00  0.00     0.136 C 
BRANCH  14  15
ATOM     15  C   UNL A   1      28.843  30.202  22.306  1.00  0.00     0.109 A 
ATOM     16  C   UNL A   1      28.810  31.478  22.826  1.00  0.00     0.046 A 
ATOM     17  O   UNL A   1      28.332  30.197  21.043  1.00  0.00    -0.469 OA
ATOM     18  C   UNL A   1      28.252  32.302  21.821  1.00  0.00     0.042 A 
ATOM     19  C   UNL A   1      27.984  31.478  20.754  1.00  0.00     0.195 A 
ENDBRANCH  14  15
ENDBRANCH  13  14
ENDBRANCH  10  13
ENDBRANCH   8  10
ENDBRANCH   6   8
ENDBRANCH   3   6
ENDBRANCH   1   2
BRANCH   1  20
ATOM     20  C   UNL A   1      31.530  30.862  26.099  1.00  0.00     0.023 C 
BRANCH  20  21
ATOM     21  C   UNL A   1      31.373  32.322  26.521  1.00  0.00     0.023 C 
BRANCH  21  22
ATOM     22  C   UNL A   1      32.564  32.915  27.260  1.00  0.00     0.116 C 
BRANCH  22  23
ATOM     23  N   UNL A   1      32.323  34.268  27.740  1.00  0.00    -0.352 N 
ATOM     24  C   UNL A   1      32.991  34.983  28.699  1.00  0.00     0.251 C 
ATOM     25  H   UNL A   1      31.570  34.737  27.313  1.00  0.00     0.163 HD
ATOM     26  O   UNL A   1      32.558  36.076  29.059  1.00  0.00    -0.269 OA
BRANCH  24  27
ATOM     27  C   UNL A   1      34.208  34.431  29.330  1.00  0.00     0.039 A 
ATOM     28  C   UNL A   1      34.072  33.709  30.518  1.00  0.00     0.014 A 
ATOM     29  C   UNL A   1      35.474  34.619  28.766  1.00  0.00     0.014 A 
ATOM     30  C   UNL A   1      35.196  33.131  31.107  1.00  0.00     0.010 A 
ATOM     31  C   UNL A   1      36.580  33.967  29.307  1.00  0.00     0.010 A 
ATOM     32  C   UNL A   1      36.454  33.224  30.488  1.00  0.00    -0.014 A 
BRANCH  32  33
ATOM     33  C   UNL A   1      37.629  32.530  31.075  1.00  0.00     0.031 A 
ATOM     34  C   UNL A   1      38.130  32.887  32.446  1.00  0.00     0.074 A 
ATOM     35  C   UNL A   1      38.257  31.582  30.352  1.00  0.00     0.049 A 
ATOM     36  N   UNL A   1      39.099  32.342  33.139  1.00  0.00    -0.248 NA
ATOM     37  C   UNL A   1      37.477  34.019  33.120  1.00  0.00     0.031 C 
ATOM     38  C   UNL A   1      37.913  31.201  28.981  1.00  0.00     0.029 A 
ATOM     39  N   UNL A   1      39.308  30.759  30.672  1.00  0.00    -0.354 N 
ATOM     40  C   UNL A   1      39.172  33.063  34.323  1.00  0.00     0.074 A 
ATOM     41  C   UNL A   1      38.195  34.126  34.229  1.00  0.00     0.031 C 
ATOM     42  C   UNL A   1      38.704  30.188  28.595  1.00  0.00     0.029 A 
ATOM     43  C   UNL A   1      39.632  29.871  29.676  1.00  0.00     0.049 A 
ATOM     44  H   UNL A   1      39.783  30.802  31.532  1.00  0.00     0.167 HD
ATOM     45  C   UNL A   1      39.960  32.842  35.402  1.00  0.00     0.037 A 
ATOM     46  C   UNL A   1      40.565  28.901  29.642  1.00  0.00     0.037 A 
ATOM     47  C   UNL A   1      40.924  31.775  35.493  1.00  0.00     0.049 A 
ATOM     48  C   UNL A   1      41.413  28.664  30.861  1.00  0.00     0.074 A 
ATOM     49  C   UNL A   1      41.731  31.429  36.563  1.00  0.00     0.029 A 
ATOM     50  N   UNL A   1      41.217  30.885  34.470  1.00  0.00    -0.354 N 
ATOM     51  N   UNL A   1      41.408  29.292  32.012  1.00  0.00    -0.248 NA
ATOM     52  C   UNL A   1      42.386  27.565  30.781  1.00  0.00     0.031 C 
ATOM     53  C   UNL A   1      42.552  30.367  36.167  1.00  0.00     0.029 A 
ATOM     54  C   UNL A   1      42.210  30.006  34.875  1.00  0.00     0.049 A 
ATOM     55  H   UNL A   1      40.783  30.878  33.586  1.00  0.00     0.167 HD
ATOM     56  C   UNL A   1      42.353  28.651  32.802  1.00  0.00     0.074 A 
ATOM     57  C   UNL A   1      42.892  27.567  32.006  1.00  0.00     0.031 C 
ATOM     58  C   UNL A   1      42.741  28.933  34.071  1.00  0.00     0.037 A 
BRANCH  45  59
ATOM     59  C   UNL A   1      39.815  33.774  36.573  1.00  0.00     0.064 A 
ATOM     60  C   UNL A   1      40.508  34.993  36.637  1.00  0.00     0.173 A 
ATOM     61  C   UNL A   1      38.945  33.461  37.629  1.00  0.00     0.173 A 
ATOM     62  F   UNL A   1      41.362  35.337  35.662  1.00  0.00    -0.203 F 
ATOM     63  C   UNL A   1      40.360  35.848  37.728  1.00  0.00     0.198 A 
ATOM     64  C   UNL A   1      38.773  34.335  38.700  1.00  0.00     0.198 A 
ATOM     65  F   UNL A   1      38.253  32.312  37.619  1.00  0.00    -0.203 F 
ATOM     66  F   UNL A   1      41.074  36.980  37.791  1.00  0.00    -0.200 F 
ATOM     67  C   UNL A   1      39.486  35.522  38.754  1.00  0.00     0.200 A 
ATOM     68  F   UNL A   1      37.916  34.026  39.684  1.00  0.00    -0.200 F 
ATOM     69  F   UNL A   1      39.338  36.350  39.797  1.00  0.00    -0.200 F 
ENDBRANCH  45  59
BRANCH  46  70
ATOM     70  C   UNL A   1      40.714  28.056  28.428  1.00  0.00     0.064 A 
ATOM     71  C   UNL A   1      40.066  26.817  28.324  1.00  0.00     0.173 A 
ATOM     72  C   UNL A   1      41.509  28.467  27.348  1.00  0.00     0.173 A 
ATOM     73  F   UNL A   1      39.308  26.370  29.337  1.00  0.00    -0.203 F 
ATOM     74  C   UNL A   1      40.229  26.010  27.200  1.00  0.00     0.198 A 
ATOM     75  C   UNL A   1      41.645  27.675  26.211  1.00  0.00     0.198 A 
ATOM     76  F   UNL A   1      42.143  29.649  27.393  1.00  0.00    -0.203 F 
ATOM     77  F   UNL A   1      39.642  24.807  27.151  1.00  0.00    -0.200 F 
ATOM     78  C   UNL A   1      41.014  26.442  26.142  1.00  0.00     0.200 A 
ATOM     79  F   UNL A   1      42.389  28.106  25.183  1.00  0.00    -0.200 F 
ATOM     80  F   UNL A   1      41.167  25.669  25.058  1.00  0.00    -0.200 F 
ENDBRANCH  46  70
BRANCH  58  81
ATOM     81  C   UNL A   1      43.773  28.031  34.685  1.00  0.00     0.064 A 
ATOM     82  C   UNL A   1      43.423  26.842  35.345  1.00  0.00     0.173 A 
ATOM     83  C   UNL A   1      45.136  28.363  34.617  1.00  0.00     0.173 A 
ATOM     84  F   UNL A   1      42.135  26.484  35.451  1.00  0.00    -0.203 F 
ATOM     85  C   UNL A   1      44.391  26.049  35.954  1.00  0.00     0.198 A 
ATOM     86  C   UNL A   1      46.104  27.545  35.193  1.00  0.00     0.198 A 
ATOM     87  F   UNL A   1      45.530  29.481  33.988  1.00  0.00    -0.203 F 
ATOM     88  F   UNL A   1      44.023  24.959  36.644  1.00  0.00    -0.200 F 
ATOM     89  C   UNL A   1      45.731  26.398  35.875  1.00  0.00     0.200 A 
ATOM     90  F   UNL A   1      47.400  27.876  35.098  1.00  0.00    -0.200 F 
ATOM     91  F   UNL A   1      46.660  25.635  36.466  1.00  0.00    -0.200 F 
ENDBRANCH  58  81
ENDBRANCH  32  33
ENDBRANCH  24  27
ENDBRANCH  22  23
ENDBRANCH  21  22
ENDBRANCH  20  21
ENDBRANCH   1  20
TORSDOF 16
ENDMDL
MODEL 3
REMARK VINA RESULT:     -10.9      6.208     10.456
REMARK SMILES C[C@H]([NH2+]CCc1ccco1)[C@@H](C)C(=O)NCCCCNC(=O)c1ccc(-c2c3nc(c(-c4c(F)c(F)c(F)c(F)c4F)c4ccc([nH]4)c(-c4c(F)c(F)c(F)c(F)c4F)c4nc(c(-c5c(F)c(F)c(F)c(F)c5F)c5ccc2[nH]5)C=C4)C=C3)cc1
REMARK SMILES IDX 16 1 15 2 13 3 14 4 11 6 12 7 2 8 1 9 3 10 4 13 5 14 6 15
REMARK SMILES IDX 7 16 10 17 8 18 9 19 17 20 18 21 19 22 20 23 21 24 22 26
REMARK SMILES IDX 23 27 24 28 85 29 25 30 84 31 26 32 27 33 28 34 78 35 29 36
REMARK SMILES IDX 83 37 77 38 79 39 30 40 82 41 76 42 75 43 31 45 63 46 43 47
REMARK SMILES IDX 62 48 44 49 47 50 61 51 80 52 45 53 46 54 60 56 81 57 48 58
REMARK SMILES IDX 32 59 33 60 41 61 34 62 35 63 39 64 42 65 36 66 37 67 40 68
REMARK SMILES IDX 38 69 64 70 65 71 73 72 66 73 67 74 71 75 74 76 68 77 69 78
REMARK SMILES IDX 72 79 70 80 49 81 50 82 58 83 51 84 52 85 56 86 59 87 53 88
REMARK SMILES IDX 54 89 57 90 55 91
REMARK H PARENT 15 5 3 11 3 12 20 25 79 44 47 55
REMARK Flexibility Score: inf
ROOT
ATOM      1  C   UNL A   1      35.798  20.418  24.968  1.00  0.00     0.116 C 
ENDROOT
BRANCH   1   2
ATOM      2  N   UNL A   1      35.217  21.055  26.136  1.00  0.00    -0.356 N 
ATOM      3  C   UNL A   1      34.772  22.325  26.345  1.00  0.00     0.228 C 
ATOM      4  O   UNL A   1      34.310  22.581  27.462  1.00  0.00    -0.275 OA
ATOM      5  H   UNL A   1      35.128  20.462  26.918  1.00  0.00     0.163 HD
BRANCH   3   6
ATOM      6  C   UNL A   1      34.807  23.407  25.259  1.00  0.00     0.133 C 
ATOM      7  C   UNL A   1      35.899  24.425  25.608  1.00  0.00     0.024 C 
BRANCH   6   8
ATOM      8  C   UNL A   1      33.396  23.983  24.963  1.00  0.00     0.191 C 
ATOM      9  C   UNL A   1      33.206  25.364  25.619  1.00  0.00     0.076 C 
BRANCH   8  10
ATOM     10  N   UNL A   1      32.275  23.062  25.200  1.00  0.00    -0.343 N 
ATOM     11  H   UNL A   1      31.682  23.478  25.920  1.00  0.00     0.346 HD
ATOM     12  H   UNL A   1      32.708  22.177  25.461  1.00  0.00     0.346 HD
BRANCH  10  13
ATOM     13  C   UNL A   1      31.424  22.747  24.054  1.00  0.00     0.268 C 
BRANCH  13  14
ATOM     14  C   UNL A   1      32.118  21.776  23.087  1.00  0.00     0.136 C 
BRANCH  14  15
ATOM     15  C   UNL A   1      32.294  20.425  23.682  1.00  0.00     0.109 A 
ATOM     16  C   UNL A   1      32.547  19.182  23.143  1.00  0.00     0.046 A 
ATOM     17  O   UNL A   1      32.189  20.335  25.038  1.00  0.00    -0.469 OA
ATOM     18  C   UNL A   1      32.605  18.281  24.232  1.00  0.00     0.042 A 
ATOM     19  C   UNL A   1      32.387  19.032  25.363  1.00  0.00     0.195 A 
ENDBRANCH  14  15
ENDBRANCH  13  14
ENDBRANCH  10  13
ENDBRANCH   8  10
ENDBRANCH   6   8
ENDBRANCH   3   6
ENDBRANCH   1   2
BRANCH   1  20
ATOM     20  C   UNL A   1      37.267  20.797  24.773  1.00  0.00     0.023 C 
BRANCH  20  21
ATOM     21  C   UNL A   1      38.261  19.661  25.005  1.00  0.00     0.023 C 
BRANCH  21  22
ATOM     22  C   UNL A   1      39.337  19.943  26.044  1.00  0.00     0.116 C 
BRANCH  22  23
ATOM     23  N   UNL A   1      40.416  18.967  26.030  1.00  0.00    -0.352 N 
ATOM     24  C   UNL A   1      41.770  19.163  26.114  1.00  0.00     0.251 C 
ATOM     25  H   UNL A   1      40.131  18.028  25.948  1.00  0.00     0.163 HD
ATOM     26  O   UNL A   1      42.536  18.214  25.957  1.00  0.00    -0.269 OA
BRANCH  24  27
ATOM     27  C   UNL A   1      42.314  20.516  26.355  1.00  0.00     0.039 A 
ATOM     28  C   UNL A   1      42.689  21.287  25.253  1.00  0.00     0.014 A 
ATOM     29  C   UNL A   1      42.460  21.026  27.649  1.00  0.00     0.014 A 
ATOM     30  C   UNL A   1      43.156  22.587  25.446  1.00  0.00     0.010 A 
ATOM     31  C   UNL A   1      42.841  22.353  27.835  1.00  0.00     0.010 A 
ATOM     32  C   UNL A   1      43.202  23.144  26.735  1.00  0.00    -0.014 A 
BRANCH  32  33
ATOM     33  C   UNL A   1      43.614  24.559  26.924  1.00  0.00     0.031 A 
ATOM     34  C   UNL A   1      42.638  25.587  27.423  1.00  0.00     0.074 A 
ATOM     35  C   UNL A   1      44.878  24.918  26.623  1.00  0.00     0.049 A 
ATOM     36  N   UNL A   1      42.842  26.849  27.707  1.00  0.00    -0.248 NA
ATOM     37  C   UNL A   1      41.246  25.151  27.605  1.00  0.00     0.031 C 
ATOM     38  C   UNL A   1      45.895  24.029  26.059  1.00  0.00     0.029 A 
ATOM     39  N   UNL A   1      45.525  26.120  26.759  1.00  0.00    -0.354 N 
ATOM     40  C   UNL A   1      41.608  27.355  28.097  1.00  0.00     0.074 A 
ATOM     41  C   UNL A   1      40.649  26.282  27.950  1.00  0.00     0.031 C 
ATOM     42  C   UNL A   1      47.051  24.702  25.942  1.00  0.00     0.029 A 
ATOM     43  C   UNL A   1      46.847  26.075  26.391  1.00  0.00     0.049 A 
ATOM     44  H   UNL A   1      45.085  26.935  27.089  1.00  0.00     0.167 HD
ATOM     45  C   UNL A   1      41.309  28.591  28.562  1.00  0.00     0.037 A 
ATOM     46  C   UNL A   1      47.794  27.032  26.422  1.00  0.00     0.037 A 
ATOM     47  C   UNL A   1      42.272  29.652  28.715  1.00  0.00     0.049 A 
ATOM     48  C   UNL A   1      47.440  28.390  26.961  1.00  0.00     0.074 A 
ATOM     49  C   UNL A   1      42.083  30.922  29.231  1.00  0.00     0.029 A 
ATOM     50  N   UNL A   1      43.606  29.568  28.344  1.00  0.00    -0.354 N 
ATOM     51  N   UNL A   1      46.291  28.829  27.416  1.00  0.00    -0.248 NA
ATOM     52  C   UNL A   1      48.523  29.382  27.010  1.00  0.00     0.031 C 
ATOM     53  C   UNL A   1      43.288  31.625  29.119  1.00  0.00     0.029 A 
ATOM     54  C   UNL A   1      44.246  30.772  28.597  1.00  0.00     0.049 A 
ATOM     55  H   UNL A   1      44.035  28.770  27.958  1.00  0.00     0.167 HD
ATOM     56  C   UNL A   1      46.518  30.136  27.830  1.00  0.00     0.074 A 
ATOM     57  C   UNL A   1      47.922  30.407  27.595  1.00  0.00     0.031 C 
ATOM     58  C   UNL A   1      45.644  31.030  28.355  1.00  0.00     0.037 A 
BRANCH  45  59
ATOM     59  C   UNL A   1      39.879  28.866  28.939  1.00  0.00     0.064 A 
ATOM     60  C   UNL A   1      38.942  29.323  27.998  1.00  0.00     0.173 A 
ATOM     61  C   UNL A   1      39.431  28.636  30.249  1.00  0.00     0.173 A 
ATOM     62  F   UNL A   1      39.320  29.571  26.735  1.00  0.00    -0.203 F 
ATOM     63  C   UNL A   1      37.620  29.569  28.362  1.00  0.00     0.198 A 
ATOM     64  C   UNL A   1      38.100  28.850  30.599  1.00  0.00     0.198 A 
ATOM     65  F   UNL A   1      40.280  28.194  31.188  1.00  0.00    -0.203 F 
ATOM     66  F   UNL A   1      36.759  30.057  27.459  1.00  0.00    -0.200 F 
ATOM     67  C   UNL A   1      37.198  29.324  29.659  1.00  0.00     0.200 A 
ATOM     68  F   UNL A   1      37.689  28.597  31.851  1.00  0.00    -0.200 F 
ATOM     69  F   UNL A   1      35.924  29.552  30.005  1.00  0.00    -0.200 F 
ENDBRANCH  45  59
BRANCH  46  70
ATOM     70  C   UNL A   1      49.176  26.725  25.967  1.00  0.00     0.064 A 
ATOM     71  C   UNL A   1      49.591  27.022  24.661  1.00  0.00     0.173 A 
ATOM     72  C   UNL A   1      50.109  26.125  26.826  1.00  0.00     0.173 A 
ATOM     73  F   UNL A   1      48.732  27.580  23.795  1.00  0.00    -0.203 F 
ATOM     74  C   UNL A   1      50.877  26.707  24.224  1.00  0.00     0.198 A 
ATOM     75  C   UNL A   1      51.404  25.842  26.398  1.00  0.00     0.198 A 
ATOM     76  F   UNL A   1      49.765  25.830  28.088  1.00  0.00    -0.203 F 
ATOM     77  F   UNL A   1      51.229  26.953  22.955  1.00  0.00    -0.200 F 
ATOM     78  C   UNL A   1      51.783  26.123  25.094  1.00  0.00     0.200 A 
ATOM     79  F   UNL A   1      52.282  25.294  27.249  1.00  0.00    -0.200 F 
ATOM     80  F   UNL A   1      53.021  25.824  24.676  1.00  0.00    -0.200 F 
ENDBRANCH  46  70
BRANCH  58  81
ATOM     81  C   UNL A   1      46.194  32.373  28.745  1.00  0.00     0.064 A 
ATOM     82  C   UNL A   1      46.696  32.625  30.031  1.00  0.00     0.173 A 
ATOM     83  C   UNL A   1      46.216  33.426  27.817  1.00  0.00     0.173 A 
ATOM     84  F   UNL A   1      46.686  31.659  30.961  1.00  0.00    -0.203 F 
ATOM     85  C   UNL A   1      47.151  33.892  30.387  1.00  0.00     0.198 A 
ATOM     86  C   UNL A   1      46.709  34.681  28.165  1.00  0.00     0.198 A 
ATOM     87  F   UNL A   1      45.760  33.239  26.568  1.00  0.00    -0.203 F 
ATOM     88  F   UNL A   1      47.554  34.127  31.644  1.00  0.00    -0.200 F 
ATOM     89  C   UNL A   1      47.161  34.917  29.454  1.00  0.00     0.200 A 
ATOM     90  F   UNL A   1      46.735  35.664  27.255  1.00  0.00    -0.200 F 
ATOM     91  F   UNL A   1      47.595  36.137  29.800  1.00  0.00    -0.200 F 
ENDBRANCH  58  81
ENDBRANCH  32  33
ENDBRANCH  24  27
ENDBRANCH  22  23
ENDBRANCH  21  22
ENDBRANCH  20  21
ENDBRANCH   1  20
TORSDOF 16
ENDMDL
