MODEL 1
REMARK VINA RESULT:     -10.7      0.000      0.000
REMARK SMILES CC[N@@H+](CCC(C)(C)O)C[C@@H](C)C(=O)NCCCCNC(=O)c1ccc(-c2c3nc(c(-c4c(F)c(F)c(F)c(F)c4F)c4ccc([nH]4)c(-c4c(F)c(F)c(F)c(F)c4F)c4nc(c(-c5c(F)c(F)c(F)c(F)c5F)c5ccc2[nH]5)C=C4)C=C3)cc1
REMARK SMILES IDX 13 1 14 2 15 3 11 5 12 6 10 7 3 8 2 10 1 11 4 12 5 13 6 14
REMARK SMILES IDX 7 15 8 16 9 17 16 19 17 20 18 21 19 22 20 23 21 24 22 26
REMARK SMILES IDX 23 27 24 28 85 29 25 30 84 31 26 32 27 33 28 34 78 35 29 36
REMARK SMILES IDX 83 37 77 38 79 39 30 40 82 41 76 42 75 43 31 45 63 46 43 47
REMARK SMILES IDX 62 48 44 49 47 50 61 51 80 52 45 53 46 54 60 56 81 57 48 58
REMARK SMILES IDX 32 59 33 60 41 61 34 62 35 63 39 64 42 65 36 66 37 67 40 68
REMARK SMILES IDX 38 69 64 70 65 71 73 72 66 73 67 74 71 75 74 76 68 77 69 78
REMARK SMILES IDX 72 79 70 80 49 81 50 82 58 83 51 84 52 85 56 86 59 87 53 88
REMARK SMILES IDX 54 89 57 90 55 91
REMARK H PARENT 15 4 3 9 9 18 20 25 79 44 47 55
REMARK Flexibility Score: inf
ROOT
ATOM      1  C   UNL A   1      35.001  23.206  26.303  1.00  0.00     0.228 C 
ATOM      2  O   UNL A   1      34.146  23.075  27.185  1.00  0.00    -0.275 OA
ATOM      3  N   UNL A   1      36.213  22.617  26.491  1.00  0.00    -0.356 N 
ATOM      4  H   UNL A   1      36.306  22.113  27.331  1.00  0.00     0.163 HD
ENDROOT
BRANCH   1   5
ATOM      5  C   UNL A   1      34.686  24.003  25.044  1.00  0.00     0.130 C 
ATOM      6  C   UNL A   1      34.301  25.441  25.384  1.00  0.00     0.024 C 
BRANCH   5   7
ATOM      7  C   UNL A   1      33.765  23.177  24.116  1.00  0.00     0.275 C 
BRANCH   7   8
ATOM      8  N   UNL A   1      32.702  22.335  24.665  1.00  0.00    -0.334 N 
ATOM      9  H   UNL A   1      33.015  22.281  25.634  1.00  0.00     0.348 HD
BRANCH   8  10
ATOM     10  C   UNL A   1      31.386  22.926  24.867  1.00  0.00     0.258 C 
ATOM     11  C   UNL A   1      30.999  23.915  23.767  1.00  0.00     0.071 C 
ENDBRANCH   8  10
BRANCH   8  12
ATOM     12  C   UNL A   1      32.703  20.935  24.214  1.00  0.00     0.265 C 
BRANCH  12  13
ATOM     13  C   UNL A   1      33.882  20.039  24.631  1.00  0.00     0.096 C 
BRANCH  13  14
ATOM     14  C   UNL A   1      33.592  18.513  24.662  1.00  0.00     0.064 C 
ATOM     15  C   UNL A   1      32.544  18.136  23.612  1.00  0.00     0.042 C 
ATOM     16  C   UNL A   1      34.884  17.729  24.401  1.00  0.00     0.042 C 
BRANCH  14  17
ATOM     17  O   UNL A   1      33.042  18.113  25.917  1.00  0.00    -0.390 OA
ATOM     18  H   UNL A   1      32.358  18.744  26.186  1.00  0.00     0.211 HD
ENDBRANCH  14  17
ENDBRANCH  13  14
ENDBRANCH  12  13
ENDBRANCH   8  12
ENDBRANCH   7   8
ENDBRANCH   5   7
ENDBRANCH   1   5
BRANCH   3  19
ATOM     19  C   UNL A   1      37.388  22.620  25.645  1.00  0.00     0.116 C 
BRANCH  19  20
ATOM     20  C   UNL A   1      37.346  21.509  24.599  1.00  0.00     0.023 C 
BRANCH  20  21
ATOM     21  C   UNL A   1      38.072  20.225  24.998  1.00  0.00     0.023 C 
BRANCH  21  22
ATOM     22  C   UNL A   1      39.340  20.428  25.817  1.00  0.00     0.116 C 
BRANCH  22  23
ATOM     23  N   UNL A   1      40.214  19.264  25.847  1.00  0.00    -0.352 N 
ATOM     24  C   UNL A   1      41.554  19.227  26.144  1.00  0.00     0.251 C 
ATOM     25  H   UNL A   1      39.795  18.401  25.628  1.00  0.00     0.163 HD
ATOM     26  O   UNL A   1      42.182  18.175  26.114  1.00  0.00    -0.269 OA
BRANCH  24  27
ATOM     27  C   UNL A   1      42.237  20.497  26.440  1.00  0.00     0.039 A 
ATOM     28  C   UNL A   1      42.708  21.259  25.369  1.00  0.00     0.014 A 
ATOM     29  C   UNL A   1      42.320  20.970  27.752  1.00  0.00     0.014 A 
ATOM     30  C   UNL A   1      43.202  22.539  25.608  1.00  0.00     0.010 A 
ATOM     31  C   UNL A   1      42.756  22.269  27.981  1.00  0.00     0.010 A 
ATOM     32  C   UNL A   1      43.195  23.063  26.910  1.00  0.00    -0.014 A 
BRANCH  32  33
ATOM     33  C   UNL A   1      43.648  24.449  27.171  1.00  0.00     0.031 A 
ATOM     34  C   UNL A   1      42.679  25.459  27.709  1.00  0.00     0.074 A 
ATOM     35  C   UNL A   1      44.911  24.803  26.865  1.00  0.00     0.049 A 
ATOM     36  N   UNL A   1      42.862  26.731  27.952  1.00  0.00    -0.248 NA
ATOM     37  C   UNL A   1      41.314  24.982  27.983  1.00  0.00     0.031 C 
ATOM     38  C   UNL A   1      45.922  23.916  26.286  1.00  0.00     0.029 A 
ATOM     39  N   UNL A   1      45.556  26.006  26.991  1.00  0.00    -0.354 N 
ATOM     40  C   UNL A   1      41.633  27.209  28.388  1.00  0.00     0.074 A 
ATOM     41  C   UNL A   1      40.702  26.104  28.332  1.00  0.00     0.031 C 
ATOM     42  C   UNL A   1      47.066  24.601  26.127  1.00  0.00     0.029 A 
ATOM     43  C   UNL A   1      46.861  25.977  26.567  1.00  0.00     0.049 A 
ATOM     44  H   UNL A   1      45.124  26.814  27.352  1.00  0.00     0.167 HD
ATOM     45  C   UNL A   1      41.320  28.453  28.818  1.00  0.00     0.037 A 
ATOM     46  C   UNL A   1      47.786  26.956  26.540  1.00  0.00     0.037 A 
ATOM     47  C   UNL A   1      42.261  29.536  28.907  1.00  0.00     0.049 A 
ATOM     48  C   UNL A   1      47.418  28.322  27.051  1.00  0.00     0.074 A 
ATOM     49  C   UNL A   1      42.063  30.816  29.393  1.00  0.00     0.029 A 
ATOM     50  N   UNL A   1      43.586  29.461  28.502  1.00  0.00    -0.354 N 
ATOM     51  N   UNL A   1      46.273  28.745  27.528  1.00  0.00    -0.248 NA
ATOM     52  C   UNL A   1      48.474  29.344  27.027  1.00  0.00     0.031 C 
ATOM     53  C   UNL A   1      43.261  31.526  29.254  1.00  0.00     0.029 A 
ATOM     54  C   UNL A   1      44.214  30.677  28.715  1.00  0.00     0.049 A 
ATOM     55  H   UNL A   1      44.016  28.662  28.120  1.00  0.00     0.167 HD
ATOM     56  C   UNL A   1      46.474  30.071  27.884  1.00  0.00     0.074 A 
ATOM     57  C   UNL A   1      47.857  30.379  27.580  1.00  0.00     0.031 C 
ATOM     58  C   UNL A   1      45.595  30.954  28.415  1.00  0.00     0.037 A 
BRANCH  45  59
ATOM     59  C   UNL A   1      39.901  28.702  29.234  1.00  0.00     0.064 A 
ATOM     60  C   UNL A   1      38.944  29.177  28.324  1.00  0.00     0.173 A 
ATOM     61  C   UNL A   1      39.488  28.442  30.548  1.00  0.00     0.173 A 
ATOM     62  F   UNL A   1      39.295  29.456  27.060  1.00  0.00    -0.203 F 
ATOM     63  C   UNL A   1      37.630  29.408  28.722  1.00  0.00     0.198 A 
ATOM     64  C   UNL A   1      38.167  28.650  30.936  1.00  0.00     0.198 A 
ATOM     65  F   UNL A   1      40.364  27.986  31.455  1.00  0.00    -0.203 F 
ATOM     66  F   UNL A   1      36.745  29.907  27.849  1.00  0.00    -0.200 F 
ATOM     67  C   UNL A   1      37.241  29.139  30.026  1.00  0.00     0.200 A 
ATOM     68  F   UNL A   1      37.790  28.381  32.194  1.00  0.00    -0.200 F 
ATOM     69  F   UNL A   1      35.976  29.358  30.408  1.00  0.00    -0.200 F 
ENDBRANCH  45  59
BRANCH  46  70
ATOM     70  C   UNL A   1      49.157  26.669  26.049  1.00  0.00     0.064 A 
ATOM     71  C   UNL A   1      49.526  26.980  24.732  1.00  0.00     0.173 A 
ATOM     72  C   UNL A   1      50.123  26.079  26.875  1.00  0.00     0.173 A 
ATOM     73  F   UNL A   1      48.630  27.528  23.898  1.00  0.00    -0.203 F 
ATOM     74  C   UNL A   1      50.803  26.694  24.255  1.00  0.00     0.198 A 
ATOM     75  C   UNL A   1      51.408  25.816  26.405  1.00  0.00     0.198 A 
ATOM     76  F   UNL A   1      49.821  25.768  28.144  1.00  0.00    -0.203 F 
ATOM     77  F   UNL A   1      51.117  26.965  22.981  1.00  0.00    -0.200 F 
ATOM     78  C   UNL A   1      51.744  26.116  25.094  1.00  0.00     0.200 A 
ATOM     79  F   UNL A   1      52.319  25.267  27.221  1.00  0.00    -0.200 F 
ATOM     80  F   UNL A   1      52.974  25.843  24.635  1.00  0.00    -0.200 F 
ENDBRANCH  46  70
BRANCH  58  81
ATOM     81  C   UNL A   1      46.110  32.326  28.730  1.00  0.00     0.064 A 
ATOM     82  C   UNL A   1      46.700  32.619  29.967  1.00  0.00     0.173 A 
ATOM     83  C   UNL A   1      46.053  33.344  27.766  1.00  0.00     0.173 A 
ATOM     84  F   UNL A   1      46.762  31.682  30.924  1.00  0.00    -0.203 F 
ATOM     85  C   UNL A   1      47.198  33.890  30.236  1.00  0.00     0.198 A 
ATOM     86  C   UNL A   1      46.575  34.606  28.029  1.00  0.00     0.198 A 
ATOM     87  F   UNL A   1      45.503  33.107  26.565  1.00  0.00    -0.203 F 
ATOM     88  F   UNL A   1      47.723  34.161  31.439  1.00  0.00    -0.200 F 
ATOM     89  C   UNL A   1      47.141  34.880  29.265  1.00  0.00     0.200 A 
ATOM     90  F   UNL A   1      46.529  35.558  27.088  1.00  0.00    -0.200 F 
ATOM     91  F   UNL A   1      47.628  36.102  29.523  1.00  0.00    -0.200 F 
ENDBRANCH  58  81
ENDBRANCH  32  33
ENDBRANCH  24  27
ENDBRANCH  22  23
ENDBRANCH  21  22
ENDBRANCH  20  21
ENDBRANCH  19  20
ENDBRANCH   3  19
TORSDOF 18
ENDMDL
MODEL 2
REMARK VINA RESULT:     -10.6      0.657      7.687
REMARK SMILES CC[N@@H+](CCC(C)(C)O)C[C@@H](C)C(=O)NCCCCNC(=O)c1ccc(-c2c3nc(c(-c4c(F)c(F)c(F)c(F)c4F)c4ccc([nH]4)c(-c4c(F)c(F)c(F)c(F)c4F)c4nc(c(-c5c(F)c(F)c(F)c(F)c5F)c5ccc2[nH]5)C=C4)C=C3)cc1
REMARK SMILES IDX 13 1 14 2 15 3 11 5 12 6 10 7 3 8 2 10 1 11 4 12 5 13 6 14
REMARK SMILES IDX 7 15 8 16 9 17 16 19 17 20 18 21 19 22 20 23 21 24 22 26
REMARK SMILES IDX 23 27 24 28 85 29 25 30 84 31 26 32 27 33 28 34 78 35 29 36
REMARK SMILES IDX 83 37 77 38 79 39 30 40 82 41 76 42 75 43 31 45 63 46 43 47
REMARK SMILES IDX 62 48 44 49 47 50 61 51 80 52 45 53 46 54 60 56 81 57 48 58
REMARK SMILES IDX 32 59 33 60 41 61 34 62 35 63 39 64 42 65 36 66 37 67 40 68
REMARK SMILES IDX 38 69 64 70 65 71 73 72 66 73 67 74 71 75 74 76 68 77 69 78
REMARK SMILES IDX 72 79 70 80 49 81 50 82 58 83 51 84 52 85 56 86 59 87 53 88
REMARK SMILES IDX 54 89 57 90 55 91
REMARK H PARENT 15 4 3 9 9 18 20 25 79 44 47 55
REMARK Flexibility Score: inf
ROOT
ATOM      1  C   UNL A   1      35.095  23.300  26.325  1.00  0.00     0.228 C 
ATOM      2  O   UNL A   1      34.269  23.212  27.239  1.00  0.00    -0.275 OA
ATOM      3  N   UNL A   1      36.301  22.693  26.487  1.00  0.00    -0.356 N 
ATOM      4  H   UNL A   1      36.414  22.210  27.338  1.00  0.00     0.163 HD
ENDROOT
BRANCH   1   5
ATOM      5  C   UNL A   1      34.751  24.067  25.054  1.00  0.00     0.130 C 
ATOM      6  C   UNL A   1      34.284  25.485  25.377  1.00  0.00     0.024 C 
BRANCH   5   7
ATOM      7  C   UNL A   1      33.888  23.184  24.124  1.00  0.00     0.275 C 
BRANCH   7   8
ATOM      8  N   UNL A   1      33.082  22.087  24.662  1.00  0.00    -0.334 N 
ATOM      9  H   UNL A   1      33.455  22.054  25.610  1.00  0.00     0.348 HD
BRANCH   8  10
ATOM     10  C   UNL A   1      31.679  22.341  24.962  1.00  0.00     0.258 C 
ATOM     11  C   UNL A   1      31.106  23.526  24.182  1.00  0.00     0.071 C 
ENDBRANCH   8  10
BRANCH   8  12
ATOM     12  C   UNL A   1      33.379  20.753  24.118  1.00  0.00     0.265 C 
BRANCH  12  13
ATOM     13  C   UNL A   1      34.009  19.710  25.057  1.00  0.00     0.096 C 
BRANCH  13  14
ATOM     14  C   UNL A   1      33.542  18.243  24.846  1.00  0.00     0.064 C 
ATOM     15  C   UNL A   1      32.304  18.189  23.947  1.00  0.00     0.042 C 
ATOM     16  C   UNL A   1      34.671  17.421  24.213  1.00  0.00     0.042 C 
BRANCH  14  17
ATOM     17  O   UNL A   1      33.151  17.640  26.078  1.00  0.00    -0.390 OA
ATOM     18  H   UNL A   1      32.632  18.272  26.598  1.00  0.00     0.211 HD
ENDBRANCH  14  17
ENDBRANCH  13  14
ENDBRANCH  12  13
ENDBRANCH   8  12
ENDBRANCH   7   8
ENDBRANCH   5   7
ENDBRANCH   1   5
BRANCH   3  19
ATOM     19  C   UNL A   1      37.445  22.649  25.601  1.00  0.00     0.116 C 
BRANCH  19  20
ATOM     20  C   UNL A   1      37.323  21.542  24.558  1.00  0.00     0.023 C 
BRANCH  20  21
ATOM     21  C   UNL A   1      38.016  20.231  24.927  1.00  0.00     0.023 C 
BRANCH  21  22
ATOM     22  C   UNL A   1      39.167  20.367  25.915  1.00  0.00     0.116 C 
BRANCH  22  23
ATOM     23  N   UNL A   1      40.134  19.280  25.846  1.00  0.00    -0.352 N 
ATOM     24  C   UNL A   1      41.487  19.343  26.072  1.00  0.00     0.251 C 
ATOM     25  H   UNL A   1      39.774  18.395  25.609  1.00  0.00     0.163 HD
ATOM     26  O   UNL A   1      42.195  18.349  25.960  1.00  0.00    -0.269 OA
BRANCH  24  27
ATOM     27  C   UNL A   1      42.080  20.651  26.390  1.00  0.00     0.039 A 
ATOM     28  C   UNL A   1      42.399  21.507  25.334  1.00  0.00     0.014 A 
ATOM     29  C   UNL A   1      42.223  21.062  27.718  1.00  0.00     0.014 A 
ATOM     30  C   UNL A   1      42.799  22.811  25.610  1.00  0.00     0.010 A 
ATOM     31  C   UNL A   1      42.562  22.381  27.990  1.00  0.00     0.010 A 
ATOM     32  C   UNL A   1      42.848  23.266  26.938  1.00  0.00    -0.014 A 
BRANCH  32  33
ATOM     33  C   UNL A   1      43.200  24.671  27.246  1.00  0.00     0.031 A 
ATOM     34  C   UNL A   1      44.597  25.158  27.000  1.00  0.00     0.074 A 
ATOM     35  C   UNL A   1      42.277  25.480  27.800  1.00  0.00     0.049 A 
ATOM     36  N   UNL A   1      45.119  26.330  27.253  1.00  0.00    -0.248 NA
ATOM     37  C   UNL A   1      45.540  24.189  26.421  1.00  0.00     0.031 C 
ATOM     38  C   UNL A   1      40.904  25.096  28.132  1.00  0.00     0.029 A 
ATOM     39  N   UNL A   1      42.359  26.793  28.188  1.00  0.00    -0.354 N 
ATOM     40  C   UNL A   1      46.453  26.233  26.881  1.00  0.00     0.074 A 
ATOM     41  C   UNL A   1      46.672  24.876  26.431  1.00  0.00     0.031 C 
ATOM     42  C   UNL A   1      40.266  26.156  28.655  1.00  0.00     0.029 A 
ATOM     43  C   UNL A   1      41.192  27.283  28.718  1.00  0.00     0.049 A 
ATOM     44  H   UNL A   1      43.178  27.332  28.095  1.00  0.00     0.167 HD
ATOM     45  C   UNL A   1      47.402  27.197  26.894  1.00  0.00     0.037 A 
ATOM     46  C   UNL A   1      40.906  28.508  29.200  1.00  0.00     0.037 A 
ATOM     47  C   UNL A   1      47.166  28.554  27.308  1.00  0.00     0.049 A 
ATOM     48  C   UNL A   1      41.971  29.569  29.175  1.00  0.00     0.074 A 
ATOM     49  C   UNL A   1      48.041  29.626  27.295  1.00  0.00     0.029 A 
ATOM     50  N   UNL A   1      45.961  29.025  27.807  1.00  0.00    -0.354 N 
ATOM     51  N   UNL A   1      43.209  29.487  28.756  1.00  0.00    -0.248 NA
ATOM     52  C   UNL A   1      41.595  30.896  29.685  1.00  0.00     0.031 C 
ATOM     53  C   UNL A   1      47.372  30.740  27.814  1.00  0.00     0.029 A 
ATOM     54  C   UNL A   1      46.072  30.370  28.117  1.00  0.00     0.049 A 
ATOM     55  H   UNL A   1      45.146  28.483  27.922  1.00  0.00     0.167 HD
ATOM     56  C   UNL A   1      43.755  30.752  28.925  1.00  0.00     0.074 A 
ATOM     57  C   UNL A   1      42.707  31.588  29.474  1.00  0.00     0.031 C 
ATOM     58  C   UNL A   1      45.010  31.182  28.651  1.00  0.00     0.037 A 
BRANCH  45  59
ATOM     59  C   UNL A   1      48.779  26.817  26.438  1.00  0.00     0.064 A 
ATOM     60  C   UNL A   1      49.727  26.295  27.330  1.00  0.00     0.173 A 
ATOM     61  C   UNL A   1      49.146  26.955  25.092  1.00  0.00     0.173 A 
ATOM     62  F   UNL A   1      49.428  26.159  28.631  1.00  0.00    -0.203 F 
ATOM     63  C   UNL A   1      51.004  25.948  26.895  1.00  0.00     0.198 A 
ATOM     64  C   UNL A   1      50.416  26.584  24.656  1.00  0.00     0.198 A 
ATOM     65  F   UNL A   1      48.275  27.448  24.200  1.00  0.00    -0.203 F 
ATOM     66  F   UNL A   1      51.909  25.496  27.774  1.00  0.00    -0.200 F 
ATOM     67  C   UNL A   1      51.345  26.087  25.558  1.00  0.00     0.200 A 
ATOM     68  F   UNL A   1      50.741  26.710  23.363  1.00  0.00    -0.200 F 
ATOM     69  F   UNL A   1      52.572  25.751  25.140  1.00  0.00    -0.200 F 
ENDBRANCH  45  59
BRANCH  46  70
ATOM     70  C   UNL A   1      39.542  28.806  29.707  1.00  0.00     0.064 A 
ATOM     71  C   UNL A   1      39.208  28.564  31.047  1.00  0.00     0.173 A 
ATOM     72  C   UNL A   1      38.549  29.334  28.872  1.00  0.00     0.173 A 
ATOM     73  F   UNL A   1      40.121  28.042  31.880  1.00  0.00    -0.203 F 
ATOM     74  C   UNL A   1      37.926  28.821  31.527  1.00  0.00     0.198 A 
ATOM     75  C   UNL A   1      37.273  29.613  29.358  1.00  0.00     0.198 A 
ATOM     76  F   UNL A   1      38.821  29.588  27.583  1.00  0.00    -0.203 F 
ATOM     77  F   UNL A   1      37.622  28.543  32.802  1.00  0.00    -0.200 F 
ATOM     78  C   UNL A   1      36.961  29.349  30.683  1.00  0.00     0.200 A 
ATOM     79  F   UNL A   1      36.346  30.133  28.543  1.00  0.00    -0.200 F 
ATOM     80  F   UNL A   1      35.727  29.597  31.146  1.00  0.00    -0.200 F 
ENDBRANCH  46  70
BRANCH  58  81
ATOM     81  C   UNL A   1      45.307  32.629  28.910  1.00  0.00     0.064 A 
ATOM     82  C   UNL A   1      45.054  33.612  27.945  1.00  0.00     0.173 A 
ATOM     83  C   UNL A   1      45.808  33.038  30.155  1.00  0.00     0.173 A 
ATOM     84  F   UNL A   1      44.590  33.266  26.734  1.00  0.00    -0.203 F 
ATOM     85  C   UNL A   1      45.310  34.954  28.209  1.00  0.00     0.198 A 
ATOM     86  C   UNL A   1      46.039  34.383  30.425  1.00  0.00     0.198 A 
ATOM     87  F   UNL A   1      46.060  32.132  31.113  1.00  0.00    -0.203 F 
ATOM     88  F   UNL A   1      45.098  35.875  27.258  1.00  0.00    -0.200 F 
ATOM     89  C   UNL A   1      45.796  35.339  29.450  1.00  0.00     0.200 A 
ATOM     90  F   UNL A   1      46.499  34.754  31.627  1.00  0.00    -0.200 F 
ATOM     91  F   UNL A   1      46.035  36.632  29.705  1.00  0.00    -0.200 F 
ENDBRANCH  58  81
ENDBRANCH  32  33
ENDBRANCH  24  27
ENDBRANCH  22  23
ENDBRANCH  21  22
ENDBRANCH  20  21
ENDBRANCH  19  20
ENDBRANCH   3  19
TORSDOF 18
ENDMDL
MODEL 3
REMARK VINA RESULT:     -10.3      5.761      9.943
REMARK SMILES CC[N@@H+](CCC(C)(C)O)C[C@@H](C)C(=O)NCCCCNC(=O)c1ccc(-c2c3nc(c(-c4c(F)c(F)c(F)c(F)c4F)c4ccc([nH]4)c(-c4c(F)c(F)c(F)c(F)c4F)c4nc(c(-c5c(F)c(F)c(F)c(F)c5F)c5ccc2[nH]5)C=C4)C=C3)cc1
REMARK SMILES IDX 13 1 14 2 15 3 11 5 12 6 10 7 3 8 2 10 1 11 4 12 5 13 6 14
REMARK SMILES IDX 7 15 8 16 9 17 16 19 17 20 18 21 19 22 20 23 21 24 22 26
REMARK SMILES IDX 23 27 24 28 85 29 25 30 84 31 26 32 27 33 28 34 78 35 29 36
REMARK SMILES IDX 83 37 77 38 79 39 30 40 82 41 76 42 75 43 31 45 63 46 43 47
REMARK SMILES IDX 62 48 44 49 47 50 61 51 80 52 45 53 46 54 60 56 81 57 48 58
REMARK SMILES IDX 32 59 33 60 41 61 34 62 35 63 39 64 42 65 36 66 37 67 40 68
REMARK SMILES IDX 38 69 64 70 65 71 73 72 66 73 67 74 71 75 74 76 68 77 69 78
REMARK SMILES IDX 72 79 70 80 49 81 50 82 58 83 51 84 52 85 56 86 59 87 53 88
REMARK SMILES IDX 54 89 57 90 55 91
REMARK H PARENT 15 4 3 9 9 18 20 25 79 44 47 55
REMARK Flexibility Score: inf
ROOT
ATOM      1  C   UNL A   1      33.305  28.701  23.887  1.00  0.00     0.228 C 
ATOM      2  O   UNL A   1      34.123  28.892  22.982  1.00  0.00    -0.275 OA
ATOM      3  N   UNL A   1      32.430  29.699  24.185  1.00  0.00    -0.356 N 
ATOM      4  H   UNL A   1      32.516  30.509  23.630  1.00  0.00     0.163 HD
ENDROOT
BRANCH   1   5
ATOM      5  C   UNL A   1      33.287  27.373  24.634  1.00  0.00     0.130 C 
ATOM      6  C   UNL A   1      34.039  27.478  25.959  1.00  0.00     0.024 C 
BRANCH   5   7
ATOM      7  C   UNL A   1      33.629  26.219  23.664  1.00  0.00     0.275 C 
BRANCH   7   8
ATOM      8  N   UNL A   1      33.648  24.830  24.123  1.00  0.00    -0.334 N 
ATOM      9  H   UNL A   1      33.437  24.360  23.243  1.00  0.00     0.348 HD
BRANCH   8  10
ATOM     10  C   UNL A   1      34.935  24.218  24.423  1.00  0.00     0.258 C 
ATOM     11  C   UNL A   1      35.124  22.860  23.745  1.00  0.00     0.071 C 
ENDBRANCH   8  10
BRANCH   8  12
ATOM     12  C   UNL A   1      32.540  24.438  25.008  1.00  0.00     0.265 C 
BRANCH  12  13
ATOM     13  C   UNL A   1      32.872  24.060  26.463  1.00  0.00     0.096 C 
BRANCH  13  14
ATOM     14  C   UNL A   1      32.641  22.572  26.843  1.00  0.00     0.064 C 
ATOM     15  C   UNL A   1      31.984  21.811  25.689  1.00  0.00     0.042 C 
ATOM     16  C   UNL A   1      33.978  21.909  27.197  1.00  0.00     0.042 C 
BRANCH  14  17
ATOM     17  O   UNL A   1      31.745  22.450  27.946  1.00  0.00    -0.390 OA
ATOM     18  H   UNL A   1      32.114  22.910  28.715  1.00  0.00     0.211 HD
ENDBRANCH  14  17
ENDBRANCH  13  14
ENDBRANCH  12  13
ENDBRANCH   8  12
ENDBRANCH   7   8
ENDBRANCH   5   7
ENDBRANCH   1   5
BRANCH   3  19
ATOM     19  C   UNL A   1      31.392  29.754  25.192  1.00  0.00     0.116 C 
BRANCH  19  20
ATOM     20  C   UNL A   1      31.886  30.383  26.493  1.00  0.00     0.023 C 
BRANCH  20  21
ATOM     21  C   UNL A   1      31.606  31.879  26.629  1.00  0.00     0.023 C 
BRANCH  21  22
ATOM     22  C   UNL A   1      32.736  32.692  27.248  1.00  0.00     0.116 C 
BRANCH  22  23
ATOM     23  N   UNL A   1      32.350  34.044  27.625  1.00  0.00    -0.352 N 
ATOM     24  C   UNL A   1      32.958  34.867  28.540  1.00  0.00     0.251 C 
ATOM     25  H   UNL A   1      31.558  34.412  27.170  1.00  0.00     0.163 HD
ATOM     26  O   UNL A   1      32.516  35.985  28.781  1.00  0.00    -0.269 OA
BRANCH  24  27
ATOM     27  C   UNL A   1      34.122  34.350  29.277  1.00  0.00     0.039 A 
ATOM     28  C   UNL A   1      33.893  33.528  30.382  1.00  0.00     0.014 A 
ATOM     29  C   UNL A   1      35.419  34.596  28.819  1.00  0.00     0.014 A 
ATOM     30  C   UNL A   1      34.969  32.888  30.991  1.00  0.00     0.010 A 
ATOM     31  C   UNL A   1      36.484  33.909  29.388  1.00  0.00     0.010 A 
ATOM     32  C   UNL A   1      36.265  33.047  30.474  1.00  0.00    -0.014 A 
BRANCH  32  33
ATOM     33  C   UNL A   1      37.411  32.316  31.063  1.00  0.00     0.031 A 
ATOM     34  C   UNL A   1      37.896  32.678  32.435  1.00  0.00     0.074 A 
ATOM     35  C   UNL A   1      38.043  31.375  30.336  1.00  0.00     0.049 A 
ATOM     36  N   UNL A   1      38.913  32.199  33.104  1.00  0.00    -0.248 NA
ATOM     37  C   UNL A   1      37.158  33.740  33.136  1.00  0.00     0.031 C 
ATOM     38  C   UNL A   1      37.690  30.981  28.971  1.00  0.00     0.029 A 
ATOM     39  N   UNL A   1      39.121  30.585  30.642  1.00  0.00    -0.354 N 
ATOM     40  C   UNL A   1      38.947  32.913  34.294  1.00  0.00     0.074 A 
ATOM     41  C   UNL A   1      37.881  33.889  34.236  1.00  0.00     0.031 C 
ATOM     42  C   UNL A   1      38.523  30.009  28.565  1.00  0.00     0.029 A 
ATOM     43  C   UNL A   1      39.482  29.731  29.630  1.00  0.00     0.049 A 
ATOM     44  H   UNL A   1      39.591  30.627  31.507  1.00  0.00     0.167 HD
ATOM     45  C   UNL A   1      39.780  32.752  35.348  1.00  0.00     0.037 A 
ATOM     46  C   UNL A   1      40.477  28.825  29.574  1.00  0.00     0.037 A 
ATOM     47  C   UNL A   1      40.814  31.754  35.412  1.00  0.00     0.049 A 
ATOM     48  C   UNL A   1      41.370  28.647  30.771  1.00  0.00     0.074 A 
ATOM     49  C   UNL A   1      41.668  31.462  36.460  1.00  0.00     0.029 A 
ATOM     50  N   UNL A   1      41.129  30.881  34.381  1.00  0.00    -0.354 N 
ATOM     51  N   UNL A   1      41.349  29.278  31.919  1.00  0.00    -0.248 NA
ATOM     52  C   UNL A   1      42.420  27.623  30.666  1.00  0.00     0.031 C 
ATOM     53  C   UNL A   1      42.521  30.429  36.052  1.00  0.00     0.029 A 
ATOM     54  C   UNL A   1      42.174  30.057  34.764  1.00  0.00     0.049 A 
ATOM     55  H   UNL A   1      40.676  30.852  33.507  1.00  0.00     0.167 HD
ATOM     56  C   UNL A   1      42.362  28.715  32.683  1.00  0.00     0.074 A 
ATOM     57  C   UNL A   1      42.970  27.680  31.872  1.00  0.00     0.031 C 
ATOM     58  C   UNL A   1      42.753  29.026  33.941  1.00  0.00     0.037 A 
BRANCH  45  59
ATOM     59  C   UNL A   1      39.599  33.671  36.518  1.00  0.00     0.064 A 
ATOM     60  C   UNL A   1      38.806  33.308  37.618  1.00  0.00     0.173 A 
ATOM     61  C   UNL A   1      40.241  34.917  36.551  1.00  0.00     0.173 A 
ATOM     62  F   UNL A   1      38.159  32.134  37.625  1.00  0.00    -0.203 F 
ATOM     63  C   UNL A   1      38.642  34.172  38.697  1.00  0.00     0.198 A 
ATOM     64  C   UNL A   1      40.095  35.768  37.644  1.00  0.00     0.198 A 
ATOM     65  F   UNL A   1      41.010  35.310  35.525  1.00  0.00    -0.203 F 
ATOM     66  F   UNL A   1      37.842  33.825  39.715  1.00  0.00    -0.200 F 
ATOM     67  C   UNL A   1      39.291  35.398  38.712  1.00  0.00     0.200 A 
ATOM     68  F   UNL A   1      40.729  36.948  37.661  1.00  0.00    -0.200 F 
ATOM     69  F   UNL A   1      39.135  36.227  39.753  1.00  0.00    -0.200 F 
ENDBRANCH  45  59
BRANCH  46  70
ATOM     70  C   UNL A   1      40.655  27.992  28.358  1.00  0.00     0.064 A 
ATOM     71  C   UNL A   1      40.046  26.733  28.257  1.00  0.00     0.173 A 
ATOM     72  C   UNL A   1      41.432  28.430  27.278  1.00  0.00     0.173 A 
ATOM     73  F   UNL A   1      39.308  26.263  29.273  1.00  0.00    -0.203 F 
ATOM     74  C   UNL A   1      40.225  25.935  27.129  1.00  0.00     0.198 A 
ATOM     75  C   UNL A   1      41.592  27.642  26.139  1.00  0.00     0.198 A 
ATOM     76  F   UNL A   1      42.031  29.629  27.324  1.00  0.00    -0.203 F 
ATOM     77  F   UNL A   1      39.665  24.719  27.074  1.00  0.00    -0.200 F 
ATOM     78  C   UNL A   1      40.994  26.392  26.069  1.00  0.00     0.200 A 
ATOM     79  F   UNL A   1      42.327  28.091  25.113  1.00  0.00    -0.200 F 
ATOM     80  F   UNL A   1      41.165  25.625  24.983  1.00  0.00    -0.200 F 
ENDBRANCH  46  70
BRANCH  58  81
ATOM     81  C   UNL A   1      43.870  28.217  34.529  1.00  0.00     0.064 A 
ATOM     82  C   UNL A   1      45.203  28.643  34.449  1.00  0.00     0.173 A 
ATOM     83  C   UNL A   1      43.597  27.027  35.220  1.00  0.00     0.173 A 
ATOM     84  F   UNL A   1      45.513  29.767  33.784  1.00  0.00    -0.203 F 
ATOM     85  C   UNL A   1      46.227  27.896  35.022  1.00  0.00     0.198 A 
ATOM     86  C   UNL A   1      44.620  26.296  35.815  1.00  0.00     0.198 A 
ATOM     87  F   UNL A   1      42.335  26.584  35.329  1.00  0.00    -0.203 F 
ATOM     88  F   UNL A   1      47.499  28.300  34.900  1.00  0.00    -0.200 F 
ATOM     89  C   UNL A   1      45.934  26.727  35.710  1.00  0.00     0.200 A 
ATOM     90  F   UNL A   1      44.335  25.172  36.487  1.00  0.00    -0.200 F 
ATOM     91  F   UNL A   1      46.920  26.012  36.269  1.00  0.00    -0.200 F 
ENDBRANCH  58  81
ENDBRANCH  32  33
ENDBRANCH  24  27
ENDBRANCH  22  23
ENDBRANCH  21  22
ENDBRANCH  20  21
ENDBRANCH  19  20
ENDBRANCH   3  19
TORSDOF 18
ENDMDL
