MODEL 1
REMARK VINA RESULT:     -13.2      0.000      0.000
REMARK SMILES Cc1ccc(S(=O)(=O)Nc2cc3c(cc2C(=O)NCCCCNC(=O)c2ccc(-c4c5nc(c(-c6c(F)c(F)c(F)c(F)c6F)c6ccc([nH]6)c(-c6c(F)c(F)c(F)c(F)c6F)c6nc(c(-c7c(F)c(F)c(F)c(F)c7F)c7ccc4[nH]7)C=C6)C=C5)cc2)OCCO3)s1
REMARK SMILES IDX 20 1 19 2 18 3 16 4 17 5 15 7 10 8 11 9 12 10 14 11 13 12
REMARK SMILES IDX 92 13 89 14 91 15 90 16 9 17 6 19 7 20 8 21 5 22 1 23 2 24
REMARK SMILES IDX 3 25 93 26 4 27 21 28 22 29 23 30 24 31 25 33 26 34 27 35
REMARK SMILES IDX 88 36 28 37 87 38 29 39 30 40 31 41 81 42 32 43 86 44 80 45
REMARK SMILES IDX 82 46 33 47 85 48 79 49 78 50 34 52 66 53 46 54 65 55 47 56
REMARK SMILES IDX 50 57 64 58 83 59 48 60 49 61 63 63 84 64 51 65 35 66 36 67
REMARK SMILES IDX 44 68 37 69 38 70 42 71 45 72 39 73 40 74 43 75 41 76 67 77
REMARK SMILES IDX 68 78 76 79 69 80 70 81 74 82 77 83 71 84 72 85 75 86 73 87
REMARK SMILES IDX 52 88 53 89 61 90 54 91 55 92 59 93 62 94 56 95 57 96 60 97
REMARK SMILES IDX 58 98
REMARK H PARENT 18 6 9 18 23 32 82 51 50 62
REMARK Flexibility Score: inf
ROOT
ATOM      1  C   UNL A   1      37.397  20.839  24.597  1.00  0.00     0.023 C 
ENDROOT
BRANCH   1   2
ATOM      2  C   UNL A   1      37.360  21.994  25.589  1.00  0.00     0.116 C 
BRANCH   2   3
ATOM      3  N   UNL A   1      36.232  21.995  26.504  1.00  0.00    -0.352 N 
ATOM      4  C   UNL A   1      34.928  22.409  26.332  1.00  0.00     0.253 C 
ATOM      5  O   UNL A   1      34.112  22.143  27.209  1.00  0.00    -0.269 OA
ATOM      6  H   UNL A   1      36.433  21.641  27.401  1.00  0.00     0.163 HD
BRANCH   4   7
ATOM      7  C   UNL A   1      34.522  23.190  25.135  1.00  0.00     0.067 A 
ATOM      8  C   UNL A   1      34.020  22.547  23.984  1.00  0.00     0.066 A 
ATOM      9  C   UNL A   1      33.522  23.314  22.922  1.00  0.00     0.078 A 
ATOM     10  C   UNL A   1      33.515  24.706  23.010  1.00  0.00     0.163 A 
ATOM     11  C   UNL A   1      34.627  24.585  25.151  1.00  0.00     0.066 A 
ATOM     12  C   UNL A   1      34.060  25.337  24.130  1.00  0.00     0.162 A 
ATOM     13  O   UNL A   1      32.942  25.396  21.973  1.00  0.00    -0.486 OA
ATOM     14  O   UNL A   1      34.043  26.695  24.315  1.00  0.00    -0.486 OA
ATOM     15  C   UNL A   1      33.195  26.806  22.054  1.00  0.00     0.271 C 
ATOM     16  C   UNL A   1      33.050  27.305  23.482  1.00  0.00     0.271 C 
BRANCH   8  17
ATOM     17  N   UNL A   1      34.026  21.118  23.882  1.00  0.00    -0.278 N 
ATOM     18  H   UNL A   1      34.877  20.624  23.831  1.00  0.00     0.180 HD
BRANCH  17  19
ATOM     19  S   UNL A   1      32.555  20.294  23.852  1.00  0.00     0.271 S 
ATOM     20  O   UNL A   1      31.921  20.582  22.590  1.00  0.00    -0.200 OA
ATOM     21  O   UNL A   1      31.879  20.594  25.103  1.00  0.00    -0.200 OA
BRANCH  19  22
ATOM     22  C   UNL A   1      32.861  18.543  23.937  1.00  0.00     0.140 A 
ATOM     23  C   UNL A   1      33.049  15.018  25.654  1.00  0.00     0.056 C 
ATOM     24  C   UNL A   1      33.070  16.238  24.796  1.00  0.00     0.003 A 
ATOM     25  C   UNL A   1      33.561  16.361  23.513  1.00  0.00     0.016 A 
ATOM     26  S   UNL A   1      32.436  17.720  25.372  1.00  0.00    -0.127 S 
ATOM     27  C   UNL A   1      33.425  17.683  23.013  1.00  0.00     0.034 A 
ENDBRANCH  19  22
ENDBRANCH  17  19
ENDBRANCH   8  17
ENDBRANCH   4   7
ENDBRANCH   2   3
ENDBRANCH   1   2
BRANCH   1  28
ATOM     28  C   UNL A   1      38.240  19.629  24.970  1.00  0.00     0.023 C 
BRANCH  28  29
ATOM     29  C   UNL A   1      39.322  19.878  26.009  1.00  0.00     0.116 C 
BRANCH  29  30
ATOM     30  N   UNL A   1      40.427  18.936  25.935  1.00  0.00    -0.352 N 
ATOM     31  C   UNL A   1      41.778  19.154  26.049  1.00  0.00     0.251 C 
ATOM     32  H   UNL A   1      40.168  18.000  25.779  1.00  0.00     0.163 HD
ATOM     33  O   UNL A   1      42.560  18.223  25.880  1.00  0.00    -0.269 OA
BRANCH  31  34
ATOM     34  C   UNL A   1      42.298  20.510  26.335  1.00  0.00     0.039 A 
ATOM     35  C   UNL A   1      42.647  21.329  25.258  1.00  0.00     0.014 A 
ATOM     36  C   UNL A   1      42.450  20.973  27.643  1.00  0.00     0.014 A 
ATOM     37  C   UNL A   1      43.096  22.630  25.493  1.00  0.00     0.010 A 
ATOM     38  C   UNL A   1      42.813  22.295  27.875  1.00  0.00     0.010 A 
ATOM     39  C   UNL A   1      43.158  23.131  26.802  1.00  0.00    -0.014 A 
BRANCH  39  40
ATOM     40  C   UNL A   1      43.628  24.511  27.073  1.00  0.00     0.031 A 
ATOM     41  C   UNL A   1      42.671  25.531  27.627  1.00  0.00     0.074 A 
ATOM     42  C   UNL A   1      44.890  24.862  26.767  1.00  0.00     0.049 A 
ATOM     43  N   UNL A   1      42.869  26.798  27.890  1.00  0.00    -0.248 NA
ATOM     44  C   UNL A   1      41.296  25.074  27.883  1.00  0.00     0.031 C 
ATOM     45  C   UNL A   1      45.891  23.984  26.160  1.00  0.00     0.029 A 
ATOM     46  N   UNL A   1      45.546  26.058  26.919  1.00  0.00    -0.354 N 
ATOM     47  C   UNL A   1      41.641  27.292  28.311  1.00  0.00     0.074 A 
ATOM     48  C   UNL A   1      40.692  26.204  28.219  1.00  0.00     0.031 C 
ATOM     49  C   UNL A   1      47.039  24.663  26.013  1.00  0.00     0.029 A 
ATOM     50  C   UNL A   1      46.851  26.027  26.496  1.00  0.00     0.049 A 
ATOM     51  H   UNL A   1      45.119  26.863  27.293  1.00  0.00     0.167 HD
ATOM     52  C   UNL A   1      41.338  28.532  28.759  1.00  0.00     0.037 A 
ATOM     53  C   UNL A   1      47.791  26.990  26.511  1.00  0.00     0.037 A 
ATOM     54  C   UNL A   1      42.295  29.596  28.897  1.00  0.00     0.049 A 
ATOM     55  C   UNL A   1      47.452  28.337  27.088  1.00  0.00     0.074 A 
ATOM     56  C   UNL A   1      42.108  30.868  29.407  1.00  0.00     0.029 A 
ATOM     57  N   UNL A   1      43.629  29.504  28.528  1.00  0.00    -0.354 N 
ATOM     58  N   UNL A   1      46.307  28.771  27.556  1.00  0.00    -0.248 NA
ATOM     59  C   UNL A   1      48.540  29.321  27.156  1.00  0.00     0.031 C 
ATOM     60  C   UNL A   1      43.326  31.556  29.324  1.00  0.00     0.029 A 
ATOM     61  C   UNL A   1      44.278  30.697  28.797  1.00  0.00     0.049 A 
ATOM     62  H   UNL A   1      44.052  28.708  28.133  1.00  0.00     0.167 HD
ATOM     63  C   UNL A   1      46.543  30.065  28.001  1.00  0.00     0.074 A 
ATOM     64  C   UNL A   1      47.943  30.340  27.757  1.00  0.00     0.031 C 
ATOM     65  C   UNL A   1      45.677  30.945  28.561  1.00  0.00     0.037 A 
BRANCH  52  66
ATOM     66  C   UNL A   1      39.910  28.795  29.142  1.00  0.00     0.064 A 
ATOM     67  C   UNL A   1      39.444  28.569  30.446  1.00  0.00     0.173 A 
ATOM     68  C   UNL A   1      38.997  29.278  28.194  1.00  0.00     0.173 A 
ATOM     69  F   UNL A   1      40.275  28.091  31.386  1.00  0.00    -0.203 F 
ATOM     70  C   UNL A   1      38.109  28.781  30.777  1.00  0.00     0.198 A 
ATOM     71  C   UNL A   1      37.669  29.518  28.536  1.00  0.00     0.198 A 
ATOM     72  F   UNL A   1      39.390  29.514  26.933  1.00  0.00    -0.203 F 
ATOM     73  F   UNL A   1      37.674  28.500  32.014  1.00  0.00    -0.200 F 
ATOM     74  C   UNL A   1      37.223  29.260  29.824  1.00  0.00     0.200 A 
ATOM     75  F   UNL A   1      36.815  29.991  27.616  1.00  0.00    -0.200 F 
ATOM     76  F   UNL A   1      35.937  29.462  30.143  1.00  0.00    -0.200 F 
ENDBRANCH  52  66
BRANCH  53  77
ATOM     77  C   UNL A   1      49.160  26.691  26.022  1.00  0.00     0.064 A 
ATOM     78  C   UNL A   1      49.542  27.023  24.715  1.00  0.00     0.173 A 
ATOM     79  C   UNL A   1      50.115  26.081  26.848  1.00  0.00     0.173 A 
ATOM     80  F   UNL A   1      48.657  27.593  23.884  1.00  0.00    -0.203 F 
ATOM     81  C   UNL A   1      50.824  26.743  24.247  1.00  0.00     0.198 A 
ATOM     82  C   UNL A   1      51.404  25.822  26.385  1.00  0.00     0.198 A 
ATOM     83  F   UNL A   1      49.799  25.751  28.109  1.00  0.00    -0.203 F 
ATOM     84  F   UNL A   1      51.152  27.040  22.982  1.00  0.00    -0.200 F 
ATOM     85  C   UNL A   1      51.755  26.148  25.083  1.00  0.00     0.200 A 
ATOM     86  F   UNL A   1      52.305  25.259  27.201  1.00  0.00    -0.200 F 
ATOM     87  F   UNL A   1      52.990  25.884  24.635  1.00  0.00    -0.200 F 
ENDBRANCH  53  77
BRANCH  65  88
ATOM     88  C   UNL A   1      46.230  32.271  28.986  1.00  0.00     0.064 A 
ATOM     89  C   UNL A   1      46.233  33.378  28.125  1.00  0.00     0.173 A 
ATOM     90  C   UNL A   1      46.735  32.445  30.284  1.00  0.00     0.173 A 
ATOM     91  F   UNL A   1      45.774  33.258  26.870  1.00  0.00    -0.203 F 
ATOM     92  C   UNL A   1      46.745  34.604  28.539  1.00  0.00     0.198 A 
ATOM     93  C   UNL A   1      47.223  33.678  30.703  1.00  0.00     0.198 A 
ATOM     94  F   UNL A   1      46.748  31.417  31.146  1.00  0.00    -0.203 F 
ATOM     95  F   UNL A   1      46.780  35.636  27.685  1.00  0.00    -0.200 F 
ATOM     96  C   UNL A   1      47.234  34.755  29.828  1.00  0.00     0.200 A 
ATOM     97  F   UNL A   1      47.685  33.825  31.952  1.00  0.00    -0.200 F 
ATOM     98  F   UNL A   1      47.725  35.936  30.227  1.00  0.00    -0.200 F 
ENDBRANCH  65  88
ENDBRANCH  39  40
ENDBRANCH  31  34
ENDBRANCH  29  30
ENDBRANCH  28  29
ENDBRANCH   1  28
TORSDOF 14
ENDMDL
MODEL 2
REMARK VINA RESULT:     -13.2      5.863     10.318
REMARK SMILES Cc1ccc(S(=O)(=O)Nc2cc3c(cc2C(=O)NCCCCNC(=O)c2ccc(-c4c5nc(c(-c6c(F)c(F)c(F)c(F)c6F)c6ccc([nH]6)c(-c6c(F)c(F)c(F)c(F)c6F)c6nc(c(-c7c(F)c(F)c(F)c(F)c7F)c7ccc4[nH]7)C=C6)C=C5)cc2)OCCO3)s1
REMARK SMILES IDX 20 1 19 2 18 3 16 4 17 5 15 7 10 8 11 9 12 10 14 11 13 12
REMARK SMILES IDX 92 13 89 14 91 15 90 16 9 17 6 19 7 20 8 21 5 22 1 23 2 24
REMARK SMILES IDX 3 25 93 26 4 27 21 28 22 29 23 30 24 31 25 33 26 34 27 35
REMARK SMILES IDX 88 36 28 37 87 38 29 39 30 40 31 41 81 42 32 43 86 44 80 45
REMARK SMILES IDX 82 46 33 47 85 48 79 49 78 50 34 52 66 53 46 54 65 55 47 56
REMARK SMILES IDX 50 57 64 58 83 59 48 60 49 61 63 63 84 64 51 65 35 66 36 67
REMARK SMILES IDX 44 68 37 69 38 70 42 71 45 72 39 73 40 74 43 75 41 76 67 77
REMARK SMILES IDX 68 78 76 79 69 80 70 81 74 82 77 83 71 84 72 85 75 86 73 87
REMARK SMILES IDX 52 88 53 89 61 90 54 91 55 92 59 93 62 94 56 95 57 96 60 97
REMARK SMILES IDX 58 98
REMARK H PARENT 18 6 9 18 23 32 82 51 50 62
REMARK Flexibility Score: inf
ROOT
ATOM      1  C   UNL A   1      31.790  30.469  26.882  1.00  0.00     0.023 C 
ENDROOT
BRANCH   1   2
ATOM      2  C   UNL A   1      33.228  30.022  26.658  1.00  0.00     0.116 C 
BRANCH   2   3
ATOM      3  N   UNL A   1      33.597  29.774  25.275  1.00  0.00    -0.352 N 
ATOM      4  C   UNL A   1      33.289  28.728  24.430  1.00  0.00     0.253 C 
ATOM      5  O   UNL A   1      33.577  28.835  23.242  1.00  0.00    -0.269 OA
ATOM      6  H   UNL A   1      34.163  30.471  24.872  1.00  0.00     0.163 HD
BRANCH   4   7
ATOM      7  C   UNL A   1      32.658  27.486  24.945  1.00  0.00     0.067 A 
ATOM      8  C   UNL A   1      31.255  27.339  24.972  1.00  0.00     0.066 A 
ATOM      9  C   UNL A   1      30.692  26.109  25.337  1.00  0.00     0.078 A 
ATOM     10  C   UNL A   1      31.519  25.034  25.665  1.00  0.00     0.163 A 
ATOM     11  C   UNL A   1      33.466  26.438  25.402  1.00  0.00     0.066 A 
ATOM     12  C   UNL A   1      32.904  25.200  25.687  1.00  0.00     0.162 A 
ATOM     13  O   UNL A   1      30.908  23.836  25.936  1.00  0.00    -0.486 OA
ATOM     14  O   UNL A   1      33.783  24.181  25.945  1.00  0.00    -0.486 OA
ATOM     15  C   UNL A   1      31.821  22.873  26.482  1.00  0.00     0.271 C 
ATOM     16  C   UNL A   1      33.153  22.909  25.750  1.00  0.00     0.271 C 
BRANCH   8  17
ATOM     17  N   UNL A   1      30.399  28.439  24.640  1.00  0.00    -0.278 N 
ATOM     18  H   UNL A   1      30.319  29.211  25.247  1.00  0.00     0.180 HD
BRANCH  17  19
ATOM     19  S   UNL A   1      29.528  28.391  23.197  1.00  0.00     0.271 S 
ATOM     20  O   UNL A   1      28.379  27.547  23.410  1.00  0.00    -0.200 OA
ATOM     21  O   UNL A   1      30.480  28.089  22.141  1.00  0.00    -0.200 OA
BRANCH  19  22
ATOM     22  C   UNL A   1      28.953  30.029  22.804  1.00  0.00     0.140 A 
ATOM     23  C   UNL A   1      27.652  32.905  20.471  1.00  0.00     0.056 C 
ATOM     24  C   UNL A   1      28.138  31.988  21.543  1.00  0.00     0.003 A 
ATOM     25  C   UNL A   1      28.435  32.301  22.852  1.00  0.00     0.016 A 
ATOM     26  S   UNL A   1      28.395  30.327  21.217  1.00  0.00    -0.127 S 
ATOM     27  C   UNL A   1      28.887  31.169  23.582  1.00  0.00     0.034 A 
ENDBRANCH  19  22
ENDBRANCH  17  19
ENDBRANCH   8  17
ENDBRANCH   4   7
ENDBRANCH   2   3
ENDBRANCH   1   2
BRANCH   1  28
ATOM     28  C   UNL A   1      31.514  31.965  26.851  1.00  0.00     0.023 C 
BRANCH  28  29
ATOM     29  C   UNL A   1      32.739  32.861  26.957  1.00  0.00     0.116 C 
BRANCH  29  30
ATOM     30  N   UNL A   1      32.471  34.137  27.601  1.00  0.00    -0.352 N 
ATOM     31  C   UNL A   1      33.104  34.737  28.661  1.00  0.00     0.251 C 
ATOM     32  H   UNL A   1      31.722  34.647  27.219  1.00  0.00     0.163 HD
ATOM     33  O   UNL A   1      32.673  35.796  29.106  1.00  0.00    -0.269 OA
BRANCH  31  34
ATOM     34  C   UNL A   1      34.279  34.097  29.293  1.00  0.00     0.039 A 
ATOM     35  C   UNL A   1      34.064  33.035  30.176  1.00  0.00     0.014 A 
ATOM     36  C   UNL A   1      35.579  34.536  29.033  1.00  0.00     0.014 A 
ATOM     37  C   UNL A   1      35.153  32.379  30.752  1.00  0.00     0.010 A 
ATOM     38  C   UNL A   1      36.665  33.829  29.538  1.00  0.00     0.010 A 
ATOM     39  C   UNL A   1      36.462  32.755  30.417  1.00  0.00    -0.014 A 
BRANCH  39  40
ATOM     40  C   UNL A   1      37.633  32.069  31.015  1.00  0.00     0.031 A 
ATOM     41  C   UNL A   1      38.087  32.438  32.401  1.00  0.00     0.074 A 
ATOM     42  C   UNL A   1      38.320  31.164  30.295  1.00  0.00     0.049 A 
ATOM     43  N   UNL A   1      39.111  31.992  33.085  1.00  0.00    -0.248 NA
ATOM     44  C   UNL A   1      37.308  33.475  33.096  1.00  0.00     0.031 C 
ATOM     45  C   UNL A   1      38.022  30.775  28.916  1.00  0.00     0.029 A 
ATOM     46  N   UNL A   1      39.420  30.412  30.623  1.00  0.00    -0.354 N 
ATOM     47  C   UNL A   1      39.114  32.714  34.271  1.00  0.00     0.074 A 
ATOM     48  C   UNL A   1      38.025  33.663  34.194  1.00  0.00     0.031 C 
ATOM     49  C   UNL A   1      38.901  29.839  28.525  1.00  0.00     0.029 A 
ATOM     50  C   UNL A   1      39.835  29.577  29.615  1.00  0.00     0.049 A 
ATOM     51  H   UNL A   1      39.870  30.467  31.497  1.00  0.00     0.167 HD
ATOM     52  C   UNL A   1      39.934  32.580  35.340  1.00  0.00     0.037 A 
ATOM     53  C   UNL A   1      40.849  28.692  29.585  1.00  0.00     0.037 A 
ATOM     54  C   UNL A   1      40.983  31.601  35.433  1.00  0.00     0.049 A 
ATOM     55  C   UNL A   1      41.696  28.505  30.812  1.00  0.00     0.074 A 
ATOM     56  C   UNL A   1      41.825  31.334  36.498  1.00  0.00     0.029 A 
ATOM     57  N   UNL A   1      41.326  30.720  34.419  1.00  0.00    -0.354 N 
ATOM     58  N   UNL A   1      41.643  29.139  31.958  1.00  0.00    -0.248 NA
ATOM     59  C   UNL A   1      42.732  27.465  30.749  1.00  0.00     0.031 C 
ATOM     60  C   UNL A   1      42.696  30.304  36.118  1.00  0.00     0.029 A 
ATOM     61  C   UNL A   1      42.370  29.908  34.830  1.00  0.00     0.049 A 
ATOM     62  H   UNL A   1      40.893  30.678  33.536  1.00  0.00     0.167 HD
ATOM     63  C   UNL A   1      42.615  28.557  32.762  1.00  0.00     0.074 A 
ATOM     64  C   UNL A   1      43.234  27.511  31.975  1.00  0.00     0.031 C 
ATOM     65  C   UNL A   1      42.962  28.862  34.037  1.00  0.00     0.037 A 
BRANCH  52  66
ATOM     66  C   UNL A   1      39.715  33.513  36.495  1.00  0.00     0.064 A 
ATOM     67  C   UNL A   1      38.880  33.170  37.569  1.00  0.00     0.173 A 
ATOM     68  C   UNL A   1      40.348  34.764  36.530  1.00  0.00     0.173 A 
ATOM     69  F   UNL A   1      38.238  31.992  37.576  1.00  0.00    -0.203 F 
ATOM     70  C   UNL A   1      38.657  34.060  38.616  1.00  0.00     0.198 A 
ATOM     71  C   UNL A   1      40.146  35.640  37.594  1.00  0.00     0.198 A 
ATOM     72  F   UNL A   1      41.159  35.140  35.530  1.00  0.00    -0.203 F 
ATOM     73  F   UNL A   1      37.806  33.735  39.601  1.00  0.00    -0.200 F 
ATOM     74  C   UNL A   1      39.293  35.292  38.630  1.00  0.00     0.200 A 
ATOM     75  F   UNL A   1      40.770  36.826  37.611  1.00  0.00    -0.200 F 
ATOM     76  F   UNL A   1      39.076  36.149  39.638  1.00  0.00    -0.200 F 
ENDBRANCH  52  66
BRANCH  53  77
ATOM     77  C   UNL A   1      41.072  27.871  28.368  1.00  0.00     0.064 A 
ATOM     78  C   UNL A   1      40.409  26.647  28.198  1.00  0.00     0.173 A 
ATOM     79  C   UNL A   1      41.937  28.293  27.349  1.00  0.00     0.173 A 
ATOM     80  F   UNL A   1      39.584  26.196  29.155  1.00  0.00    -0.203 F 
ATOM     81  C   UNL A   1      40.615  25.869  27.062  1.00  0.00     0.198 A 
ATOM     82  C   UNL A   1      42.125  27.524  26.203  1.00  0.00     0.198 A 
ATOM     83  F   UNL A   1      42.589  29.460  27.463  1.00  0.00    -0.203 F 
ATOM     84  F   UNL A   1      39.995  24.687  26.941  1.00  0.00    -0.200 F 
ATOM     85  C   UNL A   1      41.469  26.310  26.063  1.00  0.00     0.200 A 
ATOM     86  F   UNL A   1      42.941  27.959  25.233  1.00  0.00    -0.200 F 
ATOM     87  F   UNL A   1      41.662  25.564  24.966  1.00  0.00    -0.200 F 
ENDBRANCH  53  77
BRANCH  65  88
ATOM     88  C   UNL A   1      44.032  28.028  34.671  1.00  0.00     0.064 A 
ATOM     89  C   UNL A   1      43.732  26.844  35.360  1.00  0.00     0.173 A 
ATOM     90  C   UNL A   1      45.380  28.403  34.561  1.00  0.00     0.173 A 
ATOM     91  F   UNL A   1      42.457  26.452  35.505  1.00  0.00    -0.203 F 
ATOM     92  C   UNL A   1      44.741  26.078  35.938  1.00  0.00     0.198 A 
ATOM     93  C   UNL A   1      46.388  27.622  35.117  1.00  0.00     0.198 A 
ATOM     94  F   UNL A   1      45.718  29.524  33.907  1.00  0.00    -0.203 F 
ATOM     95  F   UNL A   1      44.428  24.975  36.630  1.00  0.00    -0.200 F 
ATOM     96  C   UNL A   1      46.067  26.464  35.811  1.00  0.00     0.200 A 
ATOM     97  F   UNL A   1      47.669  27.990  34.986  1.00  0.00    -0.200 F 
ATOM     98  F   UNL A   1      47.038  25.724  36.365  1.00  0.00    -0.200 F 
ENDBRANCH  65  88
ENDBRANCH  39  40
ENDBRANCH  31  34
ENDBRANCH  29  30
ENDBRANCH  28  29
ENDBRANCH   1  28
TORSDOF 14
ENDMDL
MODEL 3
REMARK VINA RESULT:     -13.1      5.980     11.533
REMARK SMILES Cc1ccc(S(=O)(=O)Nc2cc3c(cc2C(=O)NCCCCNC(=O)c2ccc(-c4c5nc(c(-c6c(F)c(F)c(F)c(F)c6F)c6ccc([nH]6)c(-c6c(F)c(F)c(F)c(F)c6F)c6nc(c(-c7c(F)c(F)c(F)c(F)c7F)c7ccc4[nH]7)C=C6)C=C5)cc2)OCCO3)s1
REMARK SMILES IDX 20 1 19 2 18 3 16 4 17 5 15 7 10 8 11 9 12 10 14 11 13 12
REMARK SMILES IDX 92 13 89 14 91 15 90 16 9 17 6 19 7 20 8 21 5 22 1 23 2 24
REMARK SMILES IDX 3 25 93 26 4 27 21 28 22 29 23 30 24 31 25 33 26 34 27 35
REMARK SMILES IDX 88 36 28 37 87 38 29 39 30 40 31 41 81 42 32 43 86 44 80 45
REMARK SMILES IDX 82 46 33 47 85 48 79 49 78 50 34 52 66 53 46 54 65 55 47 56
REMARK SMILES IDX 50 57 64 58 83 59 48 60 49 61 63 63 84 64 51 65 35 66 36 67
REMARK SMILES IDX 44 68 37 69 38 70 42 71 45 72 39 73 40 74 43 75 41 76 67 77
REMARK SMILES IDX 68 78 76 79 69 80 70 81 74 82 77 83 71 84 72 85 75 86 73 87
REMARK SMILES IDX 52 88 53 89 61 90 54 91 55 92 59 93 62 94 56 95 57 96 60 97
REMARK SMILES IDX 58 98
REMARK H PARENT 18 6 9 18 23 32 82 51 50 62
REMARK Flexibility Score: inf
ROOT
ATOM      1  C   UNL A   1      31.777  30.542  26.828  1.00  0.00     0.023 C 
ENDROOT
BRANCH   1   2
ATOM      2  C   UNL A   1      33.223  30.094  26.678  1.00  0.00     0.116 C 
BRANCH   2   3
ATOM      3  N   UNL A   1      33.655  29.821  25.317  1.00  0.00    -0.352 N 
ATOM      4  C   UNL A   1      33.403  28.750  24.486  1.00  0.00     0.253 C 
ATOM      5  O   UNL A   1      33.739  28.835  23.308  1.00  0.00    -0.269 OA
ATOM      6  H   UNL A   1      34.224  30.520  24.921  1.00  0.00     0.163 HD
BRANCH   4   7
ATOM      7  C   UNL A   1      32.776  27.507  25.004  1.00  0.00     0.067 A 
ATOM      8  C   UNL A   1      31.374  27.354  25.024  1.00  0.00     0.066 A 
ATOM      9  C   UNL A   1      30.814  26.123  25.393  1.00  0.00     0.078 A 
ATOM     10  C   UNL A   1      31.644  25.053  25.730  1.00  0.00     0.163 A 
ATOM     11  C   UNL A   1      33.586  26.465  25.470  1.00  0.00     0.066 A 
ATOM     12  C   UNL A   1      33.029  25.226  25.758  1.00  0.00     0.162 A 
ATOM     13  O   UNL A   1      31.038  23.854  26.004  1.00  0.00    -0.486 OA
ATOM     14  O   UNL A   1      33.911  24.213  26.026  1.00  0.00    -0.486 OA
ATOM     15  C   UNL A   1      31.953  22.898  26.559  1.00  0.00     0.271 C 
ATOM     16  C   UNL A   1      33.288  22.937  25.834  1.00  0.00     0.271 C 
BRANCH   8  17
ATOM     17  N   UNL A   1      30.513  28.448  24.683  1.00  0.00    -0.278 N 
ATOM     18  H   UNL A   1      30.429  29.224  25.284  1.00  0.00     0.180 HD
BRANCH  17  19
ATOM     19  S   UNL A   1      29.648  28.387  23.238  1.00  0.00     0.271 S 
ATOM     20  O   UNL A   1      28.521  27.512  23.442  1.00  0.00    -0.200 OA
ATOM     21  O   UNL A   1      30.609  28.117  22.181  1.00  0.00    -0.200 OA
BRANCH  19  22
ATOM     22  C   UNL A   1      29.031  30.012  22.854  1.00  0.00     0.140 A 
ATOM     23  C   UNL A   1      27.673  32.873  20.535  1.00  0.00     0.056 C 
ATOM     24  C   UNL A   1      28.174  31.960  21.603  1.00  0.00     0.003 A 
ATOM     25  C   UNL A   1      28.450  32.268  22.919  1.00  0.00     0.016 A 
ATOM     26  S   UNL A   1      28.481  30.310  21.265  1.00  0.00    -0.127 S 
ATOM     27  C   UNL A   1      28.926  31.143  23.642  1.00  0.00     0.034 A 
ENDBRANCH  19  22
ENDBRANCH  17  19
ENDBRANCH   8  17
ENDBRANCH   4   7
ENDBRANCH   2   3
ENDBRANCH   1   2
BRANCH   1  28
ATOM     28  C   UNL A   1      31.511  32.040  26.842  1.00  0.00     0.023 C 
BRANCH  28  29
ATOM     29  C   UNL A   1      32.734  32.922  27.042  1.00  0.00     0.116 C 
BRANCH  29  30
ATOM     30  N   UNL A   1      32.422  34.232  27.591  1.00  0.00    -0.352 N 
ATOM     31  C   UNL A   1      33.009  34.912  28.628  1.00  0.00     0.251 C 
ATOM     32  H   UNL A   1      31.678  34.701  27.152  1.00  0.00     0.163 HD
ATOM     33  O   UNL A   1      32.544  35.990  28.988  1.00  0.00    -0.269 OA
BRANCH  31  34
ATOM     34  C   UNL A   1      34.173  34.339  29.340  1.00  0.00     0.039 A 
ATOM     35  C   UNL A   1      33.938  33.516  30.445  1.00  0.00     0.014 A 
ATOM     36  C   UNL A   1      35.482  34.610  28.936  1.00  0.00     0.014 A 
ATOM     37  C   UNL A   1      35.013  32.921  31.108  1.00  0.00     0.010 A 
ATOM     38  C   UNL A   1      36.546  33.950  29.541  1.00  0.00     0.010 A 
ATOM     39  C   UNL A   1      36.324  33.114  30.645  1.00  0.00    -0.014 A 
BRANCH  39  40
ATOM     40  C   UNL A   1      37.479  32.488  31.333  1.00  0.00     0.031 A 
ATOM     41  C   UNL A   1      38.230  31.370  30.664  1.00  0.00     0.074 A 
ATOM     42  C   UNL A   1      37.812  32.881  32.576  1.00  0.00     0.049 A 
ATOM     43  N   UNL A   1      39.237  30.662  31.112  1.00  0.00    -0.248 NA
ATOM     44  C   UNL A   1      37.764  30.970  29.327  1.00  0.00     0.031 C 
ATOM     45  C   UNL A   1      37.116  33.903  33.357  1.00  0.00     0.029 A 
ATOM     46  N   UNL A   1      38.821  32.458  33.405  1.00  0.00    -0.354 N 
ATOM     47  C   UNL A   1      39.500  29.718  30.129  1.00  0.00     0.074 A 
ATOM     48  C   UNL A   1      38.517  29.907  29.084  1.00  0.00     0.031 C 
ATOM     49  C   UNL A   1      37.732  34.046  34.541  1.00  0.00     0.029 A 
ATOM     50  C   UNL A   1      38.852  33.113  34.611  1.00  0.00     0.049 A 
ATOM     51  H   UNL A   1      39.460  31.750  33.159  1.00  0.00     0.167 HD
ATOM     52  C   UNL A   1      40.487  28.793  30.087  1.00  0.00     0.037 A 
ATOM     53  C   UNL A   1      39.700  32.981  35.648  1.00  0.00     0.037 A 
ATOM     54  C   UNL A   1      41.492  28.641  31.104  1.00  0.00     0.049 A 
ATOM     55  C   UNL A   1      40.837  32.002  35.545  1.00  0.00     0.074 A 
ATOM     56  C   UNL A   1      42.578  27.784  31.127  1.00  0.00     0.029 A 
ATOM     57  N   UNL A   1      41.535  29.375  32.280  1.00  0.00    -0.354 N 
ATOM     58  N   UNL A   1      41.124  31.167  34.577  1.00  0.00    -0.248 NA
ATOM     59  C   UNL A   1      41.780  31.963  36.671  1.00  0.00     0.031 C 
ATOM     60  C   UNL A   1      43.267  27.984  32.330  1.00  0.00     0.029 A 
ATOM     61  C   UNL A   1      42.629  28.991  33.038  1.00  0.00     0.049 A 
ATOM     62  H   UNL A   1      40.885  30.068  32.538  1.00  0.00     0.167 HD
ATOM     63  C   UNL A   1      42.294  30.524  34.961  1.00  0.00     0.074 A 
ATOM     64  C   UNL A   1      42.669  31.076  36.246  1.00  0.00     0.031 C 
ATOM     65  C   UNL A   1      42.994  29.564  34.308  1.00  0.00     0.037 A 
BRANCH  52  66
ATOM     66  C   UNL A   1      40.528  27.884  28.893  1.00  0.00     0.064 A 
ATOM     67  C   UNL A   1      41.303  28.187  27.764  1.00  0.00     0.173 A 
ATOM     68  C   UNL A   1      39.784  26.695  28.879  1.00  0.00     0.173 A 
ATOM     69  F   UNL A   1      42.021  29.320  27.722  1.00  0.00    -0.203 F 
ATOM     70  C   UNL A   1      41.302  27.353  26.650  1.00  0.00     0.198 A 
ATOM     71  C   UNL A   1      39.809  25.848  27.774  1.00  0.00     0.198 A 
ATOM     72  F   UNL A   1      39.028  26.356  29.934  1.00  0.00    -0.203 F 
ATOM     73  F   UNL A   1      42.003  27.695  25.558  1.00  0.00    -0.200 F 
ATOM     74  C   UNL A   1      40.560  26.182  26.656  1.00  0.00     0.200 A 
ATOM     75  F   UNL A   1      39.098  24.711  27.785  1.00  0.00    -0.200 F 
ATOM     76  F   UNL A   1      40.558  25.381  25.582  1.00  0.00    -0.200 F 
ENDBRANCH  52  66
BRANCH  53  77
ATOM     77  C   UNL A   1      39.540  33.845  36.844  1.00  0.00     0.064 A 
ATOM     78  C   UNL A   1      38.815  33.399  37.958  1.00  0.00     0.173 A 
ATOM     79  C   UNL A   1      40.115  35.122  36.906  1.00  0.00     0.173 A 
ATOM     80  F   UNL A   1      38.233  32.191  37.936  1.00  0.00    -0.203 F 
ATOM     81  C   UNL A   1      38.657  34.204  39.083  1.00  0.00     0.198 A 
ATOM     82  C   UNL A   1      39.976  35.918  38.042  1.00  0.00     0.198 A 
ATOM     83  F   UNL A   1      40.825  35.590  35.869  1.00  0.00    -0.203 F 
ATOM     84  F   UNL A   1      37.929  33.768  40.120  1.00  0.00    -0.200 F 
ATOM     85  C   UNL A   1      39.242  35.461  39.126  1.00  0.00     0.200 A 
ATOM     86  F   UNL A   1      40.553  37.126  38.086  1.00  0.00    -0.200 F 
ATOM     87  F   UNL A   1      39.096  36.233  40.212  1.00  0.00    -0.200 F 
ENDBRANCH  53  77
BRANCH  65  88
ATOM     88  C   UNL A   1      44.256  29.080  34.953  1.00  0.00     0.064 A 
ATOM     89  C   UNL A   1      45.491  29.698  34.712  1.00  0.00     0.173 A 
ATOM     90  C   UNL A   1      44.223  28.003  35.852  1.00  0.00     0.173 A 
ATOM     91  F   UNL A   1      45.575  30.723  33.849  1.00  0.00    -0.203 F 
ATOM     92  C   UNL A   1      46.652  29.239  35.326  1.00  0.00     0.198 A 
ATOM     93  C   UNL A   1      45.381  27.562  36.484  1.00  0.00     0.198 A 
ATOM     94  F   UNL A   1      43.064  27.382  36.120  1.00  0.00    -0.203 F 
ATOM     95  F   UNL A   1      47.829  29.815  35.045  1.00  0.00    -0.200 F 
ATOM     96  C   UNL A   1      46.596  28.176  36.215  1.00  0.00     0.200 A 
ATOM     97  F   UNL A   1      45.324  26.542  37.350  1.00  0.00    -0.200 F 
ATOM     98  F   UNL A   1      47.714  27.736  36.808  1.00  0.00    -0.200 F 
ENDBRANCH  65  88
ENDBRANCH  39  40
ENDBRANCH  31  34
ENDBRANCH  29  30
ENDBRANCH  28  29
ENDBRANCH   1  28
TORSDOF 14
ENDMDL
