MODEL 1
REMARK VINA RESULT:     -13.7      0.000      0.000
REMARK SMILES O=C1C[C@@H](C(=O)Nc2cccc(C(=O)NCCCCNC(=O)c3ccc(-c4c5nc(c(-c6c(F)c(F)c(F)c(F)c6F)c6ccc([nH]6)c(-c6c(F)c(F)c(F)c(F)c6F)c6nc(c(-c7c(F)c(F)c(F)c(F)c7F)c7ccc4[nH]7)C=C6)C=C5)cc3)c2)[C@H](c2ccccc2)O1
REMARK SMILES IDX 17 1 16 2 15 3 13 4 14 5 12 7 8 8 9 9 86 10 10 11 11 12 7 13
REMARK SMILES IDX 5 14 6 15 4 17 1 18 2 19 3 20 94 21 87 22 88 23 89 24 93 25
REMARK SMILES IDX 90 26 92 27 91 28 18 29 19 30 20 31 21 32 22 34 23 35 24 36
REMARK SMILES IDX 85 37 25 38 84 39 26 40 27 41 28 42 78 43 29 44 83 45 77 46
REMARK SMILES IDX 79 47 30 48 82 49 76 50 75 51 31 53 63 54 43 55 62 56 44 57
REMARK SMILES IDX 47 58 61 59 80 60 45 61 46 62 60 64 81 65 48 66 32 67 33 68
REMARK SMILES IDX 41 69 34 70 35 71 39 72 42 73 36 74 37 75 40 76 38 77 64 78
REMARK SMILES IDX 65 79 73 80 66 81 67 82 71 83 74 84 68 85 69 86 72 87 70 88
REMARK SMILES IDX 49 89 50 90 58 91 51 92 52 93 56 94 59 95 53 96 54 97 57 98
REMARK SMILES IDX 55 99
REMARK H PARENT 15 6 7 16 20 33 79 52 47 63
REMARK Flexibility Score: inf
ROOT
ATOM      1  C   UNL A   1      31.962  30.263  26.854  1.00  0.00     0.023 C 
ENDROOT
BRANCH   1   2
ATOM      2  C   UNL A   1      33.428  29.838  26.928  1.00  0.00     0.116 C 
BRANCH   2   3
ATOM      3  N   UNL A   1      33.949  29.526  25.616  1.00  0.00    -0.352 N 
ATOM      4  C   UNL A   1      33.615  28.595  24.667  1.00  0.00     0.251 C 
ATOM      5  O   UNL A   1      34.257  28.629  23.616  1.00  0.00    -0.269 OA
ATOM      6  H   UNL A   1      34.701  30.103  25.349  1.00  0.00     0.163 HD
BRANCH   4   7
ATOM      7  C   UNL A   1      32.496  27.611  24.795  1.00  0.00     0.041 A 
ATOM      8  C   UNL A   1      31.321  25.751  25.841  1.00  0.00     0.041 A 
ATOM      9  C   UNL A   1      30.205  25.982  25.041  1.00  0.00     0.026 A 
ATOM     10  C   UNL A   1      32.492  26.489  25.629  1.00  0.00     0.040 A 
ATOM     11  C   UNL A   1      30.212  27.048  24.143  1.00  0.00     0.003 A 
ATOM     12  C   UNL A   1      31.336  27.873  24.046  1.00  0.00     0.014 A 
BRANCH   8  13
ATOM     13  N   UNL A   1      31.227  24.776  26.846  1.00  0.00    -0.326 N 
ATOM     14  C   UNL A   1      31.706  23.488  26.864  1.00  0.00     0.232 C 
ATOM     15  O   UNL A   1      31.355  22.745  27.782  1.00  0.00    -0.274 OA
ATOM     16  H   UNL A   1      30.748  25.057  27.659  1.00  0.00     0.169 HD
BRANCH  14  17
ATOM     17  C   UNL A   1      32.761  23.048  25.851  1.00  0.00     0.135 C 
ATOM     18  O   UNL A   1      31.973  19.824  24.627  1.00  0.00    -0.252 OA
ATOM     19  C   UNL A   1      32.418  20.824  25.171  1.00  0.00     0.307 C 
ATOM     20  C   UNL A   1      32.175  22.227  24.722  1.00  0.00     0.140 C 
ATOM     21  O   UNL A   1      33.278  20.793  26.227  1.00  0.00    -0.457 OA
ATOM     22  C   UNL A   1      33.775  22.110  26.494  1.00  0.00     0.220 C 
BRANCH  22  23
ATOM     23  C   UNL A   1      35.191  22.282  25.947  1.00  0.00    -0.007 A 
ATOM     24  C   UNL A   1      35.852  23.520  25.931  1.00  0.00     0.007 A 
ATOM     25  C   UNL A   1      35.870  21.177  25.409  1.00  0.00     0.007 A 
ATOM     26  C   UNL A   1      37.155  23.633  25.432  1.00  0.00     0.000 A 
ATOM     27  C   UNL A   1      37.178  21.281  24.932  1.00  0.00     0.000 A 
ATOM     28  C   UNL A   1      37.822  22.512  24.945  1.00  0.00     0.000 A 
ENDBRANCH  22  23
ENDBRANCH  14  17
ENDBRANCH   8  13
ENDBRANCH   4   7
ENDBRANCH   2   3
ENDBRANCH   1   2
BRANCH   1  29
ATOM     29  C   UNL A   1      31.787  31.774  26.705  1.00  0.00     0.023 C 
BRANCH  29  30
ATOM     30  C   UNL A   1      32.846  32.601  27.423  1.00  0.00     0.116 C 
BRANCH  30  31
ATOM     31  N   UNL A   1      32.458  33.988  27.634  1.00  0.00    -0.352 N 
ATOM     32  C   UNL A   1      32.989  34.884  28.533  1.00  0.00     0.251 C 
ATOM     33  H   UNL A   1      31.727  34.324  27.067  1.00  0.00     0.163 HD
ATOM     34  O   UNL A   1      32.488  35.990  28.689  1.00  0.00    -0.269 OA
BRANCH  32  35
ATOM     35  C   UNL A   1      34.145  34.460  29.345  1.00  0.00     0.039 A 
ATOM     36  C   UNL A   1      33.914  33.852  30.579  1.00  0.00     0.014 A 
ATOM     37  C   UNL A   1      35.441  34.580  28.837  1.00  0.00     0.014 A 
ATOM     38  C   UNL A   1      34.987  33.293  31.275  1.00  0.00     0.010 A 
ATOM     39  C   UNL A   1      36.491  33.945  29.488  1.00  0.00     0.010 A 
ATOM     40  C   UNL A   1      36.275  33.296  30.713  1.00  0.00    -0.014 A 
BRANCH  40  41
ATOM     41  C   UNL A   1      37.410  32.622  31.393  1.00  0.00     0.031 A 
ATOM     42  C   UNL A   1      38.089  31.452  30.739  1.00  0.00     0.074 A 
ATOM     43  C   UNL A   1      37.785  33.025  32.623  1.00  0.00     0.049 A 
ATOM     44  N   UNL A   1      39.066  30.705  31.189  1.00  0.00    -0.248 NA
ATOM     45  C   UNL A   1      37.584  31.048  29.418  1.00  0.00     0.031 C 
ATOM     46  C   UNL A   1      37.168  34.115  33.382  1.00  0.00     0.029 A 
ATOM     47  N   UNL A   1      38.775  32.562  33.454  1.00  0.00    -0.354 N 
ATOM     48  C   UNL A   1      39.277  29.738  30.215  1.00  0.00     0.074 A 
ATOM     49  C   UNL A   1      38.290  29.953  29.181  1.00  0.00     0.031 C 
ATOM     50  C   UNL A   1      37.817  34.261  34.548  1.00  0.00     0.029 A 
ATOM     51  C   UNL A   1      38.866  33.249  34.639  1.00  0.00     0.049 A 
ATOM     52  H   UNL A   1      39.364  31.808  33.220  1.00  0.00     0.167 HD
ATOM     53  C   UNL A   1      40.227  28.774  30.176  1.00  0.00     0.037 A 
ATOM     54  C   UNL A   1      39.699  33.078  35.684  1.00  0.00     0.037 A 
ATOM     55  C   UNL A   1      41.222  28.582  31.198  1.00  0.00     0.049 A 
ATOM     56  C   UNL A   1      40.734  31.987  35.621  1.00  0.00     0.074 A 
ATOM     57  C   UNL A   1      42.274  27.683  31.218  1.00  0.00     0.029 A 
ATOM     58  N   UNL A   1      41.284  29.297  32.386  1.00  0.00    -0.354 N 
ATOM     59  N   UNL A   1      40.983  31.133  34.657  1.00  0.00    -0.248 NA
ATOM     60  C   UNL A   1      41.611  31.840  36.791  1.00  0.00     0.031 C 
ATOM     61  C   UNL A   1      42.931  27.809  32.447  1.00  0.00     0.029 A 
ATOM     62  C   UNL A   1      42.333  28.834  33.162  1.00  0.00     0.049 A 
ATOM     63  H   UNL A   1      40.671  30.026  32.638  1.00  0.00     0.167 HD
ATOM     64  C   UNL A   1      42.062  30.373  35.089  1.00  0.00     0.074 A 
ATOM     65  C   UNL A   1      42.431  30.878  36.395  1.00  0.00     0.031 C 
ATOM     66  C   UNL A   1      42.692  29.351  34.459  1.00  0.00     0.037 A 
BRANCH  53  67
ATOM     67  C   UNL A   1      40.229  27.847  28.993  1.00  0.00     0.064 A 
ATOM     68  C   UNL A   1      40.953  28.135  27.826  1.00  0.00     0.173 A 
ATOM     69  C   UNL A   1      39.519  26.637  29.041  1.00  0.00     0.173 A 
ATOM     70  F   UNL A   1      41.639  29.284  27.723  1.00  0.00    -0.203 F 
ATOM     71  C   UNL A   1      40.937  27.265  26.739  1.00  0.00     0.198 A 
ATOM     72  C   UNL A   1      39.536  25.752  27.965  1.00  0.00     0.198 A 
ATOM     73  F   UNL A   1      38.814  26.307  30.133  1.00  0.00    -0.203 F 
ATOM     74  F   UNL A   1      41.588  27.591  25.613  1.00  0.00    -0.200 F 
ATOM     75  C   UNL A   1      40.236  26.071  26.812  1.00  0.00     0.200 A 
ATOM     76  F   UNL A   1      38.870  24.593  28.044  1.00  0.00    -0.200 F 
ATOM     77  F   UNL A   1      40.228  25.232  25.767  1.00  0.00    -0.200 F 
ENDBRANCH  53  67
BRANCH  54  78
ATOM     78  C   UNL A   1      39.611  33.977  36.865  1.00  0.00     0.064 A 
ATOM     79  C   UNL A   1      38.849  33.616  37.987  1.00  0.00     0.173 A 
ATOM     80  C   UNL A   1      40.269  35.214  36.898  1.00  0.00     0.173 A 
ATOM     81  F   UNL A   1      38.184  32.451  37.996  1.00  0.00    -0.203 F 
ATOM     82  C   UNL A   1      38.729  34.468  39.082  1.00  0.00     0.198 A 
ATOM     83  C   UNL A   1      40.175  36.052  38.008  1.00  0.00     0.198 A 
ATOM     84  F   UNL A   1      41.015  35.607  35.855  1.00  0.00    -0.203 F 
ATOM     85  F   UNL A   1      37.952  34.120  40.116  1.00  0.00    -0.200 F 
ATOM     86  C   UNL A   1      39.397  35.682  39.095  1.00  0.00     0.200 A 
ATOM     87  F   UNL A   1      40.835  37.218  38.023  1.00  0.00    -0.200 F 
ATOM     88  F   UNL A   1      39.283  36.501  40.150  1.00  0.00    -0.200 F 
ENDBRANCH  54  78
BRANCH  66  89
ATOM     89  C   UNL A   1      43.874  28.735  35.155  1.00  0.00     0.064 A 
ATOM     90  C   UNL A   1      43.729  27.671  36.057  1.00  0.00     0.173 A 
ATOM     91  C   UNL A   1      45.173  29.193  34.883  1.00  0.00     0.173 A 
ATOM     92  F   UNL A   1      42.510  27.205  36.363  1.00  0.00    -0.203 F 
ATOM     93  C   UNL A   1      44.839  27.110  36.685  1.00  0.00     0.198 A 
ATOM     94  C   UNL A   1      46.281  28.605  35.484  1.00  0.00     0.198 A 
ATOM     95  F   UNL A   1      45.368  30.203  34.020  1.00  0.00    -0.203 F 
ATOM     96  F   UNL A   1      44.672  26.133  37.586  1.00  0.00    -0.200 F 
ATOM     97  C   UNL A   1      46.113  27.571  36.392  1.00  0.00     0.200 A 
ATOM     98  F   UNL A   1      47.514  29.040  35.184  1.00  0.00    -0.200 F 
ATOM     99  F   UNL A   1      47.180  27.023  36.990  1.00  0.00    -0.200 F 
ENDBRANCH  66  89
ENDBRANCH  40  41
ENDBRANCH  32  35
ENDBRANCH  30  31
ENDBRANCH  29  30
ENDBRANCH   1  29
TORSDOF 14
ENDMDL
MODEL 2
REMARK VINA RESULT:     -13.7      0.142      1.903
REMARK SMILES O=C1C[C@@H](C(=O)Nc2cccc(C(=O)NCCCCNC(=O)c3ccc(-c4c5nc(c(-c6c(F)c(F)c(F)c(F)c6F)c6ccc([nH]6)c(-c6c(F)c(F)c(F)c(F)c6F)c6nc(c(-c7c(F)c(F)c(F)c(F)c7F)c7ccc4[nH]7)C=C6)C=C5)cc3)c2)[C@H](c2ccccc2)O1
REMARK SMILES IDX 17 1 16 2 15 3 13 4 14 5 12 7 8 8 9 9 86 10 10 11 11 12 7 13
REMARK SMILES IDX 5 14 6 15 4 17 1 18 2 19 3 20 94 21 87 22 88 23 89 24 93 25
REMARK SMILES IDX 90 26 92 27 91 28 18 29 19 30 20 31 21 32 22 34 23 35 24 36
REMARK SMILES IDX 85 37 25 38 84 39 26 40 27 41 28 42 78 43 29 44 83 45 77 46
REMARK SMILES IDX 79 47 30 48 82 49 76 50 75 51 31 53 63 54 43 55 62 56 44 57
REMARK SMILES IDX 47 58 61 59 80 60 45 61 46 62 60 64 81 65 48 66 32 67 33 68
REMARK SMILES IDX 41 69 34 70 35 71 39 72 42 73 36 74 37 75 40 76 38 77 64 78
REMARK SMILES IDX 65 79 73 80 66 81 67 82 71 83 74 84 68 85 69 86 72 87 70 88
REMARK SMILES IDX 49 89 50 90 58 91 51 92 52 93 56 94 59 95 53 96 54 97 57 98
REMARK SMILES IDX 55 99
REMARK H PARENT 15 6 7 16 20 33 79 52 47 63
REMARK Flexibility Score: inf
ROOT
ATOM      1  C   UNL A   1      31.902  30.354  26.878  1.00  0.00     0.023 C 
ENDROOT
BRANCH   1   2
ATOM      2  C   UNL A   1      33.334  29.824  26.943  1.00  0.00     0.116 C 
BRANCH   2   3
ATOM      3  N   UNL A   1      33.849  29.543  25.622  1.00  0.00    -0.352 N 
ATOM      4  C   UNL A   1      33.520  28.624  24.659  1.00  0.00     0.251 C 
ATOM      5  O   UNL A   1      34.152  28.685  23.603  1.00  0.00    -0.269 OA
ATOM      6  H   UNL A   1      34.590  30.135  25.359  1.00  0.00     0.163 HD
BRANCH   4   7
ATOM      7  C   UNL A   1      32.415  27.622  24.779  1.00  0.00     0.041 A 
ATOM      8  C   UNL A   1      31.260  25.748  25.822  1.00  0.00     0.041 A 
ATOM      9  C   UNL A   1      30.150  25.956  25.008  1.00  0.00     0.026 A 
ATOM     10  C   UNL A   1      32.421  26.504  25.620  1.00  0.00     0.040 A 
ATOM     11  C   UNL A   1      30.149  27.017  24.104  1.00  0.00     0.003 A 
ATOM     12  C   UNL A   1      31.261  27.860  24.016  1.00  0.00     0.014 A 
BRANCH   8  13
ATOM     13  N   UNL A   1      31.170  24.777  26.831  1.00  0.00    -0.326 N 
ATOM     14  C   UNL A   1      31.668  23.496  26.861  1.00  0.00     0.232 C 
ATOM     15  O   UNL A   1      31.320  22.753  27.779  1.00  0.00    -0.274 OA
ATOM     16  H   UNL A   1      30.679  25.054  27.638  1.00  0.00     0.169 HD
BRANCH  14  17
ATOM     17  C   UNL A   1      32.740  23.067  25.861  1.00  0.00     0.135 C 
ATOM     18  O   UNL A   1      31.986  19.846  24.607  1.00  0.00    -0.252 OA
ATOM     19  C   UNL A   1      32.418  20.846  25.164  1.00  0.00     0.307 C 
ATOM     20  C   UNL A   1      32.175  22.250  24.719  1.00  0.00     0.140 C 
ATOM     21  O   UNL A   1      33.262  20.813  26.232  1.00  0.00    -0.457 OA
ATOM     22  C   UNL A   1      33.749  22.131  26.514  1.00  0.00     0.220 C 
BRANCH  22  23
ATOM     23  C   UNL A   1      35.172  22.312  25.988  1.00  0.00    -0.007 A 
ATOM     24  C   UNL A   1      35.800  23.565  25.920  1.00  0.00     0.007 A 
ATOM     25  C   UNL A   1      35.892  21.200  25.525  1.00  0.00     0.007 A 
ATOM     26  C   UNL A   1      37.111  23.688  25.444  1.00  0.00     0.000 A 
ATOM     27  C   UNL A   1      37.208  21.314  25.072  1.00  0.00     0.000 A 
ATOM     28  C   UNL A   1      37.818  22.561  25.032  1.00  0.00     0.000 A 
ENDBRANCH  22  23
ENDBRANCH  14  17
ENDBRANCH   8  13
ENDBRANCH   4   7
ENDBRANCH   2   3
ENDBRANCH   1   2
BRANCH   1  29
ATOM     29  C   UNL A   1      31.836  31.864  26.649  1.00  0.00     0.023 C 
BRANCH  29  30
ATOM     30  C   UNL A   1      32.845  32.666  27.463  1.00  0.00     0.116 C 
BRANCH  30  31
ATOM     31  N   UNL A   1      32.449  34.049  27.681  1.00  0.00    -0.352 N 
ATOM     32  C   UNL A   1      32.976  34.944  28.583  1.00  0.00     0.251 C 
ATOM     33  H   UNL A   1      31.716  34.385  27.116  1.00  0.00     0.163 HD
ATOM     34  O   UNL A   1      32.469  36.047  28.745  1.00  0.00    -0.269 OA
BRANCH  32  35
ATOM     35  C   UNL A   1      34.136  34.523  29.392  1.00  0.00     0.039 A 
ATOM     36  C   UNL A   1      33.913  33.990  30.662  1.00  0.00     0.014 A 
ATOM     37  C   UNL A   1      35.423  34.569  28.851  1.00  0.00     0.014 A 
ATOM     38  C   UNL A   1      34.981  33.431  31.364  1.00  0.00     0.010 A 
ATOM     39  C   UNL A   1      36.465  33.931  29.512  1.00  0.00     0.010 A 
ATOM     40  C   UNL A   1      36.255  33.358  30.776  1.00  0.00    -0.014 A 
BRANCH  40  41
ATOM     41  C   UNL A   1      37.381  32.680  31.466  1.00  0.00     0.031 A 
ATOM     42  C   UNL A   1      38.064  31.509  30.819  1.00  0.00     0.074 A 
ATOM     43  C   UNL A   1      37.745  33.082  32.700  1.00  0.00     0.049 A 
ATOM     44  N   UNL A   1      39.034  30.759  31.278  1.00  0.00    -0.248 NA
ATOM     45  C   UNL A   1      37.571  31.106  29.492  1.00  0.00     0.031 C 
ATOM     46  C   UNL A   1      37.123  34.172  33.454  1.00  0.00     0.029 A 
ATOM     47  N   UNL A   1      38.725  32.615  33.541  1.00  0.00    -0.354 N 
ATOM     48  C   UNL A   1      39.254  29.792  30.305  1.00  0.00     0.074 A 
ATOM     49  C   UNL A   1      38.277  30.011  29.262  1.00  0.00     0.031 C 
ATOM     50  C   UNL A   1      37.760  34.315  34.627  1.00  0.00     0.029 A 
ATOM     51  C   UNL A   1      38.805  33.301  34.728  1.00  0.00     0.049 A 
ATOM     52  H   UNL A   1      39.315  31.860  33.313  1.00  0.00     0.167 HD
ATOM     53  C   UNL A   1      40.201  28.826  30.276  1.00  0.00     0.037 A 
ATOM     54  C   UNL A   1      39.628  33.127  35.781  1.00  0.00     0.037 A 
ATOM     55  C   UNL A   1      41.186  28.631  31.307  1.00  0.00     0.049 A 
ATOM     56  C   UNL A   1      40.661  32.034  35.728  1.00  0.00     0.074 A 
ATOM     57  C   UNL A   1      42.234  27.729  31.338  1.00  0.00     0.029 A 
ATOM     58  N   UNL A   1      41.236  29.345  32.496  1.00  0.00    -0.354 N 
ATOM     59  N   UNL A   1      40.917  31.180  34.766  1.00  0.00    -0.248 NA
ATOM     60  C   UNL A   1      41.525  31.884  36.907  1.00  0.00     0.031 C 
ATOM     61  C   UNL A   1      42.879  27.852  32.573  1.00  0.00     0.029 A 
ATOM     62  C   UNL A   1      42.276  28.878  33.284  1.00  0.00     0.049 A 
ATOM     63  H   UNL A   1      40.623  30.075  32.743  1.00  0.00     0.167 HD
ATOM     64  C   UNL A   1      41.990  30.417  35.208  1.00  0.00     0.074 A 
ATOM     65  C   UNL A   1      42.346  30.920  36.518  1.00  0.00     0.031 C 
ATOM     66  C   UNL A   1      42.624  29.394  34.584  1.00  0.00     0.037 A 
BRANCH  53  67
ATOM     67  C   UNL A   1      40.213  27.899  29.092  1.00  0.00     0.064 A 
ATOM     68  C   UNL A   1      39.498  26.691  29.089  1.00  0.00     0.173 A 
ATOM     69  C   UNL A   1      40.927  28.241  27.933  1.00  0.00     0.173 A 
ATOM     70  F   UNL A   1      38.808  26.311  30.175  1.00  0.00    -0.203 F 
ATOM     71  C   UNL A   1      39.527  25.844  27.984  1.00  0.00     0.198 A 
ATOM     72  C   UNL A   1      40.924  27.408  26.817  1.00  0.00     0.198 A 
ATOM     73  F   UNL A   1      41.624  29.385  27.879  1.00  0.00    -0.203 F 
ATOM     74  F   UNL A   1      38.885  24.669  28.027  1.00  0.00    -0.200 F 
ATOM     75  C   UNL A   1      40.232  26.206  26.846  1.00  0.00     0.200 A 
ATOM     76  F   UNL A   1      41.594  27.767  25.714  1.00  0.00    -0.200 F 
ATOM     77  F   UNL A   1      40.253  25.393  25.782  1.00  0.00    -0.200 F 
ENDBRANCH  53  67
BRANCH  54  78
ATOM     78  C   UNL A   1      39.530  34.026  36.962  1.00  0.00     0.064 A 
ATOM     79  C   UNL A   1      40.190  35.264  36.980  1.00  0.00     0.173 A 
ATOM     80  C   UNL A   1      38.790  33.667  38.098  1.00  0.00     0.173 A 
ATOM     81  F   UNL A   1      40.927  35.643  35.925  1.00  0.00    -0.203 F 
ATOM     82  C   UNL A   1      40.136  36.094  38.096  1.00  0.00     0.198 A 
ATOM     83  C   UNL A   1      38.710  34.514  39.202  1.00  0.00     0.198 A 
ATOM     84  F   UNL A   1      38.135  32.498  38.133  1.00  0.00    -0.203 F 
ATOM     85  F   UNL A   1      40.821  37.246  38.105  1.00  0.00    -0.200 F 
ATOM     86  C   UNL A   1      39.391  35.722  39.204  1.00  0.00     0.200 A 
ATOM     87  F   UNL A   1      37.976  34.158  40.265  1.00  0.00    -0.200 F 
ATOM     88  F   UNL A   1      39.337  36.523  40.278  1.00  0.00    -0.200 F 
ENDBRANCH  54  78
BRANCH  66  89
ATOM     89  C   UNL A   1      43.797  28.775  35.291  1.00  0.00     0.064 A 
ATOM     90  C   UNL A   1      45.105  29.246  35.107  1.00  0.00     0.173 A 
ATOM     91  C   UNL A   1      43.601  27.719  36.196  1.00  0.00     0.173 A 
ATOM     92  F   UNL A   1      45.350  30.242  34.244  1.00  0.00    -0.203 F 
ATOM     93  C   UNL A   1      46.177  28.662  35.778  1.00  0.00     0.198 A 
ATOM     94  C   UNL A   1      44.669  27.163  36.892  1.00  0.00     0.198 A 
ATOM     95  F   UNL A   1      42.368  27.236  36.415  1.00  0.00    -0.203 F 
ATOM     96  F   UNL A   1      47.424  29.090  35.544  1.00  0.00    -0.200 F 
ATOM     97  C   UNL A   1      45.957  27.628  36.676  1.00  0.00     0.200 A 
ATOM     98  F   UNL A   1      44.452  26.176  37.774  1.00  0.00    -0.200 F 
ATOM     99  F   UNL A   1      46.989  27.074  37.328  1.00  0.00    -0.200 F 
ENDBRANCH  66  89
ENDBRANCH  40  41
ENDBRANCH  32  35
ENDBRANCH  30  31
ENDBRANCH  29  30
ENDBRANCH   1  29
TORSDOF 14
ENDMDL
MODEL 3
REMARK VINA RESULT:     -13.7      0.595      7.054
REMARK SMILES O=C1C[C@@H](C(=O)Nc2cccc(C(=O)NCCCCNC(=O)c3ccc(-c4c5nc(c(-c6c(F)c(F)c(F)c(F)c6F)c6ccc([nH]6)c(-c6c(F)c(F)c(F)c(F)c6F)c6nc(c(-c7c(F)c(F)c(F)c(F)c7F)c7ccc4[nH]7)C=C6)C=C5)cc3)c2)[C@H](c2ccccc2)O1
REMARK SMILES IDX 17 1 16 2 15 3 13 4 14 5 12 7 8 8 9 9 86 10 10 11 11 12 7 13
REMARK SMILES IDX 5 14 6 15 4 17 1 18 2 19 3 20 94 21 87 22 88 23 89 24 93 25
REMARK SMILES IDX 90 26 92 27 91 28 18 29 19 30 20 31 21 32 22 34 23 35 24 36
REMARK SMILES IDX 85 37 25 38 84 39 26 40 27 41 28 42 78 43 29 44 83 45 77 46
REMARK SMILES IDX 79 47 30 48 82 49 76 50 75 51 31 53 63 54 43 55 62 56 44 57
REMARK SMILES IDX 47 58 61 59 80 60 45 61 46 62 60 64 81 65 48 66 32 67 33 68
REMARK SMILES IDX 41 69 34 70 35 71 39 72 42 73 36 74 37 75 40 76 38 77 64 78
REMARK SMILES IDX 65 79 73 80 66 81 67 82 71 83 74 84 68 85 69 86 72 87 70 88
REMARK SMILES IDX 49 89 50 90 58 91 51 92 52 93 56 94 59 95 53 96 54 97 57 98
REMARK SMILES IDX 55 99
REMARK H PARENT 15 6 7 16 20 33 79 52 47 63
REMARK Flexibility Score: inf
ROOT
ATOM      1  C   UNL A   1      31.776  30.419  26.491  1.00  0.00     0.023 C 
ENDROOT
BRANCH   1   2
ATOM      2  C   UNL A   1      33.247  30.019  26.608  1.00  0.00     0.116 C 
BRANCH   2   3
ATOM      3  N   UNL A   1      33.800  29.673  25.319  1.00  0.00    -0.352 N 
ATOM      4  C   UNL A   1      33.500  28.705  24.395  1.00  0.00     0.251 C 
ATOM      5  O   UNL A   1      34.163  28.714  23.356  1.00  0.00    -0.269 OA
ATOM      6  H   UNL A   1      34.548  30.252  25.048  1.00  0.00     0.163 HD
BRANCH   4   7
ATOM      7  C   UNL A   1      32.394  27.707  24.533  1.00  0.00     0.041 A 
ATOM      8  C   UNL A   1      31.212  25.884  25.634  1.00  0.00     0.041 A 
ATOM      9  C   UNL A   1      30.124  26.050  24.780  1.00  0.00     0.026 A 
ATOM     10  C   UNL A   1      32.378  26.632  25.427  1.00  0.00     0.040 A 
ATOM     11  C   UNL A   1      30.148  27.066  23.826  1.00  0.00     0.003 A 
ATOM     12  C   UNL A   1      31.261  27.906  23.728  1.00  0.00     0.014 A 
BRANCH   8  13
ATOM     13  N   UNL A   1      31.096  24.963  26.686  1.00  0.00    -0.326 N 
ATOM     14  C   UNL A   1      31.577  23.679  26.783  1.00  0.00     0.232 C 
ATOM     15  O   UNL A   1      31.206  22.984  27.730  1.00  0.00    -0.274 OA
ATOM     16  H   UNL A   1      30.596  25.284  27.471  1.00  0.00     0.169 HD
BRANCH  14  17
ATOM     17  C   UNL A   1      32.658  23.191  25.821  1.00  0.00     0.135 C 
ATOM     18  O   UNL A   1      31.910  19.903  24.751  1.00  0.00    -0.252 OA
ATOM     19  C   UNL A   1      32.339  20.933  25.252  1.00  0.00     0.307 C 
ATOM     20  C   UNL A   1      32.103  22.309  24.723  1.00  0.00     0.140 C 
ATOM     21  O   UNL A   1      33.172  20.962  26.329  1.00  0.00    -0.457 OA
ATOM     22  C   UNL A   1      33.658  22.293  26.538  1.00  0.00     0.220 C 
BRANCH  22  23
ATOM     23  C   UNL A   1      35.087  22.441  26.016  1.00  0.00    -0.007 A 
ATOM     24  C   UNL A   1      35.704  23.690  25.841  1.00  0.00     0.007 A 
ATOM     25  C   UNL A   1      35.825  21.299  25.667  1.00  0.00     0.007 A 
ATOM     26  C   UNL A   1      37.019  23.783  25.373  1.00  0.00     0.000 A 
ATOM     27  C   UNL A   1      37.146  21.386  25.223  1.00  0.00     0.000 A 
ATOM     28  C   UNL A   1      37.744  22.631  25.076  1.00  0.00     0.000 A 
ENDBRANCH  22  23
ENDBRANCH  14  17
ENDBRANCH   8  13
ENDBRANCH   4   7
ENDBRANCH   2   3
ENDBRANCH   1   2
BRANCH   1  29
ATOM     29  C   UNL A   1      31.560  31.928  26.596  1.00  0.00     0.023 C 
BRANCH  29  30
ATOM     30  C   UNL A   1      32.676  32.672  27.320  1.00  0.00     0.116 C 
BRANCH  30  31
ATOM     31  N   UNL A   1      32.361  34.066  27.598  1.00  0.00    -0.352 N 
ATOM     32  C   UNL A   1      32.964  34.899  28.512  1.00  0.00     0.251 C 
ATOM     33  H   UNL A   1      31.630  34.459  27.070  1.00  0.00     0.163 HD
ATOM     34  O   UNL A   1      32.522  36.021  28.729  1.00  0.00    -0.269 OA
BRANCH  32  35
ATOM     35  C   UNL A   1      34.124  34.389  29.267  1.00  0.00     0.039 A 
ATOM     36  C   UNL A   1      33.900  33.615  30.406  1.00  0.00     0.014 A 
ATOM     37  C   UNL A   1      35.420  34.600  28.789  1.00  0.00     0.014 A 
ATOM     38  C   UNL A   1      34.979  32.985  31.026  1.00  0.00     0.010 A 
ATOM     39  C   UNL A   1      36.479  33.901  29.354  1.00  0.00     0.010 A 
ATOM     40  C   UNL A   1      36.270  33.087  30.479  1.00  0.00    -0.014 A 
BRANCH  40  41
ATOM     41  C   UNL A   1      37.413  32.347  31.068  1.00  0.00     0.031 A 
ATOM     42  C   UNL A   1      37.916  32.707  32.437  1.00  0.00     0.074 A 
ATOM     43  C   UNL A   1      38.036  31.396  30.344  1.00  0.00     0.049 A 
ATOM     44  N   UNL A   1      38.926  32.210  33.106  1.00  0.00    -0.248 NA
ATOM     45  C   UNL A   1      37.209  33.792  33.138  1.00  0.00     0.031 C 
ATOM     46  C   UNL A   1      37.674  30.994  28.984  1.00  0.00     0.029 A 
ATOM     47  N   UNL A   1      39.109  30.596  30.652  1.00  0.00    -0.354 N 
ATOM     48  C   UNL A   1      38.983  32.931  34.292  1.00  0.00     0.074 A 
ATOM     49  C   UNL A   1      37.947  33.938  34.226  1.00  0.00     0.031 C 
ATOM     50  C   UNL A   1      38.484  29.998  28.589  1.00  0.00     0.029 A 
ATOM     51  C   UNL A   1      39.449  29.722  29.649  1.00  0.00     0.049 A 
ATOM     52  H   UNL A   1      39.588  30.644  31.511  1.00  0.00     0.167 HD
ATOM     53  C   UNL A   1      39.808  32.750  35.349  1.00  0.00     0.037 A 
ATOM     54  C   UNL A   1      40.433  28.803  29.590  1.00  0.00     0.037 A 
ATOM     55  C   UNL A   1      40.819  31.729  35.417  1.00  0.00     0.049 A 
ATOM     56  C   UNL A   1      41.347  28.636  30.775  1.00  0.00     0.074 A 
ATOM     57  C   UNL A   1      41.657  31.414  36.472  1.00  0.00     0.029 A 
ATOM     58  N   UNL A   1      41.136  30.861  34.381  1.00  0.00    -0.354 N 
ATOM     59  N   UNL A   1      41.336  29.263  31.926  1.00  0.00    -0.248 NA
ATOM     60  C   UNL A   1      42.407  27.625  30.653  1.00  0.00     0.031 C 
ATOM     61  C   UNL A   1      42.525  30.401  36.052  1.00  0.00     0.029 A 
ATOM     62  C   UNL A   1      42.183  30.036  34.760  1.00  0.00     0.049 A 
ATOM     63  H   UNL A   1      40.684  30.836  33.507  1.00  0.00     0.167 HD
ATOM     64  C   UNL A   1      42.361  28.702  32.676  1.00  0.00     0.074 A 
ATOM     65  C   UNL A   1      42.963  27.672  31.854  1.00  0.00     0.031 C 
ATOM     66  C   UNL A   1      42.767  29.010  33.933  1.00  0.00     0.037 A 
BRANCH  53  67
ATOM     67  C   UNL A   1      39.656  33.684  36.518  1.00  0.00     0.064 A 
ATOM     68  C   UNL A   1      40.297  34.932  36.558  1.00  0.00     0.173 A 
ATOM     69  C   UNL A   1      38.832  33.336  37.599  1.00  0.00     0.173 A 
ATOM     70  F   UNL A   1      41.105  35.309  35.556  1.00  0.00    -0.203 F 
ATOM     71  C   UNL A   1      40.147  35.779  37.653  1.00  0.00     0.198 A 
ATOM     72  C   UNL A   1      38.656  34.202  38.675  1.00  0.00     0.198 A 
ATOM     73  F   UNL A   1      38.190  32.158  37.611  1.00  0.00    -0.203 F 
ATOM     74  F   UNL A   1      40.817  36.940  37.695  1.00  0.00    -0.200 F 
ATOM     75  C   UNL A   1      39.321  35.418  38.706  1.00  0.00     0.200 A 
ATOM     76  F   UNL A   1      37.845  33.857  39.685  1.00  0.00    -0.200 F 
ATOM     77  F   UNL A   1      39.173  36.239  39.755  1.00  0.00    -0.200 F 
ENDBRANCH  53  67
BRANCH  54  78
ATOM     78  C   UNL A   1      40.589  27.951  28.382  1.00  0.00     0.064 A 
ATOM     79  C   UNL A   1      39.980  26.688  28.310  1.00  0.00     0.173 A 
ATOM     80  C   UNL A   1      41.354  28.367  27.283  1.00  0.00     0.173 A 
ATOM     81  F   UNL A   1      39.255  26.237  29.343  1.00  0.00    -0.203 F 
ATOM     82  C   UNL A   1      40.152  25.867  27.199  1.00  0.00     0.198 A 
ATOM     83  C   UNL A   1      41.498  27.558  26.158  1.00  0.00     0.198 A 
ATOM     84  F   UNL A   1      41.953  29.567  27.296  1.00  0.00    -0.203 F 
ATOM     85  F   UNL A   1      39.603  24.645  27.180  1.00  0.00    -0.200 F 
ATOM     86  C   UNL A   1      40.906  26.304  26.121  1.00  0.00     0.200 A 
ATOM     87  F   UNL A   1      42.215  27.990  25.111  1.00  0.00    -0.200 F 
ATOM     88  F   UNL A   1      41.069  25.515  25.050  1.00  0.00    -0.200 F 
ENDBRANCH  54  78
BRANCH  66  89
ATOM     89  C   UNL A   1      43.889  28.197  34.515  1.00  0.00     0.064 A 
ATOM     90  C   UNL A   1      43.656  26.983  35.179  1.00  0.00     0.173 A 
ATOM     91  C   UNL A   1      45.219  28.622  34.371  1.00  0.00     0.173 A 
ATOM     92  F   UNL A   1      42.404  26.538  35.357  1.00  0.00    -0.203 F 
ATOM     93  C   UNL A   1      44.712  26.242  35.705  1.00  0.00     0.198 A 
ATOM     94  C   UNL A   1      46.273  27.860  34.865  1.00  0.00     0.198 A 
ATOM     95  F   UNL A   1      45.497  29.771  33.737  1.00  0.00    -0.203 F 
ATOM     96  F   UNL A   1      44.462  25.115  36.385  1.00  0.00    -0.200 F 
ATOM     97  C   UNL A   1      46.019  26.676  35.540  1.00  0.00     0.200 A 
ATOM     98  F   UNL A   1      47.537  28.272  34.689  1.00  0.00    -0.200 F 
ATOM     99  F   UNL A   1      47.034  25.956  36.039  1.00  0.00    -0.200 F 
ENDBRANCH  66  89
ENDBRANCH  40  41
ENDBRANCH  32  35
ENDBRANCH  30  31
ENDBRANCH  29  30
ENDBRANCH   1  29
TORSDOF 14
ENDMDL
