MODEL 1
REMARK VINA RESULT:     -11.4      0.000      0.000
REMARK SMILES C[C@@H](O)[C@H](C)[N@@H+]1CCOC[C@@H]1C(=O)NCCCCNC(=O)c1ccc(-c2c3nc(c(-c4c(F)c(F)c(F)c(F)c4F)c4ccc([nH]4)c(-c4c(F)c(F)c(F)c(F)c4F)c4nc(c(-c5c(F)c(F)c(F)c(F)c5F)c5ccc2[nH]5)C=C4)C=C3)cc1
REMARK SMILES IDX 16 1 15 2 14 3 12 4 13 5 11 7 6 8 7 9 8 11 10 12 9 13 4 14
REMARK SMILES IDX 5 15 2 16 1 17 3 18 17 20 18 21 19 22 20 23 21 25 22 26
REMARK SMILES IDX 23 27 84 28 24 29 83 30 25 31 26 32 27 33 77 34 28 35 82 36
REMARK SMILES IDX 76 37 78 38 29 39 81 40 75 41 74 42 30 44 62 45 42 46 61 47
REMARK SMILES IDX 43 48 46 49 60 50 79 51 44 52 45 53 59 55 80 56 47 57 31 58
REMARK SMILES IDX 32 59 40 60 33 61 34 62 38 63 41 64 35 65 36 66 39 67 37 68
REMARK SMILES IDX 63 69 64 70 72 71 65 72 66 73 70 74 73 75 67 76 68 77 71 78
REMARK SMILES IDX 69 79 48 80 49 81 57 82 50 83 51 84 55 85 58 86 52 87 53 88
REMARK SMILES IDX 56 89 54 90
REMARK H PARENT 14 6 6 10 3 19 19 24 78 43 46 54
REMARK Flexibility Score: inf
ROOT
ATOM      1  C   UNL A   1      31.419  30.632  26.471  1.00  0.00     0.023 C 
ENDROOT
BRANCH   1   2
ATOM      2  C   UNL A   1      32.043  30.044  25.209  1.00  0.00     0.116 C 
BRANCH   2   3
ATOM      3  N   UNL A   1      31.040  29.559  24.278  1.00  0.00    -0.351 N 
ATOM      4  C   UNL A   1      30.647  28.274  24.007  1.00  0.00     0.280 C 
ATOM      5  O   UNL A   1      29.959  28.128  22.995  1.00  0.00    -0.268 OA
ATOM      6  H   UNL A   1      30.572  30.257  23.766  1.00  0.00     0.163 HD
BRANCH   4   7
ATOM      7  C   UNL A   1      31.148  27.125  24.904  1.00  0.00     0.300 C 
ATOM      8  N   UNL A   1      32.435  26.458  24.471  1.00  0.00    -0.317 N 
ATOM      9  C   UNL A   1      32.858  25.709  25.705  1.00  0.00     0.292 C 
ATOM     10  H   UNL A   1      33.077  27.171  24.128  1.00  0.00     0.349 HD
ATOM     11  C   UNL A   1      31.785  24.765  26.302  1.00  0.00     0.221 C 
ATOM     12  C   UNL A   1      30.092  26.082  25.313  1.00  0.00     0.235 C 
ATOM     13  O   UNL A   1      30.525  25.420  26.513  1.00  0.00    -0.369 OA
BRANCH   8  14
ATOM     14  C   UNL A   1      32.364  25.517  23.305  1.00  0.00     0.210 C 
ATOM     15  C   UNL A   1      32.565  26.130  21.896  1.00  0.00     0.078 C 
BRANCH  14  16
ATOM     16  C   UNL A   1      33.374  24.305  23.355  1.00  0.00     0.169 C 
ATOM     17  C   UNL A   1      32.849  22.902  23.080  1.00  0.00     0.045 C 
BRANCH  16  18
ATOM     18  O   UNL A   1      34.404  24.568  22.383  1.00  0.00    -0.387 OA
ATOM     19  H   UNL A   1      34.350  25.492  22.096  1.00  0.00     0.211 HD
ENDBRANCH  16  18
ENDBRANCH  14  16
ENDBRANCH   8  14
ENDBRANCH   4   7
ENDBRANCH   2   3
ENDBRANCH   1   2
BRANCH   1  20
ATOM     20  C   UNL A   1      31.410  32.160  26.544  1.00  0.00     0.023 C 
BRANCH  20  21
ATOM     21  C   UNL A   1      32.609  32.789  27.246  1.00  0.00     0.116 C 
BRANCH  21  22
ATOM     22  N   UNL A   1      32.381  34.176  27.619  1.00  0.00    -0.352 N 
ATOM     23  C   UNL A   1      32.978  34.939  28.591  1.00  0.00     0.251 C 
ATOM     24  H   UNL A   1      31.693  34.641  27.091  1.00  0.00     0.163 HD
ATOM     25  O   UNL A   1      32.528  36.054  28.850  1.00  0.00    -0.269 OA
BRANCH  23  26
ATOM     26  C   UNL A   1      34.135  34.423  29.354  1.00  0.00     0.039 A 
ATOM     27  C   UNL A   1      33.900  33.796  30.581  1.00  0.00     0.014 A 
ATOM     28  C   UNL A   1      35.443  34.558  28.882  1.00  0.00     0.014 A 
ATOM     29  C   UNL A   1      34.964  33.243  31.294  1.00  0.00     0.010 A 
ATOM     30  C   UNL A   1      36.494  33.933  29.553  1.00  0.00     0.010 A 
ATOM     31  C   UNL A   1      36.267  33.267  30.765  1.00  0.00    -0.014 A 
BRANCH  31  32
ATOM     32  C   UNL A   1      37.379  32.569  31.461  1.00  0.00     0.031 A 
ATOM     33  C   UNL A   1      38.083  31.406  30.816  1.00  0.00     0.074 A 
ATOM     34  C   UNL A   1      37.730  32.961  32.701  1.00  0.00     0.049 A 
ATOM     35  N   UNL A   1      39.073  30.681  31.276  1.00  0.00    -0.248 NA
ATOM     36  C   UNL A   1      37.597  30.986  29.493  1.00  0.00     0.031 C 
ATOM     37  C   UNL A   1      37.088  34.037  33.458  1.00  0.00     0.029 A 
ATOM     38  N   UNL A   1      38.714  32.506  33.544  1.00  0.00    -0.354 N 
ATOM     39  C   UNL A   1      39.324  29.721  30.303  1.00  0.00     0.074 A 
ATOM     40  C   UNL A   1      38.345  29.918  29.256  1.00  0.00     0.031 C 
ATOM     41  C   UNL A   1      37.716  34.183  34.635  1.00  0.00     0.029 A 
ATOM     42  C   UNL A   1      38.777  33.187  34.735  1.00  0.00     0.049 A 
ATOM     43  H   UNL A   1      39.316  31.760  33.318  1.00  0.00     0.167 HD
ATOM     44  C   UNL A   1      40.298  28.779  30.275  1.00  0.00     0.037 A 
ATOM     45  C   UNL A   1      39.598  33.027  35.792  1.00  0.00     0.037 A 
ATOM     46  C   UNL A   1      41.278  28.594  31.315  1.00  0.00     0.049 A 
ATOM     47  C   UNL A   1      40.659  31.962  35.738  1.00  0.00     0.074 A 
ATOM     48  C   UNL A   1      42.341  27.709  31.350  1.00  0.00     0.029 A 
ATOM     49  N   UNL A   1      41.309  29.301  32.509  1.00  0.00    -0.354 N 
ATOM     50  N   UNL A   1      40.942  31.118  34.776  1.00  0.00    -0.248 NA
ATOM     51  C   UNL A   1      41.524  31.835  36.921  1.00  0.00     0.031 C 
ATOM     52  C   UNL A   1      42.978  27.837  32.590  1.00  0.00     0.029 A 
ATOM     53  C   UNL A   1      42.353  28.847  33.301  1.00  0.00     0.049 A 
ATOM     54  H   UNL A   1      40.682  30.017  32.757  1.00  0.00     0.167 HD
ATOM     55  C   UNL A   1      42.028  30.379  35.224  1.00  0.00     0.074 A 
ATOM     56  C   UNL A   1      42.371  30.893  36.533  1.00  0.00     0.031 C 
ATOM     57  C   UNL A   1      42.681  29.363  34.607  1.00  0.00     0.037 A 
BRANCH  44  58
ATOM     58  C   UNL A   1      40.353  27.870  29.080  1.00  0.00     0.064 A 
ATOM     59  C   UNL A   1      39.626  26.670  29.031  1.00  0.00     0.173 A 
ATOM     60  C   UNL A   1      41.106  28.223  27.949  1.00  0.00     0.173 A 
ATOM     61  F   UNL A   1      38.897  26.279  30.086  1.00  0.00    -0.203 F 
ATOM     62  C   UNL A   1      39.674  25.845  27.909  1.00  0.00     0.198 A 
ATOM     63  C   UNL A   1      41.125  27.413  26.816  1.00  0.00     0.198 A 
ATOM     64  F   UNL A   1      41.815  29.362  27.936  1.00  0.00    -0.203 F 
ATOM     65  F   UNL A   1      39.012  24.680  27.907  1.00  0.00    -0.200 F 
ATOM     66  C   UNL A   1      40.416  26.220  26.800  1.00  0.00     0.200 A 
ATOM     67  F   UNL A   1      41.831  27.785  25.739  1.00  0.00    -0.200 F 
ATOM     68  F   UNL A   1      40.455  25.431  25.718  1.00  0.00    -0.200 F 
ENDBRANCH  44  58
BRANCH  45  69
ATOM     69  C   UNL A   1      39.463  33.910  36.981  1.00  0.00     0.064 A 
ATOM     70  C   UNL A   1      38.719  33.506  38.099  1.00  0.00     0.173 A 
ATOM     71  C   UNL A   1      40.062  35.178  37.021  1.00  0.00     0.173 A 
ATOM     72  F   UNL A   1      38.111  32.311  38.101  1.00  0.00    -0.203 F 
ATOM     73  C   UNL A   1      38.557  34.346  39.198  1.00  0.00     0.198 A 
ATOM     74  C   UNL A   1      39.927  36.004  38.135  1.00  0.00     0.198 A 
ATOM     75  F   UNL A   1      40.789  35.611  35.980  1.00  0.00    -0.203 F 
ATOM     76  F   UNL A   1      37.794  33.956  40.229  1.00  0.00    -0.200 F 
ATOM     77  C   UNL A   1      39.166  35.591  39.218  1.00  0.00     0.200 A 
ATOM     78  F   UNL A   1      40.530  37.199  38.157  1.00  0.00    -0.200 F 
ATOM     79  F   UNL A   1      39.012  36.397  40.277  1.00  0.00    -0.200 F 
ENDBRANCH  45  69
BRANCH  57  80
ATOM     80  C   UNL A   1      43.850  28.759  35.334  1.00  0.00     0.064 A 
ATOM     81  C   UNL A   1      45.158  29.231  35.150  1.00  0.00     0.173 A 
ATOM     82  C   UNL A   1      43.656  27.702  36.237  1.00  0.00     0.173 A 
ATOM     83  F   UNL A   1      45.402  30.229  34.287  1.00  0.00    -0.203 F 
ATOM     84  C   UNL A   1      46.233  28.640  35.811  1.00  0.00     0.198 A 
ATOM     85  C   UNL A   1      44.728  27.140  36.926  1.00  0.00     0.198 A 
ATOM     86  F   UNL A   1      42.425  27.218  36.460  1.00  0.00    -0.203 F 
ATOM     87  F   UNL A   1      47.480  29.064  35.568  1.00  0.00    -0.200 F 
ATOM     88  C   UNL A   1      46.016  27.600  36.702  1.00  0.00     0.200 A 
ATOM     89  F   UNL A   1      44.515  26.146  37.799  1.00  0.00    -0.200 F 
ATOM     90  F   UNL A   1      47.052  27.035  37.338  1.00  0.00    -0.200 F 
ENDBRANCH  57  80
ENDBRANCH  31  32
ENDBRANCH  23  26
ENDBRANCH  21  22
ENDBRANCH  20  21
ENDBRANCH   1  20
TORSDOF 14
ENDMDL
MODEL 2
REMARK VINA RESULT:     -11.2      5.792     11.379
REMARK SMILES C[C@@H](O)[C@H](C)[N@@H+]1CCOC[C@@H]1C(=O)NCCCCNC(=O)c1ccc(-c2c3nc(c(-c4c(F)c(F)c(F)c(F)c4F)c4ccc([nH]4)c(-c4c(F)c(F)c(F)c(F)c4F)c4nc(c(-c5c(F)c(F)c(F)c(F)c5F)c5ccc2[nH]5)C=C4)C=C3)cc1
REMARK SMILES IDX 16 1 15 2 14 3 12 4 13 5 11 7 6 8 7 9 8 11 10 12 9 13 4 14
REMARK SMILES IDX 5 15 2 16 1 17 3 18 17 20 18 21 19 22 20 23 21 25 22 26
REMARK SMILES IDX 23 27 84 28 24 29 83 30 25 31 26 32 27 33 77 34 28 35 82 36
REMARK SMILES IDX 76 37 78 38 29 39 81 40 75 41 74 42 30 44 62 45 42 46 61 47
REMARK SMILES IDX 43 48 46 49 60 50 79 51 44 52 45 53 59 55 80 56 47 57 31 58
REMARK SMILES IDX 32 59 40 60 33 61 34 62 38 63 41 64 35 65 36 66 39 67 37 68
REMARK SMILES IDX 63 69 64 70 72 71 65 72 66 73 70 74 73 75 67 76 68 77 71 78
REMARK SMILES IDX 69 79 48 80 49 81 57 82 50 83 51 84 55 85 58 86 52 87 53 88
REMARK SMILES IDX 56 89 54 90
REMARK H PARENT 14 6 6 10 3 19 19 24 78 43 46 54
REMARK Flexibility Score: inf
ROOT
ATOM      1  C   UNL A   1      36.861  20.917  24.635  1.00  0.00     0.023 C 
ENDROOT
BRANCH   1   2
ATOM      2  C   UNL A   1      35.813  21.085  25.730  1.00  0.00     0.116 C 
BRANCH   2   3
ATOM      3  N   UNL A   1      34.542  20.484  25.366  1.00  0.00    -0.351 N 
ATOM      4  C   UNL A   1      33.466  21.037  24.720  1.00  0.00     0.280 C 
ATOM      5  O   UNL A   1      32.423  20.383  24.763  1.00  0.00    -0.268 OA
ATOM      6  H   UNL A   1      34.437  19.539  25.619  1.00  0.00     0.163 HD
BRANCH   4   7
ATOM      7  C   UNL A   1      33.604  22.433  24.081  1.00  0.00     0.300 C 
ATOM      8  N   UNL A   1      33.230  23.605  24.960  1.00  0.00    -0.317 N 
ATOM      9  C   UNL A   1      33.839  24.776  24.238  1.00  0.00     0.292 C 
ATOM     10  H   UNL A   1      33.566  23.428  25.906  1.00  0.00     0.349 HD
ATOM     11  C   UNL A   1      33.444  24.907  22.746  1.00  0.00     0.221 C 
ATOM     12  C   UNL A   1      33.011  22.586  22.668  1.00  0.00     0.235 C 
ATOM     13  O   UNL A   1      33.649  23.694  22.009  1.00  0.00    -0.369 OA
BRANCH   8  14
ATOM     14  C   UNL A   1      31.769  23.855  25.190  1.00  0.00     0.210 C 
ATOM     15  C   UNL A   1      31.098  23.075  26.349  1.00  0.00     0.078 C 
BRANCH  14  16
ATOM     16  C   UNL A   1      31.376  25.361  25.450  1.00  0.00     0.169 C 
ATOM     17  C   UNL A   1      30.025  25.861  24.957  1.00  0.00     0.045 C 
BRANCH  16  18
ATOM     18  O   UNL A   1      31.408  25.571  26.875  1.00  0.00    -0.387 OA
ATOM     19  H   UNL A   1      31.396  24.714  27.328  1.00  0.00     0.211 HD
ENDBRANCH  16  18
ENDBRANCH  14  16
ENDBRANCH   8  14
ENDBRANCH   4   7
ENDBRANCH   2   3
ENDBRANCH   1   2
BRANCH   1  20
ATOM     20  C   UNL A   1      37.908  19.831  24.895  1.00  0.00     0.023 C 
BRANCH  20  21
ATOM     21  C   UNL A   1      39.053  20.233  25.819  1.00  0.00     0.116 C 
BRANCH  21  22
ATOM     22  N   UNL A   1      40.074  19.204  25.934  1.00  0.00    -0.352 N 
ATOM     23  C   UNL A   1      41.427  19.321  26.126  1.00  0.00     0.251 C 
ATOM     24  H   UNL A   1      39.742  18.279  25.864  1.00  0.00     0.163 HD
ATOM     25  O   UNL A   1      42.142  18.323  26.037  1.00  0.00    -0.269 OA
BRANCH  23  26
ATOM     26  C   UNL A   1      42.041  20.636  26.405  1.00  0.00     0.039 A 
ATOM     27  C   UNL A   1      42.362  21.466  25.327  1.00  0.00     0.014 A 
ATOM     28  C   UNL A   1      42.314  21.056  27.710  1.00  0.00     0.014 A 
ATOM     29  C   UNL A   1      42.884  22.739  25.561  1.00  0.00     0.010 A 
ATOM     30  C   UNL A   1      42.757  22.357  27.945  1.00  0.00     0.010 A 
ATOM     31  C   UNL A   1      43.045  23.214  26.874  1.00  0.00    -0.014 A 
BRANCH  31  32
ATOM     32  C   UNL A   1      43.480  24.613  27.125  1.00  0.00     0.031 A 
ATOM     33  C   UNL A   1      42.518  25.635  27.666  1.00  0.00     0.074 A 
ATOM     34  C   UNL A   1      44.743  24.973  26.824  1.00  0.00     0.049 A 
ATOM     35  N   UNL A   1      42.725  26.898  27.947  1.00  0.00    -0.248 NA
ATOM     36  C   UNL A   1      41.137  25.188  27.901  1.00  0.00     0.031 C 
ATOM     37  C   UNL A   1      45.755  24.092  26.240  1.00  0.00     0.029 A 
ATOM     38  N   UNL A   1      45.394  26.174  26.969  1.00  0.00    -0.354 N 
ATOM     39  C   UNL A   1      41.504  27.394  28.386  1.00  0.00     0.074 A 
ATOM     40  C   UNL A   1      40.548  26.313  28.279  1.00  0.00     0.031 C 
ATOM     41  C   UNL A   1      46.908  24.769  26.111  1.00  0.00     0.029 A 
ATOM     42  C   UNL A   1      46.706  26.141  26.563  1.00  0.00     0.049 A 
ATOM     43  H   UNL A   1      44.962  26.983  27.328  1.00  0.00     0.167 HD
ATOM     44  C   UNL A   1      41.214  28.631  28.859  1.00  0.00     0.037 A 
ATOM     45  C   UNL A   1      47.644  27.109  26.555  1.00  0.00     0.037 A 
ATOM     46  C   UNL A   1      42.172  29.701  28.975  1.00  0.00     0.049 A 
ATOM     47  C   UNL A   1      47.288  28.476  27.072  1.00  0.00     0.074 A 
ATOM     48  C   UNL A   1      41.989  30.968  29.499  1.00  0.00     0.029 A 
ATOM     49  N   UNL A   1      43.491  29.632  28.550  1.00  0.00    -0.354 N 
ATOM     50  N   UNL A   1      46.153  28.908  27.565  1.00  0.00    -0.248 NA
ATOM     51  C   UNL A   1      48.351  29.490  27.037  1.00  0.00     0.031 C 
ATOM     52  C   UNL A   1      43.179  31.686  29.336  1.00  0.00     0.029 A 
ATOM     53  C   UNL A   1      44.124  30.846  28.771  1.00  0.00     0.049 A 
ATOM     54  H   UNL A   1      43.915  28.838  28.152  1.00  0.00     0.167 HD
ATOM     55  C   UNL A   1      46.371  30.232  27.922  1.00  0.00     0.074 A 
ATOM     56  C   UNL A   1      47.755  30.524  27.613  1.00  0.00     0.031 C 
ATOM     57  C   UNL A   1      45.502  31.126  28.454  1.00  0.00     0.037 A 
BRANCH  44  58
ATOM     58  C   UNL A   1      39.798  28.898  29.287  1.00  0.00     0.064 A 
ATOM     59  C   UNL A   1      39.372  28.678  30.606  1.00  0.00     0.173 A 
ATOM     60  C   UNL A   1      38.866  29.423  28.378  1.00  0.00     0.173 A 
ATOM     61  F   UNL A   1      40.218  28.170  31.514  1.00  0.00    -0.203 F 
ATOM     62  C   UNL A   1      38.060  28.946  30.992  1.00  0.00     0.198 A 
ATOM     63  C   UNL A   1      37.564  29.721  28.776  1.00  0.00     0.198 A 
ATOM     64  F   UNL A   1      39.219  29.660  27.106  1.00  0.00    -0.203 F 
ATOM     65  F   UNL A   1      37.664  28.680  32.244  1.00  0.00    -0.200 F 
ATOM     66  C   UNL A   1      37.160  29.475  30.080  1.00  0.00     0.200 A 
ATOM     67  F   UNL A   1      36.700  30.247  27.896  1.00  0.00    -0.200 F 
ATOM     68  F   UNL A   1      35.901  29.741  30.454  1.00  0.00    -0.200 F 
ENDBRANCH  44  58
BRANCH  45  69
ATOM     69  C   UNL A   1      49.015  26.814  26.061  1.00  0.00     0.064 A 
ATOM     70  C   UNL A   1      49.361  27.035  24.720  1.00  0.00     0.173 A 
ATOM     71  C   UNL A   1      50.003  26.296  26.911  1.00  0.00     0.173 A 
ATOM     72  F   UNL A   1      48.447  27.510  23.863  1.00  0.00    -0.203 F 
ATOM     73  C   UNL A   1      50.633  26.722  24.244  1.00  0.00     0.198 A 
ATOM     74  C   UNL A   1      51.284  26.016  26.442  1.00  0.00     0.198 A 
ATOM     75  F   UNL A   1      49.726  26.071  28.205  1.00  0.00    -0.203 F 
ATOM     76  F   UNL A   1      50.919  26.890  22.945  1.00  0.00    -0.200 F 
ATOM     77  C   UNL A   1      51.595  26.219  25.106  1.00  0.00     0.200 A 
ATOM     78  F   UNL A   1      52.215  25.545  27.281  1.00  0.00    -0.200 F 
ATOM     79  F   UNL A   1      52.818  25.921  24.647  1.00  0.00    -0.200 F 
ENDBRANCH  45  69
BRANCH  57  80
ATOM     80  C   UNL A   1      46.034  32.499  28.760  1.00  0.00     0.064 A 
ATOM     81  C   UNL A   1      45.961  33.544  27.826  1.00  0.00     0.173 A 
ATOM     82  C   UNL A   1      46.613  32.776  30.008  1.00  0.00     0.173 A 
ATOM     83  F   UNL A   1      45.431  33.330  26.612  1.00  0.00    -0.203 F 
ATOM     84  C   UNL A   1      46.485  34.802  28.116  1.00  0.00     0.198 A 
ATOM     85  C   UNL A   1      47.100  34.045  30.309  1.00  0.00     0.198 A 
ATOM     86  F   UNL A   1      46.700  31.817  30.942  1.00  0.00    -0.203 F 
ATOM     87  F   UNL A   1      46.463  35.764  27.184  1.00  0.00    -0.200 F 
ATOM     88  C   UNL A   1      47.048  35.053  29.358  1.00  0.00     0.200 A 
ATOM     89  F   UNL A   1      47.629  34.290  31.515  1.00  0.00    -0.200 F 
ATOM     90  F   UNL A   1      47.549  36.265  29.635  1.00  0.00    -0.200 F 
ENDBRANCH  57  80
ENDBRANCH  31  32
ENDBRANCH  23  26
ENDBRANCH  21  22
ENDBRANCH  20  21
ENDBRANCH   1  20
TORSDOF 14
ENDMDL
MODEL 3
REMARK VINA RESULT:     -11.2      0.852      1.188
REMARK SMILES C[C@@H](O)[C@H](C)[N@@H+]1CCOC[C@@H]1C(=O)NCCCCNC(=O)c1ccc(-c2c3nc(c(-c4c(F)c(F)c(F)c(F)c4F)c4ccc([nH]4)c(-c4c(F)c(F)c(F)c(F)c4F)c4nc(c(-c5c(F)c(F)c(F)c(F)c5F)c5ccc2[nH]5)C=C4)C=C3)cc1
REMARK SMILES IDX 16 1 15 2 14 3 12 4 13 5 11 7 6 8 7 9 8 11 10 12 9 13 4 14
REMARK SMILES IDX 5 15 2 16 1 17 3 18 17 20 18 21 19 22 20 23 21 25 22 26
REMARK SMILES IDX 23 27 84 28 24 29 83 30 25 31 26 32 27 33 77 34 28 35 82 36
REMARK SMILES IDX 76 37 78 38 29 39 81 40 75 41 74 42 30 44 62 45 42 46 61 47
REMARK SMILES IDX 43 48 46 49 60 50 79 51 44 52 45 53 59 55 80 56 47 57 31 58
REMARK SMILES IDX 32 59 40 60 33 61 34 62 38 63 41 64 35 65 36 66 39 67 37 68
REMARK SMILES IDX 63 69 64 70 72 71 65 72 66 73 70 74 73 75 67 76 68 77 71 78
REMARK SMILES IDX 69 79 48 80 49 81 57 82 50 83 51 84 55 85 58 86 52 87 53 88
REMARK SMILES IDX 56 89 54 90
REMARK H PARENT 14 6 6 10 3 19 19 24 78 43 46 54
REMARK Flexibility Score: inf
ROOT
ATOM      1  C   UNL A   1      31.493  30.718  26.219  1.00  0.00     0.023 C 
ENDROOT
BRANCH   1   2
ATOM      2  C   UNL A   1      32.853  30.087  26.502  1.00  0.00     0.116 C 
BRANCH   2   3
ATOM      3  N   UNL A   1      33.541  29.702  25.283  1.00  0.00    -0.351 N 
ATOM      4  C   UNL A   1      33.298  28.654  24.434  1.00  0.00     0.280 C 
ATOM      5  O   UNL A   1      34.186  28.411  23.616  1.00  0.00    -0.268 OA
ATOM      6  H   UNL A   1      34.295  30.281  25.027  1.00  0.00     0.163 HD
BRANCH   4   7
ATOM      7  C   UNL A   1      32.013  27.821  24.611  1.00  0.00     0.300 C 
ATOM      8  N   UNL A   1      32.111  26.642  25.554  1.00  0.00    -0.317 N 
ATOM      9  C   UNL A   1      30.670  26.305  25.824  1.00  0.00     0.292 C 
ATOM     10  H   UNL A   1      32.675  26.910  26.359  1.00  0.00     0.349 HD
ATOM     11  C   UNL A   1      29.799  26.081  24.564  1.00  0.00     0.221 C 
ATOM     12  C   UNL A   1      31.277  27.436  23.315  1.00  0.00     0.235 C 
ATOM     13  O   UNL A   1      29.900  27.158  23.621  1.00  0.00    -0.369 OA
BRANCH   8  14
ATOM     14  C   UNL A   1      32.833  25.424  25.060  1.00  0.00     0.210 C 
ATOM     15  C   UNL A   1      34.358  25.357  25.324  1.00  0.00     0.078 C 
BRANCH  14  16
ATOM     16  C   UNL A   1      32.280  24.047  25.599  1.00  0.00     0.169 C 
ATOM     17  C   UNL A   1      31.944  22.950  24.599  1.00  0.00     0.045 C 
BRANCH  16  18
ATOM     18  O   UNL A   1      33.272  23.511  26.496  1.00  0.00    -0.387 OA
ATOM     19  H   UNL A   1      34.157  23.756  26.184  1.00  0.00     0.211 HD
ENDBRANCH  16  18
ENDBRANCH  14  16
ENDBRANCH   8  14
ENDBRANCH   4   7
ENDBRANCH   2   3
ENDBRANCH   1   2
BRANCH   1  20
ATOM     20  C   UNL A   1      31.401  32.220  26.496  1.00  0.00     0.023 C 
BRANCH  20  21
ATOM     21  C   UNL A   1      32.574  32.818  27.265  1.00  0.00     0.116 C 
BRANCH  21  22
ATOM     22  N   UNL A   1      32.361  34.211  27.626  1.00  0.00    -0.352 N 
ATOM     23  C   UNL A   1      32.973  34.977  28.587  1.00  0.00     0.251 C 
ATOM     24  H   UNL A   1      31.672  34.677  27.100  1.00  0.00     0.163 HD
ATOM     25  O   UNL A   1      32.534  36.098  28.839  1.00  0.00    -0.269 OA
BRANCH  23  26
ATOM     26  C   UNL A   1      34.131  34.458  29.344  1.00  0.00     0.039 A 
ATOM     27  C   UNL A   1      33.903  33.861  30.588  1.00  0.00     0.014 A 
ATOM     28  C   UNL A   1      35.435  34.562  28.853  1.00  0.00     0.014 A 
ATOM     29  C   UNL A   1      34.968  33.305  31.298  1.00  0.00     0.010 A 
ATOM     30  C   UNL A   1      36.485  33.934  29.523  1.00  0.00     0.010 A 
ATOM     31  C   UNL A   1      36.263  33.297  30.752  1.00  0.00    -0.014 A 
BRANCH  31  32
ATOM     32  C   UNL A   1      37.374  32.595  31.447  1.00  0.00     0.031 A 
ATOM     33  C   UNL A   1      38.076  31.433  30.800  1.00  0.00     0.074 A 
ATOM     34  C   UNL A   1      37.724  32.984  32.688  1.00  0.00     0.049 A 
ATOM     35  N   UNL A   1      39.065  30.705  31.259  1.00  0.00    -0.248 NA
ATOM     36  C   UNL A   1      37.592  31.017  29.476  1.00  0.00     0.031 C 
ATOM     37  C   UNL A   1      37.082  34.059  33.447  1.00  0.00     0.029 A 
ATOM     38  N   UNL A   1      38.706  32.525  33.531  1.00  0.00    -0.354 N 
ATOM     39  C   UNL A   1      39.316  29.748  30.284  1.00  0.00     0.074 A 
ATOM     40  C   UNL A   1      38.338  29.948  29.236  1.00  0.00     0.031 C 
ATOM     41  C   UNL A   1      37.709  34.201  34.626  1.00  0.00     0.029 A 
ATOM     42  C   UNL A   1      38.768  33.203  34.724  1.00  0.00     0.049 A 
ATOM     43  H   UNL A   1      39.307  31.779  33.304  1.00  0.00     0.167 HD
ATOM     44  C   UNL A   1      40.288  28.804  30.255  1.00  0.00     0.037 A 
ATOM     45  C   UNL A   1      39.588  33.039  35.782  1.00  0.00     0.037 A 
ATOM     46  C   UNL A   1      41.267  28.615  31.296  1.00  0.00     0.049 A 
ATOM     47  C   UNL A   1      40.648  31.973  35.727  1.00  0.00     0.074 A 
ATOM     48  C   UNL A   1      42.328  27.728  31.330  1.00  0.00     0.029 A 
ATOM     49  N   UNL A   1      41.297  29.318  32.492  1.00  0.00    -0.354 N 
ATOM     50  N   UNL A   1      40.930  31.131  34.763  1.00  0.00    -0.248 NA
ATOM     51  C   UNL A   1      41.511  31.841  36.910  1.00  0.00     0.031 C 
ATOM     52  C   UNL A   1      42.964  27.851  32.570  1.00  0.00     0.029 A 
ATOM     53  C   UNL A   1      42.339  28.861  33.284  1.00  0.00     0.049 A 
ATOM     54  H   UNL A   1      40.671  30.035  32.740  1.00  0.00     0.167 HD
ATOM     55  C   UNL A   1      42.015  30.389  35.209  1.00  0.00     0.074 A 
ATOM     56  C   UNL A   1      42.357  30.898  36.521  1.00  0.00     0.031 C 
ATOM     57  C   UNL A   1      42.667  29.373  34.591  1.00  0.00     0.037 A 
BRANCH  44  58
ATOM     58  C   UNL A   1      40.343  27.897  29.058  1.00  0.00     0.064 A 
ATOM     59  C   UNL A   1      39.625  26.692  29.010  1.00  0.00     0.173 A 
ATOM     60  C   UNL A   1      41.087  28.259  27.923  1.00  0.00     0.173 A 
ATOM     61  F   UNL A   1      38.904  26.294  30.069  1.00  0.00    -0.203 F 
ATOM     62  C   UNL A   1      39.673  25.870  27.886  1.00  0.00     0.198 A 
ATOM     63  C   UNL A   1      41.105  27.451  26.789  1.00  0.00     0.198 A 
ATOM     64  F   UNL A   1      41.787  29.403  27.909  1.00  0.00    -0.203 F 
ATOM     65  F   UNL A   1      39.019  24.701  27.886  1.00  0.00    -0.200 F 
ATOM     66  C   UNL A   1      40.406  26.253  26.774  1.00  0.00     0.200 A 
ATOM     67  F   UNL A   1      41.802  27.831  25.708  1.00  0.00    -0.200 F 
ATOM     68  F   UNL A   1      40.444  25.466  25.690  1.00  0.00    -0.200 F 
ENDBRANCH  44  58
BRANCH  45  69
ATOM     69  C   UNL A   1      39.454  33.919  36.972  1.00  0.00     0.064 A 
ATOM     70  C   UNL A   1      38.707  33.513  38.088  1.00  0.00     0.173 A 
ATOM     71  C   UNL A   1      40.054  35.186  37.017  1.00  0.00     0.173 A 
ATOM     72  F   UNL A   1      38.097  32.320  38.087  1.00  0.00    -0.203 F 
ATOM     73  C   UNL A   1      38.545  34.351  39.190  1.00  0.00     0.198 A 
ATOM     74  C   UNL A   1      39.920  36.009  38.133  1.00  0.00     0.198 A 
ATOM     75  F   UNL A   1      40.784  35.621  35.978  1.00  0.00    -0.203 F 
ATOM     76  F   UNL A   1      37.780  33.960  40.219  1.00  0.00    -0.200 F 
ATOM     77  C   UNL A   1      39.156  35.596  39.214  1.00  0.00     0.200 A 
ATOM     78  F   UNL A   1      40.525  37.203  38.158  1.00  0.00    -0.200 F 
ATOM     79  F   UNL A   1      39.002  36.399  40.275  1.00  0.00    -0.200 F 
ENDBRANCH  45  69
BRANCH  57  80
ATOM     80  C   UNL A   1      43.833  28.765  35.318  1.00  0.00     0.064 A 
ATOM     81  C   UNL A   1      45.146  29.219  35.118  1.00  0.00     0.173 A 
ATOM     82  C   UNL A   1      43.634  27.723  36.237  1.00  0.00     0.173 A 
ATOM     83  F   UNL A   1      45.395  30.203  34.241  1.00  0.00    -0.203 F 
ATOM     84  C   UNL A   1      46.218  28.625  35.780  1.00  0.00     0.198 A 
ATOM     85  C   UNL A   1      44.704  27.158  36.925  1.00  0.00     0.198 A 
ATOM     86  F   UNL A   1      42.400  27.256  36.474  1.00  0.00    -0.203 F 
ATOM     87  F   UNL A   1      47.469  29.032  35.522  1.00  0.00    -0.200 F 
ATOM     88  C   UNL A   1      45.996  27.600  36.687  1.00  0.00     0.200 A 
ATOM     89  F   UNL A   1      44.486  26.179  37.813  1.00  0.00    -0.200 F 
ATOM     90  F   UNL A   1      47.030  27.032  37.323  1.00  0.00    -0.200 F 
ENDBRANCH  57  80
ENDBRANCH  31  32
ENDBRANCH  23  26
ENDBRANCH  21  22
ENDBRANCH  20  21
ENDBRANCH   1  20
TORSDOF 14
ENDMDL
