MODEL 1
REMARK VINA RESULT:     -11.3      0.000      0.000
REMARK SMILES C#CC[N@@H+](CC(=O)NCCCCNC(=O)c1ccc(-c2c3nc(c(-c4c(F)c(F)c(F)c(F)c4F)c4ccc([nH]4)c(-c4c(F)c(F)c(F)c(F)c4F)c4nc(c(-c5c(F)c(F)c(F)c(F)c5F)c5ccc2[nH]5)C=C4)C=C3)cc1)CC(=O)NC(=O)NC
REMARK SMILES IDX 10 1 9 2 8 3 6 4 7 5 5 7 4 8 3 10 2 11 1 12 79 13 80 14
REMARK SMILES IDX 81 15 82 16 83 17 84 19 85 20 86 21 11 23 12 24 13 25 14 26
REMARK SMILES IDX 15 28 16 29 17 30 78 31 18 32 77 33 19 34 20 35 21 36 71 37
REMARK SMILES IDX 22 38 76 39 70 40 72 41 23 42 75 43 69 44 68 45 24 47 56 48
REMARK SMILES IDX 36 49 55 50 37 51 40 52 54 53 73 54 38 55 39 56 53 58 74 59
REMARK SMILES IDX 41 60 25 61 26 62 34 63 27 64 28 65 32 66 35 67 29 68 30 69
REMARK SMILES IDX 33 70 31 71 57 72 58 73 66 74 59 75 60 76 64 77 67 78 61 79
REMARK SMILES IDX 62 80 65 81 63 82 42 83 43 84 51 85 44 86 45 87 49 88 52 89
REMARK SMILES IDX 46 90 47 91 50 92 48 93
REMARK H PARENT 8 6 4 9 82 18 85 22 13 27 72 46 40 57
REMARK Flexibility Score: inf
ROOT
ATOM      1  C   UNL A   1      32.426  28.847  23.904  1.00  0.00     0.023 C 
ENDROOT
BRANCH   1   2
ATOM      2  C   UNL A   1      31.496  27.866  23.152  1.00  0.00     0.116 C 
BRANCH   2   3
ATOM      3  N   UNL A   1      32.130  27.200  22.025  1.00  0.00    -0.351 N 
ATOM      4  C   UNL A   1      33.104  26.249  21.918  1.00  0.00     0.275 C 
ATOM      5  O   UNL A   1      33.271  25.788  20.782  1.00  0.00    -0.269 OA
ATOM      6  H   UNL A   1      31.783  27.499  21.154  1.00  0.00     0.163 HD
BRANCH   4   7
ATOM      7  C   UNL A   1      33.950  25.692  23.097  1.00  0.00     0.364 C 
BRANCH   7   8
ATOM      8  N   UNL A   1      33.230  25.202  24.318  1.00  0.00    -0.309 N 
ATOM      9  H   UNL A   1      32.452  25.839  24.487  1.00  0.00     0.349 HD
BRANCH   8  10
ATOM     10  C   UNL A   1      34.196  25.205  25.392  1.00  0.00     0.354 C 
BRANCH  10  11
ATOM     11  C   UNL A   1      35.468  24.373  25.355  1.00  0.00    -0.047 C 
ATOM     12  C   UNL A   1      36.559  23.660  25.324  1.00  0.00     0.010 C 
ENDBRANCH  10  11
ENDBRANCH   8  10
BRANCH   8  13
ATOM     13  C   UNL A   1      32.515  23.910  24.210  1.00  0.00     0.365 C 
BRANCH  13  14
ATOM     14  C   UNL A   1      31.015  23.889  24.417  1.00  0.00     0.283 C 
ATOM     15  O   UNL A   1      30.273  24.541  23.671  1.00  0.00    -0.268 OA
ATOM     16  N   UNL A   1      30.440  23.113  25.410  1.00  0.00    -0.273 N 
ATOM     17  C   UNL A   1      30.682  22.959  26.741  1.00  0.00     0.321 C 
ATOM     18  H   UNL A   1      29.700  22.553  25.084  1.00  0.00     0.175 HD
ATOM     19  O   UNL A   1      29.757  23.129  27.538  1.00  0.00    -0.248 OA
ATOM     20  N   UNL A   1      31.876  22.608  27.245  1.00  0.00    -0.341 N 
ATOM     21  C   UNL A   1      32.997  21.913  26.669  1.00  0.00     0.144 C 
ATOM     22  H   UNL A   1      32.009  22.875  28.183  1.00  0.00     0.165 HD
ENDBRANCH  13  14
ENDBRANCH   8  13
ENDBRANCH   7   8
ENDBRANCH   4   7
ENDBRANCH   2   3
ENDBRANCH   1   2
BRANCH   1  23
ATOM     23  C   UNL A   1      32.087  29.107  25.351  1.00  0.00     0.023 C 
BRANCH  23  24
ATOM     24  C   UNL A   1      33.200  29.783  26.096  1.00  0.00     0.116 C 
BRANCH  24  25
ATOM     25  N   UNL A   1      32.852  31.119  26.575  1.00  0.00    -0.352 N 
ATOM     26  C   UNL A   1      33.585  31.909  27.430  1.00  0.00     0.251 C 
ATOM     27  H   UNL A   1      32.002  31.494  26.249  1.00  0.00     0.163 HD
ATOM     28  O   UNL A   1      33.175  32.969  27.853  1.00  0.00    -0.269 OA
BRANCH  26  29
ATOM     29  C   UNL A   1      34.890  31.364  27.835  1.00  0.00     0.039 A 
ATOM     30  C   UNL A   1      35.963  32.237  28.000  1.00  0.00     0.014 A 
ATOM     31  C   UNL A   1      34.937  30.042  28.287  1.00  0.00     0.014 A 
ATOM     32  C   UNL A   1      37.088  31.786  28.683  1.00  0.00     0.010 A 
ATOM     33  C   UNL A   1      35.988  29.652  29.091  1.00  0.00     0.010 A 
ATOM     34  C   UNL A   1      37.089  30.505  29.261  1.00  0.00    -0.014 A 
BRANCH  34  35
ATOM     35  C   UNL A   1      38.270  29.981  29.978  1.00  0.00     0.031 A 
ATOM     36  C   UNL A   1      38.497  30.431  31.394  1.00  0.00     0.074 A 
ATOM     37  C   UNL A   1      39.151  29.186  29.347  1.00  0.00     0.049 A 
ATOM     38  N   UNL A   1      39.509  30.196  32.186  1.00  0.00    -0.248 NA
ATOM     39  C   UNL A   1      37.474  31.317  31.980  1.00  0.00     0.031 C 
ATOM     40  C   UNL A   1      39.064  28.755  27.950  1.00  0.00     0.029 A 
ATOM     41  N   UNL A   1      40.303  28.602  29.803  1.00  0.00    -0.354 N 
ATOM     42  C   UNL A   1      39.259  30.936  33.334  1.00  0.00     0.074 A 
ATOM     43  C   UNL A   1      38.050  31.691  33.109  1.00  0.00     0.031 C 
ATOM     44  C   UNL A   1      40.099  27.943  27.675  1.00  0.00     0.029 A 
ATOM     45  C   UNL A   1      40.935  27.822  28.865  1.00  0.00     0.049 A 
ATOM     46  H   UNL A   1      40.646  28.728  30.717  1.00  0.00     0.167 HD
ATOM     47  C   UNL A   1      39.953  30.947  34.494  1.00  0.00     0.037 A 
ATOM     48  C   UNL A   1      42.058  27.089  28.972  1.00  0.00     0.037 A 
ATOM     49  C   UNL A   1      41.107  30.129  34.728  1.00  0.00     0.049 A 
ATOM     50  C   UNL A   1      42.777  27.064  30.294  1.00  0.00     0.074 A 
ATOM     51  C   UNL A   1      41.842  29.984  35.889  1.00  0.00     0.029 A 
ATOM     52  N   UNL A   1      41.684  29.301  33.775  1.00  0.00    -0.354 N 
ATOM     53  N   UNL A   1      42.491  27.704  31.404  1.00  0.00    -0.248 NA
ATOM     54  C   UNL A   1      43.966  26.206  30.385  1.00  0.00     0.031 C 
ATOM     55  C   UNL A   1      42.884  29.087  35.630  1.00  0.00     0.029 A 
ATOM     56  C   UNL A   1      42.773  28.646  34.319  1.00  0.00     0.049 A 
ATOM     57  H   UNL A   1      41.365  29.196  32.850  1.00  0.00     0.167 HD
ATOM     58  C   UNL A   1      43.445  27.309  32.331  1.00  0.00     0.074 A 
ATOM     59  C   UNL A   1      44.309  26.360  31.657  1.00  0.00     0.031 C 
ATOM     60  C   UNL A   1      43.599  27.696  33.621  1.00  0.00     0.037 A 
BRANCH  47  61
ATOM     61  C   UNL A   1      39.455  31.846  35.587  1.00  0.00     0.064 A 
ATOM     62  C   UNL A   1      39.946  33.152  35.747  1.00  0.00     0.173 A 
ATOM     63  C   UNL A   1      38.482  31.396  36.489  1.00  0.00     0.173 A 
ATOM     64  F   UNL A   1      40.895  33.623  34.925  1.00  0.00    -0.203 F 
ATOM     65  C   UNL A   1      39.507  33.959  36.793  1.00  0.00     0.198 A 
ATOM     66  C   UNL A   1      38.020  32.218  37.513  1.00  0.00     0.198 A 
ATOM     67  F   UNL A   1      37.982  30.155  36.382  1.00  0.00    -0.203 F 
ATOM     68  F   UNL A   1      40.038  35.177  36.964  1.00  0.00    -0.200 F 
ATOM     69  C   UNL A   1      38.539  33.494  37.670  1.00  0.00     0.200 A 
ATOM     70  F   UNL A   1      37.078  31.771  38.356  1.00  0.00    -0.200 F 
ATOM     71  F   UNL A   1      38.115  34.273  38.675  1.00  0.00    -0.200 F 
ENDBRANCH  47  61
BRANCH  48  72
ATOM     72  C   UNL A   1      42.536  26.282  27.819  1.00  0.00     0.064 A 
ATOM     73  C   UNL A   1      43.491  26.796  26.931  1.00  0.00     0.173 A 
ATOM     74  C   UNL A   1      42.055  24.986  27.582  1.00  0.00     0.173 A 
ATOM     75  F   UNL A   1      43.969  28.037  27.108  1.00  0.00    -0.203 F 
ATOM     76  C   UNL A   1      43.931  26.054  25.837  1.00  0.00     0.198 A 
ATOM     77  C   UNL A   1      42.515  24.236  26.500  1.00  0.00     0.198 A 
ATOM     78  F   UNL A   1      41.148  24.445  28.406  1.00  0.00    -0.203 F 
ATOM     79  F   UNL A   1      44.813  26.587  24.980  1.00  0.00    -0.200 F 
ATOM     80  C   UNL A   1      43.446  24.773  25.625  1.00  0.00     0.200 A 
ATOM     81  F   UNL A   1      42.054  22.993  26.306  1.00  0.00    -0.200 F 
ATOM     82  F   UNL A   1      43.871  24.059  24.573  1.00  0.00    -0.200 F 
ENDBRANCH  48  72
BRANCH  60  83
ATOM     83  C   UNL A   1      44.721  27.069  34.392  1.00  0.00     0.064 A 
ATOM     84  C   UNL A   1      45.980  27.679  34.476  1.00  0.00     0.173 A 
ATOM     85  C   UNL A   1      44.512  25.877  35.100  1.00  0.00     0.173 A 
ATOM     86  F   UNL A   1      46.228  28.813  33.805  1.00  0.00    -0.203 F 
ATOM     87  C   UNL A   1      47.000  27.103  35.227  1.00  0.00     0.198 A 
ATOM     88  C   UNL A   1      45.525  25.319  35.872  1.00  0.00     0.198 A 
ATOM     89  F   UNL A   1      43.319  25.263  35.056  1.00  0.00    -0.203 F 
ATOM     90  F   UNL A   1      48.209  27.678  35.263  1.00  0.00    -0.200 F 
ATOM     91  C   UNL A   1      46.769  25.929  35.931  1.00  0.00     0.200 A 
ATOM     92  F   UNL A   1      45.297  24.193  36.563  1.00  0.00    -0.200 F 
ATOM     93  F   UNL A   1      47.750  25.382  36.661  1.00  0.00    -0.200 F 
ENDBRANCH  60  83
ENDBRANCH  34  35
ENDBRANCH  26  29
ENDBRANCH  24  25
ENDBRANCH  23  24
ENDBRANCH   1  23
TORSDOF 16
ENDMDL
MODEL 2
REMARK VINA RESULT:     -11.2      1.902      2.742
REMARK SMILES C#CC[N@@H+](CC(=O)NCCCCNC(=O)c1ccc(-c2c3nc(c(-c4c(F)c(F)c(F)c(F)c4F)c4ccc([nH]4)c(-c4c(F)c(F)c(F)c(F)c4F)c4nc(c(-c5c(F)c(F)c(F)c(F)c5F)c5ccc2[nH]5)C=C4)C=C3)cc1)CC(=O)NC(=O)NC
REMARK SMILES IDX 10 1 9 2 8 3 6 4 7 5 5 7 4 8 3 10 2 11 1 12 79 13 80 14
REMARK SMILES IDX 81 15 82 16 83 17 84 19 85 20 86 21 11 23 12 24 13 25 14 26
REMARK SMILES IDX 15 28 16 29 17 30 78 31 18 32 77 33 19 34 20 35 21 36 71 37
REMARK SMILES IDX 22 38 76 39 70 40 72 41 23 42 75 43 69 44 68 45 24 47 56 48
REMARK SMILES IDX 36 49 55 50 37 51 40 52 54 53 73 54 38 55 39 56 53 58 74 59
REMARK SMILES IDX 41 60 25 61 26 62 34 63 27 64 28 65 32 66 35 67 29 68 30 69
REMARK SMILES IDX 33 70 31 71 57 72 58 73 66 74 59 75 60 76 64 77 67 78 61 79
REMARK SMILES IDX 62 80 65 81 63 82 42 83 43 84 51 85 44 86 45 87 49 88 52 89
REMARK SMILES IDX 46 90 47 91 50 92 48 93
REMARK H PARENT 8 6 4 9 82 18 85 22 13 27 72 46 40 57
REMARK Flexibility Score: inf
ROOT
ATOM      1  C   UNL A   1      32.348  30.551  26.721  1.00  0.00     0.023 C 
ENDROOT
BRANCH   1   2
ATOM      2  C   UNL A   1      31.690  29.783  25.550  1.00  0.00     0.116 C 
BRANCH   2   3
ATOM      3  N   UNL A   1      32.599  29.495  24.451  1.00  0.00    -0.351 N 
ATOM      4  C   UNL A   1      32.883  28.370  23.731  1.00  0.00     0.275 C 
ATOM      5  O   UNL A   1      33.600  28.544  22.738  1.00  0.00    -0.269 OA
ATOM      6  H   UNL A   1      33.121  30.279  24.166  1.00  0.00     0.163 HD
BRANCH   4   7
ATOM      7  C   UNL A   1      32.342  26.946  24.039  1.00  0.00     0.364 C 
BRANCH   7   8
ATOM      8  N   UNL A   1      33.307  25.912  24.538  1.00  0.00    -0.309 N 
ATOM      9  H   UNL A   1      34.115  26.408  24.913  1.00  0.00     0.349 HD
BRANCH   8  10
ATOM     10  C   UNL A   1      33.640  25.081  23.404  1.00  0.00     0.354 C 
BRANCH  10  11
ATOM     11  C   UNL A   1      34.703  23.996  23.464  1.00  0.00    -0.047 C 
ATOM     12  C   UNL A   1      35.616  23.066  23.515  1.00  0.00     0.010 C 
ENDBRANCH  10  11
ENDBRANCH   8  10
BRANCH   8  13
ATOM     13  C   UNL A   1      32.896  25.115  25.715  1.00  0.00     0.365 C 
BRANCH  13  14
ATOM     14  C   UNL A   1      31.618  25.491  26.438  1.00  0.00     0.283 C 
ATOM     15  O   UNL A   1      31.507  26.602  26.972  1.00  0.00    -0.268 OA
ATOM     16  N   UNL A   1      30.538  24.625  26.480  1.00  0.00    -0.273 N 
ATOM     17  C   UNL A   1      30.400  23.309  26.805  1.00  0.00     0.321 C 
ATOM     18  H   UNL A   1      29.690  25.050  26.221  1.00  0.00     0.175 HD
ATOM     19  O   UNL A   1      29.585  22.992  27.674  1.00  0.00    -0.248 OA
ATOM     20  N   UNL A   1      31.090  22.321  26.213  1.00  0.00    -0.341 N 
ATOM     21  C   UNL A   1      31.737  22.232  24.931  1.00  0.00     0.144 C 
ATOM     22  H   UNL A   1      31.166  21.504  26.758  1.00  0.00     0.165 HD
ENDBRANCH  13  14
ENDBRANCH   8  13
ENDBRANCH   7   8
ENDBRANCH   4   7
ENDBRANCH   2   3
ENDBRANCH   1   2
BRANCH   1  23
ATOM     23  C   UNL A   1      31.930  31.991  26.888  1.00  0.00     0.023 C 
BRANCH  23  24
ATOM     24  C   UNL A   1      32.984  32.828  27.551  1.00  0.00     0.116 C 
BRANCH  24  25
ATOM     25  N   UNL A   1      32.567  34.208  27.787  1.00  0.00    -0.352 N 
ATOM     26  C   UNL A   1      33.079  35.080  28.721  1.00  0.00     0.251 C 
ATOM     27  H   UNL A   1      31.843  34.552  27.215  1.00  0.00     0.163 HD
ATOM     28  O   UNL A   1      32.607  36.180  28.915  1.00  0.00    -0.269 OA
BRANCH  26  29
ATOM     29  C   UNL A   1      34.216  34.573  29.505  1.00  0.00     0.039 A 
ATOM     30  C   UNL A   1      33.964  33.768  30.613  1.00  0.00     0.014 A 
ATOM     31  C   UNL A   1      35.496  34.702  28.961  1.00  0.00     0.014 A 
ATOM     32  C   UNL A   1      35.015  33.034  31.154  1.00  0.00     0.010 A 
ATOM     33  C   UNL A   1      36.495  33.859  29.406  1.00  0.00     0.010 A 
ATOM     34  C   UNL A   1      36.273  33.049  30.529  1.00  0.00    -0.014 A 
BRANCH  34  35
ATOM     35  C   UNL A   1      37.420  32.299  31.082  1.00  0.00     0.031 A 
ATOM     36  C   UNL A   1      37.893  32.645  32.466  1.00  0.00     0.074 A 
ATOM     37  C   UNL A   1      38.064  31.389  30.331  1.00  0.00     0.049 A 
ATOM     38  N   UNL A   1      38.935  32.206  33.120  1.00  0.00    -0.248 NA
ATOM     39  C   UNL A   1      37.122  33.671  33.192  1.00  0.00     0.031 C 
ATOM     40  C   UNL A   1      37.733  31.037  28.948  1.00  0.00     0.029 A 
ATOM     41  N   UNL A   1      39.140  30.596  30.627  1.00  0.00    -0.354 N 
ATOM     42  C   UNL A   1      38.961  32.932  34.303  1.00  0.00     0.074 A 
ATOM     43  C   UNL A   1      37.888  33.894  34.247  1.00  0.00     0.031 C 
ATOM     44  C   UNL A   1      38.567  30.069  28.530  1.00  0.00     0.029 A 
ATOM     45  C   UNL A   1      39.505  29.757  29.603  1.00  0.00     0.049 A 
ATOM     46  H   UNL A   1      39.608  30.623  31.493  1.00  0.00     0.167 HD
ATOM     47  C   UNL A   1      39.780  32.775  35.367  1.00  0.00     0.037 A 
ATOM     48  C   UNL A   1      40.485  28.835  29.554  1.00  0.00     0.037 A 
ATOM     49  C   UNL A   1      40.791  31.760  35.439  1.00  0.00     0.049 A 
ATOM     50  C   UNL A   1      41.342  28.632  30.775  1.00  0.00     0.074 A 
ATOM     51  C   UNL A   1      41.623  31.443  36.495  1.00  0.00     0.029 A 
ATOM     52  N   UNL A   1      41.092  30.884  34.406  1.00  0.00    -0.354 N 
ATOM     53  N   UNL A   1      41.311  29.267  31.923  1.00  0.00    -0.248 NA
ATOM     54  C   UNL A   1      42.362  27.578  30.700  1.00  0.00     0.031 C 
ATOM     55  C   UNL A   1      42.450  30.389  36.091  1.00  0.00     0.029 A 
ATOM     56  C   UNL A   1      42.105  30.027  34.797  1.00  0.00     0.049 A 
ATOM     57  H   UNL A   1      40.650  30.873  33.526  1.00  0.00     0.167 HD
ATOM     58  C   UNL A   1      42.284  28.675  32.715  1.00  0.00     0.074 A 
ATOM     59  C   UNL A   1      42.878  27.618  31.921  1.00  0.00     0.031 C 
ATOM     60  C   UNL A   1      42.659  28.977  33.982  1.00  0.00     0.037 A 
BRANCH  47  61
ATOM     61  C   UNL A   1      39.586  33.702  36.530  1.00  0.00     0.064 A 
ATOM     62  C   UNL A   1      38.787  33.349  37.630  1.00  0.00     0.173 A 
ATOM     63  C   UNL A   1      40.201  34.962  36.544  1.00  0.00     0.173 A 
ATOM     64  F   UNL A   1      38.157  32.165  37.654  1.00  0.00    -0.203 F 
ATOM     65  C   UNL A   1      38.580  34.237  38.680  1.00  0.00     0.198 A 
ATOM     66  C   UNL A   1      40.020  35.834  37.614  1.00  0.00     0.198 A 
ATOM     67  F   UNL A   1      40.973  35.350  35.517  1.00  0.00    -0.203 F 
ATOM     68  F   UNL A   1      37.760  33.903  39.686  1.00  0.00    -0.200 F 
ATOM     69  C   UNL A   1      39.203  35.476  38.675  1.00  0.00     0.200 A 
ATOM     70  F   UNL A   1      40.629  37.029  37.612  1.00  0.00    -0.200 F 
ATOM     71  F   UNL A   1      39.006  36.330  39.689  1.00  0.00    -0.200 F 
ENDBRANCH  47  61
BRANCH  48  72
ATOM     72  C   UNL A   1      40.669  28.005  28.336  1.00  0.00     0.064 A 
ATOM     73  C   UNL A   1      41.480  28.448  27.281  1.00  0.00     0.173 A 
ATOM     74  C   UNL A   1      40.047  26.755  28.199  1.00  0.00     0.173 A 
ATOM     75  F   UNL A   1      42.084  29.643  27.359  1.00  0.00    -0.203 F 
ATOM     76  C   UNL A   1      41.643  27.685  26.127  1.00  0.00     0.198 A 
ATOM     77  C   UNL A   1      40.231  25.982  27.054  1.00  0.00     0.198 A 
ATOM     78  F   UNL A   1      39.268  26.281  29.182  1.00  0.00    -0.203 F 
ATOM     79  F   UNL A   1      42.390  28.152  25.117  1.00  0.00    -0.200 F 
ATOM     80  C   UNL A   1      41.022  26.450  26.016  1.00  0.00     0.200 A 
ATOM     81  F   UNL A   1      39.640  24.783  26.956  1.00  0.00    -0.200 F 
ATOM     82  F   UNL A   1      41.182  25.715  24.907  1.00  0.00    -0.200 F 
ENDBRANCH  48  72
BRANCH  60  83
ATOM     83  C   UNL A   1      43.736  28.134  34.594  1.00  0.00     0.064 A 
ATOM     84  C   UNL A   1      45.075  28.545  34.593  1.00  0.00     0.173 A 
ATOM     85  C   UNL A   1      43.412  26.932  35.239  1.00  0.00     0.173 A 
ATOM     86  F   UNL A   1      45.433  29.683  33.978  1.00  0.00    -0.203 F 
ATOM     87  C   UNL A   1      46.059  27.769  35.199  1.00  0.00     0.198 A 
ATOM     88  C   UNL A   1      44.393  26.172  35.868  1.00  0.00     0.198 A 
ATOM     89  F   UNL A   1      42.140  26.503  35.273  1.00  0.00    -0.203 F 
ATOM     90  F   UNL A   1      47.340  28.158  35.152  1.00  0.00    -0.200 F 
ATOM     91  C   UNL A   1      45.715  26.588  35.842  1.00  0.00     0.200 A 
ATOM     92  F   UNL A   1      44.058  25.040  36.502  1.00  0.00    -0.200 F 
ATOM     93  F   UNL A   1      46.663  25.848  36.434  1.00  0.00    -0.200 F 
ENDBRANCH  60  83
ENDBRANCH  34  35
ENDBRANCH  26  29
ENDBRANCH  24  25
ENDBRANCH  23  24
ENDBRANCH   1  23
TORSDOF 16
ENDMDL
MODEL 3
REMARK VINA RESULT:     -11.2      1.854      7.920
REMARK SMILES C#CC[N@@H+](CC(=O)NCCCCNC(=O)c1ccc(-c2c3nc(c(-c4c(F)c(F)c(F)c(F)c4F)c4ccc([nH]4)c(-c4c(F)c(F)c(F)c(F)c4F)c4nc(c(-c5c(F)c(F)c(F)c(F)c5F)c5ccc2[nH]5)C=C4)C=C3)cc1)CC(=O)NC(=O)NC
REMARK SMILES IDX 10 1 9 2 8 3 6 4 7 5 5 7 4 8 3 10 2 11 1 12 79 13 80 14
REMARK SMILES IDX 81 15 82 16 83 17 84 19 85 20 86 21 11 23 12 24 13 25 14 26
REMARK SMILES IDX 15 28 16 29 17 30 78 31 18 32 77 33 19 34 20 35 21 36 71 37
REMARK SMILES IDX 22 38 76 39 70 40 72 41 23 42 75 43 69 44 68 45 24 47 56 48
REMARK SMILES IDX 36 49 55 50 37 51 40 52 54 53 73 54 38 55 39 56 53 58 74 59
REMARK SMILES IDX 41 60 25 61 26 62 34 63 27 64 28 65 32 66 35 67 29 68 30 69
REMARK SMILES IDX 33 70 31 71 57 72 58 73 66 74 59 75 60 76 64 77 67 78 61 79
REMARK SMILES IDX 62 80 65 81 63 82 42 83 43 84 51 85 44 86 45 87 49 88 52 89
REMARK SMILES IDX 46 90 47 91 50 92 48 93
REMARK H PARENT 8 6 4 9 82 18 85 22 13 27 72 46 40 57
REMARK Flexibility Score: inf
ROOT
ATOM      1  C   UNL A   1      31.404  30.824  25.800  1.00  0.00     0.023 C 
ENDROOT
BRANCH   1   2
ATOM      2  C   UNL A   1      32.661  29.972  26.099  1.00  0.00     0.116 C 
BRANCH   2   3
ATOM      3  N   UNL A   1      33.266  29.380  24.917  1.00  0.00    -0.351 N 
ATOM      4  C   UNL A   1      33.839  28.168  24.656  1.00  0.00     0.275 C 
ATOM      5  O   UNL A   1      34.094  27.948  23.466  1.00  0.00    -0.269 OA
ATOM      6  H   UNL A   1      33.261  29.982  24.138  1.00  0.00     0.163 HD
BRANCH   4   7
ATOM      7  C   UNL A   1      34.132  27.067  25.713  1.00  0.00     0.364 C 
BRANCH   7   8
ATOM      8  N   UNL A   1      33.366  25.780  25.628  1.00  0.00    -0.309 N 
ATOM      9  H   UNL A   1      33.236  25.441  26.581  1.00  0.00     0.349 HD
BRANCH   8  10
ATOM     10  C   UNL A   1      34.160  24.883  24.820  1.00  0.00     0.354 C 
BRANCH  10  11
ATOM     11  C   UNL A   1      35.449  24.251  25.319  1.00  0.00    -0.047 C 
ATOM     12  C   UNL A   1      36.555  23.709  25.747  1.00  0.00     0.010 C 
ENDBRANCH  10  11
ENDBRANCH   8  10
BRANCH   8  13
ATOM     13  C   UNL A   1      31.962  25.857  25.166  1.00  0.00     0.365 C 
BRANCH  13  14
ATOM     14  C   UNL A   1      30.857  25.900  26.201  1.00  0.00     0.283 C 
ATOM     15  O   UNL A   1      30.653  26.932  26.854  1.00  0.00    -0.268 OA
ATOM     16  N   UNL A   1      30.028  24.811  26.409  1.00  0.00    -0.273 N 
ATOM     17  C   UNL A   1      30.254  23.485  26.626  1.00  0.00     0.321 C 
ATOM     18  H   UNL A   1      29.072  25.044  26.398  1.00  0.00     0.175 HD
ATOM     19  O   UNL A   1      29.767  22.953  27.625  1.00  0.00    -0.248 OA
ATOM     20  N   UNL A   1      30.965  22.707  25.794  1.00  0.00    -0.341 N 
ATOM     21  C   UNL A   1      31.275  22.824  24.394  1.00  0.00     0.144 C 
ATOM     22  H   UNL A   1      31.344  21.905  26.223  1.00  0.00     0.165 HD
ENDBRANCH  13  14
ENDBRANCH   8  13
ENDBRANCH   7   8
ENDBRANCH   4   7
ENDBRANCH   2   3
ENDBRANCH   1   2
BRANCH   1  23
ATOM     23  C   UNL A   1      31.219  32.057  26.649  1.00  0.00     0.023 C 
BRANCH  23  24
ATOM     24  C   UNL A   1      32.516  32.733  26.982  1.00  0.00     0.116 C 
BRANCH  24  25
ATOM     25  N   UNL A   1      32.346  34.060  27.569  1.00  0.00    -0.352 N 
ATOM     26  C   UNL A   1      33.130  34.645  28.537  1.00  0.00     0.251 C 
ATOM     27  H   UNL A   1      31.589  34.594  27.234  1.00  0.00     0.163 HD
ATOM     28  O   UNL A   1      32.859  35.715  29.038  1.00  0.00    -0.269 OA
BRANCH  26  29
ATOM     29  C   UNL A   1      34.303  33.863  28.960  1.00  0.00     0.039 A 
ATOM     30  C   UNL A   1      35.574  34.392  28.753  1.00  0.00     0.014 A 
ATOM     31  C   UNL A   1      34.089  32.752  29.780  1.00  0.00     0.014 A 
ATOM     32  C   UNL A   1      36.649  33.823  29.428  1.00  0.00     0.010 A 
ATOM     33  C   UNL A   1      35.131  32.292  30.559  1.00  0.00     0.010 A 
ATOM     34  C   UNL A   1      36.425  32.796  30.361  1.00  0.00    -0.014 A 
BRANCH  34  35
ATOM     35  C   UNL A   1      37.540  32.152  31.085  1.00  0.00     0.031 A 
ATOM     36  C   UNL A   1      38.322  31.081  30.376  1.00  0.00     0.074 A 
ATOM     37  C   UNL A   1      37.790  32.466  32.368  1.00  0.00     0.049 A 
ATOM     38  N   UNL A   1      39.266  30.304  30.833  1.00  0.00    -0.248 NA
ATOM     39  C   UNL A   1      37.949  30.807  28.976  1.00  0.00     0.031 C 
ATOM     40  C   UNL A   1      37.039  33.434  33.171  1.00  0.00     0.029 A 
ATOM     41  N   UNL A   1      38.749  31.996  33.225  1.00  0.00    -0.354 N 
ATOM     42  C   UNL A   1      39.562  29.432  29.795  1.00  0.00     0.074 A 
ATOM     43  C   UNL A   1      38.647  29.715  28.716  1.00  0.00     0.031 C 
ATOM     44  C   UNL A   1      37.592  33.512  34.394  1.00  0.00     0.029 A 
ATOM     45  C   UNL A   1      38.713  32.582  34.467  1.00  0.00     0.049 A 
ATOM     46  H   UNL A   1      39.404  31.305  32.975  1.00  0.00     0.167 HD
ATOM     47  C   UNL A   1      40.545  28.506  29.729  1.00  0.00     0.037 A 
ATOM     48  C   UNL A   1      39.510  32.386  35.533  1.00  0.00     0.037 A 
ATOM     49  C   UNL A   1      41.496  28.293  30.781  1.00  0.00     0.049 A 
ATOM     50  C   UNL A   1      40.640  31.398  35.414  1.00  0.00     0.074 A 
ATOM     51  C   UNL A   1      42.590  27.450  30.798  1.00  0.00     0.029 A 
ATOM     52  N   UNL A   1      41.469  28.950  32.003  1.00  0.00    -0.354 N 
ATOM     53  N   UNL A   1      40.965  30.631  34.400  1.00  0.00    -0.248 NA
ATOM     54  C   UNL A   1      41.521  31.256  36.581  1.00  0.00     0.031 C 
ATOM     55  C   UNL A   1      43.212  27.576  32.045  1.00  0.00     0.029 A 
ATOM     56  C   UNL A   1      42.526  28.525  32.788  1.00  0.00     0.049 A 
ATOM     57  H   UNL A   1      40.798  29.619  32.271  1.00  0.00     0.167 HD
ATOM     58  C   UNL A   1      42.101  29.936  34.793  1.00  0.00     0.074 A 
ATOM     59  C   UNL A   1      42.417  30.386  36.134  1.00  0.00     0.031 C 
ATOM     60  C   UNL A   1      42.817  29.008  34.113  1.00  0.00     0.037 A 
BRANCH  47  61
ATOM     61  C   UNL A   1      40.644  27.692  28.473  1.00  0.00     0.064 A 
ATOM     62  C   UNL A   1      39.996  26.453  28.344  1.00  0.00     0.173 A 
ATOM     63  C   UNL A   1      41.400  28.152  27.386  1.00  0.00     0.173 A 
ATOM     64  F   UNL A   1      39.279  25.957  29.364  1.00  0.00    -0.203 F 
ATOM     65  C   UNL A   1      40.133  25.689  27.190  1.00  0.00     0.198 A 
ATOM     66  C   UNL A   1      41.506  27.401  26.219  1.00  0.00     0.198 A 
ATOM     67  F   UNL A   1      42.042  29.329  27.458  1.00  0.00    -0.203 F 
ATOM     68  F   UNL A   1      39.559  24.480  27.117  1.00  0.00    -0.200 F 
ATOM     69  C   UNL A   1      40.881  26.166  26.125  1.00  0.00     0.200 A 
ATOM     70  F   UNL A   1      42.224  27.867  25.187  1.00  0.00    -0.200 F 
ATOM     71  F   UNL A   1      41.011  25.431  25.012  1.00  0.00    -0.200 F 
ENDBRANCH  47  61
BRANCH  48  72
ATOM     72  C   UNL A   1      39.304  33.175  36.775  1.00  0.00     0.064 A 
ATOM     73  C   UNL A   1      38.442  32.716  37.782  1.00  0.00     0.173 A 
ATOM     74  C   UNL A   1      39.961  34.395  36.987  1.00  0.00     0.173 A 
ATOM     75  F   UNL A   1      37.779  31.561  37.618  1.00  0.00    -0.203 F 
ATOM     76  C   UNL A   1      38.227  33.457  38.941  1.00  0.00     0.198 A 
ATOM     77  C   UNL A   1      39.764  35.125  38.159  1.00  0.00     0.198 A 
ATOM     78  F   UNL A   1      40.803  34.874  36.060  1.00  0.00    -0.203 F 
ATOM     79  F   UNL A   1      37.365  33.015  39.867  1.00  0.00    -0.200 F 
ATOM     80  C   UNL A   1      38.892  34.659  39.131  1.00  0.00     0.200 A 
ATOM     81  F   UNL A   1      40.418  36.279  38.345  1.00  0.00    -0.200 F 
ATOM     82  F   UNL A   1      38.687  35.371  40.248  1.00  0.00    -0.200 F 
ENDBRANCH  48  72
BRANCH  60  83
ATOM     83  C   UNL A   1      44.026  28.445  34.795  1.00  0.00     0.064 A 
ATOM     84  C   UNL A   1      43.955  27.269  35.554  1.00  0.00     0.173 A 
ATOM     85  C   UNL A   1      45.276  29.058  34.637  1.00  0.00     0.173 A 
ATOM     86  F   UNL A   1      42.777  26.655  35.742  1.00  0.00    -0.203 F 
ATOM     87  C   UNL A   1      45.094  26.737  36.151  1.00  0.00     0.198 A 
ATOM     88  C   UNL A   1      46.418  28.508  35.211  1.00  0.00     0.198 A 
ATOM     89  F   UNL A   1      45.393  30.180  33.911  1.00  0.00    -0.203 F 
ATOM     90  F   UNL A   1      45.000  25.635  36.906  1.00  0.00    -0.200 F 
ATOM     91  C   UNL A   1      46.325  27.353  35.971  1.00  0.00     0.200 A 
ATOM     92  F   UNL A   1      47.609  29.095  35.025  1.00  0.00    -0.200 F 
ATOM     93  F   UNL A   1      47.422  26.833  36.538  1.00  0.00    -0.200 F 
ENDBRANCH  60  83
ENDBRANCH  34  35
ENDBRANCH  26  29
ENDBRANCH  24  25
ENDBRANCH  23  24
ENDBRANCH   1  23
TORSDOF 16
ENDMDL
