MODEL 1
REMARK VINA RESULT:     -12.8      0.000      0.000
REMARK SMILES O=C(NCCCCNC(=O)[C@H]1O[C@@H](Oc2c(-c3cc(O)c(O)c(O)c3)oc3cc(O)cc(O)c3c2=O)[C@H](O)[C@@H](O)[C@@H]1O)c1ccc(-c2c3nc(c(-c4c(F)c(F)c(F)c(F)c4F)c4ccc([nH]4)c(-c4c(F)c(F)c(F)c(F)c4F)c4nc(c(-c5c(F)c(F)c(F)c(F)c5F)c5ccc2[nH]5)C=C4)C=C3)cc1
REMARK SMILES IDX 6 1 5 2 4 3 3 4 1 5 2 6 43 8 44 9 105 10 45 11 104 12 46 13
REMARK SMILES IDX 47 14 48 15 98 16 49 17 103 18 97 19 99 20 50 21 102 22
REMARK SMILES IDX 96 23 95 24 51 26 83 27 63 28 82 29 64 30 67 31 81 32 100 33
REMARK SMILES IDX 65 34 66 35 80 37 101 38 68 39 52 40 53 41 61 42 54 43 55 44
REMARK SMILES IDX 59 45 62 46 56 47 57 48 60 49 58 50 84 51 85 52 93 53 86 54
REMARK SMILES IDX 87 55 91 56 94 57 88 58 89 59 92 60 90 61 69 62 70 63 78 64
REMARK SMILES IDX 71 65 72 66 76 67 79 68 73 69 74 70 77 71 75 72 7 73 8 74
REMARK SMILES IDX 9 75 10 77 11 78 12 79 41 80 13 81 39 82 37 83 42 84 14 86
REMARK SMILES IDX 15 87 16 88 35 89 26 90 34 91 36 92 27 93 32 94 28 95 31 96
REMARK SMILES IDX 29 97 17 98 18 99 25 100 19 101 23 102 21 103 20 104 24 106
REMARK SMILES IDX 22 108 33 110 30 112 40 114 38 116
REMARK H PARENT 3 7 99 25 67 36 8 76 42 85 20 105 24 107 22 109 33 111 30 113
REMARK H PARENT 40 115 38 117
REMARK Flexibility Score: inf
ROOT
ATOM      1  C   UNL A   1      34.389  25.244  24.808  1.00  0.00     0.023 C 
ENDROOT
BRANCH   1   2
ATOM      2  C   UNL A   1      35.404  24.102  24.764  1.00  0.00     0.023 C 
BRANCH   2   3
ATOM      3  C   UNL A   1      36.367  24.039  25.944  1.00  0.00     0.116 C 
BRANCH   3   4
ATOM      4  N   UNL A   1      37.321  22.942  25.845  1.00  0.00    -0.352 N 
ATOM      5  O   UNL A   1      39.350  21.943  25.907  1.00  0.00    -0.269 OA
ATOM      6  C   UNL A   1      38.660  22.925  26.160  1.00  0.00     0.251 C 
ATOM      7  H   UNL A   1      36.956  22.093  25.504  1.00  0.00     0.163 HD
BRANCH   6   8
ATOM      8  C   UNL A   1      39.267  24.117  26.785  1.00  0.00     0.039 A 
ATOM      9  C   UNL A   1      39.103  24.349  28.152  1.00  0.00     0.014 A 
ATOM     10  C   UNL A   1      39.968  25.029  25.992  1.00  0.00     0.014 A 
ATOM     11  C   UNL A   1      39.497  25.567  28.691  1.00  0.00     0.010 A 
ATOM     12  C   UNL A   1      40.443  26.215  26.556  1.00  0.00     0.010 A 
ATOM     13  C   UNL A   1      40.179  26.510  27.902  1.00  0.00    -0.014 A 
BRANCH  13  14
ATOM     14  C   UNL A   1      40.653  27.766  28.537  1.00  0.00     0.031 A 
ATOM     15  C   UNL A   1      42.107  27.987  28.850  1.00  0.00     0.074 A 
ATOM     16  C   UNL A   1      39.750  28.734  28.784  1.00  0.00     0.049 A 
ATOM     17  N   UNL A   1      42.684  29.038  29.376  1.00  0.00    -0.248 NA
ATOM     18  C   UNL A   1      43.034  26.888  28.540  1.00  0.00     0.031 C 
ATOM     19  C   UNL A   1      38.312  28.622  28.531  1.00  0.00     0.029 A 
ATOM     20  N   UNL A   1      39.903  30.004  29.278  1.00  0.00    -0.354 N 
ATOM     21  C   UNL A   1      44.033  28.723  29.478  1.00  0.00     0.074 A 
ATOM     22  C   UNL A   1      44.188  27.374  28.977  1.00  0.00     0.031 C 
ATOM     23  C   UNL A   1      37.723  29.792  28.817  1.00  0.00     0.029 A 
ATOM     24  C   UNL A   1      38.729  30.712  29.336  1.00  0.00     0.049 A 
ATOM     25  H   UNL A   1      40.771  30.371  29.563  1.00  0.00     0.167 HD
ATOM     26  C   UNL A   1      45.045  29.495  29.943  1.00  0.00     0.037 A 
ATOM     27  C   UNL A   1      38.483  31.960  29.773  1.00  0.00     0.037 A 
ATOM     28  C   UNL A   1      44.884  30.846  30.419  1.00  0.00     0.049 A 
ATOM     29  C   UNL A   1      39.624  32.786  30.288  1.00  0.00     0.074 A 
ATOM     30  C   UNL A   1      45.853  31.720  30.883  1.00  0.00     0.029 A 
ATOM     31  N   UNL A   1      43.673  31.519  30.494  1.00  0.00    -0.354 N 
ATOM     32  N   UNL A   1      40.896  32.480  30.363  1.00  0.00    -0.248 NA
ATOM     33  C   UNL A   1      39.294  34.127  30.787  1.00  0.00     0.031 C 
ATOM     34  C   UNL A   1      45.223  32.907  31.274  1.00  0.00     0.029 A 
ATOM     35  C   UNL A   1      43.868  32.790  31.013  1.00  0.00     0.049 A 
ATOM     36  H   UNL A   1      42.803  31.149  30.217  1.00  0.00     0.167 HD
ATOM     37  C   UNL A   1      41.521  33.589  30.912  1.00  0.00     0.074 A 
ATOM     38  C   UNL A   1      40.491  34.587  31.122  1.00  0.00     0.031 C 
ATOM     39  C   UNL A   1      42.828  33.763  31.223  1.00  0.00     0.037 A 
BRANCH  26  40
ATOM     40  C   UNL A   1      46.424  28.903  29.975  1.00  0.00     0.064 A 
ATOM     41  C   UNL A   1      46.898  28.194  31.088  1.00  0.00     0.173 A 
ATOM     42  C   UNL A   1      47.257  28.983  28.847  1.00  0.00     0.173 A 
ATOM     43  F   UNL A   1      46.146  28.096  32.195  1.00  0.00    -0.203 F 
ATOM     44  C   UNL A   1      48.157  27.599  31.077  1.00  0.00     0.198 A 
ATOM     45  C   UNL A   1      48.506  28.367  28.830  1.00  0.00     0.198 A 
ATOM     46  F   UNL A   1      46.850  29.644  27.752  1.00  0.00    -0.203 F 
ATOM     47  F   UNL A   1      48.601  26.952  32.164  1.00  0.00    -0.200 F 
ATOM     48  C   UNL A   1      48.957  27.680  29.946  1.00  0.00     0.200 A 
ATOM     49  F   UNL A   1      49.272  28.436  27.733  1.00  0.00    -0.200 F 
ATOM     50  F   UNL A   1      50.163  27.096  29.933  1.00  0.00    -0.200 F 
ENDBRANCH  26  40
BRANCH  27  51
ATOM     51  C   UNL A   1      37.095  32.487  29.748  1.00  0.00     0.064 A 
ATOM     52  C   UNL A   1      36.230  32.294  30.832  1.00  0.00     0.173 A 
ATOM     53  C   UNL A   1      36.614  33.212  28.649  1.00  0.00     0.173 A 
ATOM     54  F   UNL A   1      36.639  31.592  31.900  1.00  0.00    -0.203 F 
ATOM     55  C   UNL A   1      34.931  32.797  30.813  1.00  0.00     0.198 A 
ATOM     56  C   UNL A   1      35.327  33.742  28.642  1.00  0.00     0.198 A 
ATOM     57  F   UNL A   1      37.407  33.429  27.589  1.00  0.00    -0.203 F 
ATOM     58  F   UNL A   1      34.110  32.568  31.846  1.00  0.00    -0.200 F 
ATOM     59  C   UNL A   1      34.484  33.527  29.722  1.00  0.00     0.200 A 
ATOM     60  F   UNL A   1      34.906  34.462  27.593  1.00  0.00    -0.200 F 
ATOM     61  F   UNL A   1      33.239  34.021  29.708  1.00  0.00    -0.200 F 
ENDBRANCH  27  51
BRANCH  39  62
ATOM     62  C   UNL A   1      43.209  35.087  31.815  1.00  0.00     0.064 A 
ATOM     63  C   UNL A   1      43.152  35.311  33.199  1.00  0.00     0.173 A 
ATOM     64  C   UNL A   1      43.643  36.137  30.994  1.00  0.00     0.173 A 
ATOM     65  F   UNL A   1      42.724  34.343  34.022  1.00  0.00    -0.203 F 
ATOM     66  C   UNL A   1      43.486  36.551  33.735  1.00  0.00     0.198 A 
ATOM     67  C   UNL A   1      44.004  37.367  31.537  1.00  0.00     0.198 A 
ATOM     68  F   UNL A   1      43.719  35.970  29.664  1.00  0.00    -0.203 F 
ATOM     69  F   UNL A   1      43.374  36.760  35.054  1.00  0.00    -0.200 F 
ATOM     70  C   UNL A   1      43.917  37.575  32.906  1.00  0.00     0.200 A 
ATOM     71  F   UNL A   1      44.426  38.353  30.735  1.00  0.00    -0.200 F 
ATOM     72  F   UNL A   1      44.237  38.769  33.424  1.00  0.00    -0.200 F 
ENDBRANCH  39  62
ENDBRANCH  13  14
ENDBRANCH   6   8
ENDBRANCH   3   4
ENDBRANCH   2   3
ENDBRANCH   1   2
BRANCH   1  73
ATOM     73  C   UNL A   1      33.779  25.621  23.462  1.00  0.00     0.116 C 
BRANCH  73  74
ATOM     74  N   UNL A   1      34.209  26.921  22.997  1.00  0.00    -0.354 N 
ATOM     75  C   UNL A   1      33.993  28.148  23.555  1.00  0.00     0.252 C 
ATOM     76  H   UNL A   1      34.728  26.921  22.162  1.00  0.00     0.163 HD
ATOM     77  O   UNL A   1      34.499  29.122  22.988  1.00  0.00    -0.272 OA
BRANCH  75  78
ATOM     78  C   UNL A   1      33.156  28.318  24.834  1.00  0.00     0.242 C 
ATOM     79  O   UNL A   1      32.326  27.174  25.089  1.00  0.00    -0.324 OA
ATOM     80  C   UNL A   1      34.025  28.609  26.063  1.00  0.00     0.184 C 
ATOM     81  C   UNL A   1      31.334  27.466  26.081  1.00  0.00     0.340 C 
ATOM     82  C   UNL A   1      33.128  28.863  27.276  1.00  0.00     0.181 C 
ATOM     83  C   UNL A   1      32.018  27.826  27.421  1.00  0.00     0.214 C 
BRANCH  80  84
ATOM     84  O   UNL A   1      34.875  29.744  25.883  1.00  0.00    -0.387 OA
ATOM     85  H   UNL A   1      34.907  29.978  24.942  1.00  0.00     0.211 HD
ENDBRANCH  80  84
BRANCH  81  86
ATOM     86  O   UNL A   1      30.398  26.403  26.361  1.00  0.00    -0.454 OA
BRANCH  86  87
ATOM     87  C   UNL A   1      30.452  25.260  25.591  1.00  0.00     0.214 A 
ATOM     88  C   UNL A   1      30.148  25.238  24.279  1.00  0.00     0.181 A 
ATOM     89  C   UNL A   1      31.080  24.043  26.187  1.00  0.00     0.239 A 
ATOM     90  O   UNL A   1      30.293  24.144  23.452  1.00  0.00    -0.452 OA
ATOM     91  C   UNL A   1      31.446  22.957  25.240  1.00  0.00     0.111 A 
ATOM     92  O   UNL A   1      31.285  23.981  27.394  1.00  0.00    -0.285 OA
ATOM     93  C   UNL A   1      31.023  23.080  23.914  1.00  0.00     0.146 A 
ATOM     94  C   UNL A   1      32.206  21.833  25.601  1.00  0.00     0.134 A 
ATOM     95  C   UNL A   1      31.336  22.102  22.967  1.00  0.00     0.094 A 
ATOM     96  C   UNL A   1      32.526  20.851  24.654  1.00  0.00     0.093 A 
ATOM     97  C   UNL A   1      32.084  20.996  23.345  1.00  0.00     0.123 A 
BRANCH  88  98
ATOM     98  C   UNL A   1      29.554  26.398  23.595  1.00  0.00     0.029 A 
ATOM     99  C   UNL A   1      28.204  26.709  23.832  1.00  0.00     0.062 A 
ATOM    100  C   UNL A   1      30.337  27.258  22.806  1.00  0.00     0.062 A 
ATOM    101  C   UNL A   1      27.675  27.903  23.353  1.00  0.00     0.162 A 
ATOM    102  C   UNL A   1      29.788  28.447  22.337  1.00  0.00     0.162 A 
ATOM    103  C   UNL A   1      28.471  28.784  22.633  1.00  0.00     0.200 A 
BRANCH 101 104
ATOM    104  O   UNL A   1      26.383  28.220  23.651  1.00  0.00    -0.504 OA
ATOM    105  H   UNL A   1      25.689  27.645  23.395  1.00  0.00     0.293 HD
ENDBRANCH 101 104
BRANCH 102 106
ATOM    106  O   UNL A   1      30.582  29.325  21.659  1.00  0.00    -0.504 OA
ATOM    107  H   UNL A   1      31.167  29.012  20.998  1.00  0.00     0.293 HD
ENDBRANCH 102 106
BRANCH 103 108
ATOM    108  O   UNL A   1      28.020  30.024  22.273  1.00  0.00    -0.502 OA
ATOM    109  H   UNL A   1      27.890  30.231  21.368  1.00  0.00     0.293 HD
ENDBRANCH 103 108
ENDBRANCH  88  98
BRANCH  94 110
ATOM    110  O   UNL A   1      32.667  21.682  26.877  1.00  0.00    -0.507 OA
ATOM    111  H   UNL A   1      32.702  20.830  27.265  1.00  0.00     0.293 HD
ENDBRANCH  94 110
BRANCH  97 112
ATOM    112  O   UNL A   1      32.370  20.071  22.385  1.00  0.00    -0.508 OA
ATOM    113  H   UNL A   1      32.874  19.311  22.601  1.00  0.00     0.293 HD
ENDBRANCH  97 112
ENDBRANCH  86  87
ENDBRANCH  81  86
BRANCH  82 114
ATOM    114  O   UNL A   1      33.959  28.859  28.461  1.00  0.00    -0.387 OA
ATOM    115  H   UNL A   1      34.367  29.733  28.573  1.00  0.00     0.211 HD
ENDBRANCH  82 114
BRANCH  83 116
ATOM    116  O   UNL A   1      31.070  28.281  28.394  1.00  0.00    -0.384 OA
ATOM    117  H   UNL A   1      30.176  28.028  28.116  1.00  0.00     0.211 HD
ENDBRANCH  83 116
ENDBRANCH  75  78
ENDBRANCH  73  74
ENDBRANCH   1  73
TORSDOF 22
ENDMDL
MODEL 2
REMARK VINA RESULT:     -12.7      2.866      5.389
REMARK SMILES O=C(NCCCCNC(=O)[C@H]1O[C@@H](Oc2c(-c3cc(O)c(O)c(O)c3)oc3cc(O)cc(O)c3c2=O)[C@H](O)[C@@H](O)[C@@H]1O)c1ccc(-c2c3nc(c(-c4c(F)c(F)c(F)c(F)c4F)c4ccc([nH]4)c(-c4c(F)c(F)c(F)c(F)c4F)c4nc(c(-c5c(F)c(F)c(F)c(F)c5F)c5ccc2[nH]5)C=C4)C=C3)cc1
REMARK SMILES IDX 6 1 5 2 4 3 3 4 1 5 2 6 43 8 44 9 105 10 45 11 104 12 46 13
REMARK SMILES IDX 47 14 48 15 98 16 49 17 103 18 97 19 99 20 50 21 102 22
REMARK SMILES IDX 96 23 95 24 51 26 83 27 63 28 82 29 64 30 67 31 81 32 100 33
REMARK SMILES IDX 65 34 66 35 80 37 101 38 68 39 52 40 53 41 61 42 54 43 55 44
REMARK SMILES IDX 59 45 62 46 56 47 57 48 60 49 58 50 84 51 85 52 93 53 86 54
REMARK SMILES IDX 87 55 91 56 94 57 88 58 89 59 92 60 90 61 69 62 70 63 78 64
REMARK SMILES IDX 71 65 72 66 76 67 79 68 73 69 74 70 77 71 75 72 7 73 8 74
REMARK SMILES IDX 9 75 10 77 11 78 12 79 41 80 13 81 39 82 37 83 42 84 14 86
REMARK SMILES IDX 15 87 16 88 35 89 26 90 34 91 36 92 27 93 32 94 28 95 31 96
REMARK SMILES IDX 29 97 17 98 18 99 25 100 19 101 23 102 21 103 20 104 24 106
REMARK SMILES IDX 22 108 33 110 30 112 40 114 38 116
REMARK H PARENT 3 7 99 25 67 36 8 76 42 85 20 105 24 107 22 109 33 111 30 113
REMARK H PARENT 40 115 38 117
REMARK Flexibility Score: inf
ROOT
ATOM      1  C   UNL A   1      36.693  21.438  24.637  1.00  0.00     0.023 C 
ENDROOT
BRANCH   1   2
ATOM      2  C   UNL A   1      37.577  20.259  25.040  1.00  0.00     0.023 C 
BRANCH   2   3
ATOM      3  C   UNL A   1      38.812  20.618  25.859  1.00  0.00     0.116 C 
BRANCH   3   4
ATOM      4  N   UNL A   1      39.799  19.548  25.905  1.00  0.00    -0.352 N 
ATOM      5  O   UNL A   1      41.866  18.632  26.005  1.00  0.00    -0.269 OA
ATOM      6  C   UNL A   1      41.156  19.628  26.113  1.00  0.00     0.251 C 
ATOM      7  H   UNL A   1      39.445  18.639  25.768  1.00  0.00     0.163 HD
BRANCH   6   8
ATOM      8  C   UNL A   1      41.759  20.935  26.441  1.00  0.00     0.039 A 
ATOM      9  C   UNL A   1      41.946  21.303  27.775  1.00  0.00     0.014 A 
ATOM     10  C   UNL A   1      42.099  21.815  25.409  1.00  0.00     0.014 A 
ATOM     11  C   UNL A   1      42.318  22.606  28.079  1.00  0.00     0.010 A 
ATOM     12  C   UNL A   1      42.559  23.097  25.718  1.00  0.00     0.010 A 
ATOM     13  C   UNL A   1      42.637  23.515  27.055  1.00  0.00    -0.014 A 
BRANCH  13  14
ATOM     14  C   UNL A   1      43.107  24.874  27.424  1.00  0.00     0.031 A 
ATOM     15  C   UNL A   1      44.514  25.322  27.141  1.00  0.00     0.074 A 
ATOM     16  C   UNL A   1      42.223  25.724  27.981  1.00  0.00     0.049 A 
ATOM     17  N   UNL A   1      45.070  26.485  27.375  1.00  0.00    -0.248 NA
ATOM     18  C   UNL A   1      45.417  24.342  26.521  1.00  0.00     0.031 C 
ATOM     19  C   UNL A   1      40.835  25.391  28.311  1.00  0.00     0.029 A 
ATOM     20  N   UNL A   1      42.345  27.039  28.346  1.00  0.00    -0.354 N 
ATOM     21  C   UNL A   1      46.388  26.371  26.951  1.00  0.00     0.074 A 
ATOM     22  C   UNL A   1      46.556  25.020  26.461  1.00  0.00     0.031 C 
ATOM     23  C   UNL A   1      40.219  26.486  28.776  1.00  0.00     0.029 A 
ATOM     24  C   UNL A   1      41.183  27.578  28.840  1.00  0.00     0.049 A 
ATOM     25  H   UNL A   1      43.183  27.547  28.262  1.00  0.00     0.167 HD
ATOM     26  C   UNL A   1      47.361  27.315  26.967  1.00  0.00     0.037 A 
ATOM     27  C   UNL A   1      40.924  28.812  29.309  1.00  0.00     0.037 A 
ATOM     28  C   UNL A   1      47.177  28.665  27.436  1.00  0.00     0.049 A 
ATOM     29  C   UNL A   1      42.024  29.831  29.319  1.00  0.00     0.074 A 
ATOM     30  C   UNL A   1      48.093  29.703  27.464  1.00  0.00     0.029 A 
ATOM     31  N   UNL A   1      45.994  29.166  27.960  1.00  0.00    -0.354 N 
ATOM     32  N   UNL A   1      43.261  29.713  28.899  1.00  0.00    -0.248 NA
ATOM     33  C   UNL A   1      41.698  31.149  29.875  1.00  0.00     0.031 C 
ATOM     34  C   UNL A   1      47.477  30.818  28.041  1.00  0.00     0.029 A 
ATOM     35  C   UNL A   1      46.163  30.491  28.332  1.00  0.00     0.049 A 
ATOM     36  H   UNL A   1      45.157  28.655  28.054  1.00  0.00     0.167 HD
ATOM     37  C   UNL A   1      43.859  30.942  29.135  1.00  0.00     0.074 A 
ATOM     38  C   UNL A   1      42.840  31.800  29.706  1.00  0.00     0.031 C 
ATOM     39  C   UNL A   1      45.139  31.323  28.908  1.00  0.00     0.037 A 
BRANCH  26  40
ATOM     40  C   UNL A   1      48.724  26.926  26.472  1.00  0.00     0.064 A 
ATOM     41  C   UNL A   1      49.673  26.330  27.316  1.00  0.00     0.173 A 
ATOM     42  C   UNL A   1      49.060  27.086  25.118  1.00  0.00     0.173 A 
ATOM     43  F   UNL A   1      49.406  26.163  28.620  1.00  0.00    -0.203 F 
ATOM     44  C   UNL A   1      50.911  25.921  26.826  1.00  0.00     0.198 A 
ATOM     45  C   UNL A   1      50.289  26.654  24.627  1.00  0.00     0.198 A 
ATOM     46  F   UNL A   1      48.186  27.644  24.267  1.00  0.00    -0.203 F 
ATOM     47  F   UNL A   1      51.814  25.381  27.656  1.00  0.00    -0.200 F 
ATOM     48  C   UNL A   1      51.216  26.076  25.481  1.00  0.00     0.200 A 
ATOM     49  F   UNL A   1      50.577  26.794  23.325  1.00  0.00    -0.200 F 
ATOM     50  F   UNL A   1      52.402  25.670  25.009  1.00  0.00    -0.200 F 
ENDBRANCH  26  40
BRANCH  27  51
ATOM     51  C   UNL A   1      39.566  29.135  29.815  1.00  0.00     0.064 A 
ATOM     52  C   UNL A   1      39.245  28.985  31.169  1.00  0.00     0.173 A 
ATOM     53  C   UNL A   1      38.569  29.622  28.956  1.00  0.00     0.173 A 
ATOM     54  F   UNL A   1      40.159  28.507  32.026  1.00  0.00    -0.203 F 
ATOM     55  C   UNL A   1      37.973  29.298  31.645  1.00  0.00     0.198 A 
ATOM     56  C   UNL A   1      37.308  29.964  29.437  1.00  0.00     0.198 A 
ATOM     57  F   UNL A   1      38.830  29.789  27.651  1.00  0.00    -0.203 F 
ATOM     58  F   UNL A   1      37.679  29.111  32.938  1.00  0.00    -0.200 F 
ATOM     59  C   UNL A   1      37.009  29.795  30.780  1.00  0.00     0.200 A 
ATOM     60  F   UNL A   1      36.387  30.461  28.601  1.00  0.00    -0.200 F 
ATOM     61  F   UNL A   1      35.790  30.107  31.240  1.00  0.00    -0.200 F 
ENDBRANCH  27  51
BRANCH  39  62
ATOM     62  C   UNL A   1      45.498  32.732  29.273  1.00  0.00     0.064 A 
ATOM     63  C   UNL A   1      46.022  33.048  30.536  1.00  0.00     0.173 A 
ATOM     64  C   UNL A   1      45.323  33.774  28.352  1.00  0.00     0.173 A 
ATOM     65  F   UNL A   1      46.188  32.088  31.457  1.00  0.00    -0.203 F 
ATOM     66  C   UNL A   1      46.330  34.363  30.872  1.00  0.00     0.198 A 
ATOM     67  C   UNL A   1      45.658  35.084  28.682  1.00  0.00     0.198 A 
ATOM     68  F   UNL A   1      44.828  33.521  27.130  1.00  0.00    -0.203 F 
ATOM     69  F   UNL A   1      46.779  34.650  32.101  1.00  0.00    -0.200 F 
ATOM     70  C   UNL A   1      46.153  35.378  29.944  1.00  0.00     0.200 A 
ATOM     71  F   UNL A   1      45.494  36.063  27.782  1.00  0.00    -0.200 F 
ATOM     72  F   UNL A   1      46.448  36.644  30.270  1.00  0.00    -0.200 F 
ENDBRANCH  39  62
ENDBRANCH  13  14
ENDBRANCH   6   8
ENDBRANCH   3   4
ENDBRANCH   2   3
ENDBRANCH   1   2
BRANCH   1  73
ATOM     73  C   UNL A   1      35.282  21.416  25.215  1.00  0.00     0.116 C 
BRANCH  73  74
ATOM     74  N   UNL A   1      34.338  20.730  24.362  1.00  0.00    -0.354 N 
ATOM     75  C   UNL A   1      33.027  21.024  24.118  1.00  0.00     0.252 C 
ATOM     76  H   UNL A   1      34.689  19.939  23.893  1.00  0.00     0.163 HD
ATOM     77  O   UNL A   1      32.429  20.305  23.311  1.00  0.00    -0.272 OA
BRANCH  75  78
ATOM     78  C   UNL A   1      32.321  22.199  24.814  1.00  0.00     0.242 C 
ATOM     79  O   UNL A   1      31.245  22.725  24.020  1.00  0.00    -0.324 OA
ATOM     80  C   UNL A   1      31.799  21.822  26.205  1.00  0.00     0.184 C 
ATOM     81  C   UNL A   1      30.809  23.996  24.519  1.00  0.00     0.340 C 
ATOM     82  C   UNL A   1      31.196  23.057  26.878  1.00  0.00     0.181 C 
ATOM     83  C   UNL A   1      30.264  23.839  25.957  1.00  0.00     0.214 C 
BRANCH  80  84
ATOM     84  O   UNL A   1      32.819  21.297  27.055  1.00  0.00    -0.387 OA
ATOM     85  H   UNL A   1      33.040  21.950  27.738  1.00  0.00     0.211 HD
ENDBRANCH  80  84
BRANCH  81  86
ATOM     86  O   UNL A   1      29.777  24.648  23.747  1.00  0.00    -0.454 OA
BRANCH  86  87
ATOM     87  C   UNL A   1      29.893  26.000  23.504  1.00  0.00     0.214 A 
ATOM     88  C   UNL A   1      30.983  26.560  22.943  1.00  0.00     0.181 A 
ATOM     89  C   UNL A   1      28.675  26.849  23.670  1.00  0.00     0.239 A 
ATOM     90  O   UNL A   1      31.094  27.887  22.584  1.00  0.00    -0.452 OA
ATOM     91  C   UNL A   1      28.728  28.207  23.068  1.00  0.00     0.111 A 
ATOM     92  O   UNL A   1      27.693  26.413  24.261  1.00  0.00    -0.285 OA
ATOM     93  C   UNL A   1      29.952  28.644  22.556  1.00  0.00     0.146 A 
ATOM     94  C   UNL A   1      27.616  29.058  22.970  1.00  0.00     0.134 A 
ATOM     95  C   UNL A   1      30.075  29.906  21.970  1.00  0.00     0.094 A 
ATOM     96  C   UNL A   1      27.733  30.324  22.380  1.00  0.00     0.093 A 
ATOM     97  C   UNL A   1      28.966  30.735  21.887  1.00  0.00     0.123 A 
BRANCH  88  98
ATOM     98  C   UNL A   1      32.219  25.798  22.710  1.00  0.00     0.029 A 
ATOM     99  C   UNL A   1      33.211  25.790  23.707  1.00  0.00     0.062 A 
ATOM    100  C   UNL A   1      32.376  24.994  21.568  1.00  0.00     0.062 A 
ATOM    101  C   UNL A   1      34.297  24.928  23.595  1.00  0.00     0.162 A 
ATOM    102  C   UNL A   1      33.470  24.139  21.477  1.00  0.00     0.162 A 
ATOM    103  C   UNL A   1      34.413  24.083  22.498  1.00  0.00     0.200 A 
BRANCH 101 104
ATOM    104  O   UNL A   1      35.212  24.884  24.604  1.00  0.00    -0.504 OA
ATOM    105  H   UNL A   1      35.389  24.074  25.040  1.00  0.00     0.293 HD
ENDBRANCH 101 104
BRANCH 102 106
ATOM    106  O   UNL A   1      33.563  23.288  20.414  1.00  0.00    -0.504 OA
ATOM    107  H   UNL A   1      34.229  23.416  19.769  1.00  0.00     0.293 HD
ENDBRANCH 102 106
BRANCH 103 108
ATOM    108  O   UNL A   1      35.389  23.129  22.430  1.00  0.00    -0.502 OA
ATOM    109  H   UNL A   1      36.250  23.315  22.753  1.00  0.00     0.293 HD
ENDBRANCH 103 108
ENDBRANCH  88  98
BRANCH  94 110
ATOM    110  O   UNL A   1      26.392  28.666  23.430  1.00  0.00    -0.507 OA
ATOM    111  H   UNL A   1      26.026  27.851  23.150  1.00  0.00     0.293 HD
ENDBRANCH  94 110
BRANCH  97 112
ATOM    112  O   UNL A   1      29.133  31.955  21.301  1.00  0.00    -0.508 OA
ATOM    113  H   UNL A   1      29.523  32.017  20.451  1.00  0.00     0.293 HD
ENDBRANCH  97 112
ENDBRANCH  86  87
ENDBRANCH  81  86
BRANCH  82 114
ATOM    114  O   UNL A   1      30.472  22.624  28.053  1.00  0.00    -0.387 OA
ATOM    115  H   UNL A   1      30.656  23.230  28.788  1.00  0.00     0.211 HD
ENDBRANCH  82 114
BRANCH  83 116
ATOM    116  O   UNL A   1      29.967  25.108  26.552  1.00  0.00    -0.384 OA
ATOM    117  H   UNL A   1      29.546  24.970  27.415  1.00  0.00     0.211 HD
ENDBRANCH  83 116
ENDBRANCH  75  78
ENDBRANCH  73  74
ENDBRANCH   1  73
TORSDOF 22
ENDMDL
MODEL 3
REMARK VINA RESULT:     -12.6      2.059      3.237
REMARK SMILES O=C(NCCCCNC(=O)[C@H]1O[C@@H](Oc2c(-c3cc(O)c(O)c(O)c3)oc3cc(O)cc(O)c3c2=O)[C@H](O)[C@@H](O)[C@@H]1O)c1ccc(-c2c3nc(c(-c4c(F)c(F)c(F)c(F)c4F)c4ccc([nH]4)c(-c4c(F)c(F)c(F)c(F)c4F)c4nc(c(-c5c(F)c(F)c(F)c(F)c5F)c5ccc2[nH]5)C=C4)C=C3)cc1
REMARK SMILES IDX 6 1 5 2 4 3 3 4 1 5 2 6 43 8 44 9 105 10 45 11 104 12 46 13
REMARK SMILES IDX 47 14 48 15 98 16 49 17 103 18 97 19 99 20 50 21 102 22
REMARK SMILES IDX 96 23 95 24 51 26 83 27 63 28 82 29 64 30 67 31 81 32 100 33
REMARK SMILES IDX 65 34 66 35 80 37 101 38 68 39 52 40 53 41 61 42 54 43 55 44
REMARK SMILES IDX 59 45 62 46 56 47 57 48 60 49 58 50 84 51 85 52 93 53 86 54
REMARK SMILES IDX 87 55 91 56 94 57 88 58 89 59 92 60 90 61 69 62 70 63 78 64
REMARK SMILES IDX 71 65 72 66 76 67 79 68 73 69 74 70 77 71 75 72 7 73 8 74
REMARK SMILES IDX 9 75 10 77 11 78 12 79 41 80 13 81 39 82 37 83 42 84 14 86
REMARK SMILES IDX 15 87 16 88 35 89 26 90 34 91 36 92 27 93 32 94 28 95 31 96
REMARK SMILES IDX 29 97 17 98 18 99 25 100 19 101 23 102 21 103 20 104 24 106
REMARK SMILES IDX 22 108 33 110 30 112 40 114 38 116
REMARK H PARENT 3 7 99 25 67 36 8 76 42 85 20 105 24 107 22 109 33 111 30 113
REMARK H PARENT 40 115 38 117
REMARK Flexibility Score: inf
ROOT
ATOM      1  C   UNL A   1      34.823  24.902  24.741  1.00  0.00     0.023 C 
ENDROOT
BRANCH   1   2
ATOM      2  C   UNL A   1      35.276  23.446  24.640  1.00  0.00     0.023 C 
BRANCH   2   3
ATOM      3  C   UNL A   1      35.869  22.856  25.915  1.00  0.00     0.116 C 
BRANCH   3   4
ATOM      4  N   UNL A   1      36.784  21.751  25.663  1.00  0.00    -0.352 N 
ATOM      5  O   UNL A   1      38.787  20.729  25.413  1.00  0.00    -0.269 OA
ATOM      6  C   UNL A   1      38.154  21.715  25.779  1.00  0.00     0.251 C 
ATOM      7  H   UNL A   1      36.361  20.911  25.367  1.00  0.00     0.163 HD
BRANCH   6   8
ATOM      8  C   UNL A   1      38.862  22.890  26.324  1.00  0.00     0.039 A 
ATOM      9  C   UNL A   1      38.482  24.176  25.935  1.00  0.00     0.014 A 
ATOM     10  C   UNL A   1      39.937  22.702  27.196  1.00  0.00     0.014 A 
ATOM     11  C   UNL A   1      39.277  25.259  26.287  1.00  0.00     0.010 A 
ATOM     12  C   UNL A   1      40.683  23.805  27.622  1.00  0.00     0.010 A 
ATOM     13  C   UNL A   1      40.381  25.087  27.141  1.00  0.00    -0.014 A 
BRANCH  13  14
ATOM     14  C   UNL A   1      41.158  26.283  27.557  1.00  0.00     0.031 A 
ATOM     15  C   UNL A   1      42.582  26.484  27.120  1.00  0.00     0.074 A 
ATOM     16  C   UNL A   1      40.538  27.217  28.302  1.00  0.00     0.049 A 
ATOM     17  N   UNL A   1      43.387  27.486  27.373  1.00  0.00    -0.248 NA
ATOM     18  C   UNL A   1      43.187  25.425  26.298  1.00  0.00     0.031 C 
ATOM     19  C   UNL A   1      39.161  27.119  28.792  1.00  0.00     0.029 A 
ATOM     20  N   UNL A   1      40.967  28.436  28.758  1.00  0.00    -0.354 N 
ATOM     21  C   UNL A   1      44.594  27.172  26.761  1.00  0.00     0.074 A 
ATOM     22  C   UNL A   1      44.424  25.876  26.139  1.00  0.00     0.031 C 
ATOM     23  C   UNL A   1      38.840  28.253  29.430  1.00  0.00     0.029 A 
ATOM     24  C   UNL A   1      40.006  29.128  29.453  1.00  0.00     0.049 A 
ATOM     25  H   UNL A   1      41.875  28.782  28.601  1.00  0.00     0.167 HD
ATOM     26  C   UNL A   1      45.732  27.905  26.722  1.00  0.00     0.037 A 
ATOM     27  C   UNL A   1      40.061  30.328  30.057  1.00  0.00     0.037 A 
ATOM     28  C   UNL A   1      45.884  29.205  27.326  1.00  0.00     0.049 A 
ATOM     29  C   UNL A   1      41.339  31.111  30.001  1.00  0.00     0.074 A 
ATOM     30  C   UNL A   1      46.989  30.039  27.315  1.00  0.00     0.029 A 
ATOM     31  N   UNL A   1      44.899  29.860  28.051  1.00  0.00    -0.354 N 
ATOM     32  N   UNL A   1      42.466  30.809  29.405  1.00  0.00    -0.248 NA
ATOM     33  C   UNL A   1      41.355  32.398  30.708  1.00  0.00     0.031 C 
ATOM     34  C   UNL A   1      46.686  31.180  28.066  1.00  0.00     0.029 A 
ATOM     35  C   UNL A   1      45.377  31.079  28.508  1.00  0.00     0.049 A 
ATOM     36  H   UNL A   1      43.993  29.511  28.216  1.00  0.00     0.167 HD
ATOM     37  C   UNL A   1      43.326  31.867  29.659  1.00  0.00     0.074 A 
ATOM     38  C   UNL A   1      42.578  32.834  30.438  1.00  0.00     0.031 C 
ATOM     39  C   UNL A   1      44.619  32.020  29.290  1.00  0.00     0.037 A 
BRANCH  26  40
ATOM     40  C   UNL A   1      46.920  27.322  26.011  1.00  0.00     0.064 A 
ATOM     41  C   UNL A   1      47.162  27.571  24.653  1.00  0.00     0.173 A 
ATOM     42  C   UNL A   1      47.866  26.561  26.717  1.00  0.00     0.173 A 
ATOM     43  F   UNL A   1      46.285  28.283  23.930  1.00  0.00    -0.203 F 
ATOM     44  C   UNL A   1      48.301  27.071  24.025  1.00  0.00     0.198 A 
ATOM     45  C   UNL A   1      49.015  26.083  26.092  1.00  0.00     0.198 A 
ATOM     46  F   UNL A   1      47.685  26.299  28.021  1.00  0.00    -0.203 F 
ATOM     47  F   UNL A   1      48.497  27.297  22.718  1.00  0.00    -0.200 F 
ATOM     48  C   UNL A   1      49.229  26.335  24.745  1.00  0.00     0.200 A 
ATOM     49  F   UNL A   1      49.917  25.382  26.793  1.00  0.00    -0.200 F 
ATOM     50  F   UNL A   1      50.330  25.866  24.142  1.00  0.00    -0.200 F 
ENDBRANCH  26  40
BRANCH  27  51
ATOM     51  C   UNL A   1      38.867  30.846  30.773  1.00  0.00     0.064 A 
ATOM     52  C   UNL A   1      37.863  31.544  30.092  1.00  0.00     0.173 A 
ATOM     53  C   UNL A   1      38.698  30.633  32.149  1.00  0.00     0.173 A 
ATOM     54  F   UNL A   1      37.989  31.788  28.778  1.00  0.00    -0.203 F 
ATOM     55  C   UNL A   1      36.739  32.021  30.762  1.00  0.00     0.198 A 
ATOM     56  C   UNL A   1      37.560  31.082  32.812  1.00  0.00     0.198 A 
ATOM     57  F   UNL A   1      39.629  29.963  32.844  1.00  0.00    -0.203 F 
ATOM     58  F   UNL A   1      35.809  32.718  30.095  1.00  0.00    -0.200 F 
ATOM     59  C   UNL A   1      36.584  31.782  32.119  1.00  0.00     0.200 A 
ATOM     60  F   UNL A   1      37.407  30.832  34.120  1.00  0.00    -0.200 F 
ATOM     61  F   UNL A   1      35.498  32.230  32.762  1.00  0.00    -0.200 F 
ENDBRANCH  27  51
BRANCH  39  62
ATOM     62  C   UNL A   1      45.298  33.286  29.720  1.00  0.00     0.064 A 
ATOM     63  C   UNL A   1      45.255  34.443  28.927  1.00  0.00     0.173 A 
ATOM     64  C   UNL A   1      45.990  33.346  30.938  1.00  0.00     0.173 A 
ATOM     65  F   UNL A   1      44.622  34.428  27.746  1.00  0.00    -0.203 F 
ATOM     66  C   UNL A   1      45.908  35.606  29.326  1.00  0.00     0.198 A 
ATOM     67  C   UNL A   1      46.618  34.519  31.347  1.00  0.00     0.198 A 
ATOM     68  F   UNL A   1      46.056  32.267  31.733  1.00  0.00    -0.203 F 
ATOM     69  F   UNL A   1      45.899  36.684  28.529  1.00  0.00    -0.200 F 
ATOM     70  C   UNL A   1      46.584  35.645  30.536  1.00  0.00     0.200 A 
ATOM     71  F   UNL A   1      47.264  34.558  32.519  1.00  0.00    -0.200 F 
ATOM     72  F   UNL A   1      47.213  36.765  30.918  1.00  0.00    -0.200 F 
ENDBRANCH  39  62
ENDBRANCH  13  14
ENDBRANCH   6   8
ENDBRANCH   3   4
ENDBRANCH   2   3
ENDBRANCH   1   2
BRANCH   1  73
ATOM     73  C   UNL A   1      33.905  25.373  23.618  1.00  0.00     0.116 C 
BRANCH  73  74
ATOM     74  N   UNL A   1      34.292  26.659  23.081  1.00  0.00    -0.354 N 
ATOM     75  C   UNL A   1      34.029  27.907  23.566  1.00  0.00     0.252 C 
ATOM     76  H   UNL A   1      34.819  26.629  22.250  1.00  0.00     0.163 HD
ATOM     77  O   UNL A   1      34.505  28.865  22.946  1.00  0.00    -0.272 OA
BRANCH  75  78
ATOM     78  C   UNL A   1      33.177  28.121  24.827  1.00  0.00     0.242 C 
ATOM     79  O   UNL A   1      32.404  26.956  25.158  1.00  0.00    -0.324 OA
ATOM     80  C   UNL A   1      34.021  28.540  26.035  1.00  0.00     0.184 C 
ATOM     81  C   UNL A   1      31.392  27.264  26.125  1.00  0.00     0.340 C 
ATOM     82  C   UNL A   1      33.105  28.830  27.226  1.00  0.00     0.181 C 
ATOM     83  C   UNL A   1      32.049  27.750  27.438  1.00  0.00     0.214 C 
BRANCH  80  84
ATOM     84  O   UNL A   1      34.813  29.703  25.781  1.00  0.00    -0.387 OA
ATOM     85  H   UNL A   1      34.658  30.007  24.872  1.00  0.00     0.211 HD
ENDBRANCH  80  84
BRANCH  81  86
ATOM     86  O   UNL A   1      30.511  26.175  26.474  1.00  0.00    -0.454 OA
BRANCH  86  87
ATOM     87  C   UNL A   1      30.554  25.024  25.716  1.00  0.00     0.214 A 
ATOM     88  C   UNL A   1      30.236  24.989  24.407  1.00  0.00     0.181 A 
ATOM     89  C   UNL A   1      31.186  23.812  26.318  1.00  0.00     0.239 A 
ATOM     90  O   UNL A   1      30.370  23.886  23.590  1.00  0.00    -0.452 OA
ATOM     91  C   UNL A   1      31.541  22.716  25.377  1.00  0.00     0.111 A 
ATOM     92  O   UNL A   1      31.405  23.762  27.522  1.00  0.00    -0.285 OA
ATOM     93  C   UNL A   1      31.104  22.825  24.055  1.00  0.00     0.146 A 
ATOM     94  C   UNL A   1      32.303  21.595  25.742  1.00  0.00     0.134 A 
ATOM     95  C   UNL A   1      31.404  21.837  23.116  1.00  0.00     0.094 A 
ATOM     96  C   UNL A   1      32.610  20.602  24.803  1.00  0.00     0.093 A 
ATOM     97  C   UNL A   1      32.155  20.734  23.496  1.00  0.00     0.123 A 
BRANCH  88  98
ATOM     98  C   UNL A   1      29.637  26.143  23.718  1.00  0.00     0.029 A 
ATOM     99  C   UNL A   1      28.298  26.476  23.988  1.00  0.00     0.062 A 
ATOM    100  C   UNL A   1      30.407  26.977  22.889  1.00  0.00     0.062 A 
ATOM    101  C   UNL A   1      27.770  27.667  23.501  1.00  0.00     0.162 A 
ATOM    102  C   UNL A   1      29.859  28.164  22.412  1.00  0.00     0.162 A 
ATOM    103  C   UNL A   1      28.555  28.524  22.740  1.00  0.00     0.200 A 
BRANCH 101 104
ATOM    104  O   UNL A   1      26.492  28.007  23.830  1.00  0.00    -0.504 OA
ATOM    105  H   UNL A   1      26.102  28.774  23.461  1.00  0.00     0.293 HD
ENDBRANCH 101 104
BRANCH 102 106
ATOM    106  O   UNL A   1      30.643  29.017  21.693  1.00  0.00    -0.504 OA
ATOM    107  H   UNL A   1      31.544  29.133  21.925  1.00  0.00     0.293 HD
ENDBRANCH 102 106
BRANCH 103 108
ATOM    108  O   UNL A   1      28.110  29.762  22.369  1.00  0.00    -0.502 OA
ATOM    109  H   UNL A   1      28.552  30.235  21.691  1.00  0.00     0.293 HD
ENDBRANCH 103 108
ENDBRANCH  88  98
BRANCH  94 110
ATOM    110  O   UNL A   1      32.777  21.456  27.015  1.00  0.00    -0.507 OA
ATOM    111  H   UNL A   1      32.456  20.766  27.561  1.00  0.00     0.293 HD
ENDBRANCH  94 110
BRANCH  97 112
ATOM    112  O   UNL A   1      32.428  19.799  22.543  1.00  0.00    -0.508 OA
ATOM    113  H   UNL A   1      31.766  19.548  21.929  1.00  0.00     0.293 HD
ENDBRANCH  97 112
ENDBRANCH  86  87
ENDBRANCH  81  86
BRANCH  82 114
ATOM    114  O   UNL A   1      33.927  28.950  28.411  1.00  0.00    -0.387 OA
ATOM    115  H   UNL A   1      34.765  28.482  28.271  1.00  0.00     0.211 HD
ENDBRANCH  82 114
BRANCH  83 116
ATOM    116  O   UNL A   1      31.072  28.220  28.375  1.00  0.00    -0.384 OA
ATOM    117  H   UNL A   1      30.486  28.857  27.937  1.00  0.00     0.211 HD
ENDBRANCH  83 116
ENDBRANCH  75  78
ENDBRANCH  73  74
ENDBRANCH   1  73
TORSDOF 22
ENDMDL
