MODEL 1
REMARK VINA RESULT:     -12.8      0.000      0.000
REMARK SMILES Cc1cnc(NC(=O)NC[C@H]2CC[C@H](C(=O)NCCCCNC(=O)c3ccc(-c4c5nc(c(-c6c(F)c(F)c(F)c(F)c6F)c6ccc([nH]6)c(-c6c(F)c(F)c(F)c(F)c6F)c6nc(c(-c7c(F)c(F)c(F)c(F)c7F)c7ccc4[nH]7)C=C6)C=C5)cc3)O2)s1
REMARK SMILES IDX 19 1 18 2 17 3 15 4 16 5 14 7 11 8 12 9 88 10 13 11 10 12
REMARK SMILES IDX 9 13 6 14 7 15 8 17 5 19 1 20 2 21 3 22 89 23 4 24 20 25
REMARK SMILES IDX 21 26 22 27 23 28 24 30 25 31 26 32 87 33 27 34 86 35 28 36
REMARK SMILES IDX 29 37 30 38 80 39 31 40 85 41 79 42 81 43 32 44 84 45 78 46
REMARK SMILES IDX 77 47 33 49 65 50 45 51 64 52 46 53 49 54 63 55 82 56 47 57
REMARK SMILES IDX 48 58 62 60 83 61 50 62 34 63 35 64 43 65 36 66 37 67 41 68
REMARK SMILES IDX 44 69 38 70 39 71 42 72 40 73 66 74 67 75 75 76 68 77 69 78
REMARK SMILES IDX 73 79 76 80 70 81 71 82 74 83 72 84 51 85 52 86 60 87 53 88
REMARK SMILES IDX 54 89 58 90 61 91 55 92 56 93 59 94 57 95
REMARK H PARENT 17 6 6 16 9 18 22 29 81 48 49 59
REMARK Flexibility Score: inf
ROOT
ATOM      1  C   UNL A   1      32.253  30.330  26.868  1.00  0.00     0.023 C 
ENDROOT
BRANCH   1   2
ATOM      2  C   UNL A   1      31.888  29.579  25.586  1.00  0.00     0.116 C 
BRANCH   2   3
ATOM      3  N   UNL A   1      32.936  29.657  24.595  1.00  0.00    -0.354 N 
ATOM      4  C   UNL A   1      33.439  28.701  23.764  1.00  0.00     0.249 C 
ATOM      5  O   UNL A   1      34.330  29.055  22.983  1.00  0.00    -0.272 OA
ATOM      6  H   UNL A   1      33.353  30.545  24.504  1.00  0.00     0.163 HD
BRANCH   4   7
ATOM      7  C   UNL A   1      33.005  27.214  23.833  1.00  0.00     0.207 C 
ATOM      8  C   UNL A   1      31.424  26.127  25.184  1.00  0.00     0.138 C 
ATOM      9  C   UNL A   1      32.749  26.051  25.904  1.00  0.00     0.037 C 
ATOM     10  O   UNL A   1      31.617  26.926  24.007  1.00  0.00    -0.363 OA
ATOM     11  C   UNL A   1      33.783  26.455  24.894  1.00  0.00     0.045 C 
BRANCH   8  12
ATOM     12  C   UNL A   1      30.683  24.818  24.877  1.00  0.00     0.149 C 
BRANCH  12  13
ATOM     13  N   UNL A   1      30.084  24.093  25.985  1.00  0.00    -0.335 N 
ATOM     14  N   UNL A   1      31.511  22.461  27.006  1.00  0.00    -0.284 N 
ATOM     15  C   UNL A   1      30.399  23.187  26.907  1.00  0.00     0.321 C 
ATOM     16  H   UNL A   1      31.409  21.722  27.649  1.00  0.00     0.174 HD
ATOM     17  O   UNL A   1      29.488  22.909  27.699  1.00  0.00    -0.248 OA
ATOM     18  H   UNL A   1      29.142  24.359  26.087  1.00  0.00     0.165 HD
BRANCH  14  19
ATOM     19  C   UNL A   1      32.749  22.478  26.452  1.00  0.00     0.190 A 
ATOM     20  C   UNL A   1      36.409  23.479  25.903  1.00  0.00     0.058 C 
ATOM     21  C   UNL A   1      35.042  22.904  25.899  1.00  0.00     0.023 A 
ATOM     22  C   UNL A   1      34.228  22.576  24.833  1.00  0.00     0.128 A 
ATOM     23  S   UNL A   1      34.184  22.596  27.354  1.00  0.00    -0.102 S 
ATOM     24  N   UNL A   1      32.923  22.274  25.166  1.00  0.00    -0.228 NA
ENDBRANCH  14  19
ENDBRANCH  12  13
ENDBRANCH   8  12
ENDBRANCH   4   7
ENDBRANCH   2   3
ENDBRANCH   1   2
BRANCH   1  25
ATOM     25  C   UNL A   1      31.889  31.814  26.865  1.00  0.00     0.023 C 
BRANCH  25  26
ATOM     26  C   UNL A   1      32.962  32.737  27.432  1.00  0.00     0.116 C 
BRANCH  26  27
ATOM     27  N   UNL A   1      32.497  34.088  27.713  1.00  0.00    -0.352 N 
ATOM     28  C   UNL A   1      33.004  34.977  28.634  1.00  0.00     0.251 C 
ATOM     29  H   UNL A   1      31.730  34.402  27.181  1.00  0.00     0.163 HD
ATOM     30  O   UNL A   1      32.468  36.056  28.832  1.00  0.00    -0.269 OA
BRANCH  28  31
ATOM     31  C   UNL A   1      34.185  34.569  29.425  1.00  0.00     0.039 A 
ATOM     32  C   UNL A   1      33.991  34.055  30.709  1.00  0.00     0.014 A 
ATOM     33  C   UNL A   1      35.462  34.615  28.862  1.00  0.00     0.014 A 
ATOM     34  C   UNL A   1      35.074  33.509  31.399  1.00  0.00     0.010 A 
ATOM     35  C   UNL A   1      36.522  34.003  29.517  1.00  0.00     0.010 A 
ATOM     36  C   UNL A   1      36.338  33.439  30.789  1.00  0.00    -0.014 A 
BRANCH  36  37
ATOM     37  C   UNL A   1      37.480  32.771  31.458  1.00  0.00     0.031 A 
ATOM     38  C   UNL A   1      38.161  31.608  30.797  1.00  0.00     0.074 A 
ATOM     39  C   UNL A   1      37.845  33.155  32.696  1.00  0.00     0.049 A 
ATOM     40  N   UNL A   1      39.118  30.839  31.252  1.00  0.00    -0.248 NA
ATOM     41  C   UNL A   1      37.679  31.239  29.457  1.00  0.00     0.031 C 
ATOM     42  C   UNL A   1      37.213  34.224  33.470  1.00  0.00     0.029 A 
ATOM     43  N   UNL A   1      38.824  32.675  33.528  1.00  0.00    -0.354 N 
ATOM     44  C   UNL A   1      39.340  29.891  30.263  1.00  0.00     0.074 A 
ATOM     45  C   UNL A   1      38.378  30.141  29.212  1.00  0.00     0.031 C 
ATOM     46  C   UNL A   1      37.829  34.328  34.659  1.00  0.00     0.029 A 
ATOM     47  C   UNL A   1      38.878  33.316  34.742  1.00  0.00     0.049 A 
ATOM     48  H   UNL A   1      39.432  31.941  33.280  1.00  0.00     0.167 HD
ATOM     49  C   UNL A   1      40.279  28.916  30.223  1.00  0.00     0.037 A 
ATOM     50  C   UNL A   1      39.681  33.107  35.803  1.00  0.00     0.037 A 
ATOM     51  C   UNL A   1      41.248  28.684  31.260  1.00  0.00     0.049 A 
ATOM     52  C   UNL A   1      40.733  32.035  35.727  1.00  0.00     0.074 A 
ATOM     53  C   UNL A   1      42.279  27.762  31.292  1.00  0.00     0.029 A 
ATOM     54  N   UNL A   1      41.304  29.387  32.457  1.00  0.00    -0.354 N 
ATOM     55  N   UNL A   1      40.983  31.190  34.756  1.00  0.00    -0.248 NA
ATOM     56  C   UNL A   1      41.621  31.895  36.889  1.00  0.00     0.031 C 
ATOM     57  C   UNL A   1      42.937  27.882  32.521  1.00  0.00     0.029 A 
ATOM     58  C   UNL A   1      42.343  28.909  33.238  1.00  0.00     0.049 A 
ATOM     59  H   UNL A   1      40.695  30.117  32.711  1.00  0.00     0.167 HD
ATOM     60  C   UNL A   1      42.067  30.433  35.178  1.00  0.00     0.074 A 
ATOM     61  C   UNL A   1      42.438  30.929  36.487  1.00  0.00     0.031 C 
ATOM     62  C   UNL A   1      42.697  29.417  34.539  1.00  0.00     0.037 A 
BRANCH  49  63
ATOM     63  C   UNL A   1      40.301  28.037  29.007  1.00  0.00     0.064 A 
ATOM     64  C   UNL A   1      39.594  26.824  28.967  1.00  0.00     0.173 A 
ATOM     65  C   UNL A   1      41.030  28.408  27.868  1.00  0.00     0.173 A 
ATOM     66  F   UNL A   1      38.892  26.416  30.036  1.00  0.00    -0.203 F 
ATOM     67  C   UNL A   1      39.651  25.997  27.849  1.00  0.00     0.198 A 
ATOM     68  C   UNL A   1      41.060  27.593  26.739  1.00  0.00     0.198 A 
ATOM     69  F   UNL A   1      41.720  29.558  27.852  1.00  0.00    -0.203 F 
ATOM     70  F   UNL A   1      39.019  24.816  27.859  1.00  0.00    -0.200 F 
ATOM     71  C   UNL A   1      40.379  26.385  26.735  1.00  0.00     0.200 A 
ATOM     72  F   UNL A   1      41.755  27.973  25.658  1.00  0.00    -0.200 F 
ATOM     73  F   UNL A   1      40.434  25.586  25.659  1.00  0.00    -0.200 F 
ENDBRANCH  49  63
BRANCH  50  74
ATOM     74  C   UNL A   1      39.535  33.954  37.013  1.00  0.00     0.064 A 
ATOM     75  C   UNL A   1      40.131  35.221  37.080  1.00  0.00     0.173 A 
ATOM     76  C   UNL A   1      38.782  33.526  38.116  1.00  0.00     0.173 A 
ATOM     77  F   UNL A   1      40.874  35.665  36.056  1.00  0.00    -0.203 F 
ATOM     78  C   UNL A   1      39.991  36.023  38.210  1.00  0.00     0.198 A 
ATOM     79  C   UNL A   1      38.623  34.339  39.237  1.00  0.00     0.198 A 
ATOM     80  F   UNL A   1      38.186  32.325  38.098  1.00  0.00    -0.203 F 
ATOM     81  F   UNL A   1      40.598  37.216  38.262  1.00  0.00    -0.200 F 
ATOM     82  C   UNL A   1      39.232  35.584  39.285  1.00  0.00     0.200 A 
ATOM     83  F   UNL A   1      37.877  33.918  40.267  1.00  0.00    -0.200 F 
ATOM     84  F   UNL A   1      39.089  36.360  40.369  1.00  0.00    -0.200 F 
ENDBRANCH  50  74
BRANCH  62  85
ATOM     85  C   UNL A   1      43.866  28.789  35.238  1.00  0.00     0.064 A 
ATOM     86  C   UNL A   1      43.698  27.723  36.134  1.00  0.00     0.173 A 
ATOM     87  C   UNL A   1      45.172  29.227  34.971  1.00  0.00     0.173 A 
ATOM     88  F   UNL A   1      42.468  27.280  36.433  1.00  0.00    -0.203 F 
ATOM     89  C   UNL A   1      44.796  27.134  36.757  1.00  0.00     0.198 A 
ATOM     90  C   UNL A   1      46.268  28.618  35.575  1.00  0.00     0.198 A 
ATOM     91  F   UNL A   1      45.384  30.239  34.117  1.00  0.00    -0.203 F 
ATOM     92  F   UNL A   1      44.611  26.145  37.642  1.00  0.00    -0.200 F 
ATOM     93  C   UNL A   1      46.079  27.576  36.471  1.00  0.00     0.200 A 
ATOM     94  F   UNL A   1      47.508  29.040  35.290  1.00  0.00    -0.200 F 
ATOM     95  F   UNL A   1      47.135  27.004  37.065  1.00  0.00    -0.200 F 
ENDBRANCH  62  85
ENDBRANCH  36  37
ENDBRANCH  28  31
ENDBRANCH  26  27
ENDBRANCH  25  26
ENDBRANCH   1  25
TORSDOF 14
ENDMDL
MODEL 2
REMARK VINA RESULT:     -12.7      0.659      1.740
REMARK SMILES Cc1cnc(NC(=O)NC[C@H]2CC[C@H](C(=O)NCCCCNC(=O)c3ccc(-c4c5nc(c(-c6c(F)c(F)c(F)c(F)c6F)c6ccc([nH]6)c(-c6c(F)c(F)c(F)c(F)c6F)c6nc(c(-c7c(F)c(F)c(F)c(F)c7F)c7ccc4[nH]7)C=C6)C=C5)cc3)O2)s1
REMARK SMILES IDX 19 1 18 2 17 3 15 4 16 5 14 7 11 8 12 9 88 10 13 11 10 12
REMARK SMILES IDX 9 13 6 14 7 15 8 17 5 19 1 20 2 21 3 22 89 23 4 24 20 25
REMARK SMILES IDX 21 26 22 27 23 28 24 30 25 31 26 32 87 33 27 34 86 35 28 36
REMARK SMILES IDX 29 37 30 38 80 39 31 40 85 41 79 42 81 43 32 44 84 45 78 46
REMARK SMILES IDX 77 47 33 49 65 50 45 51 64 52 46 53 49 54 63 55 82 56 47 57
REMARK SMILES IDX 48 58 62 60 83 61 50 62 34 63 35 64 43 65 36 66 37 67 41 68
REMARK SMILES IDX 44 69 38 70 39 71 42 72 40 73 66 74 67 75 75 76 68 77 69 78
REMARK SMILES IDX 73 79 76 80 70 81 71 82 74 83 72 84 51 85 52 86 60 87 53 88
REMARK SMILES IDX 54 89 58 90 61 91 55 92 56 93 59 94 57 95
REMARK H PARENT 17 6 6 16 9 18 22 29 81 48 49 59
REMARK Flexibility Score: inf
ROOT
ATOM      1  C   UNL A   1      31.858  30.127  26.930  1.00  0.00     0.023 C 
ENDROOT
BRANCH   1   2
ATOM      2  C   UNL A   1      33.138  29.333  26.663  1.00  0.00     0.116 C 
BRANCH   2   3
ATOM      3  N   UNL A   1      33.631  29.533  25.320  1.00  0.00    -0.354 N 
ATOM      4  C   UNL A   1      33.411  28.815  24.182  1.00  0.00     0.249 C 
ATOM      5  O   UNL A   1      33.946  29.234  23.149  1.00  0.00    -0.272 OA
ATOM      6  H   UNL A   1      34.219  30.315  25.209  1.00  0.00     0.163 HD
BRANCH   4   7
ATOM      7  C   UNL A   1      32.615  27.484  24.167  1.00  0.00     0.207 C 
ATOM      8  C   UNL A   1      31.144  26.547  25.736  1.00  0.00     0.138 C 
ATOM      9  C   UNL A   1      32.525  26.027  26.058  1.00  0.00     0.037 C 
ATOM     10  O   UNL A   1      31.278  27.496  24.667  1.00  0.00    -0.363 OA
ATOM     11  C   UNL A   1      33.374  26.373  24.870  1.00  0.00     0.045 C 
BRANCH   8  12
ATOM     12  C   UNL A   1      30.024  25.532  25.469  1.00  0.00     0.149 C 
BRANCH  12  13
ATOM     13  N   UNL A   1      29.751  24.529  26.484  1.00  0.00    -0.335 N 
ATOM     14  N   UNL A   1      30.972  22.483  26.230  1.00  0.00    -0.284 N 
ATOM     15  C   UNL A   1      30.153  23.320  26.866  1.00  0.00     0.321 C 
ATOM     16  H   UNL A   1      30.943  21.578  26.618  1.00  0.00     0.174 HD
ATOM     17  O   UNL A   1      29.600  22.881  27.884  1.00  0.00    -0.248 OA
ATOM     18  H   UNL A   1      29.038  24.847  27.084  1.00  0.00     0.165 HD
BRANCH  14  19
ATOM     19  C   UNL A   1      31.837  22.555  25.188  1.00  0.00     0.190 A 
ATOM     20  C   UNL A   1      35.126  23.126  23.302  1.00  0.00     0.058 C 
ATOM     21  C   UNL A   1      33.751  22.828  23.772  1.00  0.00     0.023 A 
ATOM     22  C   UNL A   1      32.537  23.134  23.190  1.00  0.00     0.128 A 
ATOM     23  S   UNL A   1      33.455  22.041  25.268  1.00  0.00    -0.102 S 
ATOM     24  N   UNL A   1      31.434  22.918  23.991  1.00  0.00    -0.228 NA
ENDBRANCH  14  19
ENDBRANCH  12  13
ENDBRANCH   8  12
ENDBRANCH   4   7
ENDBRANCH   2   3
ENDBRANCH   1   2
BRANCH   1  25
ATOM     25  C   UNL A   1      31.941  31.611  26.574  1.00  0.00     0.023 C 
BRANCH  25  26
ATOM     26  C   UNL A   1      32.876  32.429  27.457  1.00  0.00     0.116 C 
BRANCH  26  27
ATOM     27  N   UNL A   1      32.465  33.814  27.636  1.00  0.00    -0.352 N 
ATOM     28  C   UNL A   1      33.017  34.752  28.481  1.00  0.00     0.251 C 
ATOM     29  H   UNL A   1      31.704  34.115  27.089  1.00  0.00     0.163 HD
ATOM     30  O   UNL A   1      32.523  35.863  28.600  1.00  0.00    -0.269 OA
BRANCH  28  31
ATOM     31  C   UNL A   1      34.192  34.362  29.290  1.00  0.00     0.039 A 
ATOM     32  C   UNL A   1      33.986  33.783  30.543  1.00  0.00     0.014 A 
ATOM     33  C   UNL A   1      35.481  34.491  28.768  1.00  0.00     0.014 A 
ATOM     34  C   UNL A   1      35.072  33.254  31.241  1.00  0.00     0.010 A 
ATOM     35  C   UNL A   1      36.550  33.899  29.429  1.00  0.00     0.010 A 
ATOM     36  C   UNL A   1      36.355  33.269  30.668  1.00  0.00    -0.014 A 
BRANCH  36  37
ATOM     37  C   UNL A   1      37.507  32.624  31.342  1.00  0.00     0.031 A 
ATOM     38  C   UNL A   1      38.206  31.466  30.689  1.00  0.00     0.074 A 
ATOM     39  C   UNL A   1      37.867  33.023  32.577  1.00  0.00     0.049 A 
ATOM     40  N   UNL A   1      39.174  30.715  31.151  1.00  0.00    -0.248 NA
ATOM     41  C   UNL A   1      37.728  31.079  29.353  1.00  0.00     0.031 C 
ATOM     42  C   UNL A   1      37.219  34.089  33.342  1.00  0.00     0.029 A 
ATOM     43  N   UNL A   1      38.853  32.564  33.412  1.00  0.00    -0.354 N 
ATOM     44  C   UNL A   1      39.409  29.763  30.169  1.00  0.00     0.074 A 
ATOM     45  C   UNL A   1      38.444  29.990  29.116  1.00  0.00     0.031 C 
ATOM     46  C   UNL A   1      37.833  34.211  34.530  1.00  0.00     0.029 A 
ATOM     47  C   UNL A   1      38.897  33.215  34.621  1.00  0.00     0.049 A 
ATOM     48  H   UNL A   1      39.471  31.837  33.169  1.00  0.00     0.167 HD
ATOM     49  C   UNL A   1      40.363  28.802  30.136  1.00  0.00     0.037 A 
ATOM     50  C   UNL A   1      39.703  33.026  35.684  1.00  0.00     0.037 A 
ATOM     51  C   UNL A   1      41.336  28.592  31.175  1.00  0.00     0.049 A 
ATOM     52  C   UNL A   1      40.771  31.970  35.616  1.00  0.00     0.074 A 
ATOM     53  C   UNL A   1      42.381  27.687  31.213  1.00  0.00     0.029 A 
ATOM     54  N   UNL A   1      41.381  29.305  32.366  1.00  0.00    -0.354 N 
ATOM     55  N   UNL A   1      41.034  31.121  34.651  1.00  0.00    -0.248 NA
ATOM     56  C   UNL A   1      41.661  31.852  36.778  1.00  0.00     0.031 C 
ATOM     57  C   UNL A   1      43.037  27.826  32.441  1.00  0.00     0.029 A 
ATOM     58  C   UNL A   1      42.427  28.849  33.151  1.00  0.00     0.049 A 
ATOM     59  H   UNL A   1      40.761  30.028  32.615  1.00  0.00     0.167 HD
ATOM     60  C   UNL A   1      42.128  30.384  35.079  1.00  0.00     0.074 A 
ATOM     61  C   UNL A   1      42.492  30.896  36.384  1.00  0.00     0.031 C 
ATOM     62  C   UNL A   1      42.774  29.372  34.448  1.00  0.00     0.037 A 
BRANCH  49  63
ATOM     63  C   UNL A   1      40.398  27.913  28.927  1.00  0.00     0.064 A 
ATOM     64  C   UNL A   1      41.146  28.255  27.789  1.00  0.00     0.173 A 
ATOM     65  C   UNL A   1      39.683  26.707  28.904  1.00  0.00     0.173 A 
ATOM     66  F   UNL A   1      41.836  29.405  27.754  1.00  0.00    -0.203 F 
ATOM     67  C   UNL A   1      41.142  27.443  26.658  1.00  0.00     0.198 A 
ATOM     68  C   UNL A   1      39.707  25.882  27.783  1.00  0.00     0.198 A 
ATOM     69  F   UNL A   1      38.956  26.331  29.967  1.00  0.00    -0.203 F 
ATOM     70  F   UNL A   1      41.812  27.821  25.562  1.00  0.00    -0.200 F 
ATOM     71  C   UNL A   1      40.427  26.255  26.658  1.00  0.00     0.200 A 
ATOM     72  F   UNL A   1      39.024  24.728  27.787  1.00  0.00    -0.200 F 
ATOM     73  F   UNL A   1      40.423  25.475  25.567  1.00  0.00    -0.200 F 
ENDBRANCH  49  63
BRANCH  50  74
ATOM     74  C   UNL A   1      39.545  33.881  36.887  1.00  0.00     0.064 A 
ATOM     75  C   UNL A   1      40.147  35.144  36.956  1.00  0.00     0.173 A 
ATOM     76  C   UNL A   1      38.773  33.463  37.981  1.00  0.00     0.173 A 
ATOM     77  F   UNL A   1      40.909  35.579  35.941  1.00  0.00    -0.203 F 
ATOM     78  C   UNL A   1      39.996  35.953  38.080  1.00  0.00     0.198 A 
ATOM     79  C   UNL A   1      38.602  34.283  39.095  1.00  0.00     0.198 A 
ATOM     80  F   UNL A   1      38.169  32.266  37.960  1.00  0.00    -0.203 F 
ATOM     81  F   UNL A   1      40.609  37.142  38.135  1.00  0.00    -0.200 F 
ATOM     82  C   UNL A   1      39.218  35.525  39.146  1.00  0.00     0.200 A 
ATOM     83  F   UNL A   1      37.838  33.872  40.116  1.00  0.00    -0.200 F 
ATOM     84  F   UNL A   1      39.064  36.307  40.224  1.00  0.00    -0.200 F 
ENDBRANCH  50  74
BRANCH  62  85
ATOM     85  C   UNL A   1      43.952  28.767  35.151  1.00  0.00     0.064 A 
ATOM     86  C   UNL A   1      45.247  29.280  34.986  1.00  0.00     0.173 A 
ATOM     87  C   UNL A   1      43.777  27.690  36.034  1.00  0.00     0.173 A 
ATOM     88  F   UNL A   1      45.467  30.298  34.141  1.00  0.00    -0.203 F 
ATOM     89  C   UNL A   1      46.328  28.723  35.665  1.00  0.00     0.198 A 
ATOM     90  C   UNL A   1      44.855  27.154  36.731  1.00  0.00     0.198 A 
ATOM     91  F   UNL A   1      42.557  27.169  36.229  1.00  0.00    -0.203 F 
ATOM     92  F   UNL A   1      47.563  29.202  35.461  1.00  0.00    -0.200 F 
ATOM     93  C   UNL A   1      46.130  27.667  36.542  1.00  0.00     0.200 A 
ATOM     94  F   UNL A   1      44.661  26.140  37.585  1.00  0.00    -0.200 F 
ATOM     95  F   UNL A   1      47.170  27.137  37.200  1.00  0.00    -0.200 F 
ENDBRANCH  62  85
ENDBRANCH  36  37
ENDBRANCH  28  31
ENDBRANCH  26  27
ENDBRANCH  25  26
ENDBRANCH   1  25
TORSDOF 14
ENDMDL
MODEL 3
REMARK VINA RESULT:     -12.6      0.958      7.555
REMARK SMILES Cc1cnc(NC(=O)NC[C@H]2CC[C@H](C(=O)NCCCCNC(=O)c3ccc(-c4c5nc(c(-c6c(F)c(F)c(F)c(F)c6F)c6ccc([nH]6)c(-c6c(F)c(F)c(F)c(F)c6F)c6nc(c(-c7c(F)c(F)c(F)c(F)c7F)c7ccc4[nH]7)C=C6)C=C5)cc3)O2)s1
REMARK SMILES IDX 19 1 18 2 17 3 15 4 16 5 14 7 11 8 12 9 88 10 13 11 10 12
REMARK SMILES IDX 9 13 6 14 7 15 8 17 5 19 1 20 2 21 3 22 89 23 4 24 20 25
REMARK SMILES IDX 21 26 22 27 23 28 24 30 25 31 26 32 87 33 27 34 86 35 28 36
REMARK SMILES IDX 29 37 30 38 80 39 31 40 85 41 79 42 81 43 32 44 84 45 78 46
REMARK SMILES IDX 77 47 33 49 65 50 45 51 64 52 46 53 49 54 63 55 82 56 47 57
REMARK SMILES IDX 48 58 62 60 83 61 50 62 34 63 35 64 43 65 36 66 37 67 41 68
REMARK SMILES IDX 44 69 38 70 39 71 42 72 40 73 66 74 67 75 75 76 68 77 69 78
REMARK SMILES IDX 73 79 76 80 70 81 71 82 74 83 72 84 51 85 52 86 60 87 53 88
REMARK SMILES IDX 54 89 58 90 61 91 55 92 56 93 59 94 57 95
REMARK H PARENT 17 6 6 16 9 18 22 29 81 48 49 59
REMARK Flexibility Score: inf
ROOT
ATOM      1  C   UNL A   1      31.802  30.410  26.734  1.00  0.00     0.023 C 
ENDROOT
BRANCH   1   2
ATOM      2  C   UNL A   1      33.144  29.847  26.264  1.00  0.00     0.116 C 
BRANCH   2   3
ATOM      3  N   UNL A   1      33.228  29.774  24.824  1.00  0.00    -0.354 N 
ATOM      4  C   UNL A   1      32.720  28.855  23.954  1.00  0.00     0.249 C 
ATOM      5  O   UNL A   1      32.923  29.056  22.751  1.00  0.00    -0.272 OA
ATOM      6  H   UNL A   1      33.731  30.508  24.402  1.00  0.00     0.163 HD
BRANCH   4   7
ATOM      7  C   UNL A   1      32.001  27.563  24.422  1.00  0.00     0.207 C 
ATOM      8  C   UNL A   1      30.939  25.860  23.206  1.00  0.00     0.138 C 
ATOM      9  C   UNL A   1      29.885  26.888  23.544  1.00  0.00     0.037 C 
ATOM     10  O   UNL A   1      32.202  26.371  23.662  1.00  0.00    -0.363 OA
ATOM     11  C   UNL A   1      30.507  27.782  24.577  1.00  0.00     0.045 C 
BRANCH   8  12
ATOM     12  C   UNL A   1      30.711  24.407  23.647  1.00  0.00     0.149 C 
BRANCH  12  13
ATOM     13  N   UNL A   1      30.438  24.151  25.051  1.00  0.00    -0.335 N 
ATOM     14  N   UNL A   1      32.361  23.573  26.359  1.00  0.00    -0.284 N 
ATOM     15  C   UNL A   1      31.076  23.877  26.186  1.00  0.00     0.321 C 
ATOM     16  H   UNL A   1      32.533  23.212  27.259  1.00  0.00     0.174 HD
ATOM     17  O   UNL A   1      30.348  23.781  27.184  1.00  0.00    -0.248 OA
ATOM     18  H   UNL A   1      29.469  24.195  25.215  1.00  0.00     0.165 HD
BRANCH  14  19
ATOM     19  C   UNL A   1      33.494  23.633  25.617  1.00  0.00     0.190 A 
ATOM     20  C   UNL A   1      36.626  22.424  23.765  1.00  0.00     0.058 C 
ATOM     21  C   UNL A   1      35.489  23.153  24.379  1.00  0.00     0.023 A 
ATOM     22  C   UNL A   1      35.470  24.377  25.017  1.00  0.00     0.128 A 
ATOM     23  S   UNL A   1      33.909  22.484  24.435  1.00  0.00    -0.102 S 
ATOM     24  N   UNL A   1      34.296  24.672  25.678  1.00  0.00    -0.228 NA
ENDBRANCH  14  19
ENDBRANCH  12  13
ENDBRANCH   8  12
ENDBRANCH   4   7
ENDBRANCH   2   3
ENDBRANCH   1   2
BRANCH   1  25
ATOM     25  C   UNL A   1      31.678  31.930  26.637  1.00  0.00     0.023 C 
BRANCH  25  26
ATOM     26  C   UNL A   1      32.776  32.709  27.352  1.00  0.00     0.116 C 
BRANCH  26  27
ATOM     27  N   UNL A   1      32.425  34.088  27.657  1.00  0.00    -0.352 N 
ATOM     28  C   UNL A   1      33.013  34.920  28.585  1.00  0.00     0.251 C 
ATOM     29  H   UNL A   1      31.680  34.472  27.139  1.00  0.00     0.163 HD
ATOM     30  O   UNL A   1      32.568  36.036  28.805  1.00  0.00    -0.269 OA
BRANCH  28  31
ATOM     31  C   UNL A   1      34.167  34.406  29.354  1.00  0.00     0.039 A 
ATOM     32  C   UNL A   1      33.928  33.671  30.516  1.00  0.00     0.014 A 
ATOM     33  C   UNL A   1      35.468  34.581  28.876  1.00  0.00     0.014 A 
ATOM     34  C   UNL A   1      34.993  33.037  31.157  1.00  0.00     0.010 A 
ATOM     35  C   UNL A   1      36.514  33.887  29.471  1.00  0.00     0.010 A 
ATOM     36  C   UNL A   1      36.286  33.104  30.613  1.00  0.00    -0.014 A 
BRANCH  36  37
ATOM     37  C   UNL A   1      37.415  32.355  31.215  1.00  0.00     0.031 A 
ATOM     38  C   UNL A   1      37.926  32.734  32.575  1.00  0.00     0.074 A 
ATOM     39  C   UNL A   1      38.035  31.396  30.502  1.00  0.00     0.049 A 
ATOM     40  N   UNL A   1      38.952  32.262  33.237  1.00  0.00    -0.248 NA
ATOM     41  C   UNL A   1      37.207  33.813  33.270  1.00  0.00     0.031 C 
ATOM     42  C   UNL A   1      37.676  30.987  29.143  1.00  0.00     0.029 A 
ATOM     43  N   UNL A   1      39.111  30.604  30.815  1.00  0.00    -0.354 N 
ATOM     44  C   UNL A   1      39.008  32.994  34.414  1.00  0.00     0.074 A 
ATOM     45  C   UNL A   1      37.953  33.982  34.350  1.00  0.00     0.031 C 
ATOM     46  C   UNL A   1      38.509  30.012  28.744  1.00  0.00     0.029 A 
ATOM     47  C   UNL A   1      39.475  29.747  29.806  1.00  0.00     0.049 A 
ATOM     48  H   UNL A   1      39.578  30.645  31.681  1.00  0.00     0.167 HD
ATOM     49  C   UNL A   1      39.846  32.838  35.467  1.00  0.00     0.037 A 
ATOM     50  C   UNL A   1      40.480  28.851  29.743  1.00  0.00     0.037 A 
ATOM     51  C   UNL A   1      40.879  31.840  35.536  1.00  0.00     0.049 A 
ATOM     52  C   UNL A   1      41.383  28.678  30.933  1.00  0.00     0.074 A 
ATOM     53  C   UNL A   1      41.743  31.559  36.580  1.00  0.00     0.029 A 
ATOM     54  N   UNL A   1      41.188  30.954  34.512  1.00  0.00    -0.354 N 
ATOM     55  N   UNL A   1      41.381  29.325  32.073  1.00  0.00    -0.248 NA
ATOM     56  C   UNL A   1      42.419  27.641  30.832  1.00  0.00     0.031 C 
ATOM     57  C   UNL A   1      42.598  30.528  36.175  1.00  0.00     0.029 A 
ATOM     58  C   UNL A   1      42.238  30.136  34.895  1.00  0.00     0.049 A 
ATOM     59  H   UNL A   1      40.728  30.914  33.643  1.00  0.00     0.167 HD
ATOM     60  C   UNL A   1      42.398  28.765  32.832  1.00  0.00     0.074 A 
ATOM     61  C   UNL A   1      42.987  27.712  32.030  1.00  0.00     0.031 C 
ATOM     62  C   UNL A   1      42.810  29.094  34.081  1.00  0.00     0.037 A 
BRANCH  49  63
ATOM     63  C   UNL A   1      39.665  33.769  36.630  1.00  0.00     0.064 A 
ATOM     64  C   UNL A   1      40.302  35.020  36.672  1.00  0.00     0.173 A 
ATOM     65  C   UNL A   1      38.845  33.414  37.710  1.00  0.00     0.173 A 
ATOM     66  F   UNL A   1      41.108  35.402  35.670  1.00  0.00    -0.203 F 
ATOM     67  C   UNL A   1      40.157  35.861  37.772  1.00  0.00     0.198 A 
ATOM     68  C   UNL A   1      38.678  34.271  38.795  1.00  0.00     0.198 A 
ATOM     69  F   UNL A   1      38.210  32.233  37.718  1.00  0.00    -0.203 F 
ATOM     70  F   UNL A   1      40.825  37.022  37.818  1.00  0.00    -0.200 F 
ATOM     71  C   UNL A   1      39.342  35.488  38.830  1.00  0.00     0.200 A 
ATOM     72  F   UNL A   1      37.882  33.915  39.813  1.00  0.00    -0.200 F 
ATOM     73  F   UNL A   1      39.206  36.298  39.890  1.00  0.00    -0.200 F 
ENDBRANCH  49  63
BRANCH  50  74
ATOM     74  C   UNL A   1      40.658  28.032  28.519  1.00  0.00     0.064 A 
ATOM     75  C   UNL A   1      40.033  26.784  28.390  1.00  0.00     0.173 A 
ATOM     76  C   UNL A   1      41.438  28.486  27.445  1.00  0.00     0.173 A 
ATOM     77  F   UNL A   1      39.292  26.300  29.399  1.00  0.00    -0.203 F 
ATOM     78  C   UNL A   1      40.192  26.014  27.240  1.00  0.00     0.198 A 
ATOM     79  C   UNL A   1      41.576  27.726  26.285  1.00  0.00     0.198 A 
ATOM     80  F   UNL A   1      42.050  29.677  27.516  1.00  0.00    -0.203 F 
ATOM     81  F   UNL A   1      39.610  24.810  27.156  1.00  0.00    -0.200 F 
ATOM     82  C   UNL A   1      40.957  26.489  26.186  1.00  0.00     0.200 A 
ATOM     83  F   UNL A   1      42.305  28.195  25.263  1.00  0.00    -0.200 F 
ATOM     84  F   UNL A   1      41.102  25.753  25.075  1.00  0.00    -0.200 F 
ENDBRANCH  50  74
BRANCH  62  85
ATOM     85  C   UNL A   1      43.935  28.292  34.665  1.00  0.00     0.064 A 
ATOM     86  C   UNL A   1      45.268  28.715  34.560  1.00  0.00     0.173 A 
ATOM     87  C   UNL A   1      43.672  27.112  35.378  1.00  0.00     0.173 A 
ATOM     88  F   UNL A   1      45.571  29.828  33.875  1.00  0.00    -0.203 F 
ATOM     89  C   UNL A   1      46.300  27.973  35.128  1.00  0.00     0.198 A 
ATOM     90  C   UNL A   1      44.704  26.388  35.967  1.00  0.00     0.198 A 
ATOM     91  F   UNL A   1      42.413  26.670  35.511  1.00  0.00    -0.203 F 
ATOM     92  F   UNL A   1      47.571  28.373  34.979  1.00  0.00    -0.200 F 
ATOM     93  C   UNL A   1      46.017  26.815  35.838  1.00  0.00     0.200 A 
ATOM     94  F   UNL A   1      44.428  25.275  36.661  1.00  0.00    -0.200 F 
ATOM     95  F   UNL A   1      47.010  26.106  36.390  1.00  0.00    -0.200 F 
ENDBRANCH  62  85
ENDBRANCH  36  37
ENDBRANCH  28  31
ENDBRANCH  26  27
ENDBRANCH  25  26
ENDBRANCH   1  25
TORSDOF 14
ENDMDL
