MODEL 1
REMARK VINA RESULT:     -13.4      0.000      0.000
REMARK SMILES [NH3+][C@H]1CN(C(=O)OCC2c3ccccc3-c3ccccc32)C[C@@H]1C(=O)NCCCCNC(=O)c1ccc(-c2c3nc(c(-c4c(F)c(F)c(F)c(F)c4F)c4ccc([nH]4)c(-c4c(F)c(F)c(F)c(F)c4F)c4nc(c(-c5c(F)c(F)c(F)c(F)c5F)c5ccc2[nH]5)C=C4)C=C3)cc1
REMARK SMILES IDX 27 1 26 2 24 3 25 4 23 6 2 7 3 8 4 9 22 10 1 11 5 15 6 16
REMARK SMILES IDX 7 17 8 18 9 19 10 20 21 21 11 22 15 23 16 24 20 25 12 26
REMARK SMILES IDX 14 27 17 28 19 29 13 30 18 31 28 32 29 33 30 34 31 35 32 36
REMARK SMILES IDX 33 38 34 39 35 40 96 41 36 42 95 43 37 44 38 45 39 46 89 47
REMARK SMILES IDX 40 48 94 49 88 50 90 51 41 52 93 53 87 54 86 55 42 57 74 58
REMARK SMILES IDX 54 59 73 60 55 61 58 62 72 63 91 64 56 65 57 66 71 68 92 69
REMARK SMILES IDX 59 70 43 71 44 72 52 73 45 74 46 75 50 76 53 77 47 78 48 79
REMARK SMILES IDX 51 80 49 81 75 82 76 83 84 84 77 85 78 86 82 87 85 88 79 89
REMARK SMILES IDX 80 90 83 91 81 92 60 93 61 94 69 95 62 96 63 97 67 98 70 99
REMARK SMILES IDX 64 100 65 101 68 102 66 103
REMARK H PARENT 26 5 1 12 1 13 1 14 31 37 90 56 58 67
REMARK Flexibility Score: inf
ROOT
ATOM      1  C   UNL A   1      33.026  30.272  26.103  1.00  0.00     0.116 C 
ENDROOT
BRANCH   1   2
ATOM      2  N   UNL A   1      33.117  28.836  25.906  1.00  0.00    -0.356 N 
ATOM      3  C   UNL A   1      32.785  28.083  24.819  1.00  0.00     0.231 C 
ATOM      4  O   UNL A   1      32.639  26.871  24.978  1.00  0.00    -0.274 OA
ATOM      5  H   UNL A   1      33.471  28.330  26.672  1.00  0.00     0.163 HD
BRANCH   3   6
ATOM      6  C   UNL A   1      32.691  28.742  23.456  1.00  0.00     0.158 C 
ATOM      7  C   UNL A   1      31.264  28.723  22.885  1.00  0.00     0.215 C 
ATOM      8  C   UNL A   1      31.177  27.387  22.117  1.00  0.00     0.188 C 
ATOM      9  N   UNL A   1      32.544  26.946  21.940  1.00  0.00    -0.301 N 
ATOM     10  C   UNL A   1      33.495  27.893  22.482  1.00  0.00     0.143 C 
BRANCH   7  11
ATOM     11  N   UNL A   1      31.073  29.881  21.990  1.00  0.00    -0.353 N 
ATOM     12  H   UNL A   1      31.139  30.744  22.530  1.00  0.00     0.344 HD
ATOM     13  H   UNL A   1      30.153  29.824  21.552  1.00  0.00     0.344 HD
ATOM     14  H   UNL A   1      31.793  29.876  21.267  1.00  0.00     0.344 HD
ENDBRANCH   7  11
BRANCH   9  15
ATOM     15  C   UNL A   1      32.906  25.698  21.510  1.00  0.00     0.410 C 
ATOM     16  O   UNL A   1      33.126  25.425  20.341  1.00  0.00    -0.224 OA
BRANCH  15  17
ATOM     17  O   UNL A   1      32.866  24.792  22.526  1.00  0.00    -0.448 OA
BRANCH  17  18
ATOM     18  C   UNL A   1      33.144  23.430  22.148  1.00  0.00     0.248 C 
BRANCH  18  19
ATOM     19  C   UNL A   1      33.523  22.548  23.360  1.00  0.00     0.088 C 
ATOM     20  C   UNL A   1      34.894  22.861  23.961  1.00  0.00    -0.029 A 
ATOM     21  C   UNL A   1      32.607  22.853  24.548  1.00  0.00    -0.029 A 
ATOM     22  C   UNL A   1      36.153  22.641  23.424  1.00  0.00     0.005 A 
ATOM     23  C   UNL A   1      34.750  23.436  25.240  1.00  0.00    -0.014 A 
ATOM     24  C   UNL A   1      33.356  23.391  25.618  1.00  0.00    -0.014 A 
ATOM     25  C   UNL A   1      31.240  22.647  24.662  1.00  0.00     0.005 A 
ATOM     26  C   UNL A   1      37.266  23.128  24.111  1.00  0.00     0.000 A 
ATOM     27  C   UNL A   1      35.856  23.907  25.932  1.00  0.00     0.009 A 
ATOM     28  C   UNL A   1      32.743  23.722  26.814  1.00  0.00     0.009 A 
ATOM     29  C   UNL A   1      30.622  22.984  25.870  1.00  0.00     0.000 A 
ATOM     30  C   UNL A   1      37.118  23.773  25.346  1.00  0.00     0.001 A 
ATOM     31  C   UNL A   1      31.366  23.515  26.936  1.00  0.00     0.001 A 
ENDBRANCH  18  19
ENDBRANCH  17  18
ENDBRANCH  15  17
ENDBRANCH   9  15
ENDBRANCH   3   6
ENDBRANCH   1   2
BRANCH   1  32
ATOM     32  C   UNL A   1      31.570  30.693  26.307  1.00  0.00     0.023 C 
BRANCH  32  33
ATOM     33  C   UNL A   1      31.389  32.170  26.672  1.00  0.00     0.023 C 
BRANCH  33  34
ATOM     34  C   UNL A   1      32.657  32.874  27.141  1.00  0.00     0.116 C 
BRANCH  34  35
ATOM     35  N   UNL A   1      32.410  34.233  27.592  1.00  0.00    -0.352 N 
ATOM     36  C   UNL A   1      32.995  34.926  28.623  1.00  0.00     0.251 C 
ATOM     37  H   UNL A   1      31.724  34.728  27.088  1.00  0.00     0.163 HD
ATOM     38  O   UNL A   1      32.549  36.018  28.962  1.00  0.00    -0.269 OA
BRANCH  36  39
ATOM     39  C   UNL A   1      34.150  34.346  29.343  1.00  0.00     0.039 A 
ATOM     40  C   UNL A   1      33.913  33.588  30.493  1.00  0.00     0.014 A 
ATOM     41  C   UNL A   1      35.457  34.550  28.895  1.00  0.00     0.014 A 
ATOM     42  C   UNL A   1      34.985  32.999  31.166  1.00  0.00     0.010 A 
ATOM     43  C   UNL A   1      36.514  33.888  29.513  1.00  0.00     0.010 A 
ATOM     44  C   UNL A   1      36.293  33.121  30.666  1.00  0.00    -0.014 A 
BRANCH  44  45
ATOM     45  C   UNL A   1      37.440  32.480  31.359  1.00  0.00     0.031 A 
ATOM     46  C   UNL A   1      38.156  31.322  30.720  1.00  0.00     0.074 A 
ATOM     47  C   UNL A   1      37.808  32.906  32.581  1.00  0.00     0.049 A 
ATOM     48  N   UNL A   1      39.158  30.610  31.175  1.00  0.00    -0.248 NA
ATOM     49  C   UNL A   1      37.661  30.883  29.405  1.00  0.00     0.031 C 
ATOM     50  C   UNL A   1      37.162  33.983  33.331  1.00  0.00     0.029 A 
ATOM     51  N   UNL A   1      38.815  32.480  33.411  1.00  0.00    -0.354 N 
ATOM     52  C   UNL A   1      39.400  29.639  30.213  1.00  0.00     0.074 A 
ATOM     53  C   UNL A   1      38.397  29.807  29.184  1.00  0.00     0.031 C 
ATOM     54  C   UNL A   1      37.805  34.153  34.498  1.00  0.00     0.029 A 
ATOM     55  C   UNL A   1      38.882  33.174  34.595  1.00  0.00     0.049 A 
ATOM     56  H   UNL A   1      39.431  31.747  33.180  1.00  0.00     0.167 HD
ATOM     57  C   UNL A   1      40.387  28.712  30.173  1.00  0.00     0.037 A 
ATOM     58  C   UNL A   1      39.717  33.033  35.642  1.00  0.00     0.037 A 
ATOM     59  C   UNL A   1      41.388  28.555  31.196  1.00  0.00     0.049 A 
ATOM     60  C   UNL A   1      40.801  31.990  35.583  1.00  0.00     0.074 A 
ATOM     61  C   UNL A   1      42.460  27.681  31.229  1.00  0.00     0.029 A 
ATOM     62  N   UNL A   1      41.433  29.286  32.375  1.00  0.00    -0.354 N 
ATOM     63  N   UNL A   1      41.069  31.125  34.634  1.00  0.00    -0.248 NA
ATOM     64  C   UNL A   1      41.708  31.915  36.735  1.00  0.00     0.031 C 
ATOM     65  C   UNL A   1      43.115  27.839  32.456  1.00  0.00     0.029 A 
ATOM     66  C   UNL A   1      42.499  28.864  33.155  1.00  0.00     0.049 A 
ATOM     67  H   UNL A   1      40.801  29.999  32.622  1.00  0.00     0.167 HD
ATOM     68  C   UNL A   1      42.192  30.428  35.057  1.00  0.00     0.074 A 
ATOM     69  C   UNL A   1      42.563  30.982  36.343  1.00  0.00     0.031 C 
ATOM     70  C   UNL A   1      42.860  29.424  34.434  1.00  0.00     0.037 A 
BRANCH  57  71
ATOM     71  C   UNL A   1      40.415  27.788  28.985  1.00  0.00     0.064 A 
ATOM     72  C   UNL A   1      41.184  28.071  27.845  1.00  0.00     0.173 A 
ATOM     73  C   UNL A   1      39.665  26.603  28.987  1.00  0.00     0.173 A 
ATOM     74  F   UNL A   1      41.915  29.195  27.784  1.00  0.00    -0.203 F 
ATOM     75  C   UNL A   1      41.158  27.232  26.733  1.00  0.00     0.198 A 
ATOM     76  C   UNL A   1      39.673  25.744  27.890  1.00  0.00     0.198 A 
ATOM     77  F   UNL A   1      38.918  26.274  30.052  1.00  0.00    -0.203 F 
ATOM     78  F   UNL A   1      41.840  27.564  25.628  1.00  0.00    -0.200 F 
ATOM     79  C   UNL A   1      40.408  26.067  26.759  1.00  0.00     0.200 A 
ATOM     80  F   UNL A   1      38.961  24.611  27.923  1.00  0.00    -0.200 F 
ATOM     81  F   UNL A   1      40.383  25.260  25.688  1.00  0.00    -0.200 F 
ENDBRANCH  57  71
BRANCH  58  82
ATOM     82  C   UNL A   1      39.577  33.928  36.820  1.00  0.00     0.064 A 
ATOM     83  C   UNL A   1      38.829  33.538  37.939  1.00  0.00     0.173 A 
ATOM     84  C   UNL A   1      40.201  35.184  36.858  1.00  0.00     0.173 A 
ATOM     85  F   UNL A   1      38.198  32.355  37.945  1.00  0.00    -0.203 F 
ATOM     86  C   UNL A   1      38.697  34.378  39.045  1.00  0.00     0.198 A 
ATOM     87  C   UNL A   1      40.093  36.008  37.975  1.00  0.00     0.198 A 
ATOM     88  F   UNL A   1      40.935  35.601  35.815  1.00  0.00    -0.203 F 
ATOM     89  F   UNL A   1      37.940  33.997  40.084  1.00  0.00    -0.200 F 
ATOM     90  C   UNL A   1      39.335  35.608  39.064  1.00  0.00     0.200 A 
ATOM     91  F   UNL A   1      40.727  37.189  37.998  1.00  0.00    -0.200 F 
ATOM     92  F   UNL A   1      39.216  36.409  40.133  1.00  0.00    -0.200 F 
ENDBRANCH  58  82
BRANCH  70  93
ATOM     93  C   UNL A   1      44.093  28.891  35.112  1.00  0.00     0.064 A 
ATOM     94  C   UNL A   1      45.366  29.429  34.873  1.00  0.00     0.173 A 
ATOM     95  C   UNL A   1      43.991  27.838  36.035  1.00  0.00     0.173 A 
ATOM     96  F   UNL A   1      45.524  30.429  33.991  1.00  0.00    -0.203 F 
ATOM     97  C   UNL A   1      46.495  28.907  35.500  1.00  0.00     0.198 A 
ATOM     98  C   UNL A   1      45.116  27.344  36.690  1.00  0.00     0.198 A 
ATOM     99  F   UNL A   1      42.798  27.292  36.309  1.00  0.00    -0.203 F 
ATOM    100  F   UNL A   1      47.708  29.393  35.206  1.00  0.00    -0.200 F 
ATOM    101  C   UNL A   1      46.368  27.870  36.412  1.00  0.00     0.200 A 
ATOM    102  F   UNL A   1      44.988  26.355  37.584  1.00  0.00    -0.200 F 
ATOM    103  F   UNL A   1      47.455  27.371  37.018  1.00  0.00    -0.200 F 
ENDBRANCH  70  93
ENDBRANCH  44  45
ENDBRANCH  36  39
ENDBRANCH  34  35
ENDBRANCH  33  34
ENDBRANCH  32  33
ENDBRANCH   1  32
TORSDOF 16
ENDMDL
MODEL 2
REMARK VINA RESULT:     -13.3      0.936      2.101
REMARK SMILES [NH3+][C@H]1CN(C(=O)OCC2c3ccccc3-c3ccccc32)C[C@@H]1C(=O)NCCCCNC(=O)c1ccc(-c2c3nc(c(-c4c(F)c(F)c(F)c(F)c4F)c4ccc([nH]4)c(-c4c(F)c(F)c(F)c(F)c4F)c4nc(c(-c5c(F)c(F)c(F)c(F)c5F)c5ccc2[nH]5)C=C4)C=C3)cc1
REMARK SMILES IDX 27 1 26 2 24 3 25 4 23 6 2 7 3 8 4 9 22 10 1 11 5 15 6 16
REMARK SMILES IDX 7 17 8 18 9 19 10 20 21 21 11 22 15 23 16 24 20 25 12 26
REMARK SMILES IDX 14 27 17 28 19 29 13 30 18 31 28 32 29 33 30 34 31 35 32 36
REMARK SMILES IDX 33 38 34 39 35 40 96 41 36 42 95 43 37 44 38 45 39 46 89 47
REMARK SMILES IDX 40 48 94 49 88 50 90 51 41 52 93 53 87 54 86 55 42 57 74 58
REMARK SMILES IDX 54 59 73 60 55 61 58 62 72 63 91 64 56 65 57 66 71 68 92 69
REMARK SMILES IDX 59 70 43 71 44 72 52 73 45 74 46 75 50 76 53 77 47 78 48 79
REMARK SMILES IDX 51 80 49 81 75 82 76 83 84 84 77 85 78 86 82 87 85 88 79 89
REMARK SMILES IDX 80 90 83 91 81 92 60 93 61 94 69 95 62 96 63 97 67 98 70 99
REMARK SMILES IDX 64 100 65 101 68 102 66 103
REMARK H PARENT 26 5 1 12 1 13 1 14 31 37 90 56 58 67
REMARK Flexibility Score: inf
ROOT
ATOM      1  C   UNL A   1      32.872  30.274  26.326  1.00  0.00     0.116 C 
ENDROOT
BRANCH   1   2
ATOM      2  N   UNL A   1      32.835  28.824  26.250  1.00  0.00    -0.356 N 
ATOM      3  C   UNL A   1      32.582  28.013  25.184  1.00  0.00     0.231 C 
ATOM      4  O   UNL A   1      32.286  26.840  25.408  1.00  0.00    -0.274 OA
ATOM      5  H   UNL A   1      33.019  28.357  27.097  1.00  0.00     0.163 HD
BRANCH   3   6
ATOM      6  C   UNL A   1      32.756  28.555  23.778  1.00  0.00     0.158 C 
ATOM      7  C   UNL A   1      31.436  28.599  22.992  1.00  0.00     0.215 C 
ATOM      8  C   UNL A   1      31.342  27.212  22.323  1.00  0.00     0.188 C 
ATOM      9  N   UNL A   1      32.674  26.650  22.397  1.00  0.00    -0.301 N 
ATOM     10  C   UNL A   1      33.616  27.562  23.009  1.00  0.00     0.143 C 
BRANCH   7  11
ATOM     11  N   UNL A   1      31.489  29.686  21.994  1.00  0.00    -0.353 N 
ATOM     12  H   UNL A   1      30.578  29.781  21.544  1.00  0.00     0.344 HD
ATOM     13  H   UNL A   1      32.195  29.466  21.291  1.00  0.00     0.344 HD
ATOM     14  H   UNL A   1      31.733  30.561  22.457  1.00  0.00     0.344 HD
ENDBRANCH   7  11
BRANCH   9  15
ATOM     15  C   UNL A   1      32.979  25.344  22.124  1.00  0.00     0.410 C 
ATOM     16  O   UNL A   1      33.197  24.924  20.998  1.00  0.00    -0.224 OA
BRANCH  15  17
ATOM     17  O   UNL A   1      32.886  24.568  23.239  1.00  0.00    -0.448 OA
BRANCH  17  18
ATOM     18  C   UNL A   1      33.472  23.257  23.129  1.00  0.00     0.248 C 
BRANCH  18  19
ATOM     19  C   UNL A   1      33.742  22.615  24.509  1.00  0.00     0.088 C 
ATOM     20  C   UNL A   1      33.546  21.099  24.547  1.00  0.00    -0.029 A 
ATOM     21  C   UNL A   1      35.226  22.726  24.867  1.00  0.00    -0.029 A 
ATOM     22  C   UNL A   1      32.372  20.368  24.452  1.00  0.00     0.005 A 
ATOM     23  C   UNL A   1      34.785  20.447  24.718  1.00  0.00    -0.014 A 
ATOM     24  C   UNL A   1      35.805  21.441  24.958  1.00  0.00    -0.014 A 
ATOM     25  C   UNL A   1      35.976  23.868  25.108  1.00  0.00     0.005 A 
ATOM     26  C   UNL A   1      32.454  18.976  24.386  1.00  0.00     0.000 A 
ATOM     27  C   UNL A   1      34.868  19.063  24.669  1.00  0.00     0.009 A 
ATOM     28  C   UNL A   1      37.139  21.289  25.297  1.00  0.00     0.009 A 
ATOM     29  C   UNL A   1      37.322  23.713  25.448  1.00  0.00     0.000 A 
ATOM     30  C   UNL A   1      33.694  18.330  24.475  1.00  0.00     0.001 A 
ATOM     31  C   UNL A   1      37.898  22.436  25.544  1.00  0.00     0.001 A 
ENDBRANCH  18  19
ENDBRANCH  17  18
ENDBRANCH  15  17
ENDBRANCH   9  15
ENDBRANCH   3   6
ENDBRANCH   1   2
BRANCH   1  32
ATOM     32  C   UNL A   1      31.472  30.856  26.123  1.00  0.00     0.023 C 
BRANCH  32  33
ATOM     33  C   UNL A   1      31.344  32.332  26.515  1.00  0.00     0.023 C 
BRANCH  33  34
ATOM     34  C   UNL A   1      32.545  32.904  27.259  1.00  0.00     0.116 C 
BRANCH  34  35
ATOM     35  N   UNL A   1      32.351  34.289  27.655  1.00  0.00    -0.352 N 
ATOM     36  C   UNL A   1      32.981  35.006  28.642  1.00  0.00     0.251 C 
ATOM     37  H   UNL A   1      31.671  34.784  27.143  1.00  0.00     0.163 HD
ATOM     38  O   UNL A   1      32.578  36.126  28.941  1.00  0.00    -0.269 OA
BRANCH  36  39
ATOM     39  C   UNL A   1      34.131  34.419  29.364  1.00  0.00     0.039 A 
ATOM     40  C   UNL A   1      33.896  33.731  30.557  1.00  0.00     0.014 A 
ATOM     41  C   UNL A   1      35.433  34.549  28.874  1.00  0.00     0.014 A 
ATOM     42  C   UNL A   1      34.962  33.136  31.235  1.00  0.00     0.010 A 
ATOM     43  C   UNL A   1      36.480  33.878  29.501  1.00  0.00     0.010 A 
ATOM     44  C   UNL A   1      36.260  33.181  30.698  1.00  0.00    -0.014 A 
BRANCH  44  45
ATOM     45  C   UNL A   1      37.400  32.532  31.396  1.00  0.00     0.031 A 
ATOM     46  C   UNL A   1      38.115  31.373  30.758  1.00  0.00     0.074 A 
ATOM     47  C   UNL A   1      37.762  32.953  32.622  1.00  0.00     0.049 A 
ATOM     48  N   UNL A   1      39.109  30.655  31.217  1.00  0.00    -0.248 NA
ATOM     49  C   UNL A   1      37.625  30.941  29.439  1.00  0.00     0.031 C 
ATOM     50  C   UNL A   1      37.116  34.030  33.371  1.00  0.00     0.029 A 
ATOM     51  N   UNL A   1      38.761  32.519  33.457  1.00  0.00    -0.354 N 
ATOM     52  C   UNL A   1      39.354  29.687  30.253  1.00  0.00     0.074 A 
ATOM     53  C   UNL A   1      38.358  29.862  29.219  1.00  0.00     0.031 C 
ATOM     54  C   UNL A   1      37.752  34.193  34.543  1.00  0.00     0.029 A 
ATOM     55  C   UNL A   1      38.824  33.208  34.644  1.00  0.00     0.049 A 
ATOM     56  H   UNL A   1      39.375  31.784  33.227  1.00  0.00     0.167 HD
ATOM     57  C   UNL A   1      40.336  28.754  30.217  1.00  0.00     0.037 A 
ATOM     58  C   UNL A   1      39.651  33.060  35.696  1.00  0.00     0.037 A 
ATOM     59  C   UNL A   1      41.329  28.590  31.245  1.00  0.00     0.049 A 
ATOM     60  C   UNL A   1      40.731  32.012  35.640  1.00  0.00     0.074 A 
ATOM     61  C   UNL A   1      42.397  27.710  31.282  1.00  0.00     0.029 A 
ATOM     62  N   UNL A   1      41.371  29.317  32.427  1.00  0.00    -0.354 N 
ATOM     63  N   UNL A   1      41.001  31.149  34.690  1.00  0.00    -0.248 NA
ATOM     64  C   UNL A   1      41.630  31.929  36.797  1.00  0.00     0.031 C 
ATOM     65  C   UNL A   1      43.046  27.861  32.514  1.00  0.00     0.029 A 
ATOM     66  C   UNL A   1      42.430  28.887  33.212  1.00  0.00     0.049 A 
ATOM     67  H   UNL A   1      40.740  30.032  32.672  1.00  0.00     0.167 HD
ATOM     68  C   UNL A   1      42.118  30.445  35.118  1.00  0.00     0.074 A 
ATOM     69  C   UNL A   1      42.484  30.993  36.408  1.00  0.00     0.031 C 
ATOM     70  C   UNL A   1      42.785  29.440  34.495  1.00  0.00     0.037 A 
BRANCH  57  71
ATOM     71  C   UNL A   1      40.368  27.834  29.026  1.00  0.00     0.064 A 
ATOM     72  C   UNL A   1      41.114  28.137  27.875  1.00  0.00     0.173 A 
ATOM     73  C   UNL A   1      39.644  26.632  29.035  1.00  0.00     0.173 A 
ATOM     74  F   UNL A   1      41.818  29.278  27.806  1.00  0.00    -0.203 F 
ATOM     75  C   UNL A   1      41.090  27.301  26.761  1.00  0.00     0.198 A 
ATOM     76  C   UNL A   1      39.656  25.778  27.935  1.00  0.00     0.198 A 
ATOM     77  F   UNL A   1      38.921  26.285  30.110  1.00  0.00    -0.203 F 
ATOM     78  F   UNL A   1      41.748  27.651  25.648  1.00  0.00    -0.200 F 
ATOM     79  C   UNL A   1      40.366  26.119  26.795  1.00  0.00     0.200 A 
ATOM     80  F   UNL A   1      38.970  24.628  27.975  1.00  0.00    -0.200 F 
ATOM     81  F   UNL A   1      40.344  25.315  25.722  1.00  0.00    -0.200 F 
ENDBRANCH  57  71
BRANCH  58  82
ATOM     82  C   UNL A   1      39.508  33.952  36.876  1.00  0.00     0.064 A 
ATOM     83  C   UNL A   1      38.775  33.550  38.001  1.00  0.00     0.173 A 
ATOM     84  C   UNL A   1      40.113  35.217  36.909  1.00  0.00     0.173 A 
ATOM     85  F   UNL A   1      38.162  32.357  38.010  1.00  0.00    -0.203 F 
ATOM     86  C   UNL A   1      38.639  34.386  39.108  1.00  0.00     0.198 A 
ATOM     87  C   UNL A   1      40.003  36.039  38.029  1.00  0.00     0.198 A 
ATOM     88  F   UNL A   1      40.832  35.646  35.862  1.00  0.00    -0.203 F 
ATOM     89  F   UNL A   1      37.898  33.994  40.153  1.00  0.00    -0.200 F 
ATOM     90  C   UNL A   1      39.259  35.626  39.124  1.00  0.00     0.200 A 
ATOM     91  F   UNL A   1      40.619  37.229  38.048  1.00  0.00    -0.200 F 
ATOM     92  F   UNL A   1      39.138  36.424  40.194  1.00  0.00    -0.200 F 
ENDBRANCH  58  82
BRANCH  70  93
ATOM     93  C   UNL A   1      44.011  28.900  35.179  1.00  0.00     0.064 A 
ATOM     94  C   UNL A   1      43.949  27.828  36.083  1.00  0.00     0.173 A 
ATOM     95  C   UNL A   1      45.273  29.452  34.906  1.00  0.00     0.173 A 
ATOM     96  F   UNL A   1      42.768  27.270  36.391  1.00  0.00    -0.203 F 
ATOM     97  C   UNL A   1      45.096  27.358  36.717  1.00  0.00     0.198 A 
ATOM     98  C   UNL A   1      46.423  28.952  35.511  1.00  0.00     0.198 A 
ATOM     99  F   UNL A   1      45.392  30.471  34.043  1.00  0.00    -0.203 F 
ATOM    100  F   UNL A   1      45.004  26.377  37.626  1.00  0.00    -0.200 F 
ATOM    101  C   UNL A   1      46.332  27.915  36.425  1.00  0.00     0.200 A 
ATOM    102  F   UNL A   1      47.617  29.481  35.213  1.00  0.00    -0.200 F 
ATOM    103  F   UNL A   1      47.436  27.458  37.033  1.00  0.00    -0.200 F 
ENDBRANCH  70  93
ENDBRANCH  44  45
ENDBRANCH  36  39
ENDBRANCH  34  35
ENDBRANCH  33  34
ENDBRANCH  32  33
ENDBRANCH   1  32
TORSDOF 16
ENDMDL
MODEL 3
REMARK VINA RESULT:     -13.3      1.105      7.355
REMARK SMILES [NH3+][C@H]1CN(C(=O)OCC2c3ccccc3-c3ccccc32)C[C@@H]1C(=O)NCCCCNC(=O)c1ccc(-c2c3nc(c(-c4c(F)c(F)c(F)c(F)c4F)c4ccc([nH]4)c(-c4c(F)c(F)c(F)c(F)c4F)c4nc(c(-c5c(F)c(F)c(F)c(F)c5F)c5ccc2[nH]5)C=C4)C=C3)cc1
REMARK SMILES IDX 27 1 26 2 24 3 25 4 23 6 2 7 3 8 4 9 22 10 1 11 5 15 6 16
REMARK SMILES IDX 7 17 8 18 9 19 10 20 21 21 11 22 15 23 16 24 20 25 12 26
REMARK SMILES IDX 14 27 17 28 19 29 13 30 18 31 28 32 29 33 30 34 31 35 32 36
REMARK SMILES IDX 33 38 34 39 35 40 96 41 36 42 95 43 37 44 38 45 39 46 89 47
REMARK SMILES IDX 40 48 94 49 88 50 90 51 41 52 93 53 87 54 86 55 42 57 74 58
REMARK SMILES IDX 54 59 73 60 55 61 58 62 72 63 91 64 56 65 57 66 71 68 92 69
REMARK SMILES IDX 59 70 43 71 44 72 52 73 45 74 46 75 50 76 53 77 47 78 48 79
REMARK SMILES IDX 51 80 49 81 75 82 76 83 84 84 77 85 78 86 82 87 85 88 79 89
REMARK SMILES IDX 80 90 83 91 81 92 60 93 61 94 69 95 62 96 63 97 67 98 70 99
REMARK SMILES IDX 64 100 65 101 68 102 66 103
REMARK H PARENT 26 5 1 12 1 13 1 14 31 37 90 56 58 67
REMARK Flexibility Score: inf
ROOT
ATOM      1  C   UNL A   1      33.149  30.108  26.084  1.00  0.00     0.116 C 
ENDROOT
BRANCH   1   2
ATOM      2  N   UNL A   1      33.315  28.672  25.933  1.00  0.00    -0.356 N 
ATOM      3  C   UNL A   1      33.044  27.871  24.864  1.00  0.00     0.231 C 
ATOM      4  O   UNL A   1      32.954  26.659  25.058  1.00  0.00    -0.274 OA
ATOM      5  H   UNL A   1      33.676  28.208  26.723  1.00  0.00     0.163 HD
BRANCH   3   6
ATOM      6  C   UNL A   1      32.948  28.483  23.479  1.00  0.00     0.158 C 
ATOM      7  C   UNL A   1      31.506  28.537  22.953  1.00  0.00     0.215 C 
ATOM      8  C   UNL A   1      31.306  27.182  22.243  1.00  0.00     0.188 C 
ATOM      9  N   UNL A   1      32.635  26.645  22.042  1.00  0.00    -0.301 N 
ATOM     10  C   UNL A   1      33.663  27.546  22.516  1.00  0.00     0.143 C 
BRANCH   7  11
ATOM     11  N   UNL A   1      31.361  29.671  22.019  1.00  0.00    -0.353 N 
ATOM     12  H   UNL A   1      31.607  30.539  22.495  1.00  0.00     0.344 HD
ATOM     13  H   UNL A   1      30.395  29.723  21.695  1.00  0.00     0.344 HD
ATOM     14  H   UNL A   1      31.979  29.535  21.219  1.00  0.00     0.344 HD
ENDBRANCH   7  11
BRANCH   9  15
ATOM     15  C   UNL A   1      32.900  25.360  21.651  1.00  0.00     0.410 C 
ATOM     16  O   UNL A   1      33.196  25.051  20.508  1.00  0.00    -0.224 OA
BRANCH  15  17
ATOM     17  O   UNL A   1      32.672  24.477  22.662  1.00  0.00    -0.448 OA
BRANCH  17  18
ATOM     18  C   UNL A   1      33.624  23.400  22.766  1.00  0.00     0.248 C 
BRANCH  18  19
ATOM     19  C   UNL A   1      33.700  22.819  24.197  1.00  0.00     0.088 C 
ATOM     20  C   UNL A   1      33.476  21.309  24.275  1.00  0.00    -0.029 A 
ATOM     21  C   UNL A   1      35.127  22.930  24.742  1.00  0.00    -0.029 A 
ATOM     22  C   UNL A   1      32.311  20.588  24.059  1.00  0.00     0.005 A 
ATOM     23  C   UNL A   1      34.669  20.651  24.636  1.00  0.00    -0.014 A 
ATOM     24  C   UNL A   1      35.667  21.645  24.964  1.00  0.00    -0.014 A 
ATOM     25  C   UNL A   1      35.857  24.074  25.028  1.00  0.00     0.005 A 
ATOM     26  C   UNL A   1      32.378  19.193  24.067  1.00  0.00     0.000 A 
ATOM     27  C   UNL A   1      34.735  19.266  24.659  1.00  0.00     0.009 A 
ATOM     28  C   UNL A   1      36.942  21.493  25.481  1.00  0.00     0.009 A 
ATOM     29  C   UNL A   1      37.146  23.919  25.548  1.00  0.00     0.000 A 
ATOM     30  C   UNL A   1      33.584  18.537  24.346  1.00  0.00     0.001 A 
ATOM     31  C   UNL A   1      37.682  22.641  25.774  1.00  0.00     0.001 A 
ENDBRANCH  18  19
ENDBRANCH  17  18
ENDBRANCH  15  17
ENDBRANCH   9  15
ENDBRANCH   3   6
ENDBRANCH   1   2
BRANCH   1  32
ATOM     32  C   UNL A   1      31.725  30.438  26.533  1.00  0.00     0.023 C 
BRANCH  32  33
ATOM     33  C   UNL A   1      31.488  31.923  26.823  1.00  0.00     0.023 C 
BRANCH  33  34
ATOM     34  C   UNL A   1      32.755  32.758  26.970  1.00  0.00     0.116 C 
BRANCH  34  35
ATOM     35  N   UNL A   1      32.501  34.066  27.549  1.00  0.00    -0.352 N 
ATOM     36  C   UNL A   1      33.102  34.671  28.626  1.00  0.00     0.251 C 
ATOM     37  H   UNL A   1      31.796  34.594  27.108  1.00  0.00     0.163 HD
ATOM     38  O   UNL A   1      32.649  35.720  29.073  1.00  0.00    -0.269 OA
BRANCH  36  39
ATOM     39  C   UNL A   1      34.281  34.045  29.263  1.00  0.00     0.039 A 
ATOM     40  C   UNL A   1      34.076  33.070  30.243  1.00  0.00     0.014 A 
ATOM     41  C   UNL A   1      35.578  34.418  28.905  1.00  0.00     0.014 A 
ATOM     42  C   UNL A   1      35.175  32.438  30.830  1.00  0.00     0.010 A 
ATOM     43  C   UNL A   1      36.668  33.724  29.424  1.00  0.00     0.010 A 
ATOM     44  C   UNL A   1      36.480  32.741  30.405  1.00  0.00    -0.014 A 
BRANCH  44  45
ATOM     45  C   UNL A   1      37.657  32.060  31.004  1.00  0.00     0.031 A 
ATOM     46  C   UNL A   1      38.135  32.446  32.377  1.00  0.00     0.074 A 
ATOM     47  C   UNL A   1      38.323  31.129  30.298  1.00  0.00     0.049 A 
ATOM     48  N   UNL A   1      39.157  31.992  33.060  1.00  0.00    -0.248 NA
ATOM     49  C   UNL A   1      37.382  33.508  33.064  1.00  0.00     0.031 C 
ATOM     50  C   UNL A   1      37.994  30.703  28.938  1.00  0.00     0.029 A 
ATOM     51  N   UNL A   1      39.423  30.374  30.625  1.00  0.00    -0.354 N 
ATOM     52  C   UNL A   1      39.175  32.719  34.242  1.00  0.00     0.074 A 
ATOM     53  C   UNL A   1      38.107  33.692  34.155  1.00  0.00     0.031 C 
ATOM     54  C   UNL A   1      38.854  29.744  28.557  1.00  0.00     0.029 A 
ATOM     55  C   UNL A   1      39.817  29.515  29.629  1.00  0.00     0.049 A 
ATOM     56  H   UNL A   1      39.885  30.444  31.492  1.00  0.00     0.167 HD
ATOM     57  C   UNL A   1      39.986  32.570  35.318  1.00  0.00     0.037 A 
ATOM     58  C   UNL A   1      40.842  28.643  29.584  1.00  0.00     0.037 A 
ATOM     59  C   UNL A   1      41.041  31.595  35.403  1.00  0.00     0.049 A 
ATOM     60  C   UNL A   1      41.738  28.499  30.786  1.00  0.00     0.074 A 
ATOM     61  C   UNL A   1      41.887  31.329  36.464  1.00  0.00     0.029 A 
ATOM     62  N   UNL A   1      41.402  30.731  34.378  1.00  0.00    -0.354 N 
ATOM     63  N   UNL A   1      41.700  29.140  31.930  1.00  0.00    -0.248 NA
ATOM     64  C   UNL A   1      42.809  27.500  30.694  1.00  0.00     0.031 C 
ATOM     65  C   UNL A   1      42.800  30.348  36.060  1.00  0.00     0.029 A 
ATOM     66  C   UNL A   1      42.476  29.948  34.774  1.00  0.00     0.049 A 
ATOM     67  H   UNL A   1      40.960  30.681  33.500  1.00  0.00     0.167 HD
ATOM     68  C   UNL A   1      42.717  28.599  32.705  1.00  0.00     0.074 A 
ATOM     69  C   UNL A   1      43.345  27.568  31.904  1.00  0.00     0.031 C 
ATOM     70  C   UNL A   1      43.093  28.924  33.968  1.00  0.00     0.037 A 
BRANCH  57  71
ATOM     71  C   UNL A   1      39.764  33.500  36.480  1.00  0.00     0.064 A 
ATOM     72  C   UNL A   1      38.919  33.160  37.550  1.00  0.00     0.173 A 
ATOM     73  C   UNL A   1      40.405  34.747  36.528  1.00  0.00     0.173 A 
ATOM     74  F   UNL A   1      38.272  31.984  37.553  1.00  0.00    -0.203 F 
ATOM     75  C   UNL A   1      38.683  34.054  38.592  1.00  0.00     0.198 A 
ATOM     76  C   UNL A   1      40.199  35.622  37.592  1.00  0.00     0.198 A 
ATOM     77  F   UNL A   1      41.231  35.123  35.540  1.00  0.00    -0.203 F 
ATOM     78  F   UNL A   1      37.813  33.737  39.560  1.00  0.00    -0.200 F 
ATOM     79  C   UNL A   1      39.328  35.281  38.616  1.00  0.00     0.200 A 
ATOM     80  F   UNL A   1      40.836  36.799  37.622  1.00  0.00    -0.200 F 
ATOM     81  F   UNL A   1      39.100  36.140  39.619  1.00  0.00    -0.200 F 
ENDBRANCH  57  71
BRANCH  58  82
ATOM     82  C   UNL A   1      41.051  27.815  28.368  1.00  0.00     0.064 A 
ATOM     83  C   UNL A   1      41.852  28.271  27.312  1.00  0.00     0.173 A 
ATOM     84  C   UNL A   1      40.468  26.545  28.243  1.00  0.00     0.173 A 
ATOM     85  F   UNL A   1      42.417  29.486  27.376  1.00  0.00    -0.203 F 
ATOM     86  C   UNL A   1      42.048  27.496  26.170  1.00  0.00     0.198 A 
ATOM     87  C   UNL A   1      40.690  25.759  27.115  1.00  0.00     0.198 A 
ATOM     88  F   UNL A   1      39.699  26.059  29.228  1.00  0.00    -0.203 F 
ATOM     89  F   UNL A   1      42.785  27.975  25.157  1.00  0.00    -0.200 F 
ATOM     90  C   UNL A   1      41.473  26.238  26.076  1.00  0.00     0.200 A 
ATOM     91  F   UNL A   1      40.148  24.536  27.036  1.00  0.00    -0.200 F 
ATOM     92  F   UNL A   1      41.673  25.489  24.983  1.00  0.00    -0.200 F 
ENDBRANCH  58  82
BRANCH  70  93
ATOM     93  C   UNL A   1      44.205  28.120  34.583  1.00  0.00     0.064 A 
ATOM     94  C   UNL A   1      45.548  28.521  34.503  1.00  0.00     0.173 A 
ATOM     95  C   UNL A   1      43.918  26.939  35.286  1.00  0.00     0.173 A 
ATOM     96  F   UNL A   1      45.882  29.636  33.834  1.00  0.00    -0.203 F 
ATOM     97  C   UNL A   1      46.561  27.750  35.067  1.00  0.00     0.198 A 
ATOM     98  C   UNL A   1      44.930  26.191  35.882  1.00  0.00     0.198 A 
ATOM     99  F   UNL A   1      42.651  26.513  35.402  1.00  0.00    -0.203 F 
ATOM    100  F   UNL A   1      47.841  28.119  34.921  1.00  0.00    -0.200 F 
ATOM    101  C   UNL A   1      46.251  26.590  35.761  1.00  0.00     0.200 A 
ATOM    102  F   UNL A   1      44.625  25.081  36.567  1.00  0.00    -0.200 F 
ATOM    103  F   UNL A   1      47.228  25.852  36.306  1.00  0.00    -0.200 F 
ENDBRANCH  70  93
ENDBRANCH  44  45
ENDBRANCH  36  39
ENDBRANCH  34  35
ENDBRANCH  33  34
ENDBRANCH  32  33
ENDBRANCH   1  32
TORSDOF 16
ENDMDL
