MODEL 1
REMARK VINA RESULT:     -13.3      0.000      0.000
REMARK SMILES COc1cc(S(=O)(=O)Nc2cccc(C(=O)NCCCCNC(=O)c3ccc(-c4c5nc(c(-c6c(F)c(F)c(F)c(F)c6F)c6ccc([nH]6)c(-c6c(F)c(F)c(F)c(F)c6F)c6nc(c(-c7c(F)c(F)c(F)c(F)c7F)c7ccc4[nH]7)C=C6)C=C5)cc3)c2)c(OC)cc1C
REMARK SMILES IDX 18 1 17 2 15 3 16 4 14 6 10 7 11 8 88 9 12 10 13 11 9 12
REMARK SMILES IDX 6 14 7 15 8 16 5 17 3 18 4 19 93 20 92 21 94 22 89 23 2 24
REMARK SMILES IDX 1 25 90 26 91 27 19 28 20 29 21 30 22 31 23 32 24 34 25 35
REMARK SMILES IDX 26 36 87 37 27 38 86 39 28 40 29 41 30 42 80 43 31 44 85 45
REMARK SMILES IDX 79 46 81 47 32 48 84 49 78 50 77 51 33 53 65 54 45 55 64 56
REMARK SMILES IDX 46 57 49 58 63 59 82 60 47 61 48 62 62 64 83 65 50 66 34 67
REMARK SMILES IDX 35 68 43 69 36 70 37 71 41 72 44 73 38 74 39 75 42 76 40 77
REMARK SMILES IDX 66 78 67 79 75 80 68 81 69 82 73 83 76 84 70 85 71 86 74 87
REMARK SMILES IDX 72 88 51 89 52 90 60 91 53 92 54 93 58 94 61 95 55 96 56 97
REMARK SMILES IDX 59 98 57 99
REMARK H PARENT 17 5 9 13 22 33 81 52 49 63
REMARK Flexibility Score: inf
ROOT
ATOM      1  C   UNL A   1      36.489  20.473  24.993  1.00  0.00     0.116 C 
ENDROOT
BRANCH   1   2
ATOM      2  N   UNL A   1      35.421  20.737  25.941  1.00  0.00    -0.352 N 
ATOM      3  C   UNL A   1      34.120  21.146  25.801  1.00  0.00     0.251 C 
ATOM      4  O   UNL A   1      33.439  21.218  26.824  1.00  0.00    -0.269 OA
ATOM      5  H   UNL A   1      35.687  20.594  26.878  1.00  0.00     0.163 HD
BRANCH   3   6
ATOM      6  C   UNL A   1      33.475  21.415  24.490  1.00  0.00     0.041 A 
ATOM      7  C   UNL A   1      32.937  23.123  22.835  1.00  0.00     0.050 A 
ATOM      8  C   UNL A   1      32.219  22.188  22.096  1.00  0.00     0.027 A 
ATOM      9  C   UNL A   1      33.624  22.713  23.984  1.00  0.00     0.040 A 
ATOM     10  C   UNL A   1      32.112  20.876  22.560  1.00  0.00     0.003 A 
ATOM     11  C   UNL A   1      32.728  20.494  23.756  1.00  0.00     0.014 A 
BRANCH   7  12
ATOM     12  N   UNL A   1      32.979  24.511  22.541  1.00  0.00    -0.279 N 
ATOM     13  H   UNL A   1      33.864  24.913  22.389  1.00  0.00     0.180 HD
BRANCH  12  14
ATOM     14  S   UNL A   1      31.652  25.517  22.431  1.00  0.00     0.265 S 
ATOM     15  O   UNL A   1      30.537  24.841  23.063  1.00  0.00    -0.201 OA
ATOM     16  O   UNL A   1      31.580  25.889  21.030  1.00  0.00    -0.201 OA
BRANCH  14  17
ATOM     17  C   UNL A   1      31.886  27.036  23.330  1.00  0.00     0.133 A 
ATOM     18  C   UNL A   1      30.872  29.204  23.778  1.00  0.00     0.123 A 
ATOM     19  C   UNL A   1      30.923  28.023  23.043  1.00  0.00     0.073 A 
ATOM     20  C   UNL A   1      31.684  29.360  24.900  1.00  0.00    -0.005 A 
ATOM     21  C   UNL A   1      32.701  28.418  25.120  1.00  0.00     0.055 A 
ATOM     22  C   UNL A   1      31.535  30.503  25.859  1.00  0.00     0.048 C 
ATOM     23  C   UNL A   1      32.853  27.282  24.307  1.00  0.00     0.139 A 
BRANCH  18  24
ATOM     24  O   UNL A   1      29.952  30.137  23.384  1.00  0.00    -0.496 OA
ATOM     25  C   UNL A   1      29.553  29.948  22.023  1.00  0.00     0.278 C 
ENDBRANCH  18  24
BRANCH  23  26
ATOM     26  O   UNL A   1      33.937  26.461  24.404  1.00  0.00    -0.495 OA
ATOM     27  C   UNL A   1      34.164  25.798  25.647  1.00  0.00     0.278 C 
ENDBRANCH  23  26
ENDBRANCH  14  17
ENDBRANCH  12  14
ENDBRANCH   7  12
ENDBRANCH   3   6
ENDBRANCH   1   2
BRANCH   1  28
ATOM     28  C   UNL A   1      37.424  21.678  24.816  1.00  0.00     0.023 C 
BRANCH  28  29
ATOM     29  C   UNL A   1      38.700  21.632  25.660  1.00  0.00     0.023 C 
BRANCH  29  30
ATOM     30  C   UNL A   1      39.043  22.952  26.332  1.00  0.00     0.116 C 
BRANCH  30  31
ATOM     31  N   UNL A   1      40.472  23.183  26.526  1.00  0.00    -0.352 N 
ATOM     32  C   UNL A   1      41.134  24.378  26.766  1.00  0.00     0.251 C 
ATOM     33  H   UNL A   1      41.043  22.382  26.480  1.00  0.00     0.163 HD
ATOM     34  O   UNL A   1      42.354  24.411  26.859  1.00  0.00    -0.269 OA
BRANCH  32  35
ATOM     35  C   UNL A   1      40.330  25.589  27.055  1.00  0.00     0.039 A 
ATOM     36  C   UNL A   1      40.684  26.773  26.401  1.00  0.00     0.014 A 
ATOM     37  C   UNL A   1      39.476  25.616  28.151  1.00  0.00     0.014 A 
ATOM     38  C   UNL A   1      40.428  27.991  27.023  1.00  0.00     0.010 A 
ATOM     39  C   UNL A   1      39.326  26.807  28.829  1.00  0.00     0.010 A 
ATOM     40  C   UNL A   1      39.866  27.982  28.299  1.00  0.00    -0.014 A 
BRANCH  40  41
ATOM     41  C   UNL A   1      39.847  29.146  29.173  1.00  0.00     0.031 A 
ATOM     42  C   UNL A   1      38.815  30.181  28.977  1.00  0.00     0.074 A 
ATOM     43  C   UNL A   1      40.713  29.236  30.208  1.00  0.00     0.049 A 
ATOM     44  N   UNL A   1      38.947  31.414  29.325  1.00  0.00    -0.248 NA
ATOM     45  C   UNL A   1      37.541  29.898  28.330  1.00  0.00     0.031 C 
ATOM     46  C   UNL A   1      40.668  30.186  31.315  1.00  0.00     0.029 A 
ATOM     47  N   UNL A   1      41.936  28.568  30.375  1.00  0.00    -0.354 N 
ATOM     48  C   UNL A   1      37.713  32.013  29.219  1.00  0.00     0.074 A 
ATOM     49  C   UNL A   1      36.886  31.043  28.537  1.00  0.00     0.031 C 
ATOM     50  C   UNL A   1      41.888  30.275  31.865  1.00  0.00     0.029 A 
ATOM     51  C   UNL A   1      42.787  29.477  31.053  1.00  0.00     0.049 A 
ATOM     52  H   UNL A   1      42.158  27.655  30.082  1.00  0.00     0.167 HD
ATOM     53  C   UNL A   1      37.494  33.204  29.847  1.00  0.00     0.037 A 
ATOM     54  C   UNL A   1      43.944  29.926  30.484  1.00  0.00     0.037 A 
ATOM     55  C   UNL A   1      38.719  33.701  30.474  1.00  0.00     0.049 A 
ATOM     56  C   UNL A   1      43.952  31.413  30.232  1.00  0.00     0.074 A 
ATOM     57  C   UNL A   1      39.199  33.618  31.771  1.00  0.00     0.029 A 
ATOM     58  N   UNL A   1      39.802  34.070  29.679  1.00  0.00    -0.354 N 
ATOM     59  N   UNL A   1      42.881  32.155  30.278  1.00  0.00    -0.248 NA
ATOM     60  C   UNL A   1      45.144  32.174  29.871  1.00  0.00     0.031 C 
ATOM     61  C   UNL A   1      40.594  33.861  31.742  1.00  0.00     0.029 A 
ATOM     62  C   UNL A   1      40.963  34.114  30.431  1.00  0.00     0.049 A 
ATOM     63  H   UNL A   1      39.750  34.271  28.716  1.00  0.00     0.167 HD
ATOM     64  C   UNL A   1      43.199  33.438  29.925  1.00  0.00     0.074 A 
ATOM     65  C   UNL A   1      44.633  33.407  29.708  1.00  0.00     0.031 C 
ATOM     66  C   UNL A   1      42.252  34.417  29.826  1.00  0.00     0.037 A 
BRANCH  53  67
ATOM     67  C   UNL A   1      36.104  33.719  30.159  1.00  0.00     0.064 A 
ATOM     68  C   UNL A   1      35.263  34.209  29.137  1.00  0.00     0.173 A 
ATOM     69  C   UNL A   1      35.573  33.826  31.457  1.00  0.00     0.173 A 
ATOM     70  F   UNL A   1      35.578  34.072  27.843  1.00  0.00    -0.203 F 
ATOM     71  C   UNL A   1      34.061  34.870  29.405  1.00  0.00     0.198 A 
ATOM     72  C   UNL A   1      34.402  34.540  31.732  1.00  0.00     0.198 A 
ATOM     73  F   UNL A   1      36.145  33.199  32.493  1.00  0.00    -0.203 F 
ATOM     74  F   UNL A   1      33.311  35.325  28.391  1.00  0.00    -0.200 F 
ATOM     75  C   UNL A   1      33.652  35.076  30.705  1.00  0.00     0.200 A 
ATOM     76  F   UNL A   1      34.009  34.709  33.003  1.00  0.00    -0.200 F 
ATOM     77  F   UNL A   1      32.530  35.759  30.966  1.00  0.00    -0.200 F 
ENDBRANCH  53  67
BRANCH  54  78
ATOM     78  C   UNL A   1      44.575  28.888  29.624  1.00  0.00     0.064 A 
ATOM     79  C   UNL A   1      44.406  29.044  28.233  1.00  0.00     0.173 A 
ATOM     80  C   UNL A   1      45.684  28.159  30.070  1.00  0.00     0.173 A 
ATOM     81  F   UNL A   1      43.340  29.709  27.759  1.00  0.00    -0.203 F 
ATOM     82  C   UNL A   1      45.424  28.704  27.348  1.00  0.00     0.198 A 
ATOM     83  C   UNL A   1      46.678  27.773  29.170  1.00  0.00     0.198 A 
ATOM     84  F   UNL A   1      45.881  27.954  31.379  1.00  0.00    -0.203 F 
ATOM     85  F   UNL A   1      45.333  29.066  26.060  1.00  0.00    -0.200 F 
ATOM     86  C   UNL A   1      46.578  28.107  27.824  1.00  0.00     0.200 A 
ATOM     87  F   UNL A   1      47.790  27.178  29.623  1.00  0.00    -0.200 F 
ATOM     88  F   UNL A   1      47.615  27.910  26.998  1.00  0.00    -0.200 F 
ENDBRANCH  54  78
BRANCH  66  89
ATOM     89  C   UNL A   1      42.506  35.787  29.261  1.00  0.00     0.064 A 
ATOM     90  C   UNL A   1      41.945  36.245  28.057  1.00  0.00     0.173 A 
ATOM     91  C   UNL A   1      43.256  36.735  29.991  1.00  0.00     0.173 A 
ATOM     92  F   UNL A   1      41.103  35.479  27.348  1.00  0.00    -0.203 F 
ATOM     93  C   UNL A   1      42.201  37.527  27.567  1.00  0.00     0.198 A 
ATOM     94  C   UNL A   1      43.463  38.033  29.527  1.00  0.00     0.198 A 
ATOM     95  F   UNL A   1      43.796  36.431  31.180  1.00  0.00    -0.203 F 
ATOM     96  F   UNL A   1      41.696  37.896  26.382  1.00  0.00    -0.200 F 
ATOM     97  C   UNL A   1      42.956  38.421  28.303  1.00  0.00     0.200 A 
ATOM     98  F   UNL A   1      44.147  38.908  30.278  1.00  0.00    -0.200 F 
ATOM     99  F   UNL A   1      43.179  39.658  27.842  1.00  0.00    -0.200 F 
ENDBRANCH  66  89
ENDBRANCH  40  41
ENDBRANCH  32  35
ENDBRANCH  30  31
ENDBRANCH  29  30
ENDBRANCH  28  29
ENDBRANCH   1  28
TORSDOF 16
ENDMDL
MODEL 2
REMARK VINA RESULT:     -13.3      3.593      9.788
REMARK SMILES COc1cc(S(=O)(=O)Nc2cccc(C(=O)NCCCCNC(=O)c3ccc(-c4c5nc(c(-c6c(F)c(F)c(F)c(F)c6F)c6ccc([nH]6)c(-c6c(F)c(F)c(F)c(F)c6F)c6nc(c(-c7c(F)c(F)c(F)c(F)c7F)c7ccc4[nH]7)C=C6)C=C5)cc3)c2)c(OC)cc1C
REMARK SMILES IDX 18 1 17 2 15 3 16 4 14 6 10 7 11 8 88 9 12 10 13 11 9 12
REMARK SMILES IDX 6 14 7 15 8 16 5 17 3 18 4 19 93 20 92 21 94 22 89 23 2 24
REMARK SMILES IDX 1 25 90 26 91 27 19 28 20 29 21 30 22 31 23 32 24 34 25 35
REMARK SMILES IDX 26 36 87 37 27 38 86 39 28 40 29 41 30 42 80 43 31 44 85 45
REMARK SMILES IDX 79 46 81 47 32 48 84 49 78 50 77 51 33 53 65 54 45 55 64 56
REMARK SMILES IDX 46 57 49 58 63 59 82 60 47 61 48 62 62 64 83 65 50 66 34 67
REMARK SMILES IDX 35 68 43 69 36 70 37 71 41 72 44 73 38 74 39 75 42 76 40 77
REMARK SMILES IDX 66 78 67 79 75 80 68 81 69 82 73 83 76 84 70 85 71 86 74 87
REMARK SMILES IDX 72 88 51 89 52 90 60 91 53 92 54 93 58 94 61 95 55 96 56 97
REMARK SMILES IDX 59 98 57 99
REMARK H PARENT 17 5 9 13 22 33 81 52 49 63
REMARK Flexibility Score: inf
ROOT
ATOM      1  C   UNL A   1      32.948  29.283  23.878  1.00  0.00     0.116 C 
ENDROOT
BRANCH   1   2
ATOM      2  N   UNL A   1      31.715  29.363  23.116  1.00  0.00    -0.352 N 
ATOM      3  C   UNL A   1      30.908  28.420  22.532  1.00  0.00     0.251 C 
ATOM      4  O   UNL A   1      29.872  28.817  21.997  1.00  0.00    -0.269 OA
ATOM      5  H   UNL A   1      31.391  30.284  22.992  1.00  0.00     0.163 HD
BRANCH   3   6
ATOM      6  C   UNL A   1      31.171  26.958  22.590  1.00  0.00     0.041 A 
ATOM      7  C   UNL A   1      30.774  24.900  23.835  1.00  0.00     0.050 A 
ATOM      8  C   UNL A   1      31.624  24.211  22.975  1.00  0.00     0.027 A 
ATOM      9  C   UNL A   1      30.493  26.249  23.591  1.00  0.00     0.040 A 
ATOM     10  C   UNL A   1      32.261  24.895  21.938  1.00  0.00     0.003 A 
ATOM     11  C   UNL A   1      32.043  26.264  21.753  1.00  0.00     0.014 A 
BRANCH   7  12
ATOM     12  N   UNL A   1      30.203  24.342  25.008  1.00  0.00    -0.279 N 
ATOM     13  H   UNL A   1      29.256  24.077  24.967  1.00  0.00     0.180 HD
BRANCH  12  14
ATOM     14  S   UNL A   1      31.002  24.099  26.453  1.00  0.00     0.265 S 
ATOM     15  O   UNL A   1      30.173  23.239  27.273  1.00  0.00    -0.201 OA
ATOM     16  O   UNL A   1      31.353  25.430  26.915  1.00  0.00    -0.201 OA
BRANCH  14  17
ATOM     17  C   UNL A   1      32.544  23.236  26.229  1.00  0.00     0.133 A 
ATOM     18  C   UNL A   1      33.508  21.013  25.984  1.00  0.00     0.123 A 
ATOM     19  C   UNL A   1      32.428  21.834  26.297  1.00  0.00     0.073 A 
ATOM     20  C   UNL A   1      34.674  21.569  25.464  1.00  0.00    -0.005 A 
ATOM     21  C   UNL A   1      34.815  22.965  25.490  1.00  0.00     0.055 A 
ATOM     22  C   UNL A   1      35.793  20.739  24.906  1.00  0.00     0.048 C 
ATOM     23  C   UNL A   1      33.780  23.811  25.928  1.00  0.00     0.139 A 
BRANCH  18  24
ATOM     24  O   UNL A   1      33.327  19.667  26.146  1.00  0.00    -0.496 OA
ATOM     25  C   UNL A   1      32.612  19.091  25.049  1.00  0.00     0.278 C 
ENDBRANCH  18  24
BRANCH  23  26
ATOM     26  O   UNL A   1      33.968  25.146  26.122  1.00  0.00    -0.495 OA
ATOM     27  C   UNL A   1      34.248  25.955  24.981  1.00  0.00     0.278 C 
ENDBRANCH  23  26
ENDBRANCH  14  17
ENDBRANCH  12  14
ENDBRANCH   7  12
ENDBRANCH   3   6
ENDBRANCH   1   2
BRANCH   1  28
ATOM     28  C   UNL A   1      32.694  29.123  25.384  1.00  0.00     0.023 C 
BRANCH  28  29
ATOM     29  C   UNL A   1      32.845  30.407  26.203  1.00  0.00     0.023 C 
BRANCH  29  30
ATOM     30  C   UNL A   1      33.302  30.176  27.634  1.00  0.00     0.116 C 
BRANCH  30  31
ATOM     31  N   UNL A   1      33.983  31.314  28.246  1.00  0.00    -0.352 N 
ATOM     32  C   UNL A   1      35.235  31.359  28.841  1.00  0.00     0.251 C 
ATOM     33  H   UNL A   1      33.487  32.164  28.235  1.00  0.00     0.163 HD
ATOM     34  O   UNL A   1      35.649  32.391  29.356  1.00  0.00    -0.269 OA
BRANCH  32  35
ATOM     35  C   UNL A   1      36.125  30.181  28.713  1.00  0.00     0.039 A 
ATOM     36  C   UNL A   1      36.535  29.547  29.890  1.00  0.00     0.014 A 
ATOM     37  C   UNL A   1      36.768  29.918  27.509  1.00  0.00     0.014 A 
ATOM     38  C   UNL A   1      37.763  28.893  29.913  1.00  0.00     0.010 A 
ATOM     39  C   UNL A   1      38.035  29.378  27.553  1.00  0.00     0.010 A 
ATOM     40  C   UNL A   1      38.560  28.932  28.770  1.00  0.00    -0.014 A 
BRANCH  40  41
ATOM     41  C   UNL A   1      39.971  28.575  28.766  1.00  0.00     0.031 A 
ATOM     42  C   UNL A   1      40.367  27.199  28.414  1.00  0.00     0.074 A 
ATOM     43  C   UNL A   1      40.914  29.516  28.998  1.00  0.00     0.049 A 
ATOM     44  N   UNL A   1      41.457  26.633  28.807  1.00  0.00    -0.248 NA
ATOM     45  C   UNL A   1      39.528  26.330  27.600  1.00  0.00     0.031 C 
ATOM     46  C   UNL A   1      42.353  29.394  28.783  1.00  0.00     0.029 A 
ATOM     47  N   UNL A   1      40.765  30.750  29.650  1.00  0.00    -0.354 N 
ATOM     48  C   UNL A   1      41.603  25.468  28.091  1.00  0.00     0.074 A 
ATOM     49  C   UNL A   1      40.346  25.294  27.398  1.00  0.00     0.031 C 
ATOM     50  C   UNL A   1      42.985  30.313  29.529  1.00  0.00     0.029 A 
ATOM     51  C   UNL A   1      41.983  30.975  30.341  1.00  0.00     0.049 A 
ATOM     52  H   UNL A   1      39.976  31.339  29.632  1.00  0.00     0.167 HD
ATOM     53  C   UNL A   1      42.823  24.857  28.054  1.00  0.00     0.037 A 
ATOM     54  C   UNL A   1      42.017  31.086  31.702  1.00  0.00     0.037 A 
ATOM     55  C   UNL A   1      43.782  25.548  28.916  1.00  0.00     0.049 A 
ATOM     56  C   UNL A   1      42.813  29.995  32.374  1.00  0.00     0.074 A 
ATOM     57  C   UNL A   1      44.753  26.502  28.652  1.00  0.00     0.029 A 
ATOM     58  N   UNL A   1      43.587  25.561  30.296  1.00  0.00    -0.354 N 
ATOM     59  N   UNL A   1      43.190  28.904  31.768  1.00  0.00    -0.248 NA
ATOM     60  C   UNL A   1      43.212  30.022  33.778  1.00  0.00     0.031 C 
ATOM     61  C   UNL A   1      45.082  27.145  29.870  1.00  0.00     0.029 A 
ATOM     62  C   UNL A   1      44.332  26.570  30.882  1.00  0.00     0.049 A 
ATOM     63  H   UNL A   1      43.001  24.939  30.786  1.00  0.00     0.167 HD
ATOM     64  C   UNL A   1      43.819  28.081  32.661  1.00  0.00     0.074 A 
ATOM     65  C   UNL A   1      43.834  28.837  33.899  1.00  0.00     0.031 C 
ATOM     66  C   UNL A   1      44.261  26.837  32.311  1.00  0.00     0.037 A 
BRANCH  53  67
ATOM     67  C   UNL A   1      43.203  23.855  26.983  1.00  0.00     0.064 A 
ATOM     68  C   UNL A   1      42.813  22.502  27.082  1.00  0.00     0.173 A 
ATOM     69  C   UNL A   1      44.015  24.152  25.874  1.00  0.00     0.173 A 
ATOM     70  F   UNL A   1      41.946  22.088  28.015  1.00  0.00    -0.203 F 
ATOM     71  C   UNL A   1      43.305  21.513  26.225  1.00  0.00     0.198 A 
ATOM     72  C   UNL A   1      44.558  23.156  25.054  1.00  0.00     0.198 A 
ATOM     73  F   UNL A   1      44.270  25.418  25.521  1.00  0.00    -0.203 F 
ATOM     74  F   UNL A   1      42.907  20.243  26.378  1.00  0.00    -0.200 F 
ATOM     75  C   UNL A   1      44.213  21.833  25.238  1.00  0.00     0.200 A 
ATOM     76  F   UNL A   1      45.422  23.491  24.084  1.00  0.00    -0.200 F 
ATOM     77  F   UNL A   1      44.731  20.879  24.454  1.00  0.00    -0.200 F 
ENDBRANCH  53  67
BRANCH  54  78
ATOM     78  C   UNL A   1      40.783  31.726  32.235  1.00  0.00     0.064 A 
ATOM     79  C   UNL A   1      39.866  30.871  32.878  1.00  0.00     0.173 A 
ATOM     80  C   UNL A   1      40.767  33.082  32.582  1.00  0.00     0.173 A 
ATOM     81  F   UNL A   1      39.824  29.568  32.554  1.00  0.00    -0.203 F 
ATOM     82  C   UNL A   1      39.144  31.302  33.986  1.00  0.00     0.198 A 
ATOM     83  C   UNL A   1      40.000  33.521  33.662  1.00  0.00     0.198 A 
ATOM     84  F   UNL A   1      41.597  33.947  31.983  1.00  0.00    -0.203 F 
ATOM     85  F   UNL A   1      38.452  30.415  34.715  1.00  0.00    -0.200 F 
ATOM     86  C   UNL A   1      39.246  32.618  34.404  1.00  0.00     0.200 A 
ATOM     87  F   UNL A   1      40.080  34.798  34.059  1.00  0.00    -0.200 F 
ATOM     88  F   UNL A   1      38.667  33.000  35.551  1.00  0.00    -0.200 F 
ENDBRANCH  54  78
BRANCH  66  89
ATOM     89  C   UNL A   1      44.782  25.818  33.286  1.00  0.00     0.064 A 
ATOM     90  C   UNL A   1      43.978  25.183  34.246  1.00  0.00     0.173 A 
ATOM     91  C   UNL A   1      46.118  25.366  33.204  1.00  0.00     0.173 A 
ATOM     92  F   UNL A   1      42.663  25.430  34.324  1.00  0.00    -0.203 F 
ATOM     93  C   UNL A   1      44.498  24.236  35.132  1.00  0.00     0.198 A 
ATOM     94  C   UNL A   1      46.620  24.380  34.051  1.00  0.00     0.198 A 
ATOM     95  F   UNL A   1      46.967  25.859  32.290  1.00  0.00    -0.203 F 
ATOM     96  F   UNL A   1      43.707  23.704  36.073  1.00  0.00    -0.200 F 
ATOM     97  C   UNL A   1      45.817  23.832  35.032  1.00  0.00     0.200 A 
ATOM     98  F   UNL A   1      47.883  23.955  33.905  1.00  0.00    -0.200 F 
ATOM     99  F   UNL A   1      46.306  22.907  35.866  1.00  0.00    -0.200 F 
ENDBRANCH  66  89
ENDBRANCH  40  41
ENDBRANCH  32  35
ENDBRANCH  30  31
ENDBRANCH  29  30
ENDBRANCH  28  29
ENDBRANCH   1  28
TORSDOF 16
ENDMDL
MODEL 3
REMARK VINA RESULT:     -12.9      3.836      9.991
REMARK SMILES COc1cc(S(=O)(=O)Nc2cccc(C(=O)NCCCCNC(=O)c3ccc(-c4c5nc(c(-c6c(F)c(F)c(F)c(F)c6F)c6ccc([nH]6)c(-c6c(F)c(F)c(F)c(F)c6F)c6nc(c(-c7c(F)c(F)c(F)c(F)c7F)c7ccc4[nH]7)C=C6)C=C5)cc3)c2)c(OC)cc1C
REMARK SMILES IDX 18 1 17 2 15 3 16 4 14 6 10 7 11 8 88 9 12 10 13 11 9 12
REMARK SMILES IDX 6 14 7 15 8 16 5 17 3 18 4 19 93 20 92 21 94 22 89 23 2 24
REMARK SMILES IDX 1 25 90 26 91 27 19 28 20 29 21 30 22 31 23 32 24 34 25 35
REMARK SMILES IDX 26 36 87 37 27 38 86 39 28 40 29 41 30 42 80 43 31 44 85 45
REMARK SMILES IDX 79 46 81 47 32 48 84 49 78 50 77 51 33 53 65 54 45 55 64 56
REMARK SMILES IDX 46 57 49 58 63 59 82 60 47 61 48 62 62 64 83 65 50 66 34 67
REMARK SMILES IDX 35 68 43 69 36 70 37 71 41 72 44 73 38 74 39 75 42 76 40 77
REMARK SMILES IDX 66 78 67 79 75 80 68 81 69 82 73 83 76 84 70 85 71 86 74 87
REMARK SMILES IDX 72 88 51 89 52 90 60 91 53 92 54 93 58 94 61 95 55 96 56 97
REMARK SMILES IDX 59 98 57 99
REMARK H PARENT 17 5 9 13 22 33 81 52 49 63
REMARK Flexibility Score: inf
ROOT
ATOM      1  C   UNL A   1      33.728  28.979  25.603  1.00  0.00     0.116 C 
ENDROOT
BRANCH   1   2
ATOM      2  N   UNL A   1      33.917  28.792  24.176  1.00  0.00    -0.352 N 
ATOM      3  C   UNL A   1      33.087  28.385  23.164  1.00  0.00     0.251 C 
ATOM      4  O   UNL A   1      33.545  28.392  22.021  1.00  0.00    -0.269 OA
ATOM      5  H   UNL A   1      34.830  29.001  23.872  1.00  0.00     0.163 HD
BRANCH   3   6
ATOM      6  C   UNL A   1      31.658  28.028  23.361  1.00  0.00     0.041 A 
ATOM      7  C   UNL A   1      30.110  26.291  24.092  1.00  0.00     0.050 A 
ATOM      8  C   UNL A   1      29.033  27.082  23.707  1.00  0.00     0.027 A 
ATOM      9  C   UNL A   1      31.410  26.799  23.989  1.00  0.00     0.040 A 
ATOM     10  C   UNL A   1      29.265  28.333  23.133  1.00  0.00     0.003 A 
ATOM     11  C   UNL A   1      30.571  28.799  22.951  1.00  0.00     0.014 A 
BRANCH   7  12
ATOM     12  N   UNL A   1      29.995  24.948  24.538  1.00  0.00    -0.279 N 
ATOM     13  H   UNL A   1      29.308  24.388  24.110  1.00  0.00     0.180 HD
BRANCH  12  14
ATOM     14  S   UNL A   1      30.928  24.240  25.727  1.00  0.00     0.265 S 
ATOM     15  O   UNL A   1      30.195  23.099  26.237  1.00  0.00    -0.201 OA
ATOM     16  O   UNL A   1      31.291  25.330  26.616  1.00  0.00    -0.201 OA
BRANCH  14  17
ATOM     17  C   UNL A   1      32.461  23.600  25.086  1.00  0.00     0.133 A 
ATOM     18  C   UNL A   1      33.813  23.459  23.066  1.00  0.00     0.123 A 
ATOM     19  C   UNL A   1      32.608  23.760  23.694  1.00  0.00     0.073 A 
ATOM     20  C   UNL A   1      34.931  23.129  23.830  1.00  0.00    -0.005 A 
ATOM     21  C   UNL A   1      34.750  22.879  25.199  1.00  0.00     0.055 A 
ATOM     22  C   UNL A   1      36.307  23.002  23.245  1.00  0.00     0.048 C 
ATOM     23  C   UNL A   1      33.507  23.051  25.831  1.00  0.00     0.139 A 
BRANCH  18  24
ATOM     24  O   UNL A   1      33.845  23.576  21.704  1.00  0.00    -0.496 OA
ATOM     25  C   UNL A   1      33.067  24.688  21.248  1.00  0.00     0.278 C 
ENDBRANCH  18  24
BRANCH  23  26
ATOM     26  O   UNL A   1      33.282  22.645  27.112  1.00  0.00    -0.495 OA
ATOM     27  C   UNL A   1      34.095  21.596  27.633  1.00  0.00     0.278 C 
ENDBRANCH  23  26
ENDBRANCH  14  17
ENDBRANCH  12  14
ENDBRANCH   7  12
ENDBRANCH   3   6
ENDBRANCH   1   2
BRANCH   1  28
ATOM     28  C   UNL A   1      32.772  30.139  25.919  1.00  0.00     0.023 C 
BRANCH  28  29
ATOM     29  C   UNL A   1      33.059  30.870  27.233  1.00  0.00     0.023 C 
BRANCH  29  30
ATOM     30  C   UNL A   1      34.198  30.267  28.039  1.00  0.00     0.116 C 
BRANCH  30  31
ATOM     31  N   UNL A   1      35.064  31.243  28.693  1.00  0.00    -0.352 N 
ATOM     32  C   UNL A   1      36.343  31.067  29.201  1.00  0.00     0.251 C 
ATOM     33  H   UNL A   1      34.691  32.150  28.785  1.00  0.00     0.163 HD
ATOM     34  O   UNL A   1      36.925  31.984  29.768  1.00  0.00    -0.269 OA
BRANCH  32  35
ATOM     35  C   UNL A   1      37.051  29.797  28.916  1.00  0.00     0.039 A 
ATOM     36  C   UNL A   1      37.368  28.974  30.002  1.00  0.00     0.014 A 
ATOM     37  C   UNL A   1      37.645  29.590  27.677  1.00  0.00     0.014 A 
ATOM     38  C   UNL A   1      38.487  28.151  29.922  1.00  0.00     0.010 A 
ATOM     39  C   UNL A   1      38.820  28.871  27.631  1.00  0.00     0.010 A 
ATOM     40  C   UNL A   1      39.278  28.212  28.776  1.00  0.00    -0.014 A 
BRANCH  40  41
ATOM     41  C   UNL A   1      40.622  27.657  28.701  1.00  0.00     0.031 A 
ATOM     42  C   UNL A   1      40.796  26.220  28.419  1.00  0.00     0.074 A 
ATOM     43  C   UNL A   1      41.700  28.467  28.801  1.00  0.00     0.049 A 
ATOM     44  N   UNL A   1      41.825  25.530  28.776  1.00  0.00    -0.248 NA
ATOM     45  C   UNL A   1      39.785  25.433  27.727  1.00  0.00     0.031 C 
ATOM     46  C   UNL A   1      43.088  28.129  28.498  1.00  0.00     0.029 A 
ATOM     47  N   UNL A   1      41.773  29.746  29.375  1.00  0.00    -0.354 N 
ATOM     48  C   UNL A   1      41.754  24.315  28.134  1.00  0.00     0.074 A 
ATOM     49  C   UNL A   1      40.435  24.281  27.543  1.00  0.00     0.031 C 
ATOM     50  C   UNL A   1      43.896  28.991  29.134  1.00  0.00     0.029 A 
ATOM     51  C   UNL A   1      43.060  29.836  29.964  1.00  0.00     0.049 A 
ATOM     52  H   UNL A   1      41.074  30.439  29.369  1.00  0.00     0.167 HD
ATOM     53  C   UNL A   1      42.872  23.536  28.057  1.00  0.00     0.037 A 
ATOM     54  C   UNL A   1      43.214  30.023  31.308  1.00  0.00     0.037 A 
ATOM     55  C   UNL A   1      43.980  24.133  28.802  1.00  0.00     0.049 A 
ATOM     56  C   UNL A   1      43.902  28.871  31.998  1.00  0.00     0.074 A 
ATOM     57  C   UNL A   1      45.049  24.922  28.406  1.00  0.00     0.029 A 
ATOM     58  N   UNL A   1      43.896  24.256  30.187  1.00  0.00    -0.354 N 
ATOM     59  N   UNL A   1      44.077  27.703  31.446  1.00  0.00    -0.248 NA
ATOM     60  C   UNL A   1      44.408  28.924  33.367  1.00  0.00     0.031 C 
ATOM     61  C   UNL A   1      45.557  25.583  29.551  1.00  0.00     0.029 A 
ATOM     62  C   UNL A   1      44.815  25.182  30.650  1.00  0.00     0.049 A 
ATOM     63  H   UNL A   1      43.270  23.754  30.759  1.00  0.00     0.167 HD
ATOM     64  C   UNL A   1      44.653  26.853  32.350  1.00  0.00     0.074 A 
ATOM     65  C   UNL A   1      44.868  27.672  33.528  1.00  0.00     0.031 C 
ATOM     66  C   UNL A   1      44.892  25.541  32.058  1.00  0.00     0.037 A 
BRANCH  53  67
ATOM     67  C   UNL A   1      43.026  22.428  27.036  1.00  0.00     0.064 A 
ATOM     68  C   UNL A   1      42.307  21.220  27.159  1.00  0.00     0.173 A 
ATOM     69  C   UNL A   1      43.925  22.468  25.955  1.00  0.00     0.173 A 
ATOM     70  F   UNL A   1      41.333  21.072  28.066  1.00  0.00    -0.203 F 
ATOM     71  C   UNL A   1      42.567  20.105  26.356  1.00  0.00     0.198 A 
ATOM     72  C   UNL A   1      44.230  21.337  25.190  1.00  0.00     0.198 A 
ATOM     73  F   UNL A   1      44.499  23.617  25.574  1.00  0.00    -0.203 F 
ATOM     74  F   UNL A   1      41.859  18.981  26.530  1.00  0.00    -0.200 F 
ATOM     75  C   UNL A   1      43.560  20.149  25.400  1.00  0.00     0.200 A 
ATOM     76  F   UNL A   1      45.183  21.407  24.249  1.00  0.00    -0.200 F 
ATOM     77  F   UNL A   1      43.850  19.065  24.669  1.00  0.00    -0.200 F 
ENDBRANCH  53  67
BRANCH  54  78
ATOM     78  C   UNL A   1      42.125  30.862  31.878  1.00  0.00     0.064 A 
ATOM     79  C   UNL A   1      42.231  32.251  31.661  1.00  0.00     0.173 A 
ATOM     80  C   UNL A   1      40.849  30.332  32.105  1.00  0.00     0.173 A 
ATOM     81  F   UNL A   1      43.438  32.808  31.470  1.00  0.00    -0.203 F 
ATOM     82  C   UNL A   1      41.099  33.027  31.437  1.00  0.00     0.198 A 
ATOM     83  C   UNL A   1      39.717  31.129  31.930  1.00  0.00     0.198 A 
ATOM     84  F   UNL A   1      40.691  29.023  32.344  1.00  0.00    -0.203 F 
ATOM     85  F   UNL A   1      41.234  34.293  31.013  1.00  0.00    -0.200 F 
ATOM     86  C   UNL A   1      39.843  32.454  31.528  1.00  0.00     0.200 A 
ATOM     87  F   UNL A   1      38.498  30.583  32.036  1.00  0.00    -0.200 F 
ATOM     88  F   UNL A   1      38.760  33.160  31.174  1.00  0.00    -0.200 F 
ENDBRANCH  54  78
BRANCH  66  89
ATOM     89  C   UNL A   1      45.342  24.518  33.064  1.00  0.00     0.064 A 
ATOM     90  C   UNL A   1      44.553  23.427  33.465  1.00  0.00     0.173 A 
ATOM     91  C   UNL A   1      46.655  24.553  33.584  1.00  0.00     0.173 A 
ATOM     92  F   UNL A   1      43.341  23.214  32.933  1.00  0.00    -0.203 F 
ATOM     93  C   UNL A   1      45.008  22.494  34.399  1.00  0.00     0.198 A 
ATOM     94  C   UNL A   1      47.126  23.588  34.472  1.00  0.00     0.198 A 
ATOM     95  F   UNL A   1      47.519  25.516  33.231  1.00  0.00    -0.203 F 
ATOM     96  F   UNL A   1      44.195  21.507  34.800  1.00  0.00    -0.200 F 
ATOM     97  C   UNL A   1      46.295  22.572  34.899  1.00  0.00     0.200 A 
ATOM     98  F   UNL A   1      48.394  23.642  34.903  1.00  0.00    -0.200 F 
ATOM     99  F   UNL A   1      46.737  21.662  35.776  1.00  0.00    -0.200 F 
ENDBRANCH  66  89
ENDBRANCH  40  41
ENDBRANCH  32  35
ENDBRANCH  30  31
ENDBRANCH  29  30
ENDBRANCH  28  29
ENDBRANCH   1  28
TORSDOF 16
ENDMDL
