MODEL 1
REMARK VINA RESULT:     -11.6      0.000      0.000
REMARK SMILES NS(=O)(=O)c1ccc(C#Cc2cc(Cl)cc3c2O[C@H](C(F)(F)F)C(C(=O)NCCCCNC(=O)c2ccc(-c4c5nc(c(-c6c(F)c(F)c(F)c(F)c6F)c6ccc([nH]6)c(-c6c(F)c(F)c(F)c(F)c6F)c6nc(c(-c7c(F)c(F)c(F)c(F)c7F)c7ccc4[nH]7)C=C6)C=C5)cc2)=C3)cc1
REMARK SMILES IDX 28 1 27 2 25 3 26 4 24 6 11 7 12 8 17 9 13 10 16 11 18 12
REMARK SMILES IDX 14 13 15 14 98 15 19 16 10 17 9 18 8 19 5 20 6 21 100 22
REMARK SMILES IDX 7 23 99 24 2 25 3 26 4 27 1 28 20 31 21 32 22 33 23 34 29 35
REMARK SMILES IDX 30 36 31 37 32 38 33 39 34 41 35 42 36 43 97 44 37 45 96 46
REMARK SMILES IDX 38 47 39 48 40 49 90 50 41 51 95 52 89 53 91 54 42 55 94 56
REMARK SMILES IDX 88 57 87 58 43 60 75 61 55 62 74 63 56 64 59 65 73 66 92 67
REMARK SMILES IDX 57 68 58 69 72 71 93 72 60 73 44 74 45 75 53 76 46 77 47 78
REMARK SMILES IDX 51 79 54 80 48 81 49 82 52 83 50 84 76 85 77 86 85 87 78 88
REMARK SMILES IDX 79 89 83 90 86 91 80 92 81 93 84 94 82 95 61 96 62 97 70 98
REMARK SMILES IDX 63 99 64 100 68 101 71 102 65 103 66 104 69 105 67 106
REMARK H PARENT 27 5 1 29 1 30 32 40 91 59 59 70
REMARK Flexibility Score: inf
ROOT
ATOM      1  C   UNL A   1      43.147  36.668  34.593  1.00  0.00     0.116 C 
ENDROOT
BRANCH   1   2
ATOM      2  N   UNL A   1      43.638  35.433  35.183  1.00  0.00    -0.352 N 
ATOM      3  C   UNL A   1      43.098  34.291  35.680  1.00  0.00     0.251 C 
ATOM      4  O   UNL A   1      43.903  33.435  36.053  1.00  0.00    -0.270 OA
ATOM      5  H   UNL A   1      44.621  35.421  35.234  1.00  0.00     0.163 HD
BRANCH   3   6
ATOM      6  C   UNL A   1      41.633  34.033  35.800  1.00  0.00     0.067 C 
ATOM      7  C   UNL A   1      37.477  33.612  36.221  1.00  0.00     0.069 A 
ATOM      8  C   UNL A   1      36.937  33.216  37.442  1.00  0.00     0.041 A 
ATOM      9  C   UNL A   1      38.862  33.778  36.103  1.00  0.00     0.143 A 
ATOM     10  C   UNL A   1      37.786  32.995  38.529  1.00  0.00     0.043 A 
ATOM     11  C   UNL A   1      39.716  33.563  37.189  1.00  0.00     0.020 A 
ATOM     12  O   UNL A   1      39.322  34.204  34.892  1.00  0.00    -0.474 OA
ATOM     13  Cl  UNL A   1      37.118  32.513  40.040  1.00  0.00    -0.084 Cl
ATOM     14  C   UNL A   1      39.169  33.167  38.411  1.00  0.00     0.032 A 
ATOM     15  C   UNL A   1      41.149  33.803  37.034  1.00  0.00     0.025 C 
ATOM     16  C   UNL A   1      40.719  34.003  34.614  1.00  0.00     0.314 C 
BRANCH   7  17
ATOM     17  C   UNL A   1      36.631  33.830  35.082  1.00  0.00    -0.058 C 
ATOM     18  C   UNL A   1      35.931  34.078  34.135  1.00  0.00    -0.062 C 
BRANCH  18  19
ATOM     19  C   UNL A   1      35.164  34.365  32.962  1.00  0.00     0.025 A 
ATOM     20  C   UNL A   1      33.878  34.982  30.563  1.00  0.00     0.082 A 
ATOM     21  C   UNL A   1      33.785  35.866  31.644  1.00  0.00     0.023 A 
ATOM     22  C   UNL A   1      34.571  33.775  30.689  1.00  0.00     0.023 A 
ATOM     23  C   UNL A   1      34.429  35.551  32.848  1.00  0.00     0.018 A 
ATOM     24  C   UNL A   1      35.212  33.470  31.890  1.00  0.00     0.018 A 
BRANCH  20  25
ATOM     25  S   UNL A   1      33.198  35.427  28.992  1.00  0.00     0.238 S 
ATOM     26  O   UNL A   1      32.324  36.566  29.155  1.00  0.00    -0.207 OA
ATOM     27  O   UNL A   1      32.783  34.222  28.314  1.00  0.00    -0.207 OA
BRANCH  25  28
ATOM     28  N   UNL A   1      34.523  36.011  28.144  1.00  0.00    -0.225 NA
ATOM     29  H   UNL A   1      35.038  35.229  27.737  1.00  0.00     0.137 HD
ATOM     30  H   UNL A   1      35.134  36.526  28.779  1.00  0.00     0.137 HD
ENDBRANCH  25  28
ENDBRANCH  20  25
ENDBRANCH  18  19
ENDBRANCH   7  17
BRANCH  16  31
ATOM     31  C   UNL A   1      40.894  32.727  33.766  1.00  0.00     0.429 C 
ATOM     32  F   UNL A   1      42.129  32.700  33.204  1.00  0.00    -0.167 F 
ATOM     33  F   UNL A   1      40.787  31.593  34.500  1.00  0.00    -0.167 F 
ATOM     34  F   UNL A   1      39.987  32.635  32.770  1.00  0.00    -0.167 F 
ENDBRANCH  16  31
ENDBRANCH   3   6
ENDBRANCH   1   2
BRANCH   1  35
ATOM     35  C   UNL A   1      42.918  36.539  33.093  1.00  0.00     0.023 C 
BRANCH  35  36
ATOM     36  C   UNL A   1      44.213  36.538  32.292  1.00  0.00     0.023 C 
BRANCH  36  37
ATOM     37  C   UNL A   1      44.043  36.867  30.815  1.00  0.00     0.116 C 
BRANCH  37  38
ATOM     38  N   UNL A   1      45.194  37.539  30.219  1.00  0.00    -0.352 N 
ATOM     39  C   UNL A   1      46.159  37.000  29.397  1.00  0.00     0.251 C 
ATOM     40  H   UNL A   1      45.292  38.495  30.430  1.00  0.00     0.163 HD
ATOM     41  O   UNL A   1      47.137  37.654  29.054  1.00  0.00    -0.269 OA
BRANCH  39  42
ATOM     42  C   UNL A   1      46.013  35.590  28.987  1.00  0.00     0.039 A 
ATOM     43  C   UNL A   1      45.367  35.288  27.789  1.00  0.00     0.014 A 
ATOM     44  C   UNL A   1      46.382  34.579  29.874  1.00  0.00     0.014 A 
ATOM     45  C   UNL A   1      44.877  34.006  27.593  1.00  0.00     0.010 A 
ATOM     46  C   UNL A   1      45.999  33.262  29.607  1.00  0.00     0.010 A 
ATOM     47  C   UNL A   1      45.180  32.976  28.501  1.00  0.00    -0.014 A 
BRANCH  47  48
ATOM     48  C   UNL A   1      44.607  31.622  28.279  1.00  0.00     0.031 A 
ATOM     49  C   UNL A   1      45.368  30.573  27.511  1.00  0.00     0.074 A 
ATOM     50  C   UNL A   1      43.418  31.319  28.835  1.00  0.00     0.049 A 
ATOM     51  N   UNL A   1      45.025  29.336  27.244  1.00  0.00    -0.248 NA
ATOM     52  C   UNL A   1      46.680  30.954  26.963  1.00  0.00     0.031 C 
ATOM     53  C   UNL A   1      42.595  32.245  29.615  1.00  0.00     0.029 A 
ATOM     54  N   UNL A   1      42.707  30.146  28.859  1.00  0.00    -0.354 N 
ATOM     55  C   UNL A   1      46.064  28.804  26.491  1.00  0.00     0.074 A 
ATOM     56  C   UNL A   1      47.032  29.861  26.301  1.00  0.00     0.031 C 
ATOM     57  C   UNL A   1      41.528  31.592  30.092  1.00  0.00     0.029 A 
ATOM     58  C   UNL A   1      41.544  30.226  29.584  1.00  0.00     0.049 A 
ATOM     59  H   UNL A   1      43.002  29.327  28.400  1.00  0.00     0.167 HD
ATOM     60  C   UNL A   1      46.206  27.541  26.020  1.00  0.00     0.037 A 
ATOM     61  C   UNL A   1      40.582  29.309  29.802  1.00  0.00     0.037 A 
ATOM     62  C   UNL A   1      45.249  26.486  26.233  1.00  0.00     0.049 A 
ATOM     63  C   UNL A   1      40.733  27.938  29.206  1.00  0.00     0.074 A 
ATOM     64  C   UNL A   1      45.317  25.168  25.816  1.00  0.00     0.029 A 
ATOM     65  N   UNL A   1      44.051  26.627  26.919  1.00  0.00    -0.354 N 
ATOM     66  N   UNL A   1      41.734  27.441  28.522  1.00  0.00    -0.248 NA
ATOM     67  C   UNL A   1      39.618  27.003  29.406  1.00  0.00     0.031 C 
ATOM     68  C   UNL A   1      44.134  24.528  26.192  1.00  0.00     0.029 A 
ATOM     69  C   UNL A   1      43.356  25.428  26.903  1.00  0.00     0.049 A 
ATOM     70  H   UNL A   1      43.742  27.456  27.351  1.00  0.00     0.167 HD
ATOM     71  C   UNL A   1      41.380  26.133  28.224  1.00  0.00     0.074 A 
ATOM     72  C   UNL A   1      40.081  25.905  28.823  1.00  0.00     0.031 C 
ATOM     73  C   UNL A   1      42.067  25.209  27.511  1.00  0.00     0.037 A 
BRANCH  60  74
ATOM     74  C   UNL A   1      47.440  27.214  25.226  1.00  0.00     0.064 A 
ATOM     75  C   UNL A   1      47.557  27.562  23.872  1.00  0.00     0.173 A 
ATOM     76  C   UNL A   1      48.553  26.628  25.849  1.00  0.00     0.173 A 
ATOM     77  F   UNL A   1      46.521  28.118  23.225  1.00  0.00    -0.203 F 
ATOM     78  C   UNL A   1      48.734  27.321  23.168  1.00  0.00     0.198 A 
ATOM     79  C   UNL A   1      49.741  26.419  25.150  1.00  0.00     0.198 A 
ATOM     80  F   UNL A   1      48.502  26.285  27.145  1.00  0.00    -0.203 F 
ATOM     81  F   UNL A   1      48.808  27.628  21.865  1.00  0.00    -0.200 F 
ATOM     82  C   UNL A   1      49.829  26.761  23.810  1.00  0.00     0.200 A 
ATOM     83  F   UNL A   1      50.804  25.897  25.779  1.00  0.00    -0.200 F 
ATOM     84  F   UNL A   1      50.968  26.551  23.136  1.00  0.00    -0.200 F 
ENDBRANCH  60  74
BRANCH  61  85
ATOM     85  C   UNL A   1      39.398  29.670  30.625  1.00  0.00     0.064 A 
ATOM     86  C   UNL A   1      38.198  30.069  30.023  1.00  0.00     0.173 A 
ATOM     87  C   UNL A   1      39.432  29.597  32.027  1.00  0.00     0.173 A 
ATOM     88  F   UNL A   1      38.120  30.171  28.689  1.00  0.00    -0.203 F 
ATOM     89  C   UNL A   1      37.079  30.386  30.791  1.00  0.00     0.198 A 
ATOM     90  C   UNL A   1      38.302  29.879  32.791  1.00  0.00     0.198 A 
ATOM     91  F   UNL A   1      40.555  29.215  32.653  1.00  0.00    -0.203 F 
ATOM     92  F   UNL A   1      35.955  30.800  30.190  1.00  0.00    -0.200 F 
ATOM     93  C   UNL A   1      37.129  30.281  32.172  1.00  0.00     0.200 A 
ATOM     94  F   UNL A   1      38.350  29.753  34.124  1.00  0.00    -0.200 F 
ATOM     95  F   UNL A   1      36.047  30.569  32.908  1.00  0.00    -0.200 F 
ENDBRANCH  61  85
BRANCH  73  96
ATOM     96  C   UNL A   1      41.447  23.853  27.338  1.00  0.00     0.064 A 
ATOM     97  C   UNL A   1      40.333  23.658  26.511  1.00  0.00     0.173 A 
ATOM     98  C   UNL A   1      42.039  22.720  27.921  1.00  0.00     0.173 A 
ATOM     99  F   UNL A   1      39.723  24.709  25.943  1.00  0.00    -0.203 F 
ATOM    100  C   UNL A   1      39.829  22.382  26.277  1.00  0.00     0.198 A 
ATOM    101  C   UNL A   1      41.555  21.443  27.657  1.00  0.00     0.198 A 
ATOM    102  F   UNL A   1      43.114  22.850  28.715  1.00  0.00    -0.203 F 
ATOM    103  F   UNL A   1      38.746  22.223  25.505  1.00  0.00    -0.200 F 
ATOM    104  C   UNL A   1      40.450  21.275  26.837  1.00  0.00     0.200 A 
ATOM    105  F   UNL A   1      42.168  20.373  28.181  1.00  0.00    -0.200 F 
ATOM    106  F   UNL A   1      39.982  20.044  26.584  1.00  0.00    -0.200 F 
ENDBRANCH  73  96
ENDBRANCH  47  48
ENDBRANCH  39  42
ENDBRANCH  37  38
ENDBRANCH  36  37
ENDBRANCH  35  36
ENDBRANCH   1  35
TORSDOF 16
ENDMDL
MODEL 2
REMARK VINA RESULT:     -11.6      3.701      8.660
REMARK SMILES NS(=O)(=O)c1ccc(C#Cc2cc(Cl)cc3c2O[C@H](C(F)(F)F)C(C(=O)NCCCCNC(=O)c2ccc(-c4c5nc(c(-c6c(F)c(F)c(F)c(F)c6F)c6ccc([nH]6)c(-c6c(F)c(F)c(F)c(F)c6F)c6nc(c(-c7c(F)c(F)c(F)c(F)c7F)c7ccc4[nH]7)C=C6)C=C5)cc2)=C3)cc1
REMARK SMILES IDX 28 1 27 2 25 3 26 4 24 6 11 7 12 8 17 9 13 10 16 11 18 12
REMARK SMILES IDX 14 13 15 14 98 15 19 16 10 17 9 18 8 19 5 20 6 21 100 22
REMARK SMILES IDX 7 23 99 24 2 25 3 26 4 27 1 28 20 31 21 32 22 33 23 34 29 35
REMARK SMILES IDX 30 36 31 37 32 38 33 39 34 41 35 42 36 43 97 44 37 45 96 46
REMARK SMILES IDX 38 47 39 48 40 49 90 50 41 51 95 52 89 53 91 54 42 55 94 56
REMARK SMILES IDX 88 57 87 58 43 60 75 61 55 62 74 63 56 64 59 65 73 66 92 67
REMARK SMILES IDX 57 68 58 69 72 71 93 72 60 73 44 74 45 75 53 76 46 77 47 78
REMARK SMILES IDX 51 79 54 80 48 81 49 82 52 83 50 84 76 85 77 86 85 87 78 88
REMARK SMILES IDX 79 89 83 90 86 91 80 92 81 93 84 94 82 95 61 96 62 97 70 98
REMARK SMILES IDX 63 99 64 100 68 101 71 102 65 103 66 104 69 105 67 106
REMARK H PARENT 27 5 1 29 1 30 32 40 91 59 59 70
REMARK Flexibility Score: inf
ROOT
ATOM      1  C   UNL A   1      41.839  33.530  38.361  1.00  0.00     0.116 C 
ENDROOT
BRANCH   1   2
ATOM      2  N   UNL A   1      43.164  33.715  37.792  1.00  0.00    -0.352 N 
ATOM      3  C   UNL A   1      43.693  33.903  36.557  1.00  0.00     0.251 C 
ATOM      4  O   UNL A   1      44.914  34.073  36.516  1.00  0.00    -0.270 OA
ATOM      5  H   UNL A   1      43.862  33.703  38.487  1.00  0.00     0.163 HD
BRANCH   3   6
ATOM      6  C   UNL A   1      42.901  33.906  35.292  1.00  0.00     0.067 C 
ATOM      7  C   UNL A   1      40.601  33.608  31.792  1.00  0.00     0.069 A 
ATOM      8  C   UNL A   1      41.200  33.227  30.594  1.00  0.00     0.041 A 
ATOM      9  C   UNL A   1      41.373  33.674  32.957  1.00  0.00     0.143 A 
ATOM     10  C   UNL A   1      42.561  32.913  30.578  1.00  0.00     0.043 A 
ATOM     11  C   UNL A   1      42.735  33.356  32.947  1.00  0.00     0.020 A 
ATOM     12  O   UNL A   1      40.717  34.017  34.103  1.00  0.00    -0.474 OA
ATOM     13  Cl  UNL A   1      43.301  32.435  29.099  1.00  0.00    -0.084 Cl
ATOM     14  C   UNL A   1      43.330  32.973  31.744  1.00  0.00     0.032 A 
ATOM     15  C   UNL A   1      43.488  33.384  34.199  1.00  0.00     0.025 C 
ATOM     16  C   UNL A   1      41.520  34.477  35.205  1.00  0.00     0.314 C 
BRANCH   7  17
ATOM     17  C   UNL A   1      39.209  33.954  31.837  1.00  0.00    -0.058 C 
ATOM     18  C   UNL A   1      38.029  34.186  31.905  1.00  0.00    -0.062 C 
BRANCH  18  19
ATOM     19  C   UNL A   1      36.641  34.500  32.055  1.00  0.00     0.025 A 
ATOM     20  C   UNL A   1      33.974  35.307  32.206  1.00  0.00     0.082 A 
ATOM     21  C   UNL A   1      34.812  35.482  33.313  1.00  0.00     0.023 A 
ATOM     22  C   UNL A   1      34.449  34.693  31.043  1.00  0.00     0.023 A 
ATOM     23  C   UNL A   1      36.150  35.072  33.234  1.00  0.00     0.018 A 
ATOM     24  C   UNL A   1      35.783  34.290  30.972  1.00  0.00     0.018 A 
BRANCH  20  25
ATOM     25  S   UNL A   1      32.326  35.950  32.231  1.00  0.00     0.238 S 
ATOM     26  O   UNL A   1      31.421  34.924  32.696  1.00  0.00    -0.207 OA
ATOM     27  O   UNL A   1      32.102  36.685  31.009  1.00  0.00    -0.207 OA
BRANCH  25  28
ATOM     28  N   UNL A   1      32.369  37.088  33.463  1.00  0.00    -0.225 NA
ATOM     29  H   UNL A   1      32.124  36.642  34.347  1.00  0.00     0.137 HD
ATOM     30  H   UNL A   1      31.700  37.833  33.262  1.00  0.00     0.137 HD
ENDBRANCH  25  28
ENDBRANCH  20  25
ENDBRANCH  18  19
ENDBRANCH   7  17
BRANCH  16  31
ATOM     31  C   UNL A   1      41.516  36.018  35.234  1.00  0.00     0.429 C 
ATOM     32  F   UNL A   1      41.781  36.468  36.486  1.00  0.00    -0.167 F 
ATOM     33  F   UNL A   1      42.463  36.559  34.429  1.00  0.00    -0.167 F 
ATOM     34  F   UNL A   1      40.331  36.543  34.850  1.00  0.00    -0.167 F 
ENDBRANCH  16  31
ENDBRANCH   3   6
ENDBRANCH   1   2
BRANCH   1  35
ATOM     35  C   UNL A   1      41.339  34.778  39.076  1.00  0.00     0.023 C 
BRANCH  35  36
ATOM     36  C   UNL A   1      39.907  34.642  39.577  1.00  0.00     0.023 C 
BRANCH  36  37
ATOM     37  C   UNL A   1      39.440  33.205  39.775  1.00  0.00     0.116 C 
BRANCH  37  38
ATOM     38  N   UNL A   1      38.020  33.079  40.087  1.00  0.00    -0.352 N 
ATOM     39  C   UNL A   1      37.007  32.636  39.266  1.00  0.00     0.251 C 
ATOM     40  H   UNL A   1      37.753  33.342  40.997  1.00  0.00     0.163 HD
ATOM     41  O   UNL A   1      35.836  32.683  39.620  1.00  0.00    -0.269 OA
BRANCH  39  42
ATOM     42  C   UNL A   1      37.368  32.155  37.918  1.00  0.00     0.039 A 
ATOM     43  C   UNL A   1      37.495  30.785  37.690  1.00  0.00     0.014 A 
ATOM     44  C   UNL A   1      37.728  33.078  36.936  1.00  0.00     0.014 A 
ATOM     45  C   UNL A   1      38.204  30.350  36.580  1.00  0.00     0.010 A 
ATOM     46  C   UNL A   1      38.325  32.624  35.758  1.00  0.00     0.010 A 
ATOM     47  C   UNL A   1      38.634  31.263  35.602  1.00  0.00    -0.014 A 
BRANCH  47  48
ATOM     48  C   UNL A   1      39.424  30.766  34.444  1.00  0.00     0.031 A 
ATOM     49  C   UNL A   1      38.821  30.697  33.065  1.00  0.00     0.074 A 
ATOM     50  C   UNL A   1      40.717  30.438  34.631  1.00  0.00     0.049 A 
ATOM     51  N   UNL A   1      39.376  30.310  31.942  1.00  0.00    -0.248 NA
ATOM     52  C   UNL A   1      37.415  31.108  32.920  1.00  0.00     0.031 C 
ATOM     53  C   UNL A   1      41.417  30.480  35.917  1.00  0.00     0.029 A 
ATOM     54  N   UNL A   1      41.682  30.034  33.743  1.00  0.00    -0.354 N 
ATOM     55  C   UNL A   1      38.389  30.415  30.971  1.00  0.00     0.074 A 
ATOM     56  C   UNL A   1      37.186  30.859  31.638  1.00  0.00     0.031 C 
ATOM     57  C   UNL A   1      42.708  30.179  35.725  1.00  0.00     0.029 A 
ATOM     58  C   UNL A   1      42.912  29.841  34.322  1.00  0.00     0.049 A 
ATOM     59  H   UNL A   1      41.509  29.897  32.784  1.00  0.00     0.167 HD
ATOM     60  C   UNL A   1      38.486  30.183  29.639  1.00  0.00     0.037 A 
ATOM     61  C   UNL A   1      44.075  29.418  33.789  1.00  0.00     0.037 A 
ATOM     62  C   UNL A   1      39.693  29.764  28.976  1.00  0.00     0.049 A 
ATOM     63  C   UNL A   1      44.132  29.100  32.323  1.00  0.00     0.074 A 
ATOM     64  C   UNL A   1      39.895  29.528  27.627  1.00  0.00     0.029 A 
ATOM     65  N   UNL A   1      40.902  29.516  29.611  1.00  0.00    -0.354 N 
ATOM     66  N   UNL A   1      43.199  29.233  31.412  1.00  0.00    -0.248 NA
ATOM     67  C   UNL A   1      45.400  28.565  31.811  1.00  0.00     0.031 C 
ATOM     68  C   UNL A   1      41.205  29.075  27.453  1.00  0.00     0.029 A 
ATOM     69  C   UNL A   1      41.842  29.094  28.683  1.00  0.00     0.049 A 
ATOM     70  H   UNL A   1      41.066  29.623  30.575  1.00  0.00     0.167 HD
ATOM     71  C   UNL A   1      43.770  28.817  30.218  1.00  0.00     0.074 A 
ATOM     72  C   UNL A   1      45.139  28.449  30.516  1.00  0.00     0.031 C 
ATOM     73  C   UNL A   1      43.206  28.739  28.989  1.00  0.00     0.037 A 
BRANCH  60  74
ATOM     74  C   UNL A   1      37.257  30.376  28.794  1.00  0.00     0.064 A 
ATOM     75  C   UNL A   1      36.511  29.287  28.320  1.00  0.00     0.173 A 
ATOM     76  C   UNL A   1      36.769  31.666  28.530  1.00  0.00     0.173 A 
ATOM     77  F   UNL A   1      36.934  28.032  28.536  1.00  0.00    -0.203 F 
ATOM     78  C   UNL A   1      35.333  29.482  27.602  1.00  0.00     0.198 A 
ATOM     79  C   UNL A   1      35.573  31.856  27.841  1.00  0.00     0.198 A 
ATOM     80  F   UNL A   1      37.436  32.745  28.969  1.00  0.00    -0.203 F 
ATOM     81  F   UNL A   1      34.658  28.424  27.129  1.00  0.00    -0.200 F 
ATOM     82  C   UNL A   1      34.859  30.764  27.374  1.00  0.00     0.200 A 
ATOM     83  F   UNL A   1      35.107  33.097  27.640  1.00  0.00    -0.200 F 
ATOM     84  F   UNL A   1      33.714  30.948  26.702  1.00  0.00    -0.200 F 
ENDBRANCH  60  74
BRANCH  61  85
ATOM     85  C   UNL A   1      45.271  29.279  34.661  1.00  0.00     0.064 A 
ATOM     86  C   UNL A   1      45.495  28.104  35.392  1.00  0.00     0.173 A 
ATOM     87  C   UNL A   1      46.229  30.300  34.758  1.00  0.00     0.173 A 
ATOM     88  F   UNL A   1      44.602  27.107  35.346  1.00  0.00    -0.203 F 
ATOM     89  C   UNL A   1      46.628  27.961  36.191  1.00  0.00     0.198 A 
ATOM     90  C   UNL A   1      47.378  30.141  35.528  1.00  0.00     0.198 A 
ATOM     91  F   UNL A   1      46.065  31.442  34.074  1.00  0.00    -0.203 F 
ATOM     92  F   UNL A   1      46.798  26.842  36.908  1.00  0.00    -0.200 F 
ATOM     93  C   UNL A   1      47.572  28.974  36.251  1.00  0.00     0.200 A 
ATOM     94  F   UNL A   1      48.298  31.114  35.563  1.00  0.00    -0.200 F 
ATOM     95  F   UNL A   1      48.669  28.827  37.005  1.00  0.00    -0.200 F 
ENDBRANCH  61  85
BRANCH  73  96
ATOM     96  C   UNL A   1      44.059  28.250  27.855  1.00  0.00     0.064 A 
ATOM     97  C   UNL A   1      44.884  29.122  27.131  1.00  0.00     0.173 A 
ATOM     98  C   UNL A   1      44.133  26.878  27.560  1.00  0.00     0.173 A 
ATOM     99  F   UNL A   1      44.839  30.442  27.366  1.00  0.00    -0.203 F 
ATOM    100  C   UNL A   1      45.746  28.642  26.150  1.00  0.00     0.198 A 
ATOM    101  C   UNL A   1      45.022  26.398  26.603  1.00  0.00     0.198 A 
ATOM    102  F   UNL A   1      43.371  26.000  28.230  1.00  0.00    -0.203 F 
ATOM    103  F   UNL A   1      46.505  29.497  25.452  1.00  0.00    -0.200 F 
ATOM    104  C   UNL A   1      45.827  27.280  25.898  1.00  0.00     0.200 A 
ATOM    105  F   UNL A   1      45.114  25.081  26.376  1.00  0.00    -0.200 F 
ATOM    106  F   UNL A   1      46.682  26.818  24.975  1.00  0.00    -0.200 F 
ENDBRANCH  73  96
ENDBRANCH  47  48
ENDBRANCH  39  42
ENDBRANCH  37  38
ENDBRANCH  36  37
ENDBRANCH  35  36
ENDBRANCH   1  35
TORSDOF 16
ENDMDL
MODEL 3
REMARK VINA RESULT:     -11.3      4.343     11.391
REMARK SMILES NS(=O)(=O)c1ccc(C#Cc2cc(Cl)cc3c2O[C@H](C(F)(F)F)C(C(=O)NCCCCNC(=O)c2ccc(-c4c5nc(c(-c6c(F)c(F)c(F)c(F)c6F)c6ccc([nH]6)c(-c6c(F)c(F)c(F)c(F)c6F)c6nc(c(-c7c(F)c(F)c(F)c(F)c7F)c7ccc4[nH]7)C=C6)C=C5)cc2)=C3)cc1
REMARK SMILES IDX 28 1 27 2 25 3 26 4 24 6 11 7 12 8 17 9 13 10 16 11 18 12
REMARK SMILES IDX 14 13 15 14 98 15 19 16 10 17 9 18 8 19 5 20 6 21 100 22
REMARK SMILES IDX 7 23 99 24 2 25 3 26 4 27 1 28 20 31 21 32 22 33 23 34 29 35
REMARK SMILES IDX 30 36 31 37 32 38 33 39 34 41 35 42 36 43 97 44 37 45 96 46
REMARK SMILES IDX 38 47 39 48 40 49 90 50 41 51 95 52 89 53 91 54 42 55 94 56
REMARK SMILES IDX 88 57 87 58 43 60 75 61 55 62 74 63 56 64 59 65 73 66 92 67
REMARK SMILES IDX 57 68 58 69 72 71 93 72 60 73 44 74 45 75 53 76 46 77 47 78
REMARK SMILES IDX 51 79 54 80 48 81 49 82 52 83 50 84 76 85 77 86 85 87 78 88
REMARK SMILES IDX 79 89 83 90 86 91 80 92 81 93 84 94 82 95 61 96 62 97 70 98
REMARK SMILES IDX 63 99 64 100 68 101 71 102 65 103 66 104 69 105 67 106
REMARK H PARENT 27 5 1 29 1 30 32 40 91 59 59 70
REMARK Flexibility Score: inf
ROOT
ATOM      1  C   UNL A   1      40.784  26.120  28.154  1.00  0.00     0.116 C 
ENDROOT
BRANCH   1   2
ATOM      2  N   UNL A   1      40.692  27.186  27.170  1.00  0.00    -0.352 N 
ATOM      3  C   UNL A   1      40.498  28.529  27.182  1.00  0.00     0.251 C 
ATOM      4  O   UNL A   1      40.540  29.087  26.082  1.00  0.00    -0.270 OA
ATOM      5  H   UNL A   1      40.800  26.843  26.253  1.00  0.00     0.163 HD
BRANCH   3   6
ATOM      6  C   UNL A   1      40.238  29.334  28.411  1.00  0.00     0.067 C 
ATOM      7  C   UNL A   1      39.635  31.849  31.719  1.00  0.00     0.069 A 
ATOM      8  C   UNL A   1      40.612  31.947  32.706  1.00  0.00     0.041 A 
ATOM      9  C   UNL A   1      39.862  31.030  30.607  1.00  0.00     0.143 A 
ATOM     10  C   UNL A   1      41.803  31.230  32.568  1.00  0.00     0.043 A 
ATOM     11  C   UNL A   1      41.054  30.314  30.460  1.00  0.00     0.020 A 
ATOM     12  O   UNL A   1      38.882  31.008  29.658  1.00  0.00    -0.474 OA
ATOM     13  Cl  UNL A   1      43.013  31.357  33.785  1.00  0.00    -0.084 Cl
ATOM     14  C   UNL A   1      42.030  30.417  31.453  1.00  0.00     0.032 A 
ATOM     15  C   UNL A   1      41.270  29.516  29.255  1.00  0.00     0.025 C 
ATOM     16  C   UNL A   1      38.892  29.908  28.730  1.00  0.00     0.314 C 
BRANCH   7  17
ATOM     17  C   UNL A   1      38.395  32.560  31.841  1.00  0.00    -0.058 C 
ATOM     18  C   UNL A   1      37.386  33.203  31.978  1.00  0.00    -0.062 C 
BRANCH  18  19
ATOM     19  C   UNL A   1      36.203  34.002  32.071  1.00  0.00     0.025 A 
ATOM     20  C   UNL A   1      33.994  35.708  32.082  1.00  0.00     0.082 A 
ATOM     21  C   UNL A   1      34.889  35.729  33.157  1.00  0.00     0.023 A 
ATOM     22  C   UNL A   1      34.173  34.810  31.025  1.00  0.00     0.023 A 
ATOM     23  C   UNL A   1      35.995  34.869  33.150  1.00  0.00     0.018 A 
ATOM     24  C   UNL A   1      35.278  33.958  31.024  1.00  0.00     0.018 A 
BRANCH  20  25
ATOM     25  S   UNL A   1      32.676  36.886  32.000  1.00  0.00     0.238 S 
ATOM     26  O   UNL A   1      31.851  36.760  33.179  1.00  0.00    -0.207 OA
ATOM     27  O   UNL A   1      32.129  36.869  30.664  1.00  0.00    -0.207 OA
BRANCH  25  28
ATOM     28  N   UNL A   1      33.459  38.360  32.169  1.00  0.00    -0.225 NA
ATOM     29  H   UNL A   1      32.768  39.098  32.311  1.00  0.00     0.137 HD
ATOM     30  H   UNL A   1      33.998  38.558  31.325  1.00  0.00     0.137 HD
ENDBRANCH  25  28
ENDBRANCH  20  25
ENDBRANCH  18  19
ENDBRANCH   7  17
BRANCH  16  31
ATOM     31  C   UNL A   1      37.889  28.835  29.198  1.00  0.00     0.429 C 
ATOM     32  F   UNL A   1      38.546  27.779  29.741  1.00  0.00    -0.167 F 
ATOM     33  F   UNL A   1      37.044  29.289  30.154  1.00  0.00    -0.167 F 
ATOM     34  F   UNL A   1      37.121  28.366  28.189  1.00  0.00    -0.167 F 
ENDBRANCH  16  31
ENDBRANCH   3   6
ENDBRANCH   1   2
BRANCH   1  35
ATOM     35  C   UNL A   1      39.550  25.227  28.154  1.00  0.00     0.023 C 
BRANCH  35  36
ATOM     36  C   UNL A   1      39.759  23.926  27.391  1.00  0.00     0.023 C 
BRANCH  36  37
ATOM     37  C   UNL A   1      41.081  23.227  27.682  1.00  0.00     0.116 C 
BRANCH  37  38
ATOM     38  N   UNL A   1      41.674  22.569  26.522  1.00  0.00    -0.352 N 
ATOM     39  C   UNL A   1      42.658  23.049  25.686  1.00  0.00     0.251 C 
ATOM     40  H   UNL A   1      41.329  21.672  26.313  1.00  0.00     0.163 HD
ATOM     41  O   UNL A   1      42.989  22.435  24.679  1.00  0.00    -0.269 OA
BRANCH  39  42
ATOM     42  C   UNL A   1      43.263  24.356  26.006  1.00  0.00     0.039 A 
ATOM     43  C   UNL A   1      43.152  25.405  25.093  1.00  0.00     0.014 A 
ATOM     44  C   UNL A   1      44.066  24.479  27.140  1.00  0.00     0.014 A 
ATOM     45  C   UNL A   1      44.028  26.475  25.188  1.00  0.00     0.010 A 
ATOM     46  C   UNL A   1      44.851  25.623  27.300  1.00  0.00     0.010 A 
ATOM     47  C   UNL A   1      44.894  26.597  26.289  1.00  0.00    -0.014 A 
BRANCH  47  48
ATOM     48  C   UNL A   1      45.846  27.738  26.339  1.00  0.00     0.031 A 
ATOM     49  C   UNL A   1      45.376  29.127  26.689  1.00  0.00     0.074 A 
ATOM     50  C   UNL A   1      47.156  27.504  26.133  1.00  0.00     0.049 A 
ATOM     51  N   UNL A   1      46.075  30.230  26.799  1.00  0.00    -0.248 NA
ATOM     52  C   UNL A   1      43.937  29.310  26.942  1.00  0.00     0.031 C 
ATOM     53  C   UNL A   1      47.734  26.199  25.805  1.00  0.00     0.029 A 
ATOM     54  N   UNL A   1      48.243  28.339  26.197  1.00  0.00    -0.354 N 
ATOM     55  C   UNL A   1      45.166  31.231  27.116  1.00  0.00     0.074 A 
ATOM     56  C   UNL A   1      43.856  30.619  27.138  1.00  0.00     0.031 C 
ATOM     57  C   UNL A   1      49.067  26.307  25.758  1.00  0.00     0.029 A 
ATOM     58  C   UNL A   1      49.437  27.701  25.969  1.00  0.00     0.049 A 
ATOM     59  H   UNL A   1      48.172  29.302  26.388  1.00  0.00     0.167 HD
ATOM     60  C   UNL A   1      45.406  32.537  27.386  1.00  0.00     0.037 A 
ATOM     61  C   UNL A   1      50.693  28.185  25.914  1.00  0.00     0.037 A 
ATOM     62  C   UNL A   1      46.715  33.135  27.386  1.00  0.00     0.049 A 
ATOM     63  C   UNL A   1      50.920  29.652  26.147  1.00  0.00     0.074 A 
ATOM     64  C   UNL A   1      47.062  34.444  27.672  1.00  0.00     0.029 A 
ATOM     65  N   UNL A   1      47.894  32.467  27.085  1.00  0.00    -0.354 N 
ATOM     66  N   UNL A   1      50.054  30.579  26.475  1.00  0.00    -0.248 NA
ATOM     67  C   UNL A   1      52.296  30.141  25.994  1.00  0.00     0.031 C 
ATOM     68  C   UNL A   1      48.438  34.585  27.481  1.00  0.00     0.029 A 
ATOM     69  C   UNL A   1      48.962  33.348  27.143  1.00  0.00     0.049 A 
ATOM     70  H   UNL A   1      47.960  31.510  26.863  1.00  0.00     0.167 HD
ATOM     71  C   UNL A   1      50.780  31.756  26.586  1.00  0.00     0.074 A 
ATOM     72  C   UNL A   1      52.163  31.421  26.313  1.00  0.00     0.031 C 
ATOM     73  C   UNL A   1      50.337  33.002  26.878  1.00  0.00     0.037 A 
BRANCH  60  74
ATOM     74  C   UNL A   1      44.234  33.422  27.709  1.00  0.00     0.064 A 
ATOM     75  C   UNL A   1      43.623  33.404  28.972  1.00  0.00     0.173 A 
ATOM     76  C   UNL A   1      43.774  34.364  26.774  1.00  0.00     0.173 A 
ATOM     77  F   UNL A   1      44.018  32.520  29.901  1.00  0.00    -0.203 F 
ATOM     78  C   UNL A   1      42.588  34.282  29.281  1.00  0.00     0.198 A 
ATOM     79  C   UNL A   1      42.761  35.263  27.098  1.00  0.00     0.198 A 
ATOM     80  F   UNL A   1      44.329  34.434  25.554  1.00  0.00    -0.203 F 
ATOM     81  F   UNL A   1      41.995  34.220  30.482  1.00  0.00    -0.200 F 
ATOM     82  C   UNL A   1      42.166  35.219  28.349  1.00  0.00     0.200 A 
ATOM     83  F   UNL A   1      42.370  36.181  26.203  1.00  0.00    -0.200 F 
ATOM     84  F   UNL A   1      41.184  36.077  28.657  1.00  0.00    -0.200 F 
ENDBRANCH  60  74
BRANCH  61  85
ATOM     85  C   UNL A   1      51.822  27.262  25.627  1.00  0.00     0.064 A 
ATOM     86  C   UNL A   1      52.235  27.019  24.311  1.00  0.00     0.173 A 
ATOM     87  C   UNL A   1      52.529  26.628  26.661  1.00  0.00     0.173 A 
ATOM     88  F   UNL A   1      51.581  27.586  23.288  1.00  0.00    -0.203 F 
ATOM     89  C   UNL A   1      53.308  26.171  24.040  1.00  0.00     0.198 A 
ATOM     90  C   UNL A   1      53.624  25.811  26.390  1.00  0.00     0.198 A 
ATOM     91  F   UNL A   1      52.178  26.832  27.939  1.00  0.00    -0.203 F 
ATOM     92  F   UNL A   1      53.659  25.927  22.770  1.00  0.00    -0.200 F 
ATOM     93  C   UNL A   1      54.007  25.577  25.079  1.00  0.00     0.200 A 
ATOM     94  F   UNL A   1      54.310  25.258  27.400  1.00  0.00    -0.200 F 
ATOM     95  F   UNL A   1      55.050  24.778  24.817  1.00  0.00    -0.200 F 
ENDBRANCH  61  85
BRANCH  73  96
ATOM     96  C   UNL A   1      51.348  34.111  26.936  1.00  0.00     0.064 A 
ATOM     97  C   UNL A   1      51.594  34.933  25.828  1.00  0.00     0.173 A 
ATOM     98  C   UNL A   1      51.997  34.421  28.142  1.00  0.00     0.173 A 
ATOM     99  F   UNL A   1      51.010  34.670  24.650  1.00  0.00    -0.203 F 
ATOM    100  C   UNL A   1      52.457  36.021  25.922  1.00  0.00     0.198 A 
ATOM    101  C   UNL A   1      52.831  35.530  28.242  1.00  0.00     0.198 A 
ATOM    102  F   UNL A   1      51.789  33.670  29.235  1.00  0.00    -0.203 F 
ATOM    103  F   UNL A   1      52.699  36.777  24.843  1.00  0.00    -0.200 F 
ATOM    104  C   UNL A   1      53.062  36.328  27.132  1.00  0.00     0.200 A 
ATOM    105  F   UNL A   1      53.398  35.837  29.417  1.00  0.00    -0.200 F 
ATOM    106  F   UNL A   1      53.867  37.395  27.228  1.00  0.00    -0.200 F 
ENDBRANCH  73  96
ENDBRANCH  47  48
ENDBRANCH  39  42
ENDBRANCH  37  38
ENDBRANCH  36  37
ENDBRANCH  35  36
ENDBRANCH   1  35
TORSDOF 16
ENDMDL
