MODEL 1
REMARK VINA RESULT:     -11.8      0.000      0.000
REMARK SMILES CC1(C)CSC[C@H](N(CCC(=O)NCCCCNC(=O)c2ccc(-c3c4nc(c(-c5c(F)c(F)c(F)c(F)c5F)c5ccc([nH]5)c(-c5c(F)c(F)c(F)c(F)c5F)c5nc(c(-c6c(F)c(F)c(F)c(F)c6F)c6ccc3[nH]6)C=C5)C=C4)cc2)c2ccccc2)C1
REMARK SMILES IDX 15 1 14 2 13 3 11 4 12 5 10 7 9 8 8 9 7 10 1 11 2 12 3 13
REMARK SMILES IDX 4 14 90 15 5 16 6 17 84 18 85 19 89 20 86 21 88 22 87 23
REMARK SMILES IDX 16 24 17 25 18 26 19 27 20 29 21 30 22 31 83 32 23 33 82 34
REMARK SMILES IDX 24 35 25 36 26 37 76 38 27 39 81 40 75 41 77 42 28 43 80 44
REMARK SMILES IDX 74 45 73 46 29 48 61 49 41 50 60 51 42 52 45 53 59 54 78 55
REMARK SMILES IDX 43 56 44 57 58 59 79 60 46 61 30 62 31 63 39 64 32 65 33 66
REMARK SMILES IDX 37 67 40 68 34 69 35 70 38 71 36 72 62 73 63 74 71 75 64 76
REMARK SMILES IDX 65 77 69 78 72 79 66 80 67 81 70 82 68 83 47 84 48 85 56 86
REMARK SMILES IDX 49 87 50 88 54 89 57 90 51 91 52 92 55 93 53 94
REMARK H PARENT 13 6 18 28 77 47 45 58
REMARK Flexibility Score: inf
ROOT
ATOM      1  C   UNL A   1      30.736  31.621  25.460  1.00  0.00     0.023 C 
ENDROOT
BRANCH   1   2
ATOM      2  C   UNL A   1      30.943  30.275  24.788  1.00  0.00     0.116 C 
BRANCH   2   3
ATOM      3  N   UNL A   1      30.227  30.117  23.537  1.00  0.00    -0.356 N 
ATOM      4  C   UNL A   1      30.270  29.117  22.613  1.00  0.00     0.221 C 
ATOM      5  O   UNL A   1      29.457  29.154  21.685  1.00  0.00    -0.275 OA
ATOM      6  H   UNL A   1      29.608  30.852  23.320  1.00  0.00     0.163 HD
BRANCH   4   7
ATOM      7  C   UNL A   1      31.291  28.003  22.697  1.00  0.00     0.121 C 
BRANCH   7   8
ATOM      8  C   UNL A   1      30.851  26.832  23.592  1.00  0.00     0.127 C 
BRANCH   8   9
ATOM      9  N   UNL A   1      31.941  26.232  24.426  1.00  0.00    -0.367 N 
BRANCH   9  10
ATOM     10  C   UNL A   1      32.141  24.713  24.251  1.00  0.00     0.092 C 
ATOM     11  C   UNL A   1      31.526  21.734  25.407  1.00  0.00     0.012 C 
ATOM     12  C   UNL A   1      32.909  22.416  25.335  1.00  0.00    -0.024 C 
ATOM     13  C   UNL A   1      33.711  21.936  26.569  1.00  0.00     0.012 C 
ATOM     14  C   UNL A   1      33.681  21.995  24.073  1.00  0.00     0.076 C 
ATOM     15  C   UNL A   1      32.817  23.968  25.419  1.00  0.00     0.033 C 
ATOM     16  S   UNL A   1      32.937  22.596  22.530  1.00  0.00    -0.159 SA
ATOM     17  C   UNL A   1      32.841  24.377  22.916  1.00  0.00     0.094 C 
ENDBRANCH   9  10
BRANCH   9  18
ATOM     18  C   UNL A   1      32.399  27.028  25.494  1.00  0.00     0.037 A 
ATOM     19  C   UNL A   1      33.690  27.605  25.520  1.00  0.00     0.026 A 
ATOM     20  C   UNL A   1      31.647  27.313  26.642  1.00  0.00     0.026 A 
ATOM     21  C   UNL A   1      34.139  28.497  26.509  1.00  0.00     0.002 A 
ATOM     22  C   UNL A   1      32.072  28.212  27.642  1.00  0.00     0.002 A 
ATOM     23  C   UNL A   1      33.311  28.828  27.562  1.00  0.00     0.000 A 
ENDBRANCH   9  18
ENDBRANCH   8   9
ENDBRANCH   7   8
ENDBRANCH   4   7
ENDBRANCH   2   3
ENDBRANCH   1   2
BRANCH   1  24
ATOM     24  C   UNL A   1      31.253  31.785  26.878  1.00  0.00     0.023 C 
BRANCH  24  25
ATOM     25  C   UNL A   1      32.538  32.567  26.964  1.00  0.00     0.116 C 
BRANCH  25  26
ATOM     26  N   UNL A   1      32.347  33.918  27.474  1.00  0.00    -0.352 N 
ATOM     27  C   UNL A   1      33.008  34.585  28.477  1.00  0.00     0.251 C 
ATOM     28  H   UNL A   1      31.634  34.433  27.032  1.00  0.00     0.163 HD
ATOM     29  O   UNL A   1      32.597  35.679  28.848  1.00  0.00    -0.269 OA
BRANCH  27  30
ATOM     30  C   UNL A   1      34.197  33.983  29.124  1.00  0.00     0.039 A 
ATOM     31  C   UNL A   1      35.462  34.506  28.844  1.00  0.00     0.014 A 
ATOM     32  C   UNL A   1      34.081  32.893  29.987  1.00  0.00     0.014 A 
ATOM     33  C   UNL A   1      36.592  33.941  29.437  1.00  0.00     0.010 A 
ATOM     34  C   UNL A   1      35.177  32.443  30.702  1.00  0.00     0.010 A 
ATOM     35  C   UNL A   1      36.453  32.908  30.378  1.00  0.00    -0.014 A 
BRANCH  35  36
ATOM     36  C   UNL A   1      37.626  32.211  30.953  1.00  0.00     0.031 A 
ATOM     37  C   UNL A   1      38.077  32.556  32.350  1.00  0.00     0.074 A 
ATOM     38  C   UNL A   1      38.300  31.312  30.215  1.00  0.00     0.049 A 
ATOM     39  N   UNL A   1      39.092  32.093  33.036  1.00  0.00    -0.248 NA
ATOM     40  C   UNL A   1      37.312  33.597  33.059  1.00  0.00     0.031 C 
ATOM     41  C   UNL A   1      37.988  30.946  28.832  1.00  0.00     0.029 A 
ATOM     42  N   UNL A   1      39.385  30.537  30.530  1.00  0.00    -0.354 N 
ATOM     43  C   UNL A   1      39.095  32.805  34.228  1.00  0.00     0.074 A 
ATOM     44  C   UNL A   1      38.047  33.793  34.141  1.00  0.00     0.031 C 
ATOM     45  C   UNL A   1      38.824  29.973  28.439  1.00  0.00     0.029 A 
ATOM     46  C   UNL A   1      39.753  29.677  29.525  1.00  0.00     0.049 A 
ATOM     47  H   UNL A   1      39.855  30.592  31.393  1.00  0.00     0.167 HD
ATOM     48  C   UNL A   1      39.873  32.624  35.322  1.00  0.00     0.037 A 
ATOM     49  C   UNL A   1      40.722  28.745  29.502  1.00  0.00     0.037 A 
ATOM     50  C   UNL A   1      40.885  31.607  35.412  1.00  0.00     0.049 A 
ATOM     51  C   UNL A   1      41.571  28.554  30.729  1.00  0.00     0.074 A 
ATOM     52  C   UNL A   1      41.694  31.283  36.484  1.00  0.00     0.029 A 
ATOM     53  N   UNL A   1      41.224  30.746  34.376  1.00  0.00    -0.354 N 
ATOM     54  N   UNL A   1      41.517  29.176  31.882  1.00  0.00    -0.248 NA
ATOM     55  C   UNL A   1      42.609  27.519  30.653  1.00  0.00     0.031 C 
ATOM     56  C   UNL A   1      42.560  30.262  36.079  1.00  0.00     0.029 A 
ATOM     57  C   UNL A   1      42.247  29.905  34.777  1.00  0.00     0.049 A 
ATOM     58  H   UNL A   1      40.798  30.736  33.489  1.00  0.00     0.167 HD
ATOM     59  C   UNL A   1      42.485  28.584  32.683  1.00  0.00     0.074 A 
ATOM     60  C   UNL A   1      43.099  27.543  31.883  1.00  0.00     0.031 C 
ATOM     61  C   UNL A   1      42.833  28.869  33.963  1.00  0.00     0.037 A 
BRANCH  48  62
ATOM     62  C   UNL A   1      39.650  33.542  36.492  1.00  0.00     0.064 A 
ATOM     63  C   UNL A   1      40.272  34.800  36.580  1.00  0.00     0.173 A 
ATOM     64  C   UNL A   1      38.818  33.155  37.553  1.00  0.00     0.173 A 
ATOM     65  F   UNL A   1      41.092  35.219  35.603  1.00  0.00    -0.203 F 
ATOM     66  C   UNL A   1      40.111  35.606  37.704  1.00  0.00     0.198 A 
ATOM     67  C   UNL A   1      38.625  33.982  38.657  1.00  0.00     0.198 A 
ATOM     68  F   UNL A   1      38.194  31.967  37.525  1.00  0.00    -0.203 F 
ATOM     69  F   UNL A   1      40.781  36.763  37.799  1.00  0.00    -0.200 F 
ATOM     70  C   UNL A   1      39.284  35.200  38.739  1.00  0.00     0.200 A 
ATOM     71  F   UNL A   1      37.814  33.593  39.650  1.00  0.00    -0.200 F 
ATOM     72  F   UNL A   1      39.132  35.974  39.822  1.00  0.00    -0.200 F 
ENDBRANCH  48  62
BRANCH  49  73
ATOM     73  C   UNL A   1      40.888  27.878  28.306  1.00  0.00     0.064 A 
ATOM     74  C   UNL A   1      41.679  28.295  27.226  1.00  0.00     0.173 A 
ATOM     75  C   UNL A   1      40.275  26.620  28.217  1.00  0.00     0.173 A 
ATOM     76  F   UNL A   1      42.275  29.497  27.257  1.00  0.00    -0.203 F 
ATOM     77  C   UNL A   1      41.835  27.498  26.094  1.00  0.00     0.198 A 
ATOM     78  C   UNL A   1      40.455  25.810  27.098  1.00  0.00     0.198 A 
ATOM     79  F   UNL A   1      39.516  26.170  29.226  1.00  0.00    -0.203 F 
ATOM     80  F   UNL A   1      42.560  27.941  25.059  1.00  0.00    -0.200 F 
ATOM     81  C   UNL A   1      41.227  26.253  26.034  1.00  0.00     0.200 A 
ATOM     82  F   UNL A   1      39.881  24.600  27.049  1.00  0.00    -0.200 F 
ATOM     83  F   UNL A   1      41.381  25.483  24.948  1.00  0.00    -0.200 F 
ENDBRANCH  49  73
BRANCH  61  84
ATOM     84  C   UNL A   1      43.890  28.008  34.591  1.00  0.00     0.064 A 
ATOM     85  C   UNL A   1      43.582  26.790  35.214  1.00  0.00     0.173 A 
ATOM     86  C   UNL A   1      45.237  28.399  34.541  1.00  0.00     0.173 A 
ATOM     87  F   UNL A   1      42.309  26.378  35.297  1.00  0.00    -0.203 F 
ATOM     88  C   UNL A   1      44.579  26.016  35.802  1.00  0.00     0.198 A 
ATOM     89  C   UNL A   1      46.235  27.604  35.095  1.00  0.00     0.198 A 
ATOM     90  F   UNL A   1      45.588  29.550  33.947  1.00  0.00    -0.203 F 
ATOM     91  F   UNL A   1      44.254  24.889  36.449  1.00  0.00    -0.200 F 
ATOM     92  C   UNL A   1      45.904  26.420  35.736  1.00  0.00     0.200 A 
ATOM     93  F   UNL A   1      47.517  27.986  35.014  1.00  0.00    -0.200 F 
ATOM     94  F   UNL A   1      46.862  25.670  36.298  1.00  0.00    -0.200 F 
ENDBRANCH  61  84
ENDBRANCH  35  36
ENDBRANCH  27  30
ENDBRANCH  25  26
ENDBRANCH  24  25
ENDBRANCH   1  24
TORSDOF 15
ENDMDL
MODEL 2
REMARK VINA RESULT:     -11.8      1.199      2.524
REMARK SMILES CC1(C)CSC[C@H](N(CCC(=O)NCCCCNC(=O)c2ccc(-c3c4nc(c(-c5c(F)c(F)c(F)c(F)c5F)c5ccc([nH]5)c(-c5c(F)c(F)c(F)c(F)c5F)c5nc(c(-c6c(F)c(F)c(F)c(F)c6F)c6ccc3[nH]6)C=C5)C=C4)cc2)c2ccccc2)C1
REMARK SMILES IDX 15 1 14 2 13 3 11 4 12 5 10 7 9 8 8 9 7 10 1 11 2 12 3 13
REMARK SMILES IDX 4 14 90 15 5 16 6 17 84 18 85 19 89 20 86 21 88 22 87 23
REMARK SMILES IDX 16 24 17 25 18 26 19 27 20 29 21 30 22 31 83 32 23 33 82 34
REMARK SMILES IDX 24 35 25 36 26 37 76 38 27 39 81 40 75 41 77 42 28 43 80 44
REMARK SMILES IDX 74 45 73 46 29 48 61 49 41 50 60 51 42 52 45 53 59 54 78 55
REMARK SMILES IDX 43 56 44 57 58 59 79 60 46 61 30 62 31 63 39 64 32 65 33 66
REMARK SMILES IDX 37 67 40 68 34 69 35 70 38 71 36 72 62 73 63 74 71 75 64 76
REMARK SMILES IDX 65 77 69 78 72 79 66 80 67 81 70 82 68 83 47 84 48 85 56 86
REMARK SMILES IDX 49 87 50 88 54 89 57 90 51 91 52 92 55 93 53 94
REMARK H PARENT 13 6 18 28 77 47 45 58
REMARK Flexibility Score: inf
ROOT
ATOM      1  C   UNL A   1      31.419  30.900  26.024  1.00  0.00     0.023 C 
ENDROOT
BRANCH   1   2
ATOM      2  C   UNL A   1      31.788  29.853  27.060  1.00  0.00     0.116 C 
BRANCH   2   3
ATOM      3  N   UNL A   1      33.191  29.846  27.428  1.00  0.00    -0.356 N 
ATOM      4  C   UNL A   1      34.173  28.943  27.155  1.00  0.00     0.221 C 
ATOM      5  O   UNL A   1      35.329  29.234  27.474  1.00  0.00    -0.275 OA
ATOM      6  H   UNL A   1      33.480  30.621  27.962  1.00  0.00     0.163 HD
BRANCH   4   7
ATOM      7  C   UNL A   1      33.867  27.612  26.502  1.00  0.00     0.121 C 
BRANCH   7   8
ATOM      8  C   UNL A   1      33.726  27.696  24.973  1.00  0.00     0.127 C 
BRANCH   8   9
ATOM      9  N   UNL A   1      32.701  26.777  24.384  1.00  0.00    -0.367 N 
BRANCH   9  10
ATOM     10  C   UNL A   1      33.171  25.326  24.157  1.00  0.00     0.092 C 
ATOM     11  C   UNL A   1      34.168  22.541  25.515  1.00  0.00     0.012 C 
ATOM     12  C   UNL A   1      35.011  23.471  24.617  1.00  0.00    -0.024 C 
ATOM     13  C   UNL A   1      36.468  23.397  25.137  1.00  0.00     0.012 C 
ATOM     14  C   UNL A   1      35.006  22.999  23.153  1.00  0.00     0.076 C 
ATOM     15  C   UNL A   1      34.565  24.959  24.706  1.00  0.00     0.033 C 
ATOM     16  S   UNL A   1      33.385  23.144  22.348  1.00  0.00    -0.159 SA
ATOM     17  C   UNL A   1      33.044  24.907  22.676  1.00  0.00     0.094 C 
ENDBRANCH   9  10
BRANCH   9  18
ATOM     18  C   UNL A   1      31.586  27.406  23.795  1.00  0.00     0.037 A 
ATOM     19  C   UNL A   1      30.271  26.895  23.907  1.00  0.00     0.026 A 
ATOM     20  C   UNL A   1      31.657  28.574  23.025  1.00  0.00     0.026 A 
ATOM     21  C   UNL A   1      29.123  27.553  23.435  1.00  0.00     0.002 A 
ATOM     22  C   UNL A   1      30.518  29.258  22.549  1.00  0.00     0.002 A 
ATOM     23  C   UNL A   1      29.245  28.761  22.779  1.00  0.00     0.000 A 
ENDBRANCH   9  18
ENDBRANCH   8   9
ENDBRANCH   7   8
ENDBRANCH   4   7
ENDBRANCH   2   3
ENDBRANCH   1   2
BRANCH   1  24
ATOM     24  C   UNL A   1      31.248  32.330  26.501  1.00  0.00     0.023 C 
BRANCH  24  25
ATOM     25  C   UNL A   1      32.515  32.941  27.043  1.00  0.00     0.116 C 
BRANCH  25  26
ATOM     26  N   UNL A   1      32.308  34.266  27.610  1.00  0.00    -0.352 N 
ATOM     27  C   UNL A   1      32.958  34.895  28.644  1.00  0.00     0.251 C 
ATOM     28  H   UNL A   1      31.592  34.793  27.187  1.00  0.00     0.163 HD
ATOM     29  O   UNL A   1      32.536  35.968  29.061  1.00  0.00    -0.269 OA
BRANCH  27  30
ATOM     30  C   UNL A   1      34.150  34.277  29.270  1.00  0.00     0.039 A 
ATOM     31  C   UNL A   1      35.419  34.601  28.783  1.00  0.00     0.014 A 
ATOM     32  C   UNL A   1      34.030  33.363  30.317  1.00  0.00     0.014 A 
ATOM     33  C   UNL A   1      36.550  34.016  29.355  1.00  0.00     0.010 A 
ATOM     34  C   UNL A   1      35.152  32.915  30.992  1.00  0.00     0.010 A 
ATOM     35  C   UNL A   1      36.422  33.174  30.471  1.00  0.00    -0.014 A 
BRANCH  35  36
ATOM     36  C   UNL A   1      37.581  32.452  31.044  1.00  0.00     0.031 A 
ATOM     37  C   UNL A   1      38.054  32.802  32.433  1.00  0.00     0.074 A 
ATOM     38  C   UNL A   1      38.224  31.527  30.311  1.00  0.00     0.049 A 
ATOM     39  N   UNL A   1      39.062  32.321  33.115  1.00  0.00    -0.248 NA
ATOM     40  C   UNL A   1      37.324  33.873  33.135  1.00  0.00     0.031 C 
ATOM     41  C   UNL A   1      37.890  31.153  28.936  1.00  0.00     0.029 A 
ATOM     42  N   UNL A   1      39.291  30.727  30.626  1.00  0.00    -0.354 N 
ATOM     43  C   UNL A   1      39.096  33.047  34.299  1.00  0.00     0.074 A 
ATOM     44  C   UNL A   1      38.074  34.062  34.208  1.00  0.00     0.031 C 
ATOM     45  C   UNL A   1      38.695  30.152  28.548  1.00  0.00     0.029 A 
ATOM     46  C   UNL A   1      39.626  29.845  29.629  1.00  0.00     0.049 A 
ATOM     47  H   UNL A   1      39.769  30.780  31.484  1.00  0.00     0.167 HD
ATOM     48  C   UNL A   1      39.878  32.858  35.388  1.00  0.00     0.037 A 
ATOM     49  C   UNL A   1      40.569  28.887  29.608  1.00  0.00     0.037 A 
ATOM     50  C   UNL A   1      40.863  31.815  35.481  1.00  0.00     0.049 A 
ATOM     51  C   UNL A   1      41.424  28.688  30.831  1.00  0.00     0.074 A 
ATOM     52  C   UNL A   1      41.674  31.483  36.550  1.00  0.00     0.029 A 
ATOM     53  N   UNL A   1      41.170  30.933  34.453  1.00  0.00    -0.354 N 
ATOM     54  N   UNL A   1      41.398  29.325  31.976  1.00  0.00    -0.248 NA
ATOM     55  C   UNL A   1      42.433  27.624  30.759  1.00  0.00     0.031 C 
ATOM     56  C   UNL A   1      42.508  30.434  36.150  1.00  0.00     0.029 A 
ATOM     57  C   UNL A   1      42.173  30.070  34.855  1.00  0.00     0.049 A 
ATOM     58  H   UNL A   1      40.736  30.924  33.569  1.00  0.00     0.167 HD
ATOM     59  C   UNL A   1      42.356  28.717  32.776  1.00  0.00     0.074 A 
ATOM     60  C   UNL A   1      42.935  27.650  31.984  1.00  0.00     0.031 C 
ATOM     61  C   UNL A   1      42.724  29.009  34.049  1.00  0.00     0.037 A 
BRANCH  48  62
ATOM     62  C   UNL A   1      39.691  33.797  36.548  1.00  0.00     0.064 A 
ATOM     63  C   UNL A   1      40.343  35.040  36.612  1.00  0.00     0.173 A 
ATOM     64  C   UNL A   1      38.863  33.442  37.624  1.00  0.00     0.173 A 
ATOM     65  F   UNL A   1      41.160  35.427  35.620  1.00  0.00    -0.203 F 
ATOM     66  C   UNL A   1      40.214  35.864  37.728  1.00  0.00     0.198 A 
ATOM     67  C   UNL A   1      38.703  34.287  38.719  1.00  0.00     0.198 A 
ATOM     68  F   UNL A   1      38.211  32.269  37.618  1.00  0.00    -0.203 F 
ATOM     69  F   UNL A   1      40.912  37.007  37.799  1.00  0.00    -0.200 F 
ATOM     70  C   UNL A   1      39.390  35.490  38.777  1.00  0.00     0.200 A 
ATOM     71  F   UNL A   1      37.895  33.930  39.727  1.00  0.00    -0.200 F 
ATOM     72  F   UNL A   1      39.270  36.282  39.852  1.00  0.00    -0.200 F 
ENDBRANCH  48  62
BRANCH  49  73
ATOM     73  C   UNL A   1      40.701  28.001  28.422  1.00  0.00     0.064 A 
ATOM     74  C   UNL A   1      40.046  26.762  28.380  1.00  0.00     0.173 A 
ATOM     75  C   UNL A   1      41.467  28.371  27.308  1.00  0.00     0.173 A 
ATOM     76  F   UNL A   1      39.312  26.357  29.428  1.00  0.00    -0.203 F 
ATOM     77  C   UNL A   1      40.169  25.917  27.280  1.00  0.00     0.198 A 
ATOM     78  C   UNL A   1      41.566  27.539  26.194  1.00  0.00     0.198 A 
ATOM     79  F   UNL A   1      42.105  29.550  27.292  1.00  0.00    -0.203 F 
ATOM     80  F   UNL A   1      39.569  24.720  27.286  1.00  0.00    -0.200 F 
ATOM     81  C   UNL A   1      40.924  26.309  26.185  1.00  0.00     0.200 A 
ATOM     82  F   UNL A   1      42.282  27.928  25.131  1.00  0.00    -0.200 F 
ATOM     83  F   UNL A   1      41.039  25.499  25.124  1.00  0.00    -0.200 F 
ENDBRANCH  49  73
BRANCH  61  84
ATOM     84  C   UNL A   1      43.763  28.127  34.678  1.00  0.00     0.064 A 
ATOM     85  C   UNL A   1      45.128  28.448  34.645  1.00  0.00     0.173 A 
ATOM     86  C   UNL A   1      43.379  26.954  35.348  1.00  0.00     0.173 A 
ATOM     87  F   UNL A   1      45.547  29.551  34.008  1.00  0.00    -0.203 F 
ATOM     88  C   UNL A   1      46.074  27.606  35.223  1.00  0.00     0.198 A 
ATOM     89  C   UNL A   1      44.324  26.136  35.958  1.00  0.00     0.198 A 
ATOM     90  F   UNL A   1      42.085  26.607  35.418  1.00  0.00    -0.203 F 
ATOM     91  F   UNL A   1      47.377  27.898  35.122  1.00  0.00    -0.200 F 
ATOM     92  C   UNL A   1      45.671  26.455  35.884  1.00  0.00     0.200 A 
ATOM     93  F   UNL A   1      43.932  25.035  36.613  1.00  0.00    -0.200 F 
ATOM     94  F   UNL A   1      46.583  25.649  36.445  1.00  0.00    -0.200 F 
ENDBRANCH  61  84
ENDBRANCH  35  36
ENDBRANCH  27  30
ENDBRANCH  25  26
ENDBRANCH  24  25
ENDBRANCH   1  24
TORSDOF 15
ENDMDL
MODEL 3
REMARK VINA RESULT:     -11.7      1.428      7.567
REMARK SMILES CC1(C)CSC[C@H](N(CCC(=O)NCCCCNC(=O)c2ccc(-c3c4nc(c(-c5c(F)c(F)c(F)c(F)c5F)c5ccc([nH]5)c(-c5c(F)c(F)c(F)c(F)c5F)c5nc(c(-c6c(F)c(F)c(F)c(F)c6F)c6ccc3[nH]6)C=C5)C=C4)cc2)c2ccccc2)C1
REMARK SMILES IDX 15 1 14 2 13 3 11 4 12 5 10 7 9 8 8 9 7 10 1 11 2 12 3 13
REMARK SMILES IDX 4 14 90 15 5 16 6 17 84 18 85 19 89 20 86 21 88 22 87 23
REMARK SMILES IDX 16 24 17 25 18 26 19 27 20 29 21 30 22 31 83 32 23 33 82 34
REMARK SMILES IDX 24 35 25 36 26 37 76 38 27 39 81 40 75 41 77 42 28 43 80 44
REMARK SMILES IDX 74 45 73 46 29 48 61 49 41 50 60 51 42 52 45 53 59 54 78 55
REMARK SMILES IDX 43 56 44 57 58 59 79 60 46 61 30 62 31 63 39 64 32 65 33 66
REMARK SMILES IDX 37 67 40 68 34 69 35 70 38 71 36 72 62 73 63 74 71 75 64 76
REMARK SMILES IDX 65 77 69 78 72 79 66 80 67 81 70 82 68 83 47 84 48 85 56 86
REMARK SMILES IDX 49 87 50 88 54 89 57 90 51 91 52 92 55 93 53 94
REMARK H PARENT 13 6 18 28 77 47 45 58
REMARK Flexibility Score: inf
ROOT
ATOM      1  C   UNL A   1      31.539  30.871  26.119  1.00  0.00     0.023 C 
ENDROOT
BRANCH   1   2
ATOM      2  C   UNL A   1      31.992  29.847  27.145  1.00  0.00     0.116 C 
BRANCH   2   3
ATOM      3  N   UNL A   1      33.420  29.847  27.398  1.00  0.00    -0.356 N 
ATOM      4  C   UNL A   1      34.377  28.935  27.071  1.00  0.00     0.221 C 
ATOM      5  O   UNL A   1      35.555  29.232  27.288  1.00  0.00    -0.275 OA
ATOM      6  H   UNL A   1      33.751  30.636  27.886  1.00  0.00     0.163 HD
BRANCH   4   7
ATOM      7  C   UNL A   1      34.019  27.588  26.481  1.00  0.00     0.121 C 
BRANCH   7   8
ATOM      8  C   UNL A   1      33.637  27.651  24.993  1.00  0.00     0.127 C 
BRANCH   8   9
ATOM      9  N   UNL A   1      32.463  26.803  24.607  1.00  0.00    -0.367 N 
BRANCH   9  10
ATOM     10  C   UNL A   1      32.729  25.284  24.584  1.00  0.00     0.092 C 
ATOM     11  C   UNL A   1      31.605  22.310  25.278  1.00  0.00     0.012 C 
ATOM     12  C   UNL A   1      32.816  23.005  25.938  1.00  0.00    -0.024 C 
ATOM     13  C   UNL A   1      32.847  22.543  27.416  1.00  0.00     0.012 C 
ATOM     14  C   UNL A   1      34.139  22.579  25.280  1.00  0.00     0.076 C 
ATOM     15  C   UNL A   1      32.689  24.556  25.942  1.00  0.00     0.033 C 
ATOM     16  S   UNL A   1      34.319  23.158  23.569  1.00  0.00    -0.159 SA
ATOM     17  C   UNL A   1      34.030  24.942  23.823  1.00  0.00     0.094 C 
ENDBRANCH   9  10
BRANCH   9  18
ATOM     18  C   UNL A   1      31.397  27.485  23.988  1.00  0.00     0.037 A 
ATOM     19  C   UNL A   1      31.581  28.666  23.232  1.00  0.00     0.026 A 
ATOM     20  C   UNL A   1      30.056  27.088  24.070  1.00  0.00     0.026 A 
ATOM     21  C   UNL A   1      30.564  29.307  22.504  1.00  0.00     0.002 A 
ATOM     22  C   UNL A   1      29.019  27.709  23.341  1.00  0.00     0.002 A 
ATOM     23  C   UNL A   1      29.279  28.805  22.533  1.00  0.00     0.000 A 
ENDBRANCH   9  18
ENDBRANCH   8   9
ENDBRANCH   7   8
ENDBRANCH   4   7
ENDBRANCH   2   3
ENDBRANCH   1   2
BRANCH   1  24
ATOM     24  C   UNL A   1      31.355  32.302  26.589  1.00  0.00     0.023 C 
BRANCH  24  25
ATOM     25  C   UNL A   1      32.578  32.880  27.256  1.00  0.00     0.116 C 
BRANCH  25  26
ATOM     26  N   UNL A   1      32.406  34.272  27.647  1.00  0.00    -0.352 N 
ATOM     27  C   UNL A   1      33.031  34.996  28.633  1.00  0.00     0.251 C 
ATOM     28  H   UNL A   1      31.738  34.772  27.124  1.00  0.00     0.163 HD
ATOM     29  O   UNL A   1      32.640  36.129  28.893  1.00  0.00    -0.269 OA
BRANCH  27  30
ATOM     30  C   UNL A   1      34.158  34.410  29.395  1.00  0.00     0.039 A 
ATOM     31  C   UNL A   1      35.457  34.541  28.896  1.00  0.00     0.014 A 
ATOM     32  C   UNL A   1      33.948  33.714  30.586  1.00  0.00     0.014 A 
ATOM     33  C   UNL A   1      36.528  33.983  29.597  1.00  0.00     0.010 A 
ATOM     34  C   UNL A   1      35.019  33.311  31.363  1.00  0.00     0.010 A 
ATOM     35  C   UNL A   1      36.313  33.371  30.843  1.00  0.00    -0.014 A 
BRANCH  35  36
ATOM     36  C   UNL A   1      37.400  32.677  31.571  1.00  0.00     0.031 A 
ATOM     37  C   UNL A   1      38.125  31.537  30.901  1.00  0.00     0.074 A 
ATOM     38  C   UNL A   1      37.701  33.038  32.830  1.00  0.00     0.049 A 
ATOM     39  N   UNL A   1      39.083  30.773  31.362  1.00  0.00    -0.248 NA
ATOM     40  C   UNL A   1      37.684  31.174  29.542  1.00  0.00     0.031 C 
ATOM     41  C   UNL A   1      37.024  34.085  33.597  1.00  0.00     0.029 A 
ATOM     42  N   UNL A   1      38.662  32.566  33.685  1.00  0.00    -0.354 N 
ATOM     43  C   UNL A   1      39.328  29.836  30.367  1.00  0.00     0.074 A 
ATOM     44  C   UNL A   1      38.363  30.061  29.318  1.00  0.00     0.031 C 
ATOM     45  C   UNL A   1      37.631  34.219  34.786  1.00  0.00     0.029 A 
ATOM     46  C   UNL A   1      38.710  33.240  34.880  1.00  0.00     0.049 A 
ATOM     47  H   UNL A   1      39.259  31.816  33.464  1.00  0.00     0.167 HD
ATOM     48  C   UNL A   1      40.302  28.897  30.308  1.00  0.00     0.037 A 
ATOM     49  C   UNL A   1      39.548  33.090  35.920  1.00  0.00     0.037 A 
ATOM     50  C   UNL A   1      41.285  28.712  31.342  1.00  0.00     0.049 A 
ATOM     51  C   UNL A   1      40.628  32.046  35.833  1.00  0.00     0.074 A 
ATOM     52  C   UNL A   1      42.356  27.839  31.372  1.00  0.00     0.029 A 
ATOM     53  N   UNL A   1      41.308  29.421  32.535  1.00  0.00    -0.354 N 
ATOM     54  N   UNL A   1      40.906  31.216  34.856  1.00  0.00    -0.248 NA
ATOM     55  C   UNL A   1      41.521  31.928  36.992  1.00  0.00     0.031 C 
ATOM     56  C   UNL A   1      42.996  27.983  32.607  1.00  0.00     0.029 A 
ATOM     57  C   UNL A   1      42.363  28.990  33.320  1.00  0.00     0.049 A 
ATOM     58  H   UNL A   1      40.669  30.126  32.785  1.00  0.00     0.167 HD
ATOM     59  C   UNL A   1      42.026  30.504  35.263  1.00  0.00     0.074 A 
ATOM     60  C   UNL A   1      42.383  31.014  36.573  1.00  0.00     0.031 C 
ATOM     61  C   UNL A   1      42.703  29.523  34.616  1.00  0.00     0.037 A 
BRANCH  48  62
ATOM     62  C   UNL A   1      40.342  28.014  29.091  1.00  0.00     0.064 A 
ATOM     63  C   UNL A   1      41.083  28.357  27.947  1.00  0.00     0.173 A 
ATOM     64  C   UNL A   1      39.614  26.815  29.058  1.00  0.00     0.173 A 
ATOM     65  F   UNL A   1      41.787  29.500  27.914  1.00  0.00    -0.203 F 
ATOM     66  C   UNL A   1      41.050  27.563  26.803  1.00  0.00     0.198 A 
ATOM     67  C   UNL A   1      39.618  26.002  27.927  1.00  0.00     0.198 A 
ATOM     68  F   UNL A   1      38.890  26.432  30.121  1.00  0.00    -0.203 F 
ATOM     69  F   UNL A   1      41.699  27.956  25.698  1.00  0.00    -0.200 F 
ATOM     70  C   UNL A   1      40.322  26.383  26.795  1.00  0.00     0.200 A 
ATOM     71  F   UNL A   1      38.925  24.854  27.926  1.00  0.00    -0.200 F 
ATOM     72  F   UNL A   1      40.289  25.622  25.693  1.00  0.00    -0.200 F 
ENDBRANCH  48  62
BRANCH  49  73
ATOM     73  C   UNL A   1      39.444  33.996  37.094  1.00  0.00     0.064 A 
ATOM     74  C   UNL A   1      40.074  35.249  37.087  1.00  0.00     0.173 A 
ATOM     75  C   UNL A   1      38.712  33.641  38.236  1.00  0.00     0.173 A 
ATOM     76  F   UNL A   1      40.798  35.628  36.023  1.00  0.00    -0.203 F 
ATOM     77  C   UNL A   1      39.994  36.104  38.184  1.00  0.00     0.198 A 
ATOM     78  C   UNL A   1      38.607  34.509  39.321  1.00  0.00     0.198 A 
ATOM     79  F   UNL A   1      38.082  32.459  38.290  1.00  0.00    -0.203 F 
ATOM     80  F   UNL A   1      40.643  37.275  38.166  1.00  0.00    -0.200 F 
ATOM     81  C   UNL A   1      39.255  35.736  39.298  1.00  0.00     0.200 A 
ATOM     82  F   UNL A   1      37.878  34.158  40.389  1.00  0.00    -0.200 F 
ATOM     83  F   UNL A   1      39.173  36.560  40.351  1.00  0.00    -0.200 F 
ENDBRANCH  49  73
BRANCH  61  84
ATOM     84  C   UNL A   1      43.926  28.976  35.293  1.00  0.00     0.064 A 
ATOM     85  C   UNL A   1      45.201  29.517  35.072  1.00  0.00     0.173 A 
ATOM     86  C   UNL A   1      43.811  27.909  36.198  1.00  0.00     0.173 A 
ATOM     87  F   UNL A   1      45.364  30.529  34.208  1.00  0.00    -0.203 F 
ATOM     88  C   UNL A   1      46.322  28.983  35.701  1.00  0.00     0.198 A 
ATOM     89  C   UNL A   1      44.929  27.404  36.855  1.00  0.00     0.198 A 
ATOM     90  F   UNL A   1      42.613  27.363  36.454  1.00  0.00    -0.203 F 
ATOM     91  F   UNL A   1      47.538  29.472  35.425  1.00  0.00    -0.200 F 
ATOM     92  C   UNL A   1      46.185  27.932  36.596  1.00  0.00     0.200 A 
ATOM     93  F   UNL A   1      44.792  26.402  37.734  1.00  0.00    -0.200 F 
ATOM     94  F   UNL A   1      47.264  27.423  37.204  1.00  0.00    -0.200 F 
ENDBRANCH  61  84
ENDBRANCH  35  36
ENDBRANCH  27  30
ENDBRANCH  25  26
ENDBRANCH  24  25
ENDBRANCH   1  24
TORSDOF 15
ENDMDL
