MODEL 1
REMARK VINA RESULT:     -14.3      0.000      0.000
REMARK SMILES O=C(NCCCCNC(=O)c1ccc(-c2c3nc(c(-c4c(F)c(F)c(F)c(F)c4F)c4ccc([nH]4)c(-c4c(F)c(F)c(F)c(F)c4F)c4nc(c(-c5c(F)c(F)c(F)c(F)c5F)c5ccc2[nH]5)C=C4)C=C3)cc1)C1=Cc2cc(Cl)cc(-c3ccc(CO)cc3)c2O[C@@H]1C(F)(F)F
REMARK SMILES IDX 5 1 4 2 3 3 1 4 2 5 74 7 75 8 92 9 76 10 91 11 77 12 90 13
REMARK SMILES IDX 78 14 81 15 79 16 80 17 93 18 94 19 95 20 96 21 82 22 83 23
REMARK SMILES IDX 89 24 84 25 88 26 85 27 86 28 87 29 6 31 7 32 8 33 9 34
REMARK SMILES IDX 10 36 11 37 12 38 73 39 13 40 72 41 14 42 15 43 16 44 66 45
REMARK SMILES IDX 17 46 71 47 65 48 67 49 18 50 70 51 64 52 63 53 19 55 51 56
REMARK SMILES IDX 31 57 50 58 32 59 35 60 49 61 68 62 33 63 34 64 48 66 69 67
REMARK SMILES IDX 36 68 20 69 21 70 29 71 22 72 23 73 27 74 30 75 24 76 25 77
REMARK SMILES IDX 28 78 26 79 52 80 53 81 61 82 54 83 55 84 59 85 62 86 56 87
REMARK SMILES IDX 57 88 60 89 58 90 37 91 38 92 46 93 39 94 40 95 44 96 47 97
REMARK SMILES IDX 41 98 42 99 45 100 43 101
REMARK H PARENT 3 6 87 30 8 35 67 54 35 65
REMARK Flexibility Score: inf
ROOT
ATOM      1  C   UNL A   1      32.243  27.654  26.916  1.00  0.00     0.023 C 
ENDROOT
BRANCH   1   2
ATOM      2  C   UNL A   1      31.290  26.606  26.356  1.00  0.00     0.116 C 
BRANCH   2   3
ATOM      3  N   UNL A   1      31.469  25.266  26.887  1.00  0.00    -0.352 N 
ATOM      4  O   UNL A   1      32.436  23.268  27.196  1.00  0.00    -0.270 OA
ATOM      5  C   UNL A   1      32.290  24.253  26.472  1.00  0.00     0.251 C 
ATOM      6  H   UNL A   1      30.912  25.052  27.669  1.00  0.00     0.163 HD
BRANCH   5   7
ATOM      7  C   UNL A   1      33.094  24.320  25.214  1.00  0.00     0.067 C 
ATOM      8  C   UNL A   1      34.401  24.632  25.203  1.00  0.00     0.025 C 
ATOM      9  C   UNL A   1      32.586  23.376  24.153  1.00  0.00     0.314 C 
ATOM     10  C   UNL A   1      35.250  23.443  24.908  1.00  0.00     0.019 A 
ATOM     11  O   UNL A   1      33.325  22.125  24.200  1.00  0.00    -0.475 OA
ATOM     12  C   UNL A   1      36.587  23.506  25.315  1.00  0.00     0.032 A 
ATOM     13  C   UNL A   1      34.643  22.202  24.602  1.00  0.00     0.135 A 
ATOM     14  C   UNL A   1      37.289  22.325  25.511  1.00  0.00     0.042 A 
ATOM     15  C   UNL A   1      35.330  20.999  24.865  1.00  0.00     0.026 A 
ATOM     16  Cl  UNL A   1      38.871  22.382  26.182  1.00  0.00    -0.084 Cl
ATOM     17  C   UNL A   1      36.670  21.092  25.303  1.00  0.00     0.033 A 
BRANCH   9  18
ATOM     18  C   UNL A   1      32.589  24.025  22.755  1.00  0.00     0.429 C 
ATOM     19  F   UNL A   1      33.483  25.038  22.677  1.00  0.00    -0.167 F 
ATOM     20  F   UNL A   1      32.925  23.127  21.795  1.00  0.00    -0.167 F 
ATOM     21  F   UNL A   1      31.380  24.532  22.411  1.00  0.00    -0.167 F 
ENDBRANCH   9  18
BRANCH  15  22
ATOM     22  C   UNL A   1      34.662  19.677  24.916  1.00  0.00    -0.015 A 
ATOM     23  C   UNL A   1      35.378  18.530  24.526  1.00  0.00     0.009 A 
ATOM     24  C   UNL A   1      33.340  19.494  25.341  1.00  0.00     0.009 A 
ATOM     25  C   UNL A   1      34.797  17.263  24.529  1.00  0.00     0.007 A 
ATOM     26  C   UNL A   1      32.752  18.217  25.347  1.00  0.00     0.007 A 
ATOM     27  C   UNL A   1      33.470  17.092  24.923  1.00  0.00    -0.023 A 
BRANCH  27  28
ATOM     28  C   UNL A   1      32.862  15.713  24.924  1.00  0.00     0.191 C 
BRANCH  28  29
ATOM     29  O   UNL A   1      33.827  14.734  25.303  1.00  0.00    -0.392 OA
ATOM     30  H   UNL A   1      33.505  14.248  26.078  1.00  0.00     0.211 HD
ENDBRANCH  28  29
ENDBRANCH  27  28
ENDBRANCH  15  22
ENDBRANCH   5   7
ENDBRANCH   2   3
ENDBRANCH   1   2
BRANCH   1  31
ATOM     31  C   UNL A   1      31.773  29.103  26.830  1.00  0.00     0.023 C 
BRANCH  31  32
ATOM     32  C   UNL A   1      32.772  30.117  26.274  1.00  0.00     0.116 C 
BRANCH  32  33
ATOM     33  N   UNL A   1      32.634  31.472  26.786  1.00  0.00    -0.352 N 
ATOM     34  C   UNL A   1      33.530  32.217  27.530  1.00  0.00     0.251 C 
ATOM     35  H   UNL A   1      31.785  31.920  26.572  1.00  0.00     0.163 HD
ATOM     36  O   UNL A   1      33.241  33.350  27.876  1.00  0.00    -0.269 OA
BRANCH  34  37
ATOM     37  C   UNL A   1      34.828  31.628  27.944  1.00  0.00     0.039 A 
ATOM     38  C   UNL A   1      35.936  32.474  28.061  1.00  0.00     0.014 A 
ATOM     39  C   UNL A   1      34.957  30.270  28.247  1.00  0.00     0.014 A 
ATOM     40  C   UNL A   1      37.134  31.978  28.582  1.00  0.00     0.010 A 
ATOM     41  C   UNL A   1      36.133  29.784  28.810  1.00  0.00     0.010 A 
ATOM     42  C   UNL A   1      37.222  30.642  29.009  1.00  0.00    -0.014 A 
BRANCH  42  43
ATOM     43  C   UNL A   1      38.391  30.174  29.791  1.00  0.00     0.031 A 
ATOM     44  C   UNL A   1      38.626  30.629  31.198  1.00  0.00     0.074 A 
ATOM     45  C   UNL A   1      39.291  29.385  29.172  1.00  0.00     0.049 A 
ATOM     46  N   UNL A   1      39.553  30.250  32.041  1.00  0.00    -0.248 NA
ATOM     47  C   UNL A   1      37.722  31.663  31.721  1.00  0.00     0.031 C 
ATOM     48  C   UNL A   1      39.219  28.967  27.770  1.00  0.00     0.029 A 
ATOM     49  N   UNL A   1      40.438  28.797  29.635  1.00  0.00    -0.354 N 
ATOM     50  C   UNL A   1      39.340  30.988  33.196  1.00  0.00     0.074 A 
ATOM     51  C   UNL A   1      38.232  31.881  32.925  1.00  0.00     0.031 C 
ATOM     52  C   UNL A   1      40.251  28.155  27.499  1.00  0.00     0.029 A 
ATOM     53  C   UNL A   1      41.066  28.010  28.700  1.00  0.00     0.049 A 
ATOM     54  H   UNL A   1      40.781  28.926  30.549  1.00  0.00     0.167 HD
ATOM     55  C   UNL A   1      39.999  30.910  34.378  1.00  0.00     0.037 A 
ATOM     56  C   UNL A   1      42.162  27.239  28.809  1.00  0.00     0.037 A 
ATOM     57  C   UNL A   1      41.110  30.025  34.626  1.00  0.00     0.049 A 
ATOM     58  C   UNL A   1      42.858  27.149  30.138  1.00  0.00     0.074 A 
ATOM     59  C   UNL A   1      41.799  29.807  35.807  1.00  0.00     0.029 A 
ATOM     60  N   UNL A   1      41.714  29.225  33.663  1.00  0.00    -0.354 N 
ATOM     61  N   UNL A   1      42.565  27.746  31.268  1.00  0.00    -0.248 NA
ATOM     62  C   UNL A   1      44.024  26.260  30.209  1.00  0.00     0.031 C 
ATOM     63  C   UNL A   1      42.852  28.922  35.545  1.00  0.00     0.029 A 
ATOM     64  C   UNL A   1      42.785  28.539  34.216  1.00  0.00     0.049 A 
ATOM     65  H   UNL A   1      41.423  29.156  32.725  1.00  0.00     0.167 HD
ATOM     66  C   UNL A   1      43.490  27.283  32.194  1.00  0.00     0.074 A 
ATOM     67  C   UNL A   1      44.337  26.337  31.494  1.00  0.00     0.031 C 
ATOM     68  C   UNL A   1      43.628  27.610  33.503  1.00  0.00     0.037 A 
BRANCH  55  69
ATOM     69  C   UNL A   1      39.536  31.806  35.493  1.00  0.00     0.064 A 
ATOM     70  C   UNL A   1      38.553  31.395  36.408  1.00  0.00     0.173 A 
ATOM     71  C   UNL A   1      40.104  33.077  35.672  1.00  0.00     0.173 A 
ATOM     72  F   UNL A   1      37.973  30.193  36.282  1.00  0.00    -0.203 F 
ATOM     73  C   UNL A   1      38.133  32.235  37.437  1.00  0.00     0.198 A 
ATOM     74  C   UNL A   1      39.705  33.901  36.721  1.00  0.00     0.198 A 
ATOM     75  F   UNL A   1      41.053  33.519  34.833  1.00  0.00    -0.203 F 
ATOM     76  F   UNL A   1      37.158  31.840  38.267  1.00  0.00    -0.200 F 
ATOM     77  C   UNL A   1      38.714  33.484  37.597  1.00  0.00     0.200 A 
ATOM     78  F   UNL A   1      40.279  35.101  36.885  1.00  0.00    -0.200 F 
ATOM     79  F   UNL A   1      38.315  34.288  38.593  1.00  0.00    -0.200 F 
ENDBRANCH  55  69
BRANCH  56  80
ATOM     80  C   UNL A   1      42.616  26.430  27.648  1.00  0.00     0.064 A 
ATOM     81  C   UNL A   1      43.614  26.910  26.788  1.00  0.00     0.173 A 
ATOM     82  C   UNL A   1      42.077  25.163  27.382  1.00  0.00     0.173 A 
ATOM     83  F   UNL A   1      44.148  28.122  26.994  1.00  0.00    -0.203 F 
ATOM     84  C   UNL A   1      44.042  26.163  25.694  1.00  0.00     0.198 A 
ATOM     85  C   UNL A   1      42.527  24.405  26.303  1.00  0.00     0.198 A 
ATOM     86  F   UNL A   1      41.129  24.654  28.181  1.00  0.00    -0.203 F 
ATOM     87  F   UNL A   1      44.967  26.664  24.864  1.00  0.00    -0.200 F 
ATOM     88  C   UNL A   1      43.503  24.908  25.454  1.00  0.00     0.200 A 
ATOM     89  F   UNL A   1      42.017  23.184  26.086  1.00  0.00    -0.200 F 
ATOM     90  F   UNL A   1      43.920  24.186  24.406  1.00  0.00    -0.200 F 
ENDBRANCH  56  80
BRANCH  68  91
ATOM     91  C   UNL A   1      44.723  26.915  34.262  1.00  0.00     0.064 A 
ATOM     92  C   UNL A   1      44.510  25.686  34.906  1.00  0.00     0.173 A 
ATOM     93  C   UNL A   1      45.999  27.492  34.356  1.00  0.00     0.173 A 
ATOM     94  F   UNL A   1      43.305  25.099  34.860  1.00  0.00    -0.203 F 
ATOM     95  C   UNL A   1      45.517  25.087  35.658  1.00  0.00     0.198 A 
ATOM     96  C   UNL A   1      47.015  26.871  35.078  1.00  0.00     0.198 A 
ATOM     97  F   UNL A   1      46.261  28.660  33.753  1.00  0.00    -0.203 F 
ATOM     98  F   UNL A   1      45.266  23.954  36.329  1.00  0.00    -0.200 F 
ATOM     99  C   UNL A   1      46.769  25.678  35.741  1.00  0.00     0.200 A 
ATOM    100  F   UNL A   1      48.228  27.435  35.145  1.00  0.00    -0.200 F 
ATOM    101  F   UNL A   1      47.735  25.105  36.472  1.00  0.00    -0.200 F 
ENDBRANCH  68  91
ENDBRANCH  42  43
ENDBRANCH  34  37
ENDBRANCH  32  33
ENDBRANCH  31  32
ENDBRANCH   1  31
TORSDOF 15
ENDMDL
MODEL 2
REMARK VINA RESULT:     -13.9      4.263     10.169
REMARK SMILES O=C(NCCCCNC(=O)c1ccc(-c2c3nc(c(-c4c(F)c(F)c(F)c(F)c4F)c4ccc([nH]4)c(-c4c(F)c(F)c(F)c(F)c4F)c4nc(c(-c5c(F)c(F)c(F)c(F)c5F)c5ccc2[nH]5)C=C4)C=C3)cc1)C1=Cc2cc(Cl)cc(-c3ccc(CO)cc3)c2O[C@@H]1C(F)(F)F
REMARK SMILES IDX 5 1 4 2 3 3 1 4 2 5 74 7 75 8 92 9 76 10 91 11 77 12 90 13
REMARK SMILES IDX 78 14 81 15 79 16 80 17 93 18 94 19 95 20 96 21 82 22 83 23
REMARK SMILES IDX 89 24 84 25 88 26 85 27 86 28 87 29 6 31 7 32 8 33 9 34
REMARK SMILES IDX 10 36 11 37 12 38 73 39 13 40 72 41 14 42 15 43 16 44 66 45
REMARK SMILES IDX 17 46 71 47 65 48 67 49 18 50 70 51 64 52 63 53 19 55 51 56
REMARK SMILES IDX 31 57 50 58 32 59 35 60 49 61 68 62 33 63 34 64 48 66 69 67
REMARK SMILES IDX 36 68 20 69 21 70 29 71 22 72 23 73 27 74 30 75 24 76 25 77
REMARK SMILES IDX 28 78 26 79 52 80 53 81 61 82 54 83 55 84 59 85 62 86 56 87
REMARK SMILES IDX 57 88 60 89 58 90 37 91 38 92 46 93 39 94 40 95 44 96 47 97
REMARK SMILES IDX 41 98 42 99 45 100 43 101
REMARK H PARENT 3 6 87 30 8 35 67 54 35 65
REMARK Flexibility Score: inf
ROOT
ATOM      1  C   UNL A   1      35.008  21.580  26.632  1.00  0.00     0.023 C 
ENDROOT
BRANCH   1   2
ATOM      2  C   UNL A   1      33.538  21.189  26.547  1.00  0.00     0.116 C 
BRANCH   2   3
ATOM      3  N   UNL A   1      32.613  22.150  27.122  1.00  0.00    -0.352 N 
ATOM      4  O   UNL A   1      31.028  23.733  27.169  1.00  0.00    -0.270 OA
ATOM      5  C   UNL A   1      31.920  23.173  26.534  1.00  0.00     0.251 C 
ATOM      6  H   UNL A   1      32.459  22.049  28.089  1.00  0.00     0.163 HD
BRANCH   5   7
ATOM      7  C   UNL A   1      32.135  23.590  25.115  1.00  0.00     0.067 C 
ATOM      8  C   UNL A   1      31.121  23.873  24.280  1.00  0.00     0.025 C 
ATOM      9  C   UNL A   1      33.435  24.330  24.921  1.00  0.00     0.314 C 
ATOM     10  C   UNL A   1      31.020  25.335  24.009  1.00  0.00     0.019 A 
ATOM     11  O   UNL A   1      33.211  25.764  24.991  1.00  0.00    -0.475 OA
ATOM     12  C   UNL A   1      29.783  25.810  23.562  1.00  0.00     0.032 A 
ATOM     13  C   UNL A   1      31.986  26.220  24.546  1.00  0.00     0.135 A 
ATOM     14  C   UNL A   1      29.471  27.151  23.740  1.00  0.00     0.042 A 
ATOM     15  C   UNL A   1      31.647  27.566  24.792  1.00  0.00     0.026 A 
ATOM     16  Cl  UNL A   1      27.889  27.709  23.361  1.00  0.00    -0.084 Cl
ATOM     17  C   UNL A   1      30.379  28.012  24.356  1.00  0.00     0.033 A 
BRANCH   9  18
ATOM     18  C   UNL A   1      34.158  23.895  23.631  1.00  0.00     0.429 C 
ATOM     19  F   UNL A   1      33.807  24.669  22.578  1.00  0.00    -0.167 F 
ATOM     20  F   UNL A   1      35.504  23.995  23.763  1.00  0.00    -0.167 F 
ATOM     21  F   UNL A   1      33.892  22.611  23.289  1.00  0.00    -0.167 F 
ENDBRANCH   9  18
BRANCH  15  22
ATOM     22  C   UNL A   1      32.448  28.459  25.661  1.00  0.00    -0.015 A 
ATOM     23  C   UNL A   1      31.904  29.692  26.066  1.00  0.00     0.009 A 
ATOM     24  C   UNL A   1      33.734  28.144  26.119  1.00  0.00     0.009 A 
ATOM     25  C   UNL A   1      32.618  30.585  26.864  1.00  0.00     0.007 A 
ATOM     26  C   UNL A   1      34.455  29.042  26.925  1.00  0.00     0.007 A 
ATOM     27  C   UNL A   1      33.911  30.279  27.290  1.00  0.00    -0.023 A 
BRANCH  27  28
ATOM     28  C   UNL A   1      34.664  31.256  28.155  1.00  0.00     0.191 C 
BRANCH  28  29
ATOM     29  O   UNL A   1      35.517  32.081  27.365  1.00  0.00    -0.392 OA
ATOM     30  H   UNL A   1      36.130  31.523  26.861  1.00  0.00     0.211 HD
ENDBRANCH  28  29
ENDBRANCH  27  28
ENDBRANCH  15  22
ENDBRANCH   5   7
ENDBRANCH   2   3
ENDBRANCH   1   2
BRANCH   1  31
ATOM     31  C   UNL A   1      35.886  21.148  25.461  1.00  0.00     0.023 C 
BRANCH  31  32
ATOM     32  C   UNL A   1      37.290  21.746  25.398  1.00  0.00     0.116 C 
BRANCH  32  33
ATOM     33  N   UNL A   1      38.379  20.803  25.599  1.00  0.00    -0.352 N 
ATOM     34  C   UNL A   1      39.602  21.002  26.215  1.00  0.00     0.251 C 
ATOM     35  H   UNL A   1      38.225  19.897  25.247  1.00  0.00     0.163 HD
ATOM     36  O   UNL A   1      40.401  20.085  26.291  1.00  0.00    -0.269 OA
BRANCH  34  37
ATOM     37  C   UNL A   1      39.960  22.340  26.749  1.00  0.00     0.039 A 
ATOM     38  C   UNL A   1      40.910  22.416  27.772  1.00  0.00     0.014 A 
ATOM     39  C   UNL A   1      39.398  23.511  26.234  1.00  0.00     0.014 A 
ATOM     40  C   UNL A   1      41.371  23.665  28.198  1.00  0.00     0.010 A 
ATOM     41  C   UNL A   1      39.888  24.754  26.623  1.00  0.00     0.010 A 
ATOM     42  C   UNL A   1      40.900  24.840  27.587  1.00  0.00    -0.014 A 
BRANCH  42  43
ATOM     43  C   UNL A   1      41.558  26.142  27.847  1.00  0.00     0.031 A 
ATOM     44  C   UNL A   1      42.931  26.443  27.330  1.00  0.00     0.074 A 
ATOM     45  C   UNL A   1      40.919  27.027  28.636  1.00  0.00     0.049 A 
ATOM     46  N   UNL A   1      43.610  27.560  27.402  1.00  0.00    -0.248 NA
ATOM     47  C   UNL A   1      43.649  25.343  26.671  1.00  0.00     0.031 C 
ATOM     48  C   UNL A   1      39.625  26.797  29.282  1.00  0.00     0.029 A 
ATOM     49  N   UNL A   1      41.266  28.293  29.031  1.00  0.00    -0.354 N 
ATOM     50  C   UNL A   1      44.828  27.304  26.790  1.00  0.00     0.074 A 
ATOM     51  C   UNL A   1      44.819  25.907  26.406  1.00  0.00     0.031 C 
ATOM     52  C   UNL A   1      39.267  27.899  29.956  1.00  0.00     0.029 A 
ATOM     53  C   UNL A   1      40.312  28.906  29.805  1.00  0.00     0.049 A 
ATOM     54  H   UNL A   1      42.117  28.721  28.784  1.00  0.00     0.167 HD
ATOM     55  C   UNL A   1      45.849  28.163  26.555  1.00  0.00     0.037 A 
ATOM     56  C   UNL A   1      40.274  30.150  30.315  1.00  0.00     0.037 A 
ATOM     57  C   UNL A   1      45.848  29.548  26.959  1.00  0.00     0.049 A 
ATOM     58  C   UNL A   1      41.407  31.091  30.016  1.00  0.00     0.074 A 
ATOM     59  C   UNL A   1      46.794  30.526  26.703  1.00  0.00     0.029 A 
ATOM     60  N   UNL A   1      44.858  30.146  27.727  1.00  0.00    -0.354 N 
ATOM     61  N   UNL A   1      42.495  30.882  29.316  1.00  0.00    -0.248 NA
ATOM     62  C   UNL A   1      41.292  32.449  30.564  1.00  0.00     0.031 C 
ATOM     63  C   UNL A   1      46.404  31.697  27.364  1.00  0.00     0.029 A 
ATOM     64  C   UNL A   1      45.186  31.470  27.981  1.00  0.00     0.049 A 
ATOM     65  H   UNL A   1      44.042  29.696  28.045  1.00  0.00     0.167 HD
ATOM     66  C   UNL A   1      43.182  32.088  29.311  1.00  0.00     0.074 A 
ATOM     67  C   UNL A   1      42.372  33.028  30.060  1.00  0.00     0.031 C 
ATOM     68  C   UNL A   1      44.375  32.391  28.740  1.00  0.00     0.037 A 
BRANCH  55  69
ATOM     69  C   UNL A   1      47.054  27.630  25.831  1.00  0.00     0.064 A 
ATOM     70  C   UNL A   1      47.164  27.701  24.433  1.00  0.00     0.173 A 
ATOM     71  C   UNL A   1      48.128  27.073  26.542  1.00  0.00     0.173 A 
ATOM     72  F   UNL A   1      46.166  28.219  23.702  1.00  0.00    -0.203 F 
ATOM     73  C   UNL A   1      48.286  27.204  23.773  1.00  0.00     0.198 A 
ATOM     74  C   UNL A   1      49.263  26.607  25.882  1.00  0.00     0.198 A 
ATOM     75  F   UNL A   1      48.082  26.987  27.880  1.00  0.00    -0.203 F 
ATOM     76  F   UNL A   1      48.345  27.238  22.435  1.00  0.00    -0.200 F 
ATOM     77  C   UNL A   1      49.337  26.664  24.499  1.00  0.00     0.200 A 
ATOM     78  F   UNL A   1      50.285  26.101  26.585  1.00  0.00    -0.200 F 
ATOM     79  F   UNL A   1      50.420  26.194  23.864  1.00  0.00    -0.200 F 
ENDBRANCH  55  69
BRANCH  56  80
ATOM     80  C   UNL A   1      39.086  30.597  31.087  1.00  0.00     0.064 A 
ATOM     81  C   UNL A   1      38.974  30.315  32.456  1.00  0.00     0.173 A 
ATOM     82  C   UNL A   1      38.049  31.323  30.483  1.00  0.00     0.173 A 
ATOM     83  F   UNL A   1      39.933  29.611  33.074  1.00  0.00    -0.203 F 
ATOM     84  C   UNL A   1      37.863  30.724  33.187  1.00  0.00     0.198 A 
ATOM     85  C   UNL A   1      36.951  31.757  31.223  1.00  0.00     0.198 A 
ATOM     86  F   UNL A   1      38.114  31.628  29.179  1.00  0.00    -0.203 F 
ATOM     87  F   UNL A   1      37.762  30.404  34.485  1.00  0.00    -0.200 F 
ATOM     88  C   UNL A   1      36.854  31.450  32.572  1.00  0.00     0.200 A 
ATOM     89  F   UNL A   1      35.987  32.474  30.628  1.00  0.00    -0.200 F 
ATOM     90  F   UNL A   1      35.788  31.850  33.278  1.00  0.00    -0.200 F 
ENDBRANCH  56  80
BRANCH  68  91
ATOM     91  C   UNL A   1      44.854  33.808  28.888  1.00  0.00     0.064 A 
ATOM     92  C   UNL A   1      44.507  34.805  27.963  1.00  0.00     0.173 A 
ATOM     93  C   UNL A   1      45.681  34.169  29.962  1.00  0.00     0.173 A 
ATOM     94  F   UNL A   1      43.731  34.509  26.910  1.00  0.00    -0.203 F 
ATOM     95  C   UNL A   1      45.012  36.097  28.079  1.00  0.00     0.198 A 
ATOM     96  C   UNL A   1      46.154  35.472  30.095  1.00  0.00     0.198 A 
ATOM     97  F   UNL A   1      46.037  33.260  30.880  1.00  0.00    -0.203 F 
ATOM     98  F   UNL A   1      44.730  37.012  27.140  1.00  0.00    -0.200 F 
ATOM     99  C   UNL A   1      45.832  36.431  29.146  1.00  0.00     0.200 A 
ATOM    100  F   UNL A   1      46.934  35.796  31.136  1.00  0.00    -0.200 F 
ATOM    101  F   UNL A   1      46.324  37.673  29.253  1.00  0.00    -0.200 F 
ENDBRANCH  68  91
ENDBRANCH  42  43
ENDBRANCH  34  37
ENDBRANCH  32  33
ENDBRANCH  31  32
ENDBRANCH   1  31
TORSDOF 15
ENDMDL
MODEL 3
REMARK VINA RESULT:     -13.8      1.997      2.824
REMARK SMILES O=C(NCCCCNC(=O)c1ccc(-c2c3nc(c(-c4c(F)c(F)c(F)c(F)c4F)c4ccc([nH]4)c(-c4c(F)c(F)c(F)c(F)c4F)c4nc(c(-c5c(F)c(F)c(F)c(F)c5F)c5ccc2[nH]5)C=C4)C=C3)cc1)C1=Cc2cc(Cl)cc(-c3ccc(CO)cc3)c2O[C@@H]1C(F)(F)F
REMARK SMILES IDX 5 1 4 2 3 3 1 4 2 5 74 7 75 8 92 9 76 10 91 11 77 12 90 13
REMARK SMILES IDX 78 14 81 15 79 16 80 17 93 18 94 19 95 20 96 21 82 22 83 23
REMARK SMILES IDX 89 24 84 25 88 26 85 27 86 28 87 29 6 31 7 32 8 33 9 34
REMARK SMILES IDX 10 36 11 37 12 38 73 39 13 40 72 41 14 42 15 43 16 44 66 45
REMARK SMILES IDX 17 46 71 47 65 48 67 49 18 50 70 51 64 52 63 53 19 55 51 56
REMARK SMILES IDX 31 57 50 58 32 59 35 60 49 61 68 62 33 63 34 64 48 66 69 67
REMARK SMILES IDX 36 68 20 69 21 70 29 71 22 72 23 73 27 74 30 75 24 76 25 77
REMARK SMILES IDX 28 78 26 79 52 80 53 81 61 82 54 83 55 84 59 85 62 86 56 87
REMARK SMILES IDX 57 88 60 89 58 90 37 91 38 92 46 93 39 94 40 95 44 96 47 97
REMARK SMILES IDX 41 98 42 99 45 100 43 101
REMARK H PARENT 3 6 87 30 8 35 67 54 35 65
REMARK Flexibility Score: inf
ROOT
ATOM      1  C   UNL A   1      32.931  29.308  24.143  1.00  0.00     0.023 C 
ENDROOT
BRANCH   1   2
ATOM      2  C   UNL A   1      32.293  28.733  22.885  1.00  0.00     0.116 C 
BRANCH   2   3
ATOM      3  N   UNL A   1      33.064  27.695  22.224  1.00  0.00    -0.352 N 
ATOM      4  O   UNL A   1      33.628  25.628  21.568  1.00  0.00    -0.270 OA
ATOM      5  C   UNL A   1      33.036  26.336  22.383  1.00  0.00     0.251 C 
ATOM      6  H   UNL A   1      33.709  28.020  21.556  1.00  0.00     0.163 HD
BRANCH   5   7
ATOM      7  C   UNL A   1      32.245  25.658  23.454  1.00  0.00     0.067 C 
ATOM      8  C   UNL A   1      31.506  24.559  23.225  1.00  0.00     0.025 C 
ATOM      9  C   UNL A   1      32.866  25.817  24.819  1.00  0.00     0.314 C 
ATOM     10  C   UNL A   1      32.126  23.342  23.821  1.00  0.00     0.019 A 
ATOM     11  O   UNL A   1      33.701  24.668  25.128  1.00  0.00    -0.475 OA
ATOM     12  C   UNL A   1      31.740  22.109  23.283  1.00  0.00     0.032 A 
ATOM     13  C   UNL A   1      33.307  23.458  24.592  1.00  0.00     0.135 A 
ATOM     14  C   UNL A   1      32.580  21.015  23.433  1.00  0.00     0.042 A 
ATOM     15  C   UNL A   1      34.195  22.367  24.688  1.00  0.00     0.026 A 
ATOM     16  Cl  UNL A   1      32.204  19.543  22.626  1.00  0.00    -0.084 Cl
ATOM     17  C   UNL A   1      33.793  21.142  24.111  1.00  0.00     0.033 A 
BRANCH   9  18
ATOM     18  C   UNL A   1      31.808  26.103  25.903  1.00  0.00     0.429 C 
ATOM     19  F   UNL A   1      32.288  26.925  26.864  1.00  0.00    -0.167 F 
ATOM     20  F   UNL A   1      30.714  26.708  25.375  1.00  0.00    -0.167 F 
ATOM     21  F   UNL A   1      31.374  24.977  26.519  1.00  0.00    -0.167 F 
ENDBRANCH   9  18
BRANCH  15  22
ATOM     22  C   UNL A   1      35.594  22.498  25.160  1.00  0.00    -0.015 A 
ATOM     23  C   UNL A   1      36.459  21.392  25.059  1.00  0.00     0.009 A 
ATOM     24  C   UNL A   1      36.119  23.676  25.705  1.00  0.00     0.009 A 
ATOM     25  C   UNL A   1      37.778  21.447  25.507  1.00  0.00     0.007 A 
ATOM     26  C   UNL A   1      37.450  23.734  26.156  1.00  0.00     0.007 A 
ATOM     27  C   UNL A   1      38.286  22.614  26.079  1.00  0.00    -0.023 A 
BRANCH  27  28
ATOM     28  C   UNL A   1      39.715  22.653  26.553  1.00  0.00     0.191 C 
BRANCH  28  29
ATOM     29  O   UNL A   1      39.974  21.592  27.469  1.00  0.00    -0.392 OA
ATOM     30  H   UNL A   1      40.026  21.948  28.370  1.00  0.00     0.211 HD
ENDBRANCH  28  29
ENDBRANCH  27  28
ENDBRANCH  15  22
ENDBRANCH   5   7
ENDBRANCH   2   3
ENDBRANCH   1   2
BRANCH   1  31
ATOM     31  C   UNL A   1      31.969  29.773  25.232  1.00  0.00     0.023 C 
BRANCH  31  32
ATOM     32  C   UNL A   1      32.584  30.139  26.582  1.00  0.00     0.116 C 
BRANCH  32  33
ATOM     33  N   UNL A   1      32.499  31.545  26.944  1.00  0.00    -0.352 N 
ATOM     34  C   UNL A   1      33.442  32.342  27.568  1.00  0.00     0.251 C 
ATOM     35  H   UNL A   1      31.653  31.991  26.713  1.00  0.00     0.163 HD
ATOM     36  O   UNL A   1      33.194  33.513  27.796  1.00  0.00    -0.269 OA
BRANCH  34  37
ATOM     37  C   UNL A   1      34.741  31.765  27.997  1.00  0.00     0.039 A 
ATOM     38  C   UNL A   1      35.851  32.611  28.078  1.00  0.00     0.014 A 
ATOM     39  C   UNL A   1      34.867  30.419  28.350  1.00  0.00     0.014 A 
ATOM     40  C   UNL A   1      37.051  32.132  28.611  1.00  0.00     0.010 A 
ATOM     41  C   UNL A   1      36.045  29.951  28.924  1.00  0.00     0.010 A 
ATOM     42  C   UNL A   1      37.137  30.812  29.086  1.00  0.00    -0.014 A 
BRANCH  42  43
ATOM     43  C   UNL A   1      38.309  30.371  29.879  1.00  0.00     0.031 A 
ATOM     44  C   UNL A   1      38.504  30.806  31.298  1.00  0.00     0.074 A 
ATOM     45  C   UNL A   1      39.246  29.626  29.261  1.00  0.00     0.049 A 
ATOM     46  N   UNL A   1      39.430  30.442  32.149  1.00  0.00    -0.248 NA
ATOM     47  C   UNL A   1      37.555  31.796  31.826  1.00  0.00     0.031 C 
ATOM     48  C   UNL A   1      39.212  29.233  27.851  1.00  0.00     0.029 A 
ATOM     49  N   UNL A   1      40.406  29.069  29.732  1.00  0.00    -0.354 N 
ATOM     50  C   UNL A   1      39.172  31.150  33.315  1.00  0.00     0.074 A 
ATOM     51  C   UNL A   1      38.038  32.009  33.042  1.00  0.00     0.031 C 
ATOM     52  C   UNL A   1      40.277  28.463  27.582  1.00  0.00     0.029 A 
ATOM     53  C   UNL A   1      41.076  28.323  28.794  1.00  0.00     0.049 A 
ATOM     54  H   UNL A   1      40.728  29.192  30.654  1.00  0.00     0.167 HD
ATOM     55  C   UNL A   1      39.813  31.072  34.506  1.00  0.00     0.037 A 
ATOM     56  C   UNL A   1      42.197  27.589  28.907  1.00  0.00     0.037 A 
ATOM     57  C   UNL A   1      40.951  30.222  34.756  1.00  0.00     0.049 A 
ATOM     58  C   UNL A   1      42.873  27.497  30.246  1.00  0.00     0.074 A 
ATOM     59  C   UNL A   1      41.627  30.005  35.945  1.00  0.00     0.029 A 
ATOM     60  N   UNL A   1      41.598  29.462  33.789  1.00  0.00    -0.354 N 
ATOM     61  N   UNL A   1      42.541  28.061  31.382  1.00  0.00    -0.248 NA
ATOM     62  C   UNL A   1      44.069  26.648  30.320  1.00  0.00     0.031 C 
ATOM     63  C   UNL A   1      42.715  29.162  35.685  1.00  0.00     0.029 A 
ATOM     64  C   UNL A   1      42.683  28.803  34.348  1.00  0.00     0.049 A 
ATOM     65  H   UNL A   1      41.325  29.402  32.846  1.00  0.00     0.167 HD
ATOM     66  C   UNL A   1      43.466  27.613  32.315  1.00  0.00     0.074 A 
ATOM     67  C   UNL A   1      44.358  26.711  31.611  1.00  0.00     0.031 C 
ATOM     68  C   UNL A   1      43.571  27.919  33.632  1.00  0.00     0.037 A 
BRANCH  55  69
ATOM     69  C   UNL A   1      39.300  31.929  35.630  1.00  0.00     0.064 A 
ATOM     70  C   UNL A   1      38.394  31.433  36.580  1.00  0.00     0.173 A 
ATOM     71  C   UNL A   1      39.746  33.251  35.781  1.00  0.00     0.173 A 
ATOM     72  F   UNL A   1      37.931  30.178  36.481  1.00  0.00    -0.203 F 
ATOM     73  C   UNL A   1      37.926  32.237  37.617  1.00  0.00     0.198 A 
ATOM     74  C   UNL A   1      39.302  34.042  36.838  1.00  0.00     0.198 A 
ATOM     75  F   UNL A   1      40.619  33.776  34.908  1.00  0.00    -0.203 F 
ATOM     76  F   UNL A   1      37.022  31.756  38.482  1.00  0.00    -0.200 F 
ATOM     77  C   UNL A   1      38.386  33.539  37.749  1.00  0.00     0.200 A 
ATOM     78  F   UNL A   1      39.759  35.295  36.975  1.00  0.00    -0.200 F 
ATOM     79  F   UNL A   1      37.942  34.309  38.752  1.00  0.00    -0.200 F 
ENDBRANCH  55  69
BRANCH  56  80
ATOM     80  C   UNL A   1      42.698  26.820  27.739  1.00  0.00     0.064 A 
ATOM     81  C   UNL A   1      43.503  27.434  26.769  1.00  0.00     0.173 A 
ATOM     82  C   UNL A   1      42.399  25.460  27.573  1.00  0.00     0.173 A 
ATOM     83  F   UNL A   1      43.805  28.736  26.877  1.00  0.00    -0.203 F 
ATOM     84  C   UNL A   1      43.973  26.724  25.668  1.00  0.00     0.198 A 
ATOM     85  C   UNL A   1      42.894  24.743  26.485  1.00  0.00     0.198 A 
ATOM     86  F   UNL A   1      41.643  24.823  28.478  1.00  0.00    -0.203 F 
ATOM     87  F   UNL A   1      44.706  27.347  24.734  1.00  0.00    -0.200 F 
ATOM     88  C   UNL A   1      43.673  25.377  25.528  1.00  0.00     0.200 A 
ATOM     89  F   UNL A   1      42.616  23.437  26.364  1.00  0.00    -0.200 F 
ATOM     90  F   UNL A   1      44.131  24.692  24.473  1.00  0.00    -0.200 F 
ENDBRANCH  56  80
BRANCH  68  91
ATOM     91  C   UNL A   1      44.677  27.247  34.396  1.00  0.00     0.064 A 
ATOM     92  C   UNL A   1      44.496  26.002  35.017  1.00  0.00     0.173 A 
ATOM     93  C   UNL A   1      45.931  27.864  34.520  1.00  0.00     0.173 A 
ATOM     94  F   UNL A   1      43.311  25.376  34.942  1.00  0.00    -0.203 F 
ATOM     95  C   UNL A   1      45.511  25.424  35.774  1.00  0.00     0.198 A 
ATOM     96  C   UNL A   1      46.956  27.266  35.248  1.00  0.00     0.198 A 
ATOM     97  F   UNL A   1      46.163  29.051  33.940  1.00  0.00    -0.203 F 
ATOM     98  F   UNL A   1      45.287  24.271  36.422  1.00  0.00    -0.200 F 
ATOM     99  C   UNL A   1      46.740  26.054  35.887  1.00  0.00     0.200 A 
ATOM    100  F   UNL A   1      48.149  27.869  35.342  1.00  0.00    -0.200 F 
ATOM    101  F   UNL A   1      47.714  25.501  36.623  1.00  0.00    -0.200 F 
ENDBRANCH  68  91
ENDBRANCH  42  43
ENDBRANCH  34  37
ENDBRANCH  32  33
ENDBRANCH  31  32
ENDBRANCH   1  31
TORSDOF 15
ENDMDL
