MODEL 1
REMARK VINA RESULT:     -12.5      0.000      0.000
REMARK SMILES C[C@H](Oc1ccc(C(=O)NCc2ccccc2)cc1)C(=O)NCCCCNC(=O)c1ccc(-c2c3nc(c(-c4c(F)c(F)c(F)c(F)c4F)c4ccc([nH]4)c(-c4c(F)c(F)c(F)c(F)c4F)c4nc(c(-c5c(F)c(F)c(F)c(F)c5F)c5ccc2[nH]5)C=C4)C=C3)cc1
REMARK SMILES IDX 23 1 22 2 20 3 21 4 2 6 1 7 3 8 4 9 5 10 19 11 6 12 18 13
REMARK SMILES IDX 7 14 8 15 9 16 10 17 11 19 12 20 13 21 17 22 14 23 16 24
REMARK SMILES IDX 15 25 24 26 25 27 26 28 27 29 28 30 29 32 30 33 31 34 92 35
REMARK SMILES IDX 32 36 91 37 33 38 34 39 35 40 85 41 36 42 90 43 84 44 86 45
REMARK SMILES IDX 37 46 89 47 83 48 82 49 38 51 70 52 50 53 69 54 51 55 54 56
REMARK SMILES IDX 68 57 87 58 52 59 53 60 67 62 88 63 55 64 39 65 40 66 48 67
REMARK SMILES IDX 41 68 42 69 46 70 49 71 43 72 44 73 47 74 45 75 71 76 72 77
REMARK SMILES IDX 80 78 73 79 74 80 78 81 81 82 75 83 76 84 79 85 77 86 56 87
REMARK SMILES IDX 57 88 65 89 58 90 59 91 63 92 66 93 60 94 61 95 64 96 62 97
REMARK H PARENT 22 5 10 18 27 31 86 50 54 61
REMARK Flexibility Score: inf
ROOT
ATOM      1  C   UNL A   1      32.218  29.899  25.547  1.00  0.00     0.116 C 
ENDROOT
BRANCH   1   2
ATOM      2  N   UNL A   1      31.203  30.029  24.515  1.00  0.00    -0.353 N 
ATOM      3  C   UNL A   1      30.734  29.075  23.646  1.00  0.00     0.260 C 
ATOM      4  O   UNL A   1      29.835  29.389  22.864  1.00  0.00    -0.271 OA
ATOM      5  H   UNL A   1      30.796  30.922  24.428  1.00  0.00     0.163 HD
BRANCH   3   6
ATOM      6  C   UNL A   1      31.292  27.645  23.705  1.00  0.00     0.258 C 
ATOM      7  C   UNL A   1      31.045  26.965  22.352  1.00  0.00     0.064 C 
BRANCH   6   8
ATOM      8  O   UNL A   1      30.638  27.070  24.842  1.00  0.00    -0.481 OA
BRANCH   8   9
ATOM      9  C   UNL A   1      31.057  25.894  25.374  1.00  0.00     0.120 A 
ATOM     10  C   UNL A   1      30.251  24.845  25.792  1.00  0.00     0.047 A 
ATOM     11  C   UNL A   1      32.444  25.798  25.524  1.00  0.00     0.047 A 
ATOM     12  C   UNL A   1      30.836  23.723  26.391  1.00  0.00     0.017 A 
ATOM     13  C   UNL A   1      33.028  24.687  26.140  1.00  0.00     0.017 A 
ATOM     14  C   UNL A   1      32.231  23.623  26.559  1.00  0.00     0.040 A 
BRANCH  14  15
ATOM     15  C   UNL A   1      32.732  22.404  27.248  1.00  0.00     0.251 C 
ATOM     16  O   UNL A   1      33.003  22.477  28.448  1.00  0.00    -0.269 OA
ATOM     17  N   UNL A   1      32.900  21.189  26.645  1.00  0.00    -0.348 N 
ATOM     18  H   UNL A   1      33.210  20.491  27.265  1.00  0.00     0.164 HD
BRANCH  17  19
ATOM     19  C   UNL A   1      32.718  20.704  25.291  1.00  0.00     0.152 C 
BRANCH  19  20
ATOM     20  C   UNL A   1      33.232  21.679  24.253  1.00  0.00    -0.029 A 
ATOM     21  C   UNL A   1      34.594  22.022  24.249  1.00  0.00     0.005 A 
ATOM     22  C   UNL A   1      32.397  22.270  23.288  1.00  0.00     0.005 A 
ATOM     23  C   UNL A   1      35.095  22.955  23.337  1.00  0.00     0.000 A 
ATOM     24  C   UNL A   1      32.898  23.204  22.380  1.00  0.00     0.000 A 
ATOM     25  C   UNL A   1      34.245  23.552  22.408  1.00  0.00     0.000 A 
ENDBRANCH  19  20
ENDBRANCH  17  19
ENDBRANCH  14  15
ENDBRANCH   8   9
ENDBRANCH   6   8
ENDBRANCH   3   6
ENDBRANCH   1   2
BRANCH   1  26
ATOM     26  C   UNL A   1      31.777  30.501  26.877  1.00  0.00     0.023 C 
BRANCH  26  27
ATOM     27  C   UNL A   1      31.579  32.015  26.850  1.00  0.00     0.023 C 
BRANCH  27  28
ATOM     28  C   UNL A   1      32.801  32.834  27.251  1.00  0.00     0.116 C 
BRANCH  28  29
ATOM     29  N   UNL A   1      32.474  34.201  27.625  1.00  0.00    -0.352 N 
ATOM     30  C   UNL A   1      33.020  34.985  28.615  1.00  0.00     0.251 C 
ATOM     31  H   UNL A   1      31.761  34.624  27.096  1.00  0.00     0.163 HD
ATOM     32  O   UNL A   1      32.527  36.071  28.886  1.00  0.00    -0.269 OA
BRANCH  30  33
ATOM     33  C   UNL A   1      34.186  34.491  29.380  1.00  0.00     0.039 A 
ATOM     34  C   UNL A   1      33.974  33.912  30.633  1.00  0.00     0.014 A 
ATOM     35  C   UNL A   1      35.479  34.578  28.857  1.00  0.00     0.014 A 
ATOM     36  C   UNL A   1      35.049  33.354  31.329  1.00  0.00     0.010 A 
ATOM     37  C   UNL A   1      36.535  33.951  29.513  1.00  0.00     0.010 A 
ATOM     38  C   UNL A   1      36.330  33.330  30.754  1.00  0.00    -0.014 A 
BRANCH  38  39
ATOM     39  C   UNL A   1      37.466  32.653  31.434  1.00  0.00     0.031 A 
ATOM     40  C   UNL A   1      38.156  31.488  30.779  1.00  0.00     0.074 A 
ATOM     41  C   UNL A   1      37.832  33.045  32.670  1.00  0.00     0.049 A 
ATOM     42  N   UNL A   1      39.119  30.730  31.240  1.00  0.00    -0.248 NA
ATOM     43  C   UNL A   1      37.684  31.108  29.439  1.00  0.00     0.031 C 
ATOM     44  C   UNL A   1      37.212  34.131  33.431  1.00  0.00     0.029 A 
ATOM     45  N   UNL A   1      38.810  32.570  33.508  1.00  0.00    -0.354 N 
ATOM     46  C   UNL A   1      39.356  29.779  30.256  1.00  0.00     0.074 A 
ATOM     47  C   UNL A   1      38.400  30.020  29.198  1.00  0.00     0.031 C 
ATOM     48  C   UNL A   1      37.840  34.255  34.612  1.00  0.00     0.029 A 
ATOM     49  C   UNL A   1      38.875  33.231  34.710  1.00  0.00     0.049 A 
ATOM     50  H   UNL A   1      39.407  31.823  33.271  1.00  0.00     0.167 HD
ATOM     51  C   UNL A   1      40.301  28.809  30.227  1.00  0.00     0.037 A 
ATOM     52  C   UNL A   1      39.674  33.030  35.776  1.00  0.00     0.037 A 
ATOM     53  C   UNL A   1      41.263  28.585  31.274  1.00  0.00     0.049 A 
ATOM     54  C   UNL A   1      40.702  31.931  35.726  1.00  0.00     0.074 A 
ATOM     55  C   UNL A   1      42.300  27.670  31.311  1.00  0.00     0.029 A 
ATOM     56  N   UNL A   1      41.303  29.282  32.474  1.00  0.00    -0.354 N 
ATOM     57  N   UNL A   1      40.967  31.087  34.758  1.00  0.00    -0.248 NA
ATOM     58  C   UNL A   1      41.546  31.760  36.917  1.00  0.00     0.031 C 
ATOM     59  C   UNL A   1      42.930  27.770  32.556  1.00  0.00     0.029 A 
ATOM     60  C   UNL A   1      42.328  28.794  33.270  1.00  0.00     0.049 A 
ATOM     61  H   UNL A   1      40.694  30.014  32.723  1.00  0.00     0.167 HD
ATOM     62  C   UNL A   1      42.027  30.310  35.208  1.00  0.00     0.074 A 
ATOM     63  C   UNL A   1      42.365  30.793  36.530  1.00  0.00     0.031 C 
ATOM     64  C   UNL A   1      42.662  29.290  34.582  1.00  0.00     0.037 A 
BRANCH  51  65
ATOM     65  C   UNL A   1      40.339  27.909  29.025  1.00  0.00     0.064 A 
ATOM     66  C   UNL A   1      41.098  28.229  27.887  1.00  0.00     0.173 A 
ATOM     67  C   UNL A   1      39.639  26.693  29.024  1.00  0.00     0.173 A 
ATOM     68  F   UNL A   1      41.778  29.384  27.831  1.00  0.00    -0.203 F 
ATOM     69  C   UNL A   1      41.129  27.379  26.784  1.00  0.00     0.198 A 
ATOM     70  C   UNL A   1      39.700  25.831  27.932  1.00  0.00     0.198 A 
ATOM     71  F   UNL A   1      38.903  26.335  30.086  1.00  0.00    -0.203 F 
ATOM     72  F   UNL A   1      41.818  27.732  25.690  1.00  0.00    -0.200 F 
ATOM     73  C   UNL A   1      40.437  26.178  26.810  1.00  0.00     0.200 A 
ATOM     74  F   UNL A   1      39.043  24.663  27.966  1.00  0.00    -0.200 F 
ATOM     75  F   UNL A   1      40.476  25.358  25.752  1.00  0.00    -0.200 F 
ENDBRANCH  51  65
BRANCH  52  76
ATOM     76  C   UNL A   1      39.551  33.901  36.976  1.00  0.00     0.064 A 
ATOM     77  C   UNL A   1      38.772  33.509  38.073  1.00  0.00     0.173 A 
ATOM     78  C   UNL A   1      40.194  35.146  37.045  1.00  0.00     0.173 A 
ATOM     79  F   UNL A   1      38.120  32.337  38.047  1.00  0.00    -0.203 F 
ATOM     80  C   UNL A   1      38.621  34.338  39.183  1.00  0.00     0.198 A 
ATOM     81  C   UNL A   1      40.068  35.960  38.168  1.00  0.00     0.198 A 
ATOM     82  F   UNL A   1      40.955  35.567  36.024  1.00  0.00    -0.203 F 
ATOM     83  F   UNL A   1      37.828  33.960  40.195  1.00  0.00    -0.200 F 
ATOM     84  C   UNL A   1      39.274  35.560  39.232  1.00  0.00     0.200 A 
ATOM     85  F   UNL A   1      40.713  37.133  38.218  1.00  0.00    -0.200 F 
ATOM     86  F   UNL A   1      39.130  36.356  40.301  1.00  0.00    -0.200 F 
ENDBRANCH  52  76
BRANCH  64  87
ATOM     87  C   UNL A   1      43.818  28.650  35.298  1.00  0.00     0.064 A 
ATOM     88  C   UNL A   1      45.133  29.111  35.139  1.00  0.00     0.173 A 
ATOM     89  C   UNL A   1      43.598  27.585  36.185  1.00  0.00     0.173 A 
ATOM     90  F   UNL A   1      45.400  30.116  34.293  1.00  0.00    -0.203 F 
ATOM     91  C   UNL A   1      46.189  28.509  35.820  1.00  0.00     0.198 A 
ATOM     92  C   UNL A   1      44.651  27.009  36.890  1.00  0.00     0.198 A 
ATOM     93  F   UNL A   1      42.359  27.109  36.379  1.00  0.00    -0.203 F 
ATOM     94  F   UNL A   1      47.444  28.931  35.613  1.00  0.00    -0.200 F 
ATOM     95  C   UNL A   1      45.946  27.466  36.701  1.00  0.00     0.200 A 
ATOM     96  F   UNL A   1      44.412  26.012  37.754  1.00  0.00    -0.200 F 
ATOM     97  F   UNL A   1      46.962  26.894  37.363  1.00  0.00    -0.200 F 
ENDBRANCH  64  87
ENDBRANCH  38  39
ENDBRANCH  30  33
ENDBRANCH  28  29
ENDBRANCH  27  28
ENDBRANCH  26  27
ENDBRANCH   1  26
TORSDOF 16
ENDMDL
MODEL 2
REMARK VINA RESULT:     -12.5      5.559     11.251
REMARK SMILES C[C@H](Oc1ccc(C(=O)NCc2ccccc2)cc1)C(=O)NCCCCNC(=O)c1ccc(-c2c3nc(c(-c4c(F)c(F)c(F)c(F)c4F)c4ccc([nH]4)c(-c4c(F)c(F)c(F)c(F)c4F)c4nc(c(-c5c(F)c(F)c(F)c(F)c5F)c5ccc2[nH]5)C=C4)C=C3)cc1
REMARK SMILES IDX 23 1 22 2 20 3 21 4 2 6 1 7 3 8 4 9 5 10 19 11 6 12 18 13
REMARK SMILES IDX 7 14 8 15 9 16 10 17 11 19 12 20 13 21 17 22 14 23 16 24
REMARK SMILES IDX 15 25 24 26 25 27 26 28 27 29 28 30 29 32 30 33 31 34 92 35
REMARK SMILES IDX 32 36 91 37 33 38 34 39 35 40 85 41 36 42 90 43 84 44 86 45
REMARK SMILES IDX 37 46 89 47 83 48 82 49 38 51 70 52 50 53 69 54 51 55 54 56
REMARK SMILES IDX 68 57 87 58 52 59 53 60 67 62 88 63 55 64 39 65 40 66 48 67
REMARK SMILES IDX 41 68 42 69 46 70 49 71 43 72 44 73 47 74 45 75 71 76 72 77
REMARK SMILES IDX 80 78 73 79 74 80 78 81 81 82 75 83 76 84 79 85 77 86 56 87
REMARK SMILES IDX 57 88 65 89 58 90 59 91 63 92 66 93 60 94 61 95 64 96 62 97
REMARK H PARENT 22 5 10 18 27 31 86 50 54 61
REMARK Flexibility Score: inf
ROOT
ATOM      1  C   UNL A   1      36.023  21.338  25.552  1.00  0.00     0.116 C 
ENDROOT
BRANCH   1   2
ATOM      2  N   UNL A   1      35.001  20.318  25.384  1.00  0.00    -0.353 N 
ATOM      3  C   UNL A   1      33.655  20.479  25.171  1.00  0.00     0.260 C 
ATOM      4  O   UNL A   1      32.964  19.470  25.019  1.00  0.00    -0.271 OA
ATOM      5  H   UNL A   1      35.318  19.386  25.429  1.00  0.00     0.163 HD
BRANCH   3   6
ATOM      6  C   UNL A   1      33.058  21.890  25.072  1.00  0.00     0.258 C 
ATOM      7  C   UNL A   1      31.577  21.827  25.467  1.00  0.00     0.064 C 
BRANCH   6   8
ATOM      8  O   UNL A   1      33.348  22.290  23.728  1.00  0.00    -0.481 OA
BRANCH   8   9
ATOM      9  C   UNL A   1      33.449  23.601  23.390  1.00  0.00     0.120 A 
ATOM     10  C   UNL A   1      33.989  24.613  24.169  1.00  0.00     0.047 A 
ATOM     11  C   UNL A   1      32.909  23.909  22.137  1.00  0.00     0.047 A 
ATOM     12  C   UNL A   1      33.952  25.933  23.704  1.00  0.00     0.017 A 
ATOM     13  C   UNL A   1      32.854  25.230  21.681  1.00  0.00     0.017 A 
ATOM     14  C   UNL A   1      33.398  26.256  22.451  1.00  0.00     0.040 A 
BRANCH  14  15
ATOM     15  C   UNL A   1      33.376  27.698  22.084  1.00  0.00     0.251 C 
ATOM     16  O   UNL A   1      34.403  28.203  21.626  1.00  0.00    -0.269 OA
ATOM     17  N   UNL A   1      32.283  28.509  22.202  1.00  0.00    -0.348 N 
ATOM     18  H   UNL A   1      32.446  29.424  21.881  1.00  0.00     0.164 HD
BRANCH  17  19
ATOM     19  C   UNL A   1      30.933  28.314  22.695  1.00  0.00     0.152 C 
BRANCH  19  20
ATOM     20  C   UNL A   1      30.903  27.600  24.030  1.00  0.00    -0.029 A 
ATOM     21  C   UNL A   1      30.251  26.361  24.130  1.00  0.00     0.005 A 
ATOM     22  C   UNL A   1      31.496  28.133  25.188  1.00  0.00     0.005 A 
ATOM     23  C   UNL A   1      30.160  25.697  25.357  1.00  0.00     0.000 A 
ATOM     24  C   UNL A   1      31.402  27.471  26.413  1.00  0.00     0.000 A 
ATOM     25  C   UNL A   1      30.728  26.256  26.500  1.00  0.00     0.000 A 
ENDBRANCH  19  20
ENDBRANCH  17  19
ENDBRANCH  14  15
ENDBRANCH   8   9
ENDBRANCH   6   8
ENDBRANCH   3   6
ENDBRANCH   1   2
BRANCH   1  26
ATOM     26  C   UNL A   1      37.217  21.124  24.628  1.00  0.00     0.023 C 
BRANCH  26  27
ATOM     27  C   UNL A   1      38.100  19.935  25.002  1.00  0.00     0.023 C 
BRANCH  27  28
ATOM     28  C   UNL A   1      39.294  20.271  25.889  1.00  0.00     0.116 C 
BRANCH  28  29
ATOM     29  N   UNL A   1      40.278  19.202  25.950  1.00  0.00    -0.352 N 
ATOM     30  C   UNL A   1      41.640  19.283  26.127  1.00  0.00     0.251 C 
ATOM     31  H   UNL A   1      39.919  18.292  25.850  1.00  0.00     0.163 HD
ATOM     32  O   UNL A   1      42.338  18.286  26.013  1.00  0.00    -0.269 OA
BRANCH  30  33
ATOM     33  C   UNL A   1      42.263  20.593  26.418  1.00  0.00     0.039 A 
ATOM     34  C   UNL A   1      42.758  21.354  25.357  1.00  0.00     0.014 A 
ATOM     35  C   UNL A   1      42.339  21.079  27.726  1.00  0.00     0.014 A 
ATOM     36  C   UNL A   1      43.264  22.633  25.600  1.00  0.00     0.010 A 
ATOM     37  C   UNL A   1      42.767  22.383  27.956  1.00  0.00     0.010 A 
ATOM     38  C   UNL A   1      43.231  23.175  26.895  1.00  0.00    -0.014 A 
BRANCH  38  39
ATOM     39  C   UNL A   1      43.672  24.571  27.157  1.00  0.00     0.031 A 
ATOM     40  C   UNL A   1      42.688  25.596  27.651  1.00  0.00     0.074 A 
ATOM     41  C   UNL A   1      44.941  24.930  26.887  1.00  0.00     0.049 A 
ATOM     42  N   UNL A   1      42.866  26.874  27.874  1.00  0.00    -0.248 NA
ATOM     43  C   UNL A   1      41.316  25.129  27.901  1.00  0.00     0.031 C 
ATOM     44  C   UNL A   1      45.978  24.042  26.361  1.00  0.00     0.029 A 
ATOM     45  N   UNL A   1      45.575  26.143  27.008  1.00  0.00    -0.354 N 
ATOM     46  C   UNL A   1      41.630  27.363  28.276  1.00  0.00     0.074 A 
ATOM     47  C   UNL A   1      40.698  26.259  28.212  1.00  0.00     0.031 C 
ATOM     48  C   UNL A   1      47.123  24.731  26.230  1.00  0.00     0.029 A 
ATOM     49  C   UNL A   1      46.892  26.118  26.619  1.00  0.00     0.049 A 
ATOM     50  H   UNL A   1      45.127  26.954  27.342  1.00  0.00     0.167 HD
ATOM     51  C   UNL A   1      41.307  28.614  28.683  1.00  0.00     0.037 A 
ATOM     52  C   UNL A   1      47.807  27.105  26.572  1.00  0.00     0.037 A 
ATOM     53  C   UNL A   1      42.242  29.705  28.764  1.00  0.00     0.049 A 
ATOM     54  C   UNL A   1      47.416  28.491  27.011  1.00  0.00     0.074 A 
ATOM     55  C   UNL A   1      42.027  30.992  29.224  1.00  0.00     0.029 A 
ATOM     56  N   UNL A   1      43.570  29.640  28.368  1.00  0.00    -0.354 N 
ATOM     57  N   UNL A   1      46.264  28.923  27.462  1.00  0.00    -0.248 NA
ATOM     58  C   UNL A   1      48.458  29.526  26.939  1.00  0.00     0.031 C 
ATOM     59  C   UNL A   1      43.207  31.722  29.052  1.00  0.00     0.029 A 
ATOM     60  C   UNL A   1      44.178  30.873  28.545  1.00  0.00     0.049 A 
ATOM     61  H   UNL A   1      44.015  28.836  28.014  1.00  0.00     0.167 HD
ATOM     62  C   UNL A   1      46.449  30.268  27.758  1.00  0.00     0.074 A 
ATOM     63  C   UNL A   1      47.830  30.575  27.450  1.00  0.00     0.031 C 
ATOM     64  C   UNL A   1      45.557  31.165  28.243  1.00  0.00     0.037 A 
BRANCH  51  65
ATOM     65  C   UNL A   1      39.879  28.873  29.073  1.00  0.00     0.064 A 
ATOM     66  C   UNL A   1      38.922  29.292  28.135  1.00  0.00     0.173 A 
ATOM     67  C   UNL A   1      39.452  28.662  30.393  1.00  0.00     0.173 A 
ATOM     68  F   UNL A   1      39.278  29.519  26.861  1.00  0.00    -0.203 F 
ATOM     69  C   UNL A   1      37.600  29.520  28.511  1.00  0.00     0.198 A 
ATOM     70  C   UNL A   1      38.123  28.858  30.758  1.00  0.00     0.198 A 
ATOM     71  F   UNL A   1      40.323  28.255  31.329  1.00  0.00    -0.203 F 
ATOM     72  F   UNL A   1      36.718  29.971  27.609  1.00  0.00    -0.200 F 
ATOM     73  C   UNL A   1      37.201  29.296  29.820  1.00  0.00     0.200 A 
ATOM     74  F   UNL A   1      37.735  28.624  32.019  1.00  0.00    -0.200 F 
ATOM     75  F   UNL A   1      35.927  29.506  30.178  1.00  0.00    -0.200 F 
ENDBRANCH  51  65
BRANCH  52  76
ATOM     76  C   UNL A   1      49.192  26.816  26.111  1.00  0.00     0.064 A 
ATOM     77  C   UNL A   1      49.560  27.009  24.772  1.00  0.00     0.173 A 
ATOM     78  C   UNL A   1      50.169  26.329  26.991  1.00  0.00     0.173 A 
ATOM     79  F   UNL A   1      48.656  27.454  23.886  1.00  0.00    -0.203 F 
ATOM     80  C   UNL A   1      50.844  26.704  24.326  1.00  0.00     0.198 A 
ATOM     81  C   UNL A   1      51.462  26.053  26.550  1.00  0.00     0.198 A 
ATOM     82  F   UNL A   1      49.871  26.130  28.283  1.00  0.00    -0.203 F 
ATOM     83  F   UNL A   1      51.152  26.849  23.030  1.00  0.00    -0.200 F 
ATOM     84  C   UNL A   1      51.796  26.231  25.216  1.00  0.00     0.200 A 
ATOM     85  F   UNL A   1      52.383  25.612  27.417  1.00  0.00    -0.200 F 
ATOM     86  F   UNL A   1      53.031  25.940  24.787  1.00  0.00    -0.200 F 
ENDBRANCH  52  76
BRANCH  64  87
ATOM     87  C   UNL A   1      46.053  32.557  28.513  1.00  0.00     0.064 A 
ATOM     88  C   UNL A   1      46.599  32.922  29.752  1.00  0.00     0.173 A 
ATOM     89  C   UNL A   1      46.013  33.531  27.503  1.00  0.00     0.173 A 
ATOM     90  F   UNL A   1      46.648  32.034  30.757  1.00  0.00    -0.203 F 
ATOM     91  C   UNL A   1      47.062  34.216  29.978  1.00  0.00     0.198 A 
ATOM     92  C   UNL A   1      46.507  34.813  27.721  1.00  0.00     0.198 A 
ATOM     93  F   UNL A   1      45.506  33.234  26.296  1.00  0.00    -0.203 F 
ATOM     94  F   UNL A   1      47.532  34.556  31.186  1.00  0.00    -0.200 F 
ATOM     95  C   UNL A   1      47.024  35.158  28.960  1.00  0.00     0.200 A 
ATOM     96  F   UNL A   1      46.486  35.716  26.730  1.00  0.00    -0.200 F 
ATOM     97  F   UNL A   1      47.478  36.400  29.176  1.00  0.00    -0.200 F 
ENDBRANCH  64  87
ENDBRANCH  38  39
ENDBRANCH  30  33
ENDBRANCH  28  29
ENDBRANCH  27  28
ENDBRANCH  26  27
ENDBRANCH   1  26
TORSDOF 16
ENDMDL
MODEL 3
REMARK VINA RESULT:     -12.4      1.371      7.598
REMARK SMILES C[C@H](Oc1ccc(C(=O)NCc2ccccc2)cc1)C(=O)NCCCCNC(=O)c1ccc(-c2c3nc(c(-c4c(F)c(F)c(F)c(F)c4F)c4ccc([nH]4)c(-c4c(F)c(F)c(F)c(F)c4F)c4nc(c(-c5c(F)c(F)c(F)c(F)c5F)c5ccc2[nH]5)C=C4)C=C3)cc1
REMARK SMILES IDX 23 1 22 2 20 3 21 4 2 6 1 7 3 8 4 9 5 10 19 11 6 12 18 13
REMARK SMILES IDX 7 14 8 15 9 16 10 17 11 19 12 20 13 21 17 22 14 23 16 24
REMARK SMILES IDX 15 25 24 26 25 27 26 28 27 29 28 30 29 32 30 33 31 34 92 35
REMARK SMILES IDX 32 36 91 37 33 38 34 39 35 40 85 41 36 42 90 43 84 44 86 45
REMARK SMILES IDX 37 46 89 47 83 48 82 49 38 51 70 52 50 53 69 54 51 55 54 56
REMARK SMILES IDX 68 57 87 58 52 59 53 60 67 62 88 63 55 64 39 65 40 66 48 67
REMARK SMILES IDX 41 68 42 69 46 70 49 71 43 72 44 73 47 74 45 75 71 76 72 77
REMARK SMILES IDX 80 78 73 79 74 80 78 81 81 82 75 83 76 84 79 85 77 86 56 87
REMARK SMILES IDX 57 88 65 89 58 90 59 91 63 92 66 93 60 94 61 95 64 96 62 97
REMARK H PARENT 22 5 10 18 27 31 86 50 54 61
REMARK Flexibility Score: inf
ROOT
ATOM      1  C   UNL A   1      32.299  30.060  25.450  1.00  0.00     0.116 C 
ENDROOT
BRANCH   1   2
ATOM      2  N   UNL A   1      31.513  29.688  24.286  1.00  0.00    -0.353 N 
ATOM      3  C   UNL A   1      31.791  28.746  23.327  1.00  0.00     0.260 C 
ATOM      4  O   UNL A   1      30.964  28.561  22.433  1.00  0.00    -0.271 OA
ATOM      5  H   UNL A   1      30.666  30.177  24.169  1.00  0.00     0.163 HD
BRANCH   3   6
ATOM      6  C   UNL A   1      33.080  27.916  23.421  1.00  0.00     0.258 C 
ATOM      7  C   UNL A   1      33.934  28.190  22.176  1.00  0.00     0.064 C 
BRANCH   6   8
ATOM      8  O   UNL A   1      32.610  26.573  23.594  1.00  0.00    -0.481 OA
BRANCH   8   9
ATOM      9  C   UNL A   1      33.475  25.541  23.758  1.00  0.00     0.120 A 
ATOM     10  C   UNL A   1      33.697  24.502  22.867  1.00  0.00     0.047 A 
ATOM     11  C   UNL A   1      34.158  25.558  24.978  1.00  0.00     0.047 A 
ATOM     12  C   UNL A   1      34.573  23.468  23.218  1.00  0.00     0.017 A 
ATOM     13  C   UNL A   1      35.018  24.516  25.338  1.00  0.00     0.017 A 
ATOM     14  C   UNL A   1      35.255  23.469  24.450  1.00  0.00     0.040 A 
BRANCH  14  15
ATOM     15  C   UNL A   1      36.126  22.296  24.730  1.00  0.00     0.251 C 
ATOM     16  O   UNL A   1      37.339  22.406  24.538  1.00  0.00    -0.269 OA
ATOM     17  N   UNL A   1      35.678  21.097  25.208  1.00  0.00    -0.348 N 
ATOM     18  H   UNL A   1      36.402  20.449  25.362  1.00  0.00     0.164 HD
BRANCH  17  19
ATOM     19  C   UNL A   1      34.367  20.572  25.538  1.00  0.00     0.152 C 
BRANCH  19  20
ATOM     20  C   UNL A   1      33.956  19.431  24.632  1.00  0.00    -0.029 A 
ATOM     21  C   UNL A   1      32.751  19.523  23.916  1.00  0.00     0.005 A 
ATOM     22  C   UNL A   1      34.729  18.266  24.479  1.00  0.00     0.005 A 
ATOM     23  C   UNL A   1      32.315  18.469  23.108  1.00  0.00     0.000 A 
ATOM     24  C   UNL A   1      34.291  17.213  23.674  1.00  0.00     0.000 A 
ATOM     25  C   UNL A   1      33.081  17.311  22.995  1.00  0.00     0.000 A 
ENDBRANCH  19  20
ENDBRANCH  17  19
ENDBRANCH  14  15
ENDBRANCH   8   9
ENDBRANCH   6   8
ENDBRANCH   3   6
ENDBRANCH   1   2
BRANCH   1  26
ATOM     26  C   UNL A   1      31.445  30.665  26.560  1.00  0.00     0.023 C 
BRANCH  26  27
ATOM     27  C   UNL A   1      31.438  32.191  26.592  1.00  0.00     0.023 C 
BRANCH  27  28
ATOM     28  C   UNL A   1      32.643  32.829  27.275  1.00  0.00     0.116 C 
BRANCH  28  29
ATOM     29  N   UNL A   1      32.411  34.210  27.667  1.00  0.00    -0.352 N 
ATOM     30  C   UNL A   1      33.038  34.954  28.640  1.00  0.00     0.251 C 
ATOM     31  H   UNL A   1      31.705  34.678  27.167  1.00  0.00     0.163 HD
ATOM     32  O   UNL A   1      32.621  36.065  28.934  1.00  0.00    -0.269 OA
BRANCH  30  33
ATOM     33  C   UNL A   1      34.200  34.387  29.359  1.00  0.00     0.039 A 
ATOM     34  C   UNL A   1      33.977  33.653  30.526  1.00  0.00     0.014 A 
ATOM     35  C   UNL A   1      35.500  34.559  28.876  1.00  0.00     0.014 A 
ATOM     36  C   UNL A   1      35.051  33.030  31.168  1.00  0.00     0.010 A 
ATOM     37  C   UNL A   1      36.555  33.871  29.468  1.00  0.00     0.010 A 
ATOM     38  C   UNL A   1      36.342  33.098  30.618  1.00  0.00    -0.014 A 
BRANCH  38  39
ATOM     39  C   UNL A   1      37.478  32.359  31.230  1.00  0.00     0.031 A 
ATOM     40  C   UNL A   1      37.978  32.736  32.598  1.00  0.00     0.074 A 
ATOM     41  C   UNL A   1      38.101  31.394  30.527  1.00  0.00     0.049 A 
ATOM     42  N   UNL A   1      38.994  32.255  33.269  1.00  0.00    -0.248 NA
ATOM     43  C   UNL A   1      37.258  33.815  33.292  1.00  0.00     0.031 C 
ATOM     44  C   UNL A   1      37.741  30.967  29.175  1.00  0.00     0.029 A 
ATOM     45  N   UNL A   1      39.175  30.601  30.849  1.00  0.00    -0.354 N 
ATOM     46  C   UNL A   1      39.042  32.980  34.453  1.00  0.00     0.074 A 
ATOM     47  C   UNL A   1      37.990  33.970  34.385  1.00  0.00     0.031 C 
ATOM     48  C   UNL A   1      38.562  29.975  28.793  1.00  0.00     0.029 A 
ATOM     49  C   UNL A   1      39.532  29.725  29.854  1.00  0.00     0.049 A 
ATOM     50  H   UNL A   1      39.646  30.657  31.713  1.00  0.00     0.167 HD
ATOM     51  C   UNL A   1      39.873  32.819  35.510  1.00  0.00     0.037 A 
ATOM     52  C   UNL A   1      40.535  28.828  29.798  1.00  0.00     0.037 A 
ATOM     53  C   UNL A   1      40.907  31.819  35.583  1.00  0.00     0.049 A 
ATOM     54  C   UNL A   1      41.458  28.683  30.980  1.00  0.00     0.074 A 
ATOM     55  C   UNL A   1      41.759  31.535  36.635  1.00  0.00     0.029 A 
ATOM     56  N   UNL A   1      41.234  30.944  34.556  1.00  0.00    -0.354 N 
ATOM     57  N   UNL A   1      41.445  29.322  32.124  1.00  0.00    -0.248 NA
ATOM     58  C   UNL A   1      42.532  27.687  30.862  1.00  0.00     0.031 C 
ATOM     59  C   UNL A   1      42.640  30.529  36.225  1.00  0.00     0.029 A 
ATOM     60  C   UNL A   1      42.295  30.140  34.941  1.00  0.00     0.049 A 
ATOM     61  H   UNL A   1      40.779  30.900  33.685  1.00  0.00     0.167 HD
ATOM     62  C   UNL A   1      42.483  28.784  32.874  1.00  0.00     0.074 A 
ATOM     63  C   UNL A   1      43.096  27.756  32.059  1.00  0.00     0.031 C 
ATOM     64  C   UNL A   1      42.891  29.112  34.124  1.00  0.00     0.037 A 
BRANCH  51  65
ATOM     65  C   UNL A   1      39.702  33.748  36.679  1.00  0.00     0.064 A 
ATOM     66  C   UNL A   1      38.896  33.412  37.778  1.00  0.00     0.173 A 
ATOM     67  C   UNL A   1      40.385  34.973  36.719  1.00  0.00     0.173 A 
ATOM     68  F   UNL A   1      38.213  32.257  37.787  1.00  0.00    -0.203 F 
ATOM     69  C   UNL A   1      38.755  34.282  38.857  1.00  0.00     0.198 A 
ATOM     70  C   UNL A   1      40.268  35.825  37.814  1.00  0.00     0.198 A 
ATOM     71  F   UNL A   1      41.174  35.342  35.698  1.00  0.00    -0.203 F 
ATOM     72  F   UNL A   1      37.937  33.962  39.869  1.00  0.00    -0.200 F 
ATOM     73  C   UNL A   1      39.447  35.483  38.877  1.00  0.00     0.200 A 
ATOM     74  F   UNL A   1      40.951  36.978  37.839  1.00  0.00    -0.200 F 
ATOM     75  F   UNL A   1      39.317  36.314  39.920  1.00  0.00    -0.200 F 
ENDBRANCH  51  65
BRANCH  52  76
ATOM     76  C   UNL A   1      40.710  27.978  28.590  1.00  0.00     0.064 A 
ATOM     77  C   UNL A   1      41.488  28.416  27.508  1.00  0.00     0.173 A 
ATOM     78  C   UNL A   1      40.094  26.723  28.483  1.00  0.00     0.173 A 
ATOM     79  F   UNL A   1      42.081  29.618  27.553  1.00  0.00    -0.203 F 
ATOM     80  C   UNL A   1      41.623  27.642  26.358  1.00  0.00     0.198 A 
ATOM     81  C   UNL A   1      40.256  25.936  27.344  1.00  0.00     0.198 A 
ATOM     82  F   UNL A   1      39.341  26.255  29.489  1.00  0.00    -0.203 F 
ATOM     83  F   UNL A   1      42.330  28.108  25.319  1.00  0.00    -0.200 F 
ATOM     84  C   UNL A   1      41.012  26.400  26.279  1.00  0.00     0.200 A 
ATOM     85  F   UNL A   1      39.675  24.730  27.278  1.00  0.00    -0.200 F 
ATOM     86  F   UNL A   1      41.144  25.655  25.173  1.00  0.00    -0.200 F 
ENDBRANCH  52  76
BRANCH  64  87
ATOM     87  C   UNL A   1      44.028  28.324  34.710  1.00  0.00     0.064 A 
ATOM     88  C   UNL A   1      43.824  27.089  35.343  1.00  0.00     0.173 A 
ATOM     89  C   UNL A   1      45.345  28.796  34.602  1.00  0.00     0.173 A 
ATOM     90  F   UNL A   1      42.584  26.599  35.486  1.00  0.00    -0.203 F 
ATOM     91  C   UNL A   1      44.895  26.371  35.872  1.00  0.00     0.198 A 
ATOM     92  C   UNL A   1      46.416  28.059  35.100  1.00  0.00     0.198 A 
ATOM     93  F   UNL A   1      45.597  29.969  34.000  1.00  0.00    -0.203 F 
ATOM     94  F   UNL A   1      44.671  25.219  36.519  1.00  0.00    -0.200 F 
ATOM     95  C   UNL A   1      46.189  26.851  35.742  1.00  0.00     0.200 A 
ATOM     96  F   UNL A   1      47.667  28.517  34.958  1.00  0.00    -0.200 F 
ATOM     97  F   UNL A   1      47.218  26.154  36.242  1.00  0.00    -0.200 F 
ENDBRANCH  64  87
ENDBRANCH  38  39
ENDBRANCH  30  33
ENDBRANCH  28  29
ENDBRANCH  27  28
ENDBRANCH  26  27
ENDBRANCH   1  26
TORSDOF 16
ENDMDL
