MODEL 1
REMARK VINA RESULT:     -10.8      0.000      0.000
REMARK SMILES O=C1[NH+]=C(S)N(c2cccc(Br)c2)C(=O)/C1=C/c1ccc(-c2ccc(C(=O)NCCCCNC(=O)c3ccc(-c4c5nc(c(-c6c(F)c(F)c(F)c(F)c6F)c6ccc([nH]6)c(-c6c(F)c(F)c(F)c(F)c6F)c6nc(c(-c7c(F)c(F)c(F)c(F)c7F)c7ccc4[nH]7)C=C6)C=C5)cc3)cc2)o1
REMARK SMILES IDX 30 1 29 2 28 3 26 4 27 5 25 7 22 8 23 9 100 10 24 11 99 12
REMARK SMILES IDX 21 13 18 14 19 15 101 16 20 17 17 18 1 19 2 20 3 21 16 22
REMARK SMILES IDX 4 23 14 25 6 26 15 27 5 28 7 30 8 31 13 32 9 33 11 34 10 35
REMARK SMILES IDX 12 36 31 37 32 38 33 39 34 40 35 42 36 43 37 44 98 45 38 46
REMARK SMILES IDX 97 47 39 48 40 49 41 50 91 51 42 52 96 53 90 54 92 55 43 56
REMARK SMILES IDX 95 57 89 58 88 59 44 61 76 62 56 63 75 64 57 65 60 66 74 67
REMARK SMILES IDX 93 68 58 69 59 70 73 72 94 73 61 74 45 75 46 76 54 77 47 78
REMARK SMILES IDX 48 79 52 80 55 81 49 82 50 83 53 84 51 85 77 86 78 87 86 88
REMARK SMILES IDX 79 89 80 90 84 91 87 92 81 93 82 94 85 95 83 96 62 97 63 98
REMARK SMILES IDX 71 99 64 100 65 101 69 102 72 103 66 104 67 105 70 106
REMARK SMILES IDX 68 107
REMARK H PARENT 28 6 3 24 5 29 33 41 92 60 60 71
REMARK Flexibility Score: inf
ROOT
ATOM      1  C   UNL A   1      34.300  34.383  29.368  1.00  0.00     0.023 C 
ENDROOT
BRANCH   1   2
ATOM      2  C   UNL A   1      34.037  35.247  30.605  1.00  0.00     0.116 C 
BRANCH   2   3
ATOM      3  N   UNL A   1      33.364  34.470  31.628  1.00  0.00    -0.352 N 
ATOM      4  C   UNL A   1      33.836  33.588  32.568  1.00  0.00     0.251 C 
ATOM      5  O   UNL A   1      33.020  33.075  33.333  1.00  0.00    -0.269 OA
ATOM      6  H   UNL A   1      32.388  34.599  31.653  1.00  0.00     0.163 HD
BRANCH   4   7
ATOM      7  C   UNL A   1      35.286  33.285  32.736  1.00  0.00     0.039 A 
ATOM      8  C   UNL A   1      37.943  32.485  33.190  1.00  0.00     0.017 A 
ATOM      9  C   UNL A   1      37.076  31.647  32.490  1.00  0.00     0.013 A 
ATOM     10  C   UNL A   1      37.506  33.750  33.586  1.00  0.00     0.013 A 
ATOM     11  C   UNL A   1      35.749  32.041  32.274  1.00  0.00     0.014 A 
ATOM     12  C   UNL A   1      36.202  34.159  33.324  1.00  0.00     0.014 A 
BRANCH   8  13
ATOM     13  C   UNL A   1      39.278  32.077  33.560  1.00  0.00     0.134 A 
ATOM     14  C   UNL A   1      40.941  30.630  33.610  1.00  0.00     0.128 A 
ATOM     15  C   UNL A   1      41.423  31.845  34.086  1.00  0.00     0.051 A 
ATOM     16  O   UNL A   1      39.621  30.797  33.272  1.00  0.00    -0.457 OA
ATOM     17  C   UNL A   1      40.354  32.763  34.071  1.00  0.00     0.051 A 
BRANCH  14  18
ATOM     18  C   UNL A   1      41.634  29.411  33.427  1.00  0.00     0.071 C 
ATOM     19  O   UNL A   1      40.503  29.478  36.115  1.00  0.00    -0.241 OA
ATOM     20  C   UNL A   1      41.314  28.630  35.786  1.00  0.00     0.347 C 
ATOM     21  N   UNL A   1      41.765  27.717  36.689  1.00  0.00    -0.200 N 
ATOM     22  C   UNL A   1      41.862  28.519  34.412  1.00  0.00     0.158 C 
ATOM     23  C   UNL A   1      42.505  26.726  36.350  1.00  0.00     0.323 C 
ATOM     24  H   UNL A   1      41.516  27.822  37.636  1.00  0.00     0.316 HD
ATOM     25  C   UNL A   1      42.702  27.354  34.044  1.00  0.00     0.354 C 
ATOM     26  N   UNL A   1      42.965  26.461  35.075  1.00  0.00    -0.151 N 
ATOM     27  O   UNL A   1      43.112  27.222  32.891  1.00  0.00    -0.240 OA
BRANCH  23  28
ATOM     28  S   UNL A   1      43.003  25.727  37.703  1.00  0.00    -0.055 SA
ATOM     29  H   UNL A   1      44.009  26.346  38.378  1.00  0.00     0.116 HD
ENDBRANCH  23  28
BRANCH  26  30
ATOM     30  C   UNL A   1      43.740  25.301  34.758  1.00  0.00     0.138 A 
ATOM     31  C   UNL A   1      43.124  24.173  34.195  1.00  0.00     0.052 A 
ATOM     32  C   UNL A   1      45.115  25.268  35.028  1.00  0.00     0.068 A 
ATOM     33  C   UNL A   1      43.879  23.046  33.865  1.00  0.00     0.006 A 
ATOM     34  C   UNL A   1      45.859  24.135  34.704  1.00  0.00     0.022 A 
ATOM     35  C   UNL A   1      45.249  23.028  34.117  1.00  0.00     0.016 A 
ATOM     36  Br  UNL A   1      47.712  24.100  35.073  1.00  0.00    -0.051 Br
ENDBRANCH  26  30
ENDBRANCH  14  18
ENDBRANCH   8  13
ENDBRANCH   4   7
ENDBRANCH   2   3
ENDBRANCH   1   2
BRANCH   1  37
ATOM     37  C   UNL A   1      35.779  34.084  29.126  1.00  0.00     0.023 C 
BRANCH  37  38
ATOM     38  C   UNL A   1      36.039  32.945  28.151  1.00  0.00     0.116 C 
BRANCH  38  39
ATOM     39  N   UNL A   1      35.005  31.922  28.177  1.00  0.00    -0.352 N 
ATOM     40  C   UNL A   1      35.161  30.558  28.223  1.00  0.00     0.251 C 
ATOM     41  H   UNL A   1      34.076  32.248  28.159  1.00  0.00     0.163 HD
ATOM     42  O   UNL A   1      34.195  29.812  28.111  1.00  0.00    -0.269 OA
BRANCH  40  43
ATOM     43  C   UNL A   1      36.520  30.002  28.372  1.00  0.00     0.039 A 
ATOM     44  C   UNL A   1      37.378  30.015  27.272  1.00  0.00     0.014 A 
ATOM     45  C   UNL A   1      36.957  29.520  29.609  1.00  0.00     0.014 A 
ATOM     46  C   UNL A   1      38.699  29.599  27.429  1.00  0.00     0.010 A 
ATOM     47  C   UNL A   1      38.295  29.189  29.784  1.00  0.00     0.010 A 
ATOM     48  C   UNL A   1      39.179  29.218  28.694  1.00  0.00    -0.014 A 
BRANCH  48  49
ATOM     49  C   UNL A   1      40.598  28.832  28.893  1.00  0.00     0.031 A 
ATOM     50  C   UNL A   1      41.552  29.793  29.549  1.00  0.00     0.074 A 
ATOM     51  C   UNL A   1      41.036  27.639  28.446  1.00  0.00     0.049 A 
ATOM     52  N   UNL A   1      42.836  29.664  29.768  1.00  0.00    -0.248 NA
ATOM     53  C   UNL A   1      40.994  31.079  29.996  1.00  0.00     0.031 C 
ATOM     54  C   UNL A   1      40.216  26.638  27.760  1.00  0.00     0.029 A 
ATOM     55  N   UNL A   1      42.281  27.065  28.500  1.00  0.00    -0.354 N 
ATOM     56  C   UNL A   1      43.234  30.847  30.376  1.00  0.00     0.074 A 
ATOM     57  C   UNL A   1      42.076  31.711  30.424  1.00  0.00     0.031 C 
ATOM     58  C   UNL A   1      40.971  25.562  27.488  1.00  0.00     0.029 A 
ATOM     59  C   UNL A   1      42.336  25.813  27.938  1.00  0.00     0.049 A 
ATOM     60  H   UNL A   1      43.062  27.509  28.904  1.00  0.00     0.167 HD
ATOM     61  C   UNL A   1      44.447  31.171  30.884  1.00  0.00     0.037 A 
ATOM     62  C   UNL A   1      43.376  24.968  27.796  1.00  0.00     0.037 A 
ATOM     63  C   UNL A   1      45.597  30.307  30.841  1.00  0.00     0.049 A 
ATOM     64  C   UNL A   1      44.727  25.378  28.323  1.00  0.00     0.074 A 
ATOM     65  C   UNL A   1      46.865  30.531  31.344  1.00  0.00     0.029 A 
ATOM     66  N   UNL A   1      45.614  29.047  30.259  1.00  0.00    -0.354 N 
ATOM     67  N   UNL A   1      45.076  26.474  28.951  1.00  0.00    -0.248 NA
ATOM     68  C   UNL A   1      45.829  24.425  28.126  1.00  0.00     0.031 C 
ATOM     69  C   UNL A   1      47.665  29.432  31.021  1.00  0.00     0.029 A 
ATOM     70  C   UNL A   1      46.879  28.492  30.375  1.00  0.00     0.049 A 
ATOM     71  H   UNL A   1      44.844  28.612  29.827  1.00  0.00     0.167 HD
ATOM     72  C   UNL A   1      46.422  26.323  29.262  1.00  0.00     0.074 A 
ATOM     73  C   UNL A   1      46.821  25.023  28.767  1.00  0.00     0.031 C 
ATOM     74  C   UNL A   1      47.253  27.185  29.899  1.00  0.00     0.037 A 
BRANCH  61  75
ATOM     75  C   UNL A   1      44.590  32.515  31.541  1.00  0.00     0.064 A 
ATOM     76  C   UNL A   1      44.627  32.644  32.939  1.00  0.00     0.173 A 
ATOM     77  C   UNL A   1      44.734  33.679  30.773  1.00  0.00     0.173 A 
ATOM     78  F   UNL A   1      44.482  31.564  33.722  1.00  0.00    -0.203 F 
ATOM     79  C   UNL A   1      44.777  33.890  33.540  1.00  0.00     0.198 A 
ATOM     80  C   UNL A   1      44.918  34.919  31.377  1.00  0.00     0.198 A 
ATOM     81  F   UNL A   1      44.710  33.612  29.432  1.00  0.00    -0.203 F 
ATOM     82  F   UNL A   1      44.759  33.995  34.877  1.00  0.00    -0.200 F 
ATOM     83  C   UNL A   1      44.931  35.026  32.759  1.00  0.00     0.200 A 
ATOM     84  F   UNL A   1      45.084  36.013  30.621  1.00  0.00    -0.200 F 
ATOM     85  F   UNL A   1      45.088  36.224  33.340  1.00  0.00    -0.200 F 
ENDBRANCH  61  75
BRANCH  62  86
ATOM     86  C   UNL A   1      43.190  23.642  27.147  1.00  0.00     0.064 A 
ATOM     87  C   UNL A   1      42.598  22.576  27.842  1.00  0.00     0.173 A 
ATOM     88  C   UNL A   1      43.641  23.393  25.842  1.00  0.00     0.173 A 
ATOM     89  F   UNL A   1      42.165  22.755  29.099  1.00  0.00    -0.203 F 
ATOM     90  C   UNL A   1      42.503  21.307  27.274  1.00  0.00     0.198 A 
ATOM     91  C   UNL A   1      43.513  22.132  25.262  1.00  0.00     0.198 A 
ATOM     92  F   UNL A   1      44.210  24.377  25.129  1.00  0.00    -0.203 F 
ATOM     93  F   UNL A   1      41.998  20.293  27.989  1.00  0.00    -0.200 F 
ATOM     94  C   UNL A   1      42.959  21.087  25.984  1.00  0.00     0.200 A 
ATOM     95  F   UNL A   1      43.940  21.928  24.009  1.00  0.00    -0.200 F 
ATOM     96  F   UNL A   1      42.876  19.865  25.441  1.00  0.00    -0.200 F 
ENDBRANCH  62  86
BRANCH  74  97
ATOM     97  C   UNL A   1      48.660  26.723  30.156  1.00  0.00     0.064 A 
ATOM     98  C   UNL A   1      49.713  27.022  29.277  1.00  0.00     0.173 A 
ATOM     99  C   UNL A   1      48.964  25.999  31.319  1.00  0.00     0.173 A 
ATOM    100  F   UNL A   1      49.475  27.701  28.144  1.00  0.00    -0.203 F 
ATOM    101  C   UNL A   1      51.008  26.581  29.535  1.00  0.00     0.198 A 
ATOM    102  C   UNL A   1      50.266  25.593  31.593  1.00  0.00     0.198 A 
ATOM    103  F   UNL A   1      47.997  25.694  32.198  1.00  0.00    -0.203 F 
ATOM    104  F   UNL A   1      51.984  26.825  28.651  1.00  0.00    -0.200 F 
ATOM    105  C   UNL A   1      51.285  25.875  30.696  1.00  0.00     0.200 A 
ATOM    106  F   UNL A   1      50.536  24.927  32.724  1.00  0.00    -0.200 F 
ATOM    107  F   UNL A   1      52.534  25.458  30.947  1.00  0.00    -0.200 F 
ENDBRANCH  74  97
ENDBRANCH  48  49
ENDBRANCH  40  43
ENDBRANCH  38  39
ENDBRANCH  37  38
ENDBRANCH   1  37
TORSDOF 15
ENDMDL
MODEL 2
REMARK VINA RESULT:     -10.8      1.232      2.147
REMARK SMILES O=C1[NH+]=C(S)N(c2cccc(Br)c2)C(=O)/C1=C/c1ccc(-c2ccc(C(=O)NCCCCNC(=O)c3ccc(-c4c5nc(c(-c6c(F)c(F)c(F)c(F)c6F)c6ccc([nH]6)c(-c6c(F)c(F)c(F)c(F)c6F)c6nc(c(-c7c(F)c(F)c(F)c(F)c7F)c7ccc4[nH]7)C=C6)C=C5)cc3)cc2)o1
REMARK SMILES IDX 30 1 29 2 28 3 26 4 27 5 25 7 22 8 23 9 100 10 24 11 99 12
REMARK SMILES IDX 21 13 18 14 19 15 101 16 20 17 17 18 1 19 2 20 3 21 16 22
REMARK SMILES IDX 4 23 14 25 6 26 15 27 5 28 7 30 8 31 13 32 9 33 11 34 10 35
REMARK SMILES IDX 12 36 31 37 32 38 33 39 34 40 35 42 36 43 37 44 98 45 38 46
REMARK SMILES IDX 97 47 39 48 40 49 41 50 91 51 42 52 96 53 90 54 92 55 43 56
REMARK SMILES IDX 95 57 89 58 88 59 44 61 76 62 56 63 75 64 57 65 60 66 74 67
REMARK SMILES IDX 93 68 58 69 59 70 73 72 94 73 61 74 45 75 46 76 54 77 47 78
REMARK SMILES IDX 48 79 52 80 55 81 49 82 50 83 53 84 51 85 77 86 78 87 86 88
REMARK SMILES IDX 79 89 80 90 84 91 87 92 81 93 82 94 85 95 83 96 62 97 63 98
REMARK SMILES IDX 71 99 64 100 65 101 69 102 72 103 66 104 67 105 70 106
REMARK SMILES IDX 68 107
REMARK H PARENT 28 6 3 24 5 29 33 41 92 60 60 71
REMARK Flexibility Score: inf
ROOT
ATOM      1  C   UNL A   1      33.451  34.605  29.051  1.00  0.00     0.023 C 
ENDROOT
BRANCH   1   2
ATOM      2  C   UNL A   1      33.272  35.967  29.727  1.00  0.00     0.116 C 
BRANCH   2   3
ATOM      3  N   UNL A   1      32.348  35.859  30.840  1.00  0.00    -0.352 N 
ATOM      4  C   UNL A   1      32.485  35.317  32.094  1.00  0.00     0.251 C 
ATOM      5  O   UNL A   1      31.518  35.380  32.854  1.00  0.00    -0.269 OA
ATOM      6  H   UNL A   1      31.460  36.246  30.664  1.00  0.00     0.163 HD
BRANCH   4   7
ATOM      7  C   UNL A   1      33.761  34.723  32.585  1.00  0.00     0.039 A 
ATOM      8  C   UNL A   1      36.295  33.742  33.308  1.00  0.00     0.017 A 
ATOM      9  C   UNL A   1      36.058  35.117  33.300  1.00  0.00     0.013 A 
ATOM     10  C   UNL A   1      35.245  32.863  33.038  1.00  0.00     0.013 A 
ATOM     11  C   UNL A   1      34.799  35.605  32.928  1.00  0.00     0.014 A 
ATOM     12  C   UNL A   1      33.981  33.352  32.721  1.00  0.00     0.014 A 
BRANCH   8  13
ATOM     13  C   UNL A   1      37.605  33.187  33.550  1.00  0.00     0.134 A 
ATOM     14  C   UNL A   1      39.034  31.510  33.656  1.00  0.00     0.128 A 
ATOM     15  C   UNL A   1      39.757  32.691  33.783  1.00  0.00     0.051 A 
ATOM     16  O   UNL A   1      37.709  31.836  33.494  1.00  0.00    -0.457 OA
ATOM     17  C   UNL A   1      38.841  33.760  33.734  1.00  0.00     0.051 A 
BRANCH  14  18
ATOM     18  C   UNL A   1      39.507  30.177  33.636  1.00  0.00     0.071 C 
ATOM     19  O   UNL A   1      40.481  31.505  36.044  1.00  0.00    -0.241 OA
ATOM     20  C   UNL A   1      40.915  30.421  35.693  1.00  0.00     0.347 C 
ATOM     21  N   UNL A   1      41.921  29.821  36.388  1.00  0.00    -0.200 N 
ATOM     22  C   UNL A   1      40.401  29.682  34.514  1.00  0.00     0.158 C 
ATOM     23  C   UNL A   1      42.307  28.625  36.137  1.00  0.00     0.323 C 
ATOM     24  H   UNL A   1      42.368  30.324  37.106  1.00  0.00     0.316 HD
ATOM     25  C   UNL A   1      40.854  28.293  34.259  1.00  0.00     0.354 C 
ATOM     26  N   UNL A   1      41.805  27.805  35.145  1.00  0.00    -0.151 N 
ATOM     27  O   UNL A   1      40.388  27.651  33.317  1.00  0.00    -0.240 OA
BRANCH  23  28
ATOM     28  S   UNL A   1      43.656  28.100  37.129  1.00  0.00    -0.055 SA
ATOM     29  H   UNL A   1      44.810  28.206  36.416  1.00  0.00     0.116 HD
ENDBRANCH  23  28
BRANCH  26  30
ATOM     30  C   UNL A   1      42.244  26.456  34.961  1.00  0.00     0.138 A 
ATOM     31  C   UNL A   1      41.637  25.412  35.676  1.00  0.00     0.052 A 
ATOM     32  C   UNL A   1      43.298  26.164  34.085  1.00  0.00     0.068 A 
ATOM     33  C   UNL A   1      42.048  24.092  35.485  1.00  0.00     0.006 A 
ATOM     34  C   UNL A   1      43.708  24.843  33.908  1.00  0.00     0.022 A 
ATOM     35  C   UNL A   1      43.082  23.806  34.597  1.00  0.00     0.016 A 
ATOM     36  Br  UNL A   1      45.131  24.460  32.725  1.00  0.00    -0.051 Br
ENDBRANCH  26  30
ENDBRANCH  14  18
ENDBRANCH   8  13
ENDBRANCH   4   7
ENDBRANCH   2   3
ENDBRANCH   1   2
BRANCH   1  37
ATOM     37  C   UNL A   1      34.852  34.016  29.212  1.00  0.00     0.023 C 
BRANCH  37  38
ATOM     38  C   UNL A   1      35.243  33.018  28.130  1.00  0.00     0.116 C 
BRANCH  38  39
ATOM     39  N   UNL A   1      34.278  31.941  27.970  1.00  0.00    -0.352 N 
ATOM     40  C   UNL A   1      34.514  30.589  27.923  1.00  0.00     0.251 C 
ATOM     41  H   UNL A   1      33.336  32.215  27.885  1.00  0.00     0.163 HD
ATOM     42  O   UNL A   1      33.613  29.803  27.655  1.00  0.00    -0.269 OA
BRANCH  40  43
ATOM     43  C   UNL A   1      35.885  30.098  28.164  1.00  0.00     0.039 A 
ATOM     44  C   UNL A   1      36.802  30.112  27.111  1.00  0.00     0.014 A 
ATOM     45  C   UNL A   1      36.274  29.676  29.439  1.00  0.00     0.014 A 
ATOM     46  C   UNL A   1      38.128  29.760  27.353  1.00  0.00     0.010 A 
ATOM     47  C   UNL A   1      37.613  29.410  29.696  1.00  0.00     0.010 A 
ATOM     48  C   UNL A   1      38.553  29.442  28.655  1.00  0.00    -0.014 A 
BRANCH  48  49
ATOM     49  C   UNL A   1      39.974  29.125  28.943  1.00  0.00     0.031 A 
ATOM     50  C   UNL A   1      40.830  30.119  29.679  1.00  0.00     0.074 A 
ATOM     51  C   UNL A   1      40.503  27.965  28.505  1.00  0.00     0.049 A 
ATOM     52  N   UNL A   1      42.102  30.051  29.982  1.00  0.00    -0.248 NA
ATOM     53  C   UNL A   1      40.177  31.365  30.110  1.00  0.00     0.031 C 
ATOM     54  C   UNL A   1      39.785  26.939  27.747  1.00  0.00     0.029 A 
ATOM     55  N   UNL A   1      41.770  27.455  28.633  1.00  0.00    -0.354 N 
ATOM     56  C   UNL A   1      42.395  31.240  30.637  1.00  0.00     0.074 A 
ATOM     57  C   UNL A   1      41.193  32.042  30.622  1.00  0.00     0.031 C 
ATOM     58  C   UNL A   1      40.612  25.909  27.508  1.00  0.00     0.029 A 
ATOM     59  C   UNL A   1      41.929  26.220  28.053  1.00  0.00     0.049 A 
ATOM     60  H   UNL A   1      42.498  27.930  29.097  1.00  0.00     0.167 HD
ATOM     61  C   UNL A   1      43.553  31.615  31.232  1.00  0.00     0.037 A 
ATOM     62  C   UNL A   1      43.019  25.433  27.967  1.00  0.00     0.037 A 
ATOM     63  C   UNL A   1      44.747  30.811  31.251  1.00  0.00     0.049 A 
ATOM     64  C   UNL A   1      44.308  25.900  28.592  1.00  0.00     0.074 A 
ATOM     65  C   UNL A   1      45.966  31.090  31.843  1.00  0.00     0.029 A 
ATOM     66  N   UNL A   1      44.870  29.567  30.649  1.00  0.00    -0.354 N 
ATOM     67  N   UNL A   1      44.556  26.999  29.262  1.00  0.00    -0.248 NA
ATOM     68  C   UNL A   1      45.469  25.010  28.453  1.00  0.00     0.031 C 
ATOM     69  C   UNL A   1      46.842  30.040  31.556  1.00  0.00     0.029 A 
ATOM     70  C   UNL A   1      46.151  29.075  30.841  1.00  0.00     0.049 A 
ATOM     71  H   UNL A   1      44.154  29.103  30.158  1.00  0.00     0.167 HD
ATOM     72  C   UNL A   1      45.884  26.911  29.661  1.00  0.00     0.074 A 
ATOM     73  C   UNL A   1      46.383  25.643  29.170  1.00  0.00     0.031 C 
ATOM     74  C   UNL A   1      46.624  27.799  30.368  1.00  0.00     0.037 A 
BRANCH  61  75
ATOM     75  C   UNL A   1      43.581  32.949  31.922  1.00  0.00     0.064 A 
ATOM     76  C   UNL A   1      43.835  34.134  31.211  1.00  0.00     0.173 A 
ATOM     77  C   UNL A   1      43.309  33.055  33.293  1.00  0.00     0.173 A 
ATOM     78  F   UNL A   1      44.113  34.089  29.899  1.00  0.00    -0.203 F 
ATOM     79  C   UNL A   1      43.842  35.368  31.854  1.00  0.00     0.198 A 
ATOM     80  C   UNL A   1      43.284  34.295  33.926  1.00  0.00     0.198 A 
ATOM     81  F   UNL A   1      43.055  31.955  34.019  1.00  0.00    -0.203 F 
ATOM     82  F   UNL A   1      44.138  36.480  31.165  1.00  0.00    -0.200 F 
ATOM     83  C   UNL A   1      43.558  35.449  33.209  1.00  0.00     0.200 A 
ATOM     84  F   UNL A   1      42.992  34.373  35.232  1.00  0.00    -0.200 F 
ATOM     85  F   UNL A   1      43.552  36.640  33.824  1.00  0.00    -0.200 F 
ENDBRANCH  61  75
BRANCH  62  86
ATOM     86  C   UNL A   1      42.947  24.113  27.283  1.00  0.00     0.064 A 
ATOM     87  C   UNL A   1      42.504  22.970  27.967  1.00  0.00     0.173 A 
ATOM     88  C   UNL A   1      43.362  23.952  25.953  1.00  0.00     0.173 A 
ATOM     89  F   UNL A   1      42.112  23.066  29.246  1.00  0.00    -0.203 F 
ATOM     90  C   UNL A   1      42.520  21.715  27.362  1.00  0.00     0.198 A 
ATOM     91  C   UNL A   1      43.343  22.701  25.337  1.00  0.00     0.198 A 
ATOM     92  F   UNL A   1      43.789  25.011  25.249  1.00  0.00    -0.203 F 
ATOM     93  F   UNL A   1      42.160  20.632  28.064  1.00  0.00    -0.200 F 
ATOM     94  C   UNL A   1      42.938  21.582  26.047  1.00  0.00     0.200 A 
ATOM     95  F   UNL A   1      43.732  22.581  24.061  1.00  0.00    -0.200 F 
ATOM     96  F   UNL A   1      42.961  20.374  25.468  1.00  0.00    -0.200 F 
ENDBRANCH  62  86
BRANCH  74  97
ATOM     97  C   UNL A   1      48.034  27.406  30.711  1.00  0.00     0.064 A 
ATOM     98  C   UNL A   1      48.364  26.826  31.946  1.00  0.00     0.173 A 
ATOM     99  C   UNL A   1      49.063  27.581  29.773  1.00  0.00     0.173 A 
ATOM    100  F   UNL A   1      47.421  26.648  32.883  1.00  0.00    -0.203 F 
ATOM    101  C   UNL A   1      49.678  26.473  32.242  1.00  0.00     0.198 A 
ATOM    102  C   UNL A   1      50.368  27.191  30.058  1.00  0.00     0.198 A 
ATOM    103  F   UNL A   1      48.801  28.121  28.574  1.00  0.00    -0.203 F 
ATOM    104  F   UNL A   1      49.980  25.978  33.450  1.00  0.00    -0.200 F 
ATOM    105  C   UNL A   1      50.677  26.647  31.295  1.00  0.00     0.200 A 
ATOM    106  F   UNL A   1      51.328  27.343  29.135  1.00  0.00    -0.200 F 
ATOM    107  F   UNL A   1      51.939  26.298  31.579  1.00  0.00    -0.200 F 
ENDBRANCH  74  97
ENDBRANCH  48  49
ENDBRANCH  40  43
ENDBRANCH  38  39
ENDBRANCH  37  38
ENDBRANCH   1  37
TORSDOF 15
ENDMDL
MODEL 3
REMARK VINA RESULT:     -10.4      4.202     10.946
REMARK SMILES O=C1[NH+]=C(S)N(c2cccc(Br)c2)C(=O)/C1=C/c1ccc(-c2ccc(C(=O)NCCCCNC(=O)c3ccc(-c4c5nc(c(-c6c(F)c(F)c(F)c(F)c6F)c6ccc([nH]6)c(-c6c(F)c(F)c(F)c(F)c6F)c6nc(c(-c7c(F)c(F)c(F)c(F)c7F)c7ccc4[nH]7)C=C6)C=C5)cc3)cc2)o1
REMARK SMILES IDX 30 1 29 2 28 3 26 4 27 5 25 7 22 8 23 9 100 10 24 11 99 12
REMARK SMILES IDX 21 13 18 14 19 15 101 16 20 17 17 18 1 19 2 20 3 21 16 22
REMARK SMILES IDX 4 23 14 25 6 26 15 27 5 28 7 30 8 31 13 32 9 33 11 34 10 35
REMARK SMILES IDX 12 36 31 37 32 38 33 39 34 40 35 42 36 43 37 44 98 45 38 46
REMARK SMILES IDX 97 47 39 48 40 49 41 50 91 51 42 52 96 53 90 54 92 55 43 56
REMARK SMILES IDX 95 57 89 58 88 59 44 61 76 62 56 63 75 64 57 65 60 66 74 67
REMARK SMILES IDX 93 68 58 69 59 70 73 72 94 73 61 74 45 75 46 76 54 77 47 78
REMARK SMILES IDX 48 79 52 80 55 81 49 82 50 83 53 84 51 85 77 86 78 87 86 88
REMARK SMILES IDX 79 89 80 90 84 91 87 92 81 93 82 94 85 95 83 96 62 97 63 98
REMARK SMILES IDX 71 99 64 100 65 101 69 102 72 103 66 104 67 105 70 106
REMARK SMILES IDX 68 107
REMARK H PARENT 28 6 3 24 5 29 33 41 92 60 60 71
REMARK Flexibility Score: inf
ROOT
ATOM      1  C   UNL A   1      43.206  22.461  24.910  1.00  0.00     0.023 C 
ENDROOT
BRANCH   1   2
ATOM      2  C   UNL A   1      43.798  21.532  25.974  1.00  0.00     0.116 C 
BRANCH   2   3
ATOM      3  N   UNL A   1      42.742  20.805  26.652  1.00  0.00    -0.352 N 
ATOM      4  C   UNL A   1      41.746  21.218  27.502  1.00  0.00     0.251 C 
ATOM      5  O   UNL A   1      40.964  20.367  27.924  1.00  0.00    -0.269 OA
ATOM      6  H   UNL A   1      42.738  19.838  26.468  1.00  0.00     0.163 HD
BRANCH   4   7
ATOM      7  C   UNL A   1      41.541  22.647  27.875  1.00  0.00     0.039 A 
ATOM      8  C   UNL A   1      41.132  25.394  28.309  1.00  0.00     0.017 A 
ATOM      9  C   UNL A   1      40.164  24.645  27.639  1.00  0.00     0.013 A 
ATOM     10  C   UNL A   1      42.256  24.754  28.831  1.00  0.00     0.013 A 
ATOM     11  C   UNL A   1      40.375  23.278  27.413  1.00  0.00     0.014 A 
ATOM     12  C   UNL A   1      42.436  23.386  28.650  1.00  0.00     0.014 A 
BRANCH   8  13
ATOM     13  C   UNL A   1      41.034  26.827  28.452  1.00  0.00     0.134 A 
ATOM     14  C   UNL A   1      40.689  28.660  29.628  1.00  0.00     0.128 A 
ATOM     15  C   UNL A   1      41.170  29.043  28.381  1.00  0.00     0.051 A 
ATOM     16  O   UNL A   1      40.629  27.289  29.661  1.00  0.00    -0.457 OA
ATOM     17  C   UNL A   1      41.373  27.871  27.624  1.00  0.00     0.051 A 
BRANCH  14  18
ATOM     18  C   UNL A   1      40.348  29.472  30.735  1.00  0.00     0.071 C 
ATOM     19  O   UNL A   1      37.929  28.827  29.237  1.00  0.00    -0.241 OA
ATOM     20  C   UNL A   1      37.930  29.677  30.111  1.00  0.00     0.347 C 
ATOM     21  N   UNL A   1      36.807  30.400  30.373  1.00  0.00    -0.200 N 
ATOM     22  C   UNL A   1      39.119  29.988  30.941  1.00  0.00     0.158 C 
ATOM     23  C   UNL A   1      36.725  31.199  31.373  1.00  0.00     0.323 C 
ATOM     24  H   UNL A   1      36.031  30.307  29.775  1.00  0.00     0.316 HD
ATOM     25  C   UNL A   1      38.991  30.904  32.100  1.00  0.00     0.354 C 
ATOM     26  N   UNL A   1      37.733  31.462  32.281  1.00  0.00    -0.151 N 
ATOM     27  O   UNL A   1      39.959  31.121  32.831  1.00  0.00    -0.240 OA
BRANCH  23  28
ATOM     28  S   UNL A   1      35.198  32.058  31.463  1.00  0.00    -0.055 SA
ATOM     29  H   UNL A   1      34.894  32.570  30.239  1.00  0.00     0.116 HD
ENDBRANCH  23  28
BRANCH  26  30
ATOM     30  C   UNL A   1      37.551  32.323  33.409  1.00  0.00     0.138 A 
ATOM     31  C   UNL A   1      37.148  33.654  33.224  1.00  0.00     0.052 A 
ATOM     32  C   UNL A   1      37.796  31.855  34.707  1.00  0.00     0.068 A 
ATOM     33  C   UNL A   1      36.950  34.492  34.323  1.00  0.00     0.006 A 
ATOM     34  C   UNL A   1      37.605  32.702  35.798  1.00  0.00     0.022 A 
ATOM     35  C   UNL A   1      37.175  34.015  35.612  1.00  0.00     0.016 A 
ATOM     36  Br  UNL A   1      37.939  32.063  37.545  1.00  0.00    -0.051 Br
ENDBRANCH  26  30
ENDBRANCH  14  18
ENDBRANCH   8  13
ENDBRANCH   4   7
ENDBRANCH   2   3
ENDBRANCH   1   2
BRANCH   1  37
ATOM     37  C   UNL A   1      43.574  23.932  25.102  1.00  0.00     0.023 C 
BRANCH  37  38
ATOM     38  C   UNL A   1      44.912  24.160  25.791  1.00  0.00     0.116 C 
BRANCH  38  39
ATOM     39  N   UNL A   1      45.957  24.602  24.880  1.00  0.00    -0.352 N 
ATOM     40  C   UNL A   1      46.515  25.852  24.770  1.00  0.00     0.251 C 
ATOM     41  H   UNL A   1      46.308  23.919  24.265  1.00  0.00     0.163 HD
ATOM     42  O   UNL A   1      47.301  26.111  23.866  1.00  0.00    -0.269 OA
BRANCH  40  43
ATOM     43  C   UNL A   1      46.123  26.894  25.739  1.00  0.00     0.039 A 
ATOM     44  C   UNL A   1      44.808  27.360  25.733  1.00  0.00     0.014 A 
ATOM     45  C   UNL A   1      47.040  27.366  26.683  1.00  0.00     0.014 A 
ATOM     46  C   UNL A   1      44.396  28.259  26.716  1.00  0.00     0.010 A 
ATOM     47  C   UNL A   1      46.605  28.193  27.711  1.00  0.00     0.010 A 
ATOM     48  C   UNL A   1      45.280  28.654  27.734  1.00  0.00    -0.014 A 
BRANCH  48  49
ATOM     49  C   UNL A   1      44.841  29.561  28.824  1.00  0.00     0.031 A 
ATOM     50  C   UNL A   1      44.442  28.992  30.158  1.00  0.00     0.074 A 
ATOM     51  C   UNL A   1      44.760  30.887  28.599  1.00  0.00     0.049 A 
ATOM     52  N   UNL A   1      43.984  29.610  31.218  1.00  0.00    -0.248 NA
ATOM     53  C   UNL A   1      44.549  27.533  30.315  1.00  0.00     0.031 C 
ATOM     54  C   UNL A   1      45.081  31.553  27.335  1.00  0.00     0.029 A 
ATOM     55  N   UNL A   1      44.379  31.914  29.426  1.00  0.00    -0.354 N 
ATOM     56  C   UNL A   1      43.752  28.617  32.160  1.00  0.00     0.074 A 
ATOM     57  C   UNL A   1      44.046  27.352  31.527  1.00  0.00     0.031 C 
ATOM     58  C   UNL A   1      44.917  32.878  27.482  1.00  0.00     0.029 A 
ATOM     59  C   UNL A   1      44.435  33.151  28.832  1.00  0.00     0.049 A 
ATOM     60  H   UNL A   1      44.091  31.776  30.358  1.00  0.00     0.167 HD
ATOM     61  C   UNL A   1      43.365  28.751  33.451  1.00  0.00     0.037 A 
ATOM     62  C   UNL A   1      44.126  34.367  29.322  1.00  0.00     0.037 A 
ATOM     63  C   UNL A   1      43.079  30.013  34.082  1.00  0.00     0.049 A 
ATOM     64  C   UNL A   1      43.646  34.478  30.746  1.00  0.00     0.074 A 
ATOM     65  C   UNL A   1      42.699  30.258  35.389  1.00  0.00     0.029 A 
ATOM     66  N   UNL A   1      43.144  31.245  33.446  1.00  0.00    -0.354 N 
ATOM     67  N   UNL A   1      43.489  33.539  31.647  1.00  0.00    -0.248 NA
ATOM     68  C   UNL A   1      43.306  35.826  31.224  1.00  0.00     0.031 C 
ATOM     69  C   UNL A   1      42.483  31.632  35.531  1.00  0.00     0.029 A 
ATOM     70  C   UNL A   1      42.792  32.251  34.331  1.00  0.00     0.049 A 
ATOM     71  H   UNL A   1      43.401  31.383  32.506  1.00  0.00     0.167 HD
ATOM     72  C   UNL A   1      43.077  34.185  32.805  1.00  0.00     0.074 A 
ATOM     73  C   UNL A   1      43.023  35.598  32.497  1.00  0.00     0.031 C 
ATOM     74  C   UNL A   1      42.769  33.656  34.015  1.00  0.00     0.037 A 
BRANCH  61  75
ATOM     75  C   UNL A   1      43.238  27.499  34.272  1.00  0.00     0.064 A 
ATOM     76  C   UNL A   1      44.357  26.909  34.882  1.00  0.00     0.173 A 
ATOM     77  C   UNL A   1      41.986  26.907  34.490  1.00  0.00     0.173 A 
ATOM     78  F   UNL A   1      45.580  27.427  34.697  1.00  0.00    -0.203 F 
ATOM     79  C   UNL A   1      44.229  25.759  35.655  1.00  0.00     0.198 A 
ATOM     80  C   UNL A   1      41.857  25.776  35.292  1.00  0.00     0.198 A 
ATOM     81  F   UNL A   1      40.883  27.432  33.935  1.00  0.00    -0.203 F 
ATOM     82  F   UNL A   1      45.318  25.184  36.185  1.00  0.00    -0.200 F 
ATOM     83  C   UNL A   1      42.978  25.198  35.867  1.00  0.00     0.200 A 
ATOM     84  F   UNL A   1      40.646  25.245  35.510  1.00  0.00    -0.200 F 
ATOM     85  F   UNL A   1      42.855  24.097  36.623  1.00  0.00    -0.200 F 
ENDBRANCH  61  75
BRANCH  62  86
ATOM     86  C   UNL A   1      44.275  35.583  28.479  1.00  0.00     0.064 A 
ATOM     87  C   UNL A   1      45.511  36.237  28.369  1.00  0.00     0.173 A 
ATOM     88  C   UNL A   1      43.181  36.147  27.805  1.00  0.00     0.173 A 
ATOM     89  F   UNL A   1      46.585  35.749  29.007  1.00  0.00    -0.203 F 
ATOM     90  C   UNL A   1      45.639  37.428  27.655  1.00  0.00     0.198 A 
ATOM     91  C   UNL A   1      43.317  37.319  27.062  1.00  0.00     0.198 A 
ATOM     92  F   UNL A   1      41.976  35.561  27.870  1.00  0.00    -0.203 F 
ATOM     93  F   UNL A   1      46.815  38.067  27.629  1.00  0.00    -0.200 F 
ATOM     94  C   UNL A   1      44.542  37.966  27.001  1.00  0.00     0.200 A 
ATOM     95  F   UNL A   1      42.258  37.827  26.417  1.00  0.00    -0.200 F 
ATOM     96  F   UNL A   1      44.661  39.115  26.322  1.00  0.00    -0.200 F 
ENDBRANCH  62  86
BRANCH  74  97
ATOM     97  C   UNL A   1      42.410  34.614  35.116  1.00  0.00     0.064 A 
ATOM     98  C   UNL A   1      43.375  35.144  35.986  1.00  0.00     0.173 A 
ATOM     99  C   UNL A   1      41.080  35.035  35.279  1.00  0.00     0.173 A 
ATOM    100  F   UNL A   1      44.658  34.765  35.882  1.00  0.00    -0.203 F 
ATOM    101  C   UNL A   1      43.016  36.027  37.001  1.00  0.00     0.198 A 
ATOM    102  C   UNL A   1      40.732  35.948  36.269  1.00  0.00     0.198 A 
ATOM    103  F   UNL A   1      40.118  34.568  34.468  1.00  0.00    -0.203 F 
ATOM    104  F   UNL A   1      43.945  36.471  37.858  1.00  0.00    -0.200 F 
ATOM    105  C   UNL A   1      41.698  36.435  37.136  1.00  0.00     0.200 A 
ATOM    106  F   UNL A   1      39.460  36.355  36.386  1.00  0.00    -0.200 F 
ATOM    107  F   UNL A   1      41.356  37.293  38.107  1.00  0.00    -0.200 F 
ENDBRANCH  74  97
ENDBRANCH  48  49
ENDBRANCH  40  43
ENDBRANCH  38  39
ENDBRANCH  37  38
ENDBRANCH   1  37
TORSDOF 15
ENDMDL
