MODEL 1
REMARK VINA RESULT:     -11.0      0.000      0.000
REMARK SMILES O=C(NCCCCNC(=O)[C@@H]1CC=CC[C@@H]1C(=O)N1CCN(C(=O)c2sc3cc([N+](=O)[O-])ccc3c2Cl)CC1)c1ccc(-c2c3nc(c(-c4c(F)c(F)c(F)c(F)c4F)c4ccc([nH]4)c(-c4c(F)c(F)c(F)c(F)c4F)c4nc(c(-c5c(F)c(F)c(F)c(F)c5F)c5ccc2[nH]5)C=C4)C=C3)cc1
REMARK SMILES IDX 6 1 5 2 4 3 3 4 1 5 2 6 40 8 41 9 102 10 42 11 101 12 43 13
REMARK SMILES IDX 44 14 45 15 95 16 46 17 100 18 94 19 96 20 47 21 99 22 93 23
REMARK SMILES IDX 92 24 48 26 80 27 60 28 79 29 61 30 64 31 78 32 97 33 62 34
REMARK SMILES IDX 63 35 77 37 98 38 65 39 49 40 50 41 58 42 51 43 52 44 56 45
REMARK SMILES IDX 59 46 53 47 54 48 57 49 55 50 81 51 82 52 90 53 83 54 84 55
REMARK SMILES IDX 88 56 91 57 85 58 86 59 89 60 87 61 66 62 67 63 75 64 68 65
REMARK SMILES IDX 69 66 73 67 76 68 70 69 71 70 74 71 72 72 7 73 8 74 9 75
REMARK SMILES IDX 10 77 11 78 12 79 16 80 13 81 15 82 14 83 17 84 18 85 19 86
REMARK SMILES IDX 20 87 39 88 21 89 38 90 22 91 23 92 24 93 25 94 26 95 36 96
REMARK SMILES IDX 27 97 35 98 37 99 28 100 34 101 29 102 33 103 30 104 31 105
REMARK SMILES IDX 32 106
REMARK H PARENT 3 7 96 25 64 36 8 76
REMARK Flexibility Score: inf
ROOT
ATOM      1  C   UNL A   1      34.797  33.134  33.553  1.00  0.00     0.023 C 
ENDROOT
BRANCH   1   2
ATOM      2  C   UNL A   1      34.413  33.388  32.090  1.00  0.00     0.023 C 
BRANCH   2   3
ATOM      3  C   UNL A   1      34.910  32.332  31.117  1.00  0.00     0.116 C 
BRANCH   3   4
ATOM      4  N   UNL A   1      34.816  32.733  29.705  1.00  0.00    -0.352 N 
ATOM      5  O   UNL A   1      35.748  33.204  27.676  1.00  0.00    -0.269 OA
ATOM      6  C   UNL A   1      35.742  32.525  28.684  1.00  0.00     0.251 C 
ATOM      7  H   UNL A   1      33.994  33.210  29.448  1.00  0.00     0.163 HD
BRANCH   6   8
ATOM      8  C   UNL A   1      36.698  31.417  28.848  1.00  0.00     0.039 A 
ATOM      9  C   UNL A   1      36.488  30.109  28.404  1.00  0.00     0.014 A 
ATOM     10  C   UNL A   1      37.901  31.769  29.429  1.00  0.00     0.014 A 
ATOM     11  C   UNL A   1      37.524  29.192  28.579  1.00  0.00     0.010 A 
ATOM     12  C   UNL A   1      38.994  31.018  29.162  1.00  0.00     0.010 A 
ATOM     13  C   UNL A   1      38.776  29.673  28.998  1.00  0.00    -0.014 A 
BRANCH  13  14
ATOM     14  C   UNL A   1      39.940  28.847  29.249  1.00  0.00     0.031 A 
ATOM     15  C   UNL A   1      40.198  28.655  30.685  1.00  0.00     0.074 A 
ATOM     16  C   UNL A   1      40.567  28.150  28.270  1.00  0.00     0.049 A 
ATOM     17  N   UNL A   1      41.119  29.226  31.382  1.00  0.00    -0.248 NA
ATOM     18  C   UNL A   1      39.203  27.922  31.482  1.00  0.00     0.031 C 
ATOM     19  C   UNL A   1      40.198  28.007  26.850  1.00  0.00     0.029 A 
ATOM     20  N   UNL A   1      41.661  27.346  28.361  1.00  0.00    -0.354 N 
ATOM     21  C   UNL A   1      40.965  28.733  32.669  1.00  0.00     0.074 A 
ATOM     22  C   UNL A   1      39.656  28.137  32.719  1.00  0.00     0.031 C 
ATOM     23  C   UNL A   1      40.925  27.019  26.278  1.00  0.00     0.029 A 
ATOM     24  C   UNL A   1      41.929  26.583  27.225  1.00  0.00     0.049 A 
ATOM     25  H   UNL A   1      42.222  27.306  29.170  1.00  0.00     0.167 HD
ATOM     26  C   UNL A   1      42.050  28.597  33.477  1.00  0.00     0.037 A 
ATOM     27  C   UNL A   1      42.922  25.668  27.088  1.00  0.00     0.037 A 
ATOM     28  C   UNL A   1      43.176  29.321  32.933  1.00  0.00     0.049 A 
ATOM     29  C   UNL A   1      43.930  25.991  28.125  1.00  0.00     0.074 A 
ATOM     30  C   UNL A   1      43.464  30.648  32.692  1.00  0.00     0.029 A 
ATOM     31  N   UNL A   1      44.027  28.588  32.142  1.00  0.00    -0.354 N 
ATOM     32  N   UNL A   1      44.650  27.078  28.123  1.00  0.00    -0.248 NA
ATOM     33  C   UNL A   1      43.828  25.310  29.406  1.00  0.00     0.031 C 
ATOM     34  C   UNL A   1      44.222  30.660  31.482  1.00  0.00     0.029 A 
ATOM     35  C   UNL A   1      44.427  29.341  31.071  1.00  0.00     0.049 A 
ATOM     36  H   UNL A   1      44.306  27.660  32.319  1.00  0.00     0.167 HD
ATOM     37  C   UNL A   1      44.723  27.451  29.456  1.00  0.00     0.074 A 
ATOM     38  C   UNL A   1      44.315  26.264  30.203  1.00  0.00     0.031 C 
ATOM     39  C   UNL A   1      44.817  28.770  29.797  1.00  0.00     0.037 A 
BRANCH  26  40
ATOM     40  C   UNL A   1      42.230  27.484  34.481  1.00  0.00     0.064 A 
ATOM     41  C   UNL A   1      42.795  26.268  34.050  1.00  0.00     0.173 A 
ATOM     42  C   UNL A   1      41.618  27.450  35.754  1.00  0.00     0.173 A 
ATOM     43  F   UNL A   1      43.374  26.174  32.843  1.00  0.00    -0.203 F 
ATOM     44  C   UNL A   1      42.700  25.098  34.809  1.00  0.00     0.198 A 
ATOM     45  C   UNL A   1      41.574  26.296  36.532  1.00  0.00     0.198 A 
ATOM     46  F   UNL A   1      40.939  28.488  36.253  1.00  0.00    -0.203 F 
ATOM     47  F   UNL A   1      43.146  23.940  34.304  1.00  0.00    -0.200 F 
ATOM     48  C   UNL A   1      42.087  25.112  36.049  1.00  0.00     0.200 A 
ATOM     49  F   UNL A   1      40.952  26.327  37.720  1.00  0.00    -0.200 F 
ATOM     50  F   UNL A   1      41.947  23.984  36.755  1.00  0.00    -0.200 F 
ENDBRANCH  26  40
BRANCH  27  51
ATOM     51  C   UNL A   1      42.936  24.371  26.366  1.00  0.00     0.064 A 
ATOM     52  C   UNL A   1      43.752  24.185  25.235  1.00  0.00     0.173 A 
ATOM     53  C   UNL A   1      42.418  23.204  26.959  1.00  0.00     0.173 A 
ATOM     54  F   UNL A   1      44.312  25.241  24.627  1.00  0.00    -0.203 F 
ATOM     55  C   UNL A   1      44.079  22.908  24.764  1.00  0.00     0.198 A 
ATOM     56  C   UNL A   1      42.741  21.930  26.484  1.00  0.00     0.198 A 
ATOM     57  F   UNL A   1      41.678  23.273  28.075  1.00  0.00    -0.203 F 
ATOM     58  F   UNL A   1      44.928  22.772  23.735  1.00  0.00    -0.200 F 
ATOM     59  C   UNL A   1      43.589  21.781  25.400  1.00  0.00     0.200 A 
ATOM     60  F   UNL A   1      42.287  20.844  27.129  1.00  0.00    -0.200 F 
ATOM     61  F   UNL A   1      43.966  20.559  25.001  1.00  0.00    -0.200 F 
ENDBRANCH  27  51
BRANCH  39  62
ATOM     62  C   UNL A   1      45.187  29.739  28.705  1.00  0.00     0.064 A 
ATOM     63  C   UNL A   1      44.262  30.436  27.905  1.00  0.00     0.173 A 
ATOM     64  C   UNL A   1      46.540  30.067  28.551  1.00  0.00     0.173 A 
ATOM     65  F   UNL A   1      42.947  30.239  28.042  1.00  0.00    -0.203 F 
ATOM     66  C   UNL A   1      44.680  31.393  26.981  1.00  0.00     0.198 A 
ATOM     67  C   UNL A   1      46.951  31.048  27.653  1.00  0.00     0.198 A 
ATOM     68  F   UNL A   1      47.465  29.466  29.316  1.00  0.00    -0.203 F 
ATOM     69  F   UNL A   1      43.778  32.040  26.225  1.00  0.00    -0.200 F 
ATOM     70  C   UNL A   1      46.023  31.705  26.863  1.00  0.00     0.200 A 
ATOM     71  F   UNL A   1      48.248  31.376  27.576  1.00  0.00    -0.200 F 
ATOM     72  F   UNL A   1      46.422  32.657  26.007  1.00  0.00    -0.200 F 
ENDBRANCH  39  62
ENDBRANCH  13  14
ENDBRANCH   6   8
ENDBRANCH   3   4
ENDBRANCH   2   3
ENDBRANCH   1   2
BRANCH   1  73
ATOM     73  C   UNL A   1      35.289  34.346  34.341  1.00  0.00     0.116 C 
BRANCH  73  74
ATOM     74  N   UNL A   1      36.089  33.981  35.495  1.00  0.00    -0.356 N 
ATOM     75  C   UNL A   1      37.351  33.458  35.525  1.00  0.00     0.224 C 
ATOM     76  H   UNL A   1      35.667  34.130  36.372  1.00  0.00     0.163 HD
ATOM     77  O   UNL A   1      37.854  33.175  36.612  1.00  0.00    -0.275 OA
BRANCH  75  78
ATOM     78  C   UNL A   1      38.083  33.274  34.203  1.00  0.00     0.095 C 
ATOM     79  C   UNL A   1      38.874  31.964  34.183  1.00  0.00     0.041 C 
ATOM     80  C   UNL A   1      38.948  34.509  33.855  1.00  0.00     0.095 C 
ATOM     81  C   UNL A   1      39.796  31.870  33.000  1.00  0.00    -0.030 C 
ATOM     82  C   UNL A   1      39.680  34.329  32.525  1.00  0.00     0.041 C 
ATOM     83  C   UNL A   1      40.129  32.923  32.239  1.00  0.00    -0.030 C 
BRANCH  80  84
ATOM     84  C   UNL A   1      39.722  35.068  35.064  1.00  0.00     0.226 C 
ATOM     85  O   UNL A   1      39.276  36.076  35.626  1.00  0.00    -0.275 OA
ATOM     86  N   UNL A   1      40.766  34.367  35.618  1.00  0.00    -0.339 N 
ATOM     87  C   UNL A   1      40.959  34.414  37.070  1.00  0.00     0.141 C 
ATOM     88  C   UNL A   1      41.925  33.849  34.901  1.00  0.00     0.141 C 
ATOM     89  C   UNL A   1      41.346  33.025  37.608  1.00  0.00     0.141 C 
ATOM     90  C   UNL A   1      42.314  32.454  35.394  1.00  0.00     0.141 C 
ATOM     91  N   UNL A   1      42.456  32.410  36.857  1.00  0.00    -0.334 N 
ATOM     92  C   UNL A   1      43.345  31.579  37.547  1.00  0.00     0.265 C 
ATOM     93  O   UNL A   1      43.274  31.449  38.768  1.00  0.00    -0.268 OA
BRANCH  92  94
ATOM     94  C   UNL A   1      44.317  30.840  36.765  1.00  0.00     0.112 A 
ATOM     95  S   UNL A   1      44.305  29.136  36.870  1.00  0.00    -0.128 S 
ATOM     96  C   UNL A   1      45.321  31.287  35.934  1.00  0.00     0.072 A 
ATOM     97  C   UNL A   1      45.548  28.972  35.693  1.00  0.00     0.043 A 
ATOM     98  C   UNL A   1      45.973  30.218  35.223  1.00  0.00     0.012 A 
ATOM     99  Cl  UNL A   1      45.748  32.938  35.693  1.00  0.00    -0.082 Cl
ATOM    100  C   UNL A   1      46.107  27.765  35.226  1.00  0.00     0.105 A 
ATOM    101  C   UNL A   1      46.947  30.240  34.190  1.00  0.00     0.018 A 
ATOM    102  C   UNL A   1      47.097  27.831  34.236  1.00  0.00     0.270 A 
ATOM    103  C   UNL A   1      47.497  29.052  33.698  1.00  0.00     0.086 A 
BRANCH 102 104
ATOM    104  N   UNL A   1      47.732  26.592  33.769  1.00  0.00     0.062 N 
ATOM    105  O   UNL A   1      48.672  26.139  34.438  1.00  0.00    -0.258 OA
ATOM    106  O   UNL A   1      47.296  26.076  32.731  1.00  0.00    -0.258 OA
ENDBRANCH 102 104
ENDBRANCH  92  94
ENDBRANCH  80  84
ENDBRANCH  75  78
ENDBRANCH  73  74
ENDBRANCH   1  73
TORSDOF 14
ENDMDL
MODEL 2
REMARK VINA RESULT:     -10.9      3.238      9.266
REMARK SMILES O=C(NCCCCNC(=O)[C@@H]1CC=CC[C@@H]1C(=O)N1CCN(C(=O)c2sc3cc([N+](=O)[O-])ccc3c2Cl)CC1)c1ccc(-c2c3nc(c(-c4c(F)c(F)c(F)c(F)c4F)c4ccc([nH]4)c(-c4c(F)c(F)c(F)c(F)c4F)c4nc(c(-c5c(F)c(F)c(F)c(F)c5F)c5ccc2[nH]5)C=C4)C=C3)cc1
REMARK SMILES IDX 6 1 5 2 4 3 3 4 1 5 2 6 40 8 41 9 102 10 42 11 101 12 43 13
REMARK SMILES IDX 44 14 45 15 95 16 46 17 100 18 94 19 96 20 47 21 99 22 93 23
REMARK SMILES IDX 92 24 48 26 80 27 60 28 79 29 61 30 64 31 78 32 97 33 62 34
REMARK SMILES IDX 63 35 77 37 98 38 65 39 49 40 50 41 58 42 51 43 52 44 56 45
REMARK SMILES IDX 59 46 53 47 54 48 57 49 55 50 81 51 82 52 90 53 83 54 84 55
REMARK SMILES IDX 88 56 91 57 85 58 86 59 89 60 87 61 66 62 67 63 75 64 68 65
REMARK SMILES IDX 69 66 73 67 76 68 70 69 71 70 74 71 72 72 7 73 8 74 9 75
REMARK SMILES IDX 10 77 11 78 12 79 16 80 13 81 15 82 14 83 17 84 18 85 19 86
REMARK SMILES IDX 20 87 39 88 21 89 38 90 22 91 23 92 24 93 25 94 26 95 36 96
REMARK SMILES IDX 27 97 35 98 37 99 28 100 34 101 29 102 33 103 30 104 31 105
REMARK SMILES IDX 32 106
REMARK H PARENT 3 7 96 25 64 36 8 76
REMARK Flexibility Score: inf
ROOT
ATOM      1  C   UNL A   1      46.805  29.299  33.843  1.00  0.00     0.023 C 
ENDROOT
BRANCH   1   2
ATOM      2  C   UNL A   1      46.875  29.091  35.360  1.00  0.00     0.023 C 
BRANCH   2   3
ATOM      3  C   UNL A   1      45.711  28.308  35.943  1.00  0.00     0.116 C 
BRANCH   3   4
ATOM      4  N   UNL A   1      46.089  26.994  36.484  1.00  0.00    -0.352 N 
ATOM      5  O   UNL A   1      46.081  24.712  36.429  1.00  0.00    -0.269 OA
ATOM      6  C   UNL A   1      46.125  25.766  35.824  1.00  0.00     0.251 C 
ATOM      7  H   UNL A   1      46.349  26.979  37.432  1.00  0.00     0.163 HD
BRANCH   6   8
ATOM      8  C   UNL A   1      46.261  25.785  34.358  1.00  0.00     0.039 A 
ATOM      9  C   UNL A   1      47.467  25.644  33.666  1.00  0.00     0.014 A 
ATOM     10  C   UNL A   1      45.070  25.884  33.666  1.00  0.00     0.014 A 
ATOM     11  C   UNL A   1      47.414  25.617  32.273  1.00  0.00     0.010 A 
ATOM     12  C   UNL A   1      45.012  25.400  32.404  1.00  0.00     0.010 A 
ATOM     13  C   UNL A   1      46.155  25.528  31.656  1.00  0.00    -0.014 A 
BRANCH  13  14
ATOM     14  C   UNL A   1      45.933  25.517  30.223  1.00  0.00     0.031 A 
ATOM     15  C   UNL A   1      47.019  26.173  29.478  1.00  0.00     0.074 A 
ATOM     16  C   UNL A   1      44.954  24.783  29.641  1.00  0.00     0.049 A 
ATOM     17  N   UNL A   1      46.981  27.340  28.933  1.00  0.00    -0.248 NA
ATOM     18  C   UNL A   1      48.359  25.569  29.520  1.00  0.00     0.031 C 
ATOM     19  C   UNL A   1      44.014  23.832  30.260  1.00  0.00     0.029 A 
ATOM     20  N   UNL A   1      44.632  24.682  28.323  1.00  0.00    -0.354 N 
ATOM     21  C   UNL A   1      48.228  27.516  28.354  1.00  0.00     0.074 A 
ATOM     22  C   UNL A   1      49.089  26.523  28.938  1.00  0.00     0.031 C 
ATOM     23  C   UNL A   1      43.381  23.113  29.304  1.00  0.00     0.029 A 
ATOM     24  C   UNL A   1      43.727  23.667  28.012  1.00  0.00     0.049 A 
ATOM     25  H   UNL A   1      45.011  25.282  27.639  1.00  0.00     0.167 HD
ATOM     26  C   UNL A   1      48.352  28.268  27.227  1.00  0.00     0.037 A 
ATOM     27  C   UNL A   1      43.296  23.329  26.771  1.00  0.00     0.037 A 
ATOM     28  C   UNL A   1      47.152  29.042  27.005  1.00  0.00     0.049 A 
ATOM     29  C   UNL A   1      43.547  24.507  25.908  1.00  0.00     0.074 A 
ATOM     30  C   UNL A   1      46.508  30.064  27.670  1.00  0.00     0.029 A 
ATOM     31  N   UNL A   1      46.218  28.467  26.178  1.00  0.00    -0.354 N 
ATOM     32  N   UNL A   1      42.925  25.646  26.038  1.00  0.00    -0.248 NA
ATOM     33  C   UNL A   1      44.803  24.559  25.178  1.00  0.00     0.031 C 
ATOM     34  C   UNL A   1      45.113  29.816  27.492  1.00  0.00     0.029 A 
ATOM     35  C   UNL A   1      44.961  28.699  26.668  1.00  0.00     0.049 A 
ATOM     36  H   UNL A   1      46.422  27.963  25.357  1.00  0.00     0.167 HD
ATOM     37  C   UNL A   1      43.899  26.604  25.802  1.00  0.00     0.074 A 
ATOM     38  C   UNL A   1      44.990  25.881  25.153  1.00  0.00     0.031 C 
ATOM     39  C   UNL A   1      43.837  27.817  26.428  1.00  0.00     0.037 A 
BRANCH  26  40
ATOM     40  C   UNL A   1      49.328  27.977  26.113  1.00  0.00     0.064 A 
ATOM     41  C   UNL A   1      50.498  28.756  26.017  1.00  0.00     0.173 A 
ATOM     42  C   UNL A   1      49.038  27.177  24.985  1.00  0.00     0.173 A 
ATOM     43  F   UNL A   1      50.855  29.578  27.015  1.00  0.00    -0.203 F 
ATOM     44  C   UNL A   1      51.278  28.778  24.857  1.00  0.00     0.198 A 
ATOM     45  C   UNL A   1      49.849  27.159  23.852  1.00  0.00     0.198 A 
ATOM     46  F   UNL A   1      47.908  26.472  24.876  1.00  0.00    -0.203 F 
ATOM     47  F   UNL A   1      52.312  29.625  24.768  1.00  0.00    -0.200 F 
ATOM     48  C   UNL A   1      50.952  27.981  23.775  1.00  0.00     0.200 A 
ATOM     49  F   UNL A   1      49.499  26.398  22.805  1.00  0.00    -0.200 F 
ATOM     50  F   UNL A   1      51.666  28.038  22.645  1.00  0.00    -0.200 F 
ENDBRANCH  26  40
BRANCH  27  51
ATOM     51  C   UNL A   1      42.984  21.995  26.196  1.00  0.00     0.064 A 
ATOM     52  C   UNL A   1      44.015  21.117  25.815  1.00  0.00     0.173 A 
ATOM     53  C   UNL A   1      41.701  21.431  26.324  1.00  0.00     0.173 A 
ATOM     54  F   UNL A   1      45.274  21.564  25.701  1.00  0.00    -0.203 F 
ATOM     55  C   UNL A   1      43.787  19.748  25.632  1.00  0.00     0.198 A 
ATOM     56  C   UNL A   1      41.474  20.065  26.135  1.00  0.00     0.198 A 
ATOM     57  F   UNL A   1      40.665  22.174  26.739  1.00  0.00    -0.203 F 
ATOM     58  F   UNL A   1      44.813  18.930  25.352  1.00  0.00    -0.200 F 
ATOM     59  C   UNL A   1      42.520  19.220  25.811  1.00  0.00     0.200 A 
ATOM     60  F   UNL A   1      40.249  19.560  26.344  1.00  0.00    -0.200 F 
ATOM     61  F   UNL A   1      42.317  17.899  25.716  1.00  0.00    -0.200 F 
ENDBRANCH  27  51
BRANCH  39  62
ATOM     62  C   UNL A   1      42.530  28.190  27.077  1.00  0.00     0.064 A 
ATOM     63  C   UNL A   1      41.425  28.734  26.397  1.00  0.00     0.173 A 
ATOM     64  C   UNL A   1      42.351  27.861  28.427  1.00  0.00     0.173 A 
ATOM     65  F   UNL A   1      41.485  29.006  25.089  1.00  0.00    -0.203 F 
ATOM     66  C   UNL A   1      40.212  28.960  27.048  1.00  0.00     0.198 A 
ATOM     67  C   UNL A   1      41.130  28.054  29.065  1.00  0.00     0.198 A 
ATOM     68  F   UNL A   1      43.356  27.299  29.116  1.00  0.00    -0.203 F 
ATOM     69  F   UNL A   1      39.174  29.486  26.378  1.00  0.00    -0.200 F 
ATOM     70  C   UNL A   1      40.063  28.610  28.379  1.00  0.00     0.200 A 
ATOM     71  F   UNL A   1      40.979  27.672  30.340  1.00  0.00    -0.200 F 
ATOM     72  F   UNL A   1      38.885  28.784  28.995  1.00  0.00    -0.200 F 
ENDBRANCH  39  62
ENDBRANCH  13  14
ENDBRANCH   6   8
ENDBRANCH   3   4
ENDBRANCH   2   3
ENDBRANCH   1   2
BRANCH   1  73
ATOM     73  C   UNL A   1      46.186  30.614  33.371  1.00  0.00     0.116 C 
BRANCH  73  74
ATOM     74  N   UNL A   1      45.216  31.148  34.308  1.00  0.00    -0.356 N 
ATOM     75  C   UNL A   1      44.063  31.832  34.043  1.00  0.00     0.224 C 
ATOM     76  H   UNL A   1      45.415  30.999  35.261  1.00  0.00     0.163 HD
ATOM     77  O   UNL A   1      43.383  32.243  34.983  1.00  0.00    -0.275 OA
BRANCH  75  78
ATOM     78  C   UNL A   1      43.665  32.031  32.587  1.00  0.00     0.095 C 
ATOM     79  C   UNL A   1      42.585  33.106  32.448  1.00  0.00     0.041 C 
ATOM     80  C   UNL A   1      43.277  30.692  31.916  1.00  0.00     0.095 C 
ATOM     81  C   UNL A   1      42.000  33.154  31.064  1.00  0.00    -0.030 C 
ATOM     82  C   UNL A   1      42.882  30.888  30.452  1.00  0.00     0.041 C 
ATOM     83  C   UNL A   1      42.163  32.176  30.161  1.00  0.00    -0.030 C 
BRANCH  80  84
ATOM     84  C   UNL A   1      42.402  29.796  32.812  1.00  0.00     0.226 C 
ATOM     85  O   UNL A   1      42.940  28.838  33.382  1.00  0.00    -0.275 OA
ATOM     86  N   UNL A   1      41.111  30.152  33.119  1.00  0.00    -0.339 N 
ATOM     87  C   UNL A   1      40.588  29.841  34.453  1.00  0.00     0.141 C 
ATOM     88  C   UNL A   1      40.069  30.502  32.161  1.00  0.00     0.141 C 
ATOM     89  C   UNL A   1      39.740  31.008  34.986  1.00  0.00     0.141 C 
ATOM     90  C   UNL A   1      39.227  31.682  32.652  1.00  0.00     0.141 C 
ATOM     91  N   UNL A   1      38.727  31.468  34.017  1.00  0.00    -0.334 N 
ATOM     92  C   UNL A   1      37.514  31.963  34.509  1.00  0.00     0.265 C 
ATOM     93  O   UNL A   1      37.250  31.917  35.710  1.00  0.00    -0.268 OA
BRANCH  92  94
ATOM     94  C   UNL A   1      36.606  32.578  33.561  1.00  0.00     0.112 A 
ATOM     95  S   UNL A   1      36.054  34.160  33.886  1.00  0.00    -0.128 S 
ATOM     96  C   UNL A   1      36.056  32.080  32.400  1.00  0.00     0.072 A 
ATOM     97  C   UNL A   1      35.186  34.250  32.404  1.00  0.00     0.043 A 
ATOM     98  C   UNL A   1      35.316  33.072  31.664  1.00  0.00     0.012 A 
ATOM     99  Cl  UNL A   1      36.250  30.469  31.821  1.00  0.00    -0.082 Cl
ATOM    100  C   UNL A   1      34.422  35.343  31.945  1.00  0.00     0.105 A 
ATOM    101  C   UNL A   1      34.713  33.025  30.379  1.00  0.00     0.018 A 
ATOM    102  C   UNL A   1      33.807  35.241  30.689  1.00  0.00     0.270 A 
ATOM    103  C   UNL A   1      33.971  34.108  29.896  1.00  0.00     0.086 A 
BRANCH 102 104
ATOM    104  N   UNL A   1      32.964  36.344  30.209  1.00  0.00     0.062 N 
ATOM    105  O   UNL A   1      32.391  36.199  29.119  1.00  0.00    -0.258 OA
ATOM    106  O   UNL A   1      32.880  37.356  30.918  1.00  0.00    -0.258 OA
ENDBRANCH 102 104
ENDBRANCH  92  94
ENDBRANCH  80  84
ENDBRANCH  75  78
ENDBRANCH  73  74
ENDBRANCH   1  73
TORSDOF 14
ENDMDL
MODEL 3
REMARK VINA RESULT:     -10.9      7.871     12.180
REMARK SMILES O=C(NCCCCNC(=O)[C@@H]1CC=CC[C@@H]1C(=O)N1CCN(C(=O)c2sc3cc([N+](=O)[O-])ccc3c2Cl)CC1)c1ccc(-c2c3nc(c(-c4c(F)c(F)c(F)c(F)c4F)c4ccc([nH]4)c(-c4c(F)c(F)c(F)c(F)c4F)c4nc(c(-c5c(F)c(F)c(F)c(F)c5F)c5ccc2[nH]5)C=C4)C=C3)cc1
REMARK SMILES IDX 6 1 5 2 4 3 3 4 1 5 2 6 40 8 41 9 102 10 42 11 101 12 43 13
REMARK SMILES IDX 44 14 45 15 95 16 46 17 100 18 94 19 96 20 47 21 99 22 93 23
REMARK SMILES IDX 92 24 48 26 80 27 60 28 79 29 61 30 64 31 78 32 97 33 62 34
REMARK SMILES IDX 63 35 77 37 98 38 65 39 49 40 50 41 58 42 51 43 52 44 56 45
REMARK SMILES IDX 59 46 53 47 54 48 57 49 55 50 81 51 82 52 90 53 83 54 84 55
REMARK SMILES IDX 88 56 91 57 85 58 86 59 89 60 87 61 66 62 67 63 75 64 68 65
REMARK SMILES IDX 69 66 73 67 76 68 70 69 71 70 74 71 72 72 7 73 8 74 9 75
REMARK SMILES IDX 10 77 11 78 12 79 16 80 13 81 15 82 14 83 17 84 18 85 19 86
REMARK SMILES IDX 20 87 39 88 21 89 38 90 22 91 23 92 24 93 25 94 26 95 36 96
REMARK SMILES IDX 27 97 35 98 37 99 28 100 34 101 29 102 33 103 30 104 31 105
REMARK SMILES IDX 32 106
REMARK H PARENT 3 7 96 25 64 36 8 76
REMARK Flexibility Score: inf
ROOT
ATOM      1  C   UNL A   1      42.801  39.567  26.987  1.00  0.00     0.023 C 
ENDROOT
BRANCH   1   2
ATOM      2  C   UNL A   1      44.127  38.801  26.926  1.00  0.00     0.023 C 
BRANCH   2   3
ATOM      3  C   UNL A   1      43.978  37.289  26.876  1.00  0.00     0.116 C 
BRANCH   3   4
ATOM      4  N   UNL A   1      45.219  36.559  27.179  1.00  0.00    -0.352 N 
ATOM      5  O   UNL A   1      46.764  35.726  28.638  1.00  0.00    -0.269 OA
ATOM      6  C   UNL A   1      45.599  35.964  28.381  1.00  0.00     0.251 C 
ATOM      7  H   UNL A   1      45.862  36.481  26.439  1.00  0.00     0.163 HD
BRANCH   6   8
ATOM      8  C   UNL A   1      44.531  35.590  29.324  1.00  0.00     0.039 A 
ATOM      9  C   UNL A   1      44.020  36.423  30.322  1.00  0.00     0.014 A 
ATOM     10  C   UNL A   1      43.984  34.339  29.115  1.00  0.00     0.014 A 
ATOM     11  C   UNL A   1      42.961  35.939  31.088  1.00  0.00     0.010 A 
ATOM     12  C   UNL A   1      42.720  34.106  29.535  1.00  0.00     0.010 A 
ATOM     13  C   UNL A   1      42.340  34.744  30.688  1.00  0.00    -0.014 A 
BRANCH  13  14
ATOM     14  C   UNL A   1      41.248  34.101  31.392  1.00  0.00     0.031 A 
ATOM     15  C   UNL A   1      41.563  33.837  32.805  1.00  0.00     0.074 A 
ATOM     16  C   UNL A   1      40.008  33.976  30.859  1.00  0.00     0.049 A 
ATOM     17  N   UNL A   1      41.860  32.697  33.325  1.00  0.00    -0.248 NA
ATOM     18  C   UNL A   1      41.784  34.984  33.697  1.00  0.00     0.031 C 
ATOM     19  C   UNL A   1      39.490  34.496  29.581  1.00  0.00     0.029 A 
ATOM     20  N   UNL A   1      38.901  33.397  31.399  1.00  0.00    -0.354 N 
ATOM     21  C   UNL A   1      42.073  32.950  34.671  1.00  0.00     0.074 A 
ATOM     22  C   UNL A   1      42.244  34.374  34.792  1.00  0.00     0.031 C 
ATOM     23  C   UNL A   1      38.141  34.386  29.546  1.00  0.00     0.029 A 
ATOM     24  C   UNL A   1      37.714  33.632  30.706  1.00  0.00     0.049 A 
ATOM     25  H   UNL A   1      38.936  32.854  32.220  1.00  0.00     0.167 HD
ATOM     26  C   UNL A   1      41.785  31.994  35.595  1.00  0.00     0.037 A 
ATOM     27  C   UNL A   1      36.475  33.216  31.071  1.00  0.00     0.037 A 
ATOM     28  C   UNL A   1      41.598  30.714  34.952  1.00  0.00     0.049 A 
ATOM     29  C   UNL A   1      36.676  32.087  32.010  1.00  0.00     0.074 A 
ATOM     30  C   UNL A   1      42.401  29.849  34.240  1.00  0.00     0.029 A 
ATOM     31  N   UNL A   1      40.301  30.394  34.633  1.00  0.00    -0.354 N 
ATOM     32  N   UNL A   1      37.186  30.938  31.663  1.00  0.00    -0.248 NA
ATOM     33  C   UNL A   1      36.714  32.386  33.432  1.00  0.00     0.031 C 
ATOM     34  C   UNL A   1      41.559  29.291  33.230  1.00  0.00     0.029 A 
ATOM     35  C   UNL A   1      40.264  29.781  33.410  1.00  0.00     0.049 A 
ATOM     36  H   UNL A   1      39.517  30.578  35.199  1.00  0.00     0.167 HD
ATOM     37  C   UNL A   1      37.988  30.575  32.734  1.00  0.00     0.074 A 
ATOM     38  C   UNL A   1      37.556  31.431  33.836  1.00  0.00     0.031 C 
ATOM     39  C   UNL A   1      39.114  29.830  32.529  1.00  0.00     0.037 A 
BRANCH  26  40
ATOM     40  C   UNL A   1      41.240  32.280  36.974  1.00  0.00     0.064 A 
ATOM     41  C   UNL A   1      40.005  32.947  37.089  1.00  0.00     0.173 A 
ATOM     42  C   UNL A   1      41.995  32.192  38.165  1.00  0.00     0.173 A 
ATOM     43  F   UNL A   1      39.219  33.118  36.016  1.00  0.00    -0.203 F 
ATOM     44  C   UNL A   1      39.590  33.532  38.288  1.00  0.00     0.198 A 
ATOM     45  C   UNL A   1      41.553  32.728  39.372  1.00  0.00     0.198 A 
ATOM     46  F   UNL A   1      43.235  31.693  38.195  1.00  0.00    -0.203 F 
ATOM     47  F   UNL A   1      38.465  34.258  38.319  1.00  0.00    -0.200 F 
ATOM     48  C   UNL A   1      40.365  33.424  39.429  1.00  0.00     0.200 A 
ATOM     49  F   UNL A   1      42.333  32.633  40.459  1.00  0.00    -0.200 F 
ATOM     50  F   UNL A   1      39.996  34.027  40.565  1.00  0.00    -0.200 F 
ENDBRANCH  26  40
BRANCH  27  51
ATOM     51  C   UNL A   1      35.160  33.891  30.935  1.00  0.00     0.064 A 
ATOM     52  C   UNL A   1      34.805  34.953  31.787  1.00  0.00     0.173 A 
ATOM     53  C   UNL A   1      34.381  33.738  29.772  1.00  0.00     0.173 A 
ATOM     54  F   UNL A   1      35.513  35.190  32.901  1.00  0.00    -0.203 F 
ATOM     55  C   UNL A   1      33.773  35.843  31.465  1.00  0.00     0.198 A 
ATOM     56  C   UNL A   1      33.348  34.624  29.455  1.00  0.00     0.198 A 
ATOM     57  F   UNL A   1      34.677  32.793  28.870  1.00  0.00    -0.203 F 
ATOM     58  F   UNL A   1      33.522  36.892  32.262  1.00  0.00    -0.200 F 
ATOM     59  C   UNL A   1      33.058  35.689  30.290  1.00  0.00     0.200 A 
ATOM     60  F   UNL A   1      32.684  34.485  28.298  1.00  0.00    -0.200 F 
ATOM     61  F   UNL A   1      32.126  36.587  29.941  1.00  0.00    -0.200 F 
ENDBRANCH  27  51
BRANCH  39  62
ATOM     62  C   UNL A   1      39.250  29.142  31.196  1.00  0.00     0.064 A 
ATOM     63  C   UNL A   1      39.932  29.674  30.086  1.00  0.00     0.173 A 
ATOM     64  C   UNL A   1      38.774  27.829  31.085  1.00  0.00     0.173 A 
ATOM     65  F   UNL A   1      40.484  30.891  30.134  1.00  0.00    -0.203 F 
ATOM     66  C   UNL A   1      40.102  28.934  28.916  1.00  0.00     0.198 A 
ATOM     67  C   UNL A   1      38.977  27.079  29.930  1.00  0.00     0.198 A 
ATOM     68  F   UNL A   1      38.153  27.253  32.125  1.00  0.00    -0.203 F 
ATOM     69  F   UNL A   1      40.751  29.466  27.869  1.00  0.00    -0.200 F 
ATOM     70  C   UNL A   1      39.634  27.633  28.843  1.00  0.00     0.200 A 
ATOM     71  F   UNL A   1      38.560  25.807  29.882  1.00  0.00    -0.200 F 
ATOM     72  F   UNL A   1      39.836  26.904  27.736  1.00  0.00    -0.200 F 
ENDBRANCH  39  62
ENDBRANCH  13  14
ENDBRANCH   6   8
ENDBRANCH   3   4
ENDBRANCH   2   3
ENDBRANCH   1   2
BRANCH   1  73
ATOM     73  C   UNL A   1      41.941  39.328  28.227  1.00  0.00     0.116 C 
BRANCH  73  74
ATOM     74  N   UNL A   1      41.726  40.533  29.005  1.00  0.00    -0.356 N 
ATOM     75  C   UNL A   1      42.349  40.927  30.155  1.00  0.00     0.224 C 
ATOM     76  H   UNL A   1      41.039  41.148  28.659  1.00  0.00     0.163 HD
ATOM     77  O   UNL A   1      41.999  41.976  30.695  1.00  0.00    -0.275 OA
BRANCH  75  78
ATOM     78  C   UNL A   1      43.471  40.053  30.699  1.00  0.00     0.095 C 
ATOM     79  C   UNL A   1      43.403  39.947  32.224  1.00  0.00     0.041 C 
ATOM     80  C   UNL A   1      44.854  40.518  30.186  1.00  0.00     0.095 C 
ATOM     81  C   UNL A   1      44.627  39.298  32.808  1.00  0.00    -0.030 C 
ATOM     82  C   UNL A   1      45.982  39.638  30.726  1.00  0.00     0.041 C 
ATOM     83  C   UNL A   1      45.769  39.131  32.125  1.00  0.00    -0.030 C 
BRANCH  80  84
ATOM     84  C   UNL A   1      45.026  42.049  30.205  1.00  0.00     0.226 C 
ATOM     85  O   UNL A   1      45.132  42.610  31.303  1.00  0.00    -0.275 OA
ATOM     86  N   UNL A   1      45.242  42.748  29.043  1.00  0.00    -0.339 N 
ATOM     87  C   UNL A   1      46.137  43.910  29.071  1.00  0.00     0.141 C 
ATOM     88  C   UNL A   1      44.421  42.686  27.840  1.00  0.00     0.141 C 
ATOM     89  C   UNL A   1      47.023  43.940  27.814  1.00  0.00     0.141 C 
ATOM     90  C   UNL A   1      45.277  42.683  26.572  1.00  0.00     0.141 C 
ATOM     91  N   UNL A   1      46.250  43.785  26.566  1.00  0.00    -0.334 N 
ATOM     92  C   UNL A   1      46.706  44.440  25.417  1.00  0.00     0.265 C 
ATOM     93  O   UNL A   1      47.662  45.213  25.464  1.00  0.00    -0.268 OA
BRANCH  92  94
ATOM     94  C   UNL A   1      46.046  44.133  24.163  1.00  0.00     0.112 A 
ATOM     95  S   UNL A   1      44.340  44.176  24.121  1.00  0.00    -0.128 S 
ATOM     96  C   UNL A   1      46.572  43.763  22.944  1.00  0.00     0.072 A 
ATOM     97  C   UNL A   1      44.291  43.842  22.435  1.00  0.00     0.043 A 
ATOM     98  C   UNL A   1      45.576  43.695  21.906  1.00  0.00     0.012 A 
ATOM     99  Cl  UNL A   1      48.238  43.460  22.633  1.00  0.00    -0.082 Cl
ATOM    100  C   UNL A   1      43.135  43.719  21.638  1.00  0.00     0.105 A 
ATOM    101  C   UNL A   1      45.699  43.489  20.507  1.00  0.00     0.018 A 
ATOM    102  C   UNL A   1      43.297  43.472  20.267  1.00  0.00     0.270 A 
ATOM    103  C   UNL A   1      44.564  43.386  19.696  1.00  0.00     0.086 A 
BRANCH 102 104
ATOM    104  N   UNL A   1      42.109  43.288  19.424  1.00  0.00     0.062 N 
ATOM    105  O   UNL A   1      41.007  43.590  19.905  1.00  0.00    -0.258 OA
ATOM    106  O   UNL A   1      42.276  42.835  18.283  1.00  0.00    -0.258 OA
ENDBRANCH 102 104
ENDBRANCH  92  94
ENDBRANCH  80  84
ENDBRANCH  75  78
ENDBRANCH  73  74
ENDBRANCH   1  73
TORSDOF 14
ENDMDL
