MODEL 1
REMARK VINA RESULT:     -12.5      0.000      0.000
REMARK SMILES Cc1nc(C(C)C)[nH]c(=O)c1C(=O)N(C)CC(=O)NCCCCNC(=O)c1ccc(-c2c3nc(c(-c4c(F)c(F)c(F)c(F)c4F)c4ccc([nH]4)c(-c4c(F)c(F)c(F)c(F)c4F)c4nc(c(-c5c(F)c(F)c(F)c(F)c5F)c5ccc2[nH]5)C=C4)C=C3)cc1
REMARK SMILES IDX 20 1 19 2 17 3 18 4 16 6 14 7 15 8 12 9 13 10 11 11 1 12
REMARK SMILES IDX 2 13 3 14 4 15 9 16 8 17 10 18 5 20 6 21 7 22 21 23 22 24
REMARK SMILES IDX 23 25 24 26 25 27 26 29 27 30 28 31 89 32 29 33 88 34 30 35
REMARK SMILES IDX 31 36 32 37 82 38 33 39 87 40 81 41 83 42 34 43 86 44 80 45
REMARK SMILES IDX 79 46 35 48 67 49 47 50 66 51 48 52 51 53 65 54 84 55 49 56
REMARK SMILES IDX 50 57 64 59 85 60 52 61 36 62 37 63 45 64 38 65 39 66 43 67
REMARK SMILES IDX 46 68 40 69 41 70 44 71 42 72 68 73 69 74 77 75 70 76 71 77
REMARK SMILES IDX 75 78 78 79 72 80 73 81 76 82 74 83 53 84 54 85 62 86 55 87
REMARK SMILES IDX 56 88 60 89 63 90 57 91 58 92 61 93 59 94
REMARK H PARENT 19 5 8 19 24 28 83 47 51 58
REMARK Flexibility Score: inf
ROOT
ATOM      1  C   UNL A   1      32.424  29.820  25.522  1.00  0.00     0.116 C 
ENDROOT
BRANCH   1   2
ATOM      2  N   UNL A   1      31.364  29.837  24.543  1.00  0.00    -0.355 N 
ATOM      3  C   UNL A   1      30.803  28.808  23.848  1.00  0.00     0.239 C 
ATOM      4  O   UNL A   1      29.753  29.054  23.243  1.00  0.00    -0.273 OA
ATOM      5  H   UNL A   1      30.988  30.726  24.349  1.00  0.00     0.163 HD
BRANCH   3   6
ATOM      6  C   UNL A   1      31.289  27.354  24.004  1.00  0.00     0.219 C 
BRANCH   6   7
ATOM      7  N   UNL A   1      30.576  26.378  24.847  1.00  0.00    -0.332 N 
ATOM      8  C   UNL A   1      29.518  25.633  24.179  1.00  0.00     0.147 C 
BRANCH   7   9
ATOM      9  C   UNL A   1      31.206  26.016  26.030  1.00  0.00     0.261 C 
ATOM     10  O   UNL A   1      31.113  26.745  27.022  1.00  0.00    -0.269 OA
BRANCH   9  11
ATOM     11  C   UNL A   1      31.979  24.743  26.197  1.00  0.00     0.126 A 
ATOM     12  C   UNL A   1      34.222  25.475  25.246  1.00  0.00     0.068 C 
ATOM     13  C   UNL A   1      33.254  24.477  25.827  1.00  0.00     0.058 A 
ATOM     14  N   UNL A   1      33.820  23.215  25.849  1.00  0.00    -0.239 NA
ATOM     15  C   UNL A   1      33.057  22.197  26.072  1.00  0.00     0.111 A 
ATOM     16  C   UNL A   1      31.187  23.551  26.625  1.00  0.00     0.264 A 
ATOM     17  N   UNL A   1      31.747  22.331  26.392  1.00  0.00    -0.310 N 
ATOM     18  O   UNL A   1      30.108  23.626  27.205  1.00  0.00    -0.269 OA
ATOM     19  H   UNL A   1      31.185  21.526  26.459  1.00  0.00     0.171 HD
BRANCH  15  20
ATOM     20  C   UNL A   1      33.617  20.786  25.964  1.00  0.00     0.049 C 
ATOM     21  C   UNL A   1      32.646  19.847  25.256  1.00  0.00     0.016 C 
ATOM     22  C   UNL A   1      34.975  20.804  25.265  1.00  0.00     0.016 C 
ENDBRANCH  15  20
ENDBRANCH   9  11
ENDBRANCH   7   9
ENDBRANCH   6   7
ENDBRANCH   3   6
ENDBRANCH   1   2
BRANCH   1  23
ATOM     23  C   UNL A   1      31.991  30.389  26.871  1.00  0.00     0.023 C 
BRANCH  23  24
ATOM     24  C   UNL A   1      31.714  31.892  26.894  1.00  0.00     0.023 C 
BRANCH  24  25
ATOM     25  C   UNL A   1      32.872  32.757  27.372  1.00  0.00     0.116 C 
BRANCH  25  26
ATOM     26  N   UNL A   1      32.476  34.121  27.689  1.00  0.00    -0.352 N 
ATOM     27  C   UNL A   1      33.001  34.979  28.628  1.00  0.00     0.251 C 
ATOM     28  H   UNL A   1      31.730  34.480  27.156  1.00  0.00     0.163 HD
ATOM     29  O   UNL A   1      32.478  36.060  28.843  1.00  0.00    -0.269 OA
BRANCH  27  30
ATOM     30  C   UNL A   1      34.186  34.557  29.407  1.00  0.00     0.039 A 
ATOM     31  C   UNL A   1      33.994  34.033  30.688  1.00  0.00     0.014 A 
ATOM     32  C   UNL A   1      35.469  34.639  28.861  1.00  0.00     0.014 A 
ATOM     33  C   UNL A   1      35.083  33.511  31.389  1.00  0.00     0.010 A 
ATOM     34  C   UNL A   1      36.541  34.060  29.532  1.00  0.00     0.010 A 
ATOM     35  C   UNL A   1      36.357  33.478  30.796  1.00  0.00    -0.014 A 
BRANCH  35  36
ATOM     36  C   UNL A   1      37.503  32.812  31.465  1.00  0.00     0.031 A 
ATOM     37  C   UNL A   1      38.171  31.631  30.822  1.00  0.00     0.074 A 
ATOM     38  C   UNL A   1      37.880  33.216  32.693  1.00  0.00     0.049 A 
ATOM     39  N   UNL A   1      39.116  30.857  31.292  1.00  0.00    -0.248 NA
ATOM     40  C   UNL A   1      37.695  31.251  29.482  1.00  0.00     0.031 C 
ATOM     41  C   UNL A   1      37.275  34.318  33.444  1.00  0.00     0.029 A 
ATOM     42  N   UNL A   1      38.852  32.735  33.535  1.00  0.00    -0.354 N 
ATOM     43  C   UNL A   1      39.335  29.893  30.319  1.00  0.00     0.074 A 
ATOM     44  C   UNL A   1      38.394  30.150  29.249  1.00  0.00     0.031 C 
ATOM     45  C   UNL A   1      37.895  34.435  34.628  1.00  0.00     0.029 A 
ATOM     46  C   UNL A   1      38.913  33.395  34.739  1.00  0.00     0.049 A 
ATOM     47  H   UNL A   1      39.449  31.989  33.299  1.00  0.00     0.167 HD
ATOM     48  C   UNL A   1      40.250  28.895  30.310  1.00  0.00     0.037 A 
ATOM     49  C   UNL A   1      39.690  33.175  35.816  1.00  0.00     0.037 A 
ATOM     50  C   UNL A   1      41.204  28.660  31.363  1.00  0.00     0.049 A 
ATOM     51  C   UNL A   1      40.696  32.056  35.782  1.00  0.00     0.074 A 
ATOM     52  C   UNL A   1      42.222  27.725  31.410  1.00  0.00     0.029 A 
ATOM     53  N   UNL A   1      41.249  29.363  32.558  1.00  0.00    -0.354 N 
ATOM     54  N   UNL A   1      40.949  31.201  34.822  1.00  0.00    -0.248 NA
ATOM     55  C   UNL A   1      41.527  31.874  36.981  1.00  0.00     0.031 C 
ATOM     56  C   UNL A   1      42.855  27.830  32.654  1.00  0.00     0.029 A 
ATOM     57  C   UNL A   1      42.262  28.862  33.361  1.00  0.00     0.049 A 
ATOM     58  H   UNL A   1      40.652  30.106  32.800  1.00  0.00     0.167 HD
ATOM     59  C   UNL A   1      41.980  30.396  35.289  1.00  0.00     0.074 A 
ATOM     60  C   UNL A   1      42.317  30.876  36.613  1.00  0.00     0.031 C 
ATOM     61  C   UNL A   1      42.590  29.354  34.675  1.00  0.00     0.037 A 
BRANCH  48  62
ATOM     62  C   UNL A   1      40.271  27.979  29.122  1.00  0.00     0.064 A 
ATOM     63  C   UNL A   1      39.531  26.786  29.100  1.00  0.00     0.173 A 
ATOM     64  C   UNL A   1      41.000  28.320  27.973  1.00  0.00     0.173 A 
ATOM     65  F   UNL A   1      38.824  26.410  30.176  1.00  0.00    -0.203 F 
ATOM     66  C   UNL A   1      39.543  25.957  27.981  1.00  0.00     0.198 A 
ATOM     67  C   UNL A   1      40.987  27.503  26.846  1.00  0.00     0.198 A 
ATOM     68  F   UNL A   1      41.719  29.452  27.939  1.00  0.00    -0.203 F 
ATOM     69  F   UNL A   1      38.864  24.801  28.000  1.00  0.00    -0.200 F 
ATOM     70  C   UNL A   1      40.263  26.319  26.854  1.00  0.00     0.200 A 
ATOM     71  F   UNL A   1      41.672  27.860  25.751  1.00  0.00    -0.200 F 
ATOM     72  F   UNL A   1      40.265  25.524  25.775  1.00  0.00    -0.200 F 
ENDBRANCH  48  62
BRANCH  49  73
ATOM     73  C   UNL A   1      39.557  34.041  37.016  1.00  0.00     0.064 A 
ATOM     74  C   UNL A   1      38.787  33.634  38.115  1.00  0.00     0.173 A 
ATOM     75  C   UNL A   1      40.187  35.292  37.089  1.00  0.00     0.173 A 
ATOM     76  F   UNL A   1      38.146  32.456  38.082  1.00  0.00    -0.203 F 
ATOM     77  C   UNL A   1      38.638  34.452  39.232  1.00  0.00     0.198 A 
ATOM     78  C   UNL A   1      40.061  36.097  38.219  1.00  0.00     0.198 A 
ATOM     79  F   UNL A   1      40.939  35.726  36.066  1.00  0.00    -0.203 F 
ATOM     80  F   UNL A   1      37.860  34.059  40.249  1.00  0.00    -0.200 F 
ATOM     81  C   UNL A   1      39.279  35.680  39.286  1.00  0.00     0.200 A 
ATOM     82  F   UNL A   1      40.694  37.277  38.273  1.00  0.00    -0.200 F 
ATOM     83  F   UNL A   1      39.138  36.465  40.362  1.00  0.00    -0.200 F 
ENDBRANCH  49  73
BRANCH  61  84
ATOM     84  C   UNL A   1      43.704  28.674  35.415  1.00  0.00     0.064 A 
ATOM     85  C   UNL A   1      43.458  27.619  36.306  1.00  0.00     0.173 A 
ATOM     86  C   UNL A   1      45.037  29.052  35.194  1.00  0.00     0.173 A 
ATOM     87  F   UNL A   1      42.200  27.233  36.563  1.00  0.00    -0.203 F 
ATOM     88  C   UNL A   1      44.506  26.978  36.962  1.00  0.00     0.198 A 
ATOM     89  C   UNL A   1      46.085  28.389  35.830  1.00  0.00     0.198 A 
ATOM     90  F   UNL A   1      45.326  30.052  34.347  1.00  0.00    -0.203 F 
ATOM     91  F   UNL A   1      44.246  26.000  37.839  1.00  0.00    -0.200 F 
ATOM     92  C   UNL A   1      45.818  27.358  36.717  1.00  0.00     0.200 A 
ATOM     93  F   UNL A   1      47.351  28.749  35.581  1.00  0.00    -0.200 F 
ATOM     94  F   UNL A   1      46.825  26.733  37.341  1.00  0.00    -0.200 F 
ENDBRANCH  61  84
ENDBRANCH  35  36
ENDBRANCH  27  30
ENDBRANCH  25  26
ENDBRANCH  24  25
ENDBRANCH  23  24
ENDBRANCH   1  23
TORSDOF 15
ENDMDL
MODEL 2
REMARK VINA RESULT:     -12.4      1.385      3.705
REMARK SMILES Cc1nc(C(C)C)[nH]c(=O)c1C(=O)N(C)CC(=O)NCCCCNC(=O)c1ccc(-c2c3nc(c(-c4c(F)c(F)c(F)c(F)c4F)c4ccc([nH]4)c(-c4c(F)c(F)c(F)c(F)c4F)c4nc(c(-c5c(F)c(F)c(F)c(F)c5F)c5ccc2[nH]5)C=C4)C=C3)cc1
REMARK SMILES IDX 20 1 19 2 17 3 18 4 16 6 14 7 15 8 12 9 13 10 11 11 1 12
REMARK SMILES IDX 2 13 3 14 4 15 9 16 8 17 10 18 5 20 6 21 7 22 21 23 22 24
REMARK SMILES IDX 23 25 24 26 25 27 26 29 27 30 28 31 89 32 29 33 88 34 30 35
REMARK SMILES IDX 31 36 32 37 82 38 33 39 87 40 81 41 83 42 34 43 86 44 80 45
REMARK SMILES IDX 79 46 35 48 67 49 47 50 66 51 48 52 51 53 65 54 84 55 49 56
REMARK SMILES IDX 50 57 64 59 85 60 52 61 36 62 37 63 45 64 38 65 39 66 43 67
REMARK SMILES IDX 46 68 40 69 41 70 44 71 42 72 68 73 69 74 77 75 70 76 71 77
REMARK SMILES IDX 75 78 78 79 72 80 73 81 76 82 74 83 53 84 54 85 62 86 55 87
REMARK SMILES IDX 56 88 60 89 63 90 57 91 58 92 61 93 59 94
REMARK H PARENT 19 5 8 19 24 28 83 47 51 58
REMARK Flexibility Score: inf
ROOT
ATOM      1  C   UNL A   1      32.111  29.280  27.115  1.00  0.00     0.116 C 
ENDROOT
BRANCH   1   2
ATOM      2  N   UNL A   1      33.216  28.401  26.819  1.00  0.00    -0.355 N 
ATOM      3  C   UNL A   1      33.220  27.180  26.214  1.00  0.00     0.239 C 
ATOM      4  O   UNL A   1      34.321  26.736  25.867  1.00  0.00    -0.273 OA
ATOM      5  H   UNL A   1      34.100  28.733  27.095  1.00  0.00     0.163 HD
BRANCH   3   6
ATOM      6  C   UNL A   1      31.921  26.494  25.746  1.00  0.00     0.219 C 
BRANCH   6   7
ATOM      7  N   UNL A   1      31.882  25.630  24.553  1.00  0.00    -0.332 N 
ATOM      8  C   UNL A   1      31.924  24.199  24.817  1.00  0.00     0.147 C 
BRANCH   7   9
ATOM      9  C   UNL A   1      31.445  26.229  23.378  1.00  0.00     0.261 C 
ATOM     10  O   UNL A   1      31.644  25.670  22.295  1.00  0.00    -0.269 OA
BRANCH   9  11
ATOM     11  C   UNL A   1      30.693  27.524  23.343  1.00  0.00     0.126 A 
ATOM     12  C   UNL A   1      28.339  26.665  23.781  1.00  0.00     0.068 C 
ATOM     13  C   UNL A   1      29.361  27.728  23.468  1.00  0.00     0.058 A 
ATOM     14  N   UNL A   1      28.736  28.940  23.232  1.00  0.00    -0.239 NA
ATOM     15  C   UNL A   1      29.422  29.898  22.702  1.00  0.00     0.111 A 
ATOM     16  C   UNL A   1      31.473  28.719  22.903  1.00  0.00     0.264 A 
ATOM     17  N   UNL A   1      30.753  29.793  22.471  1.00  0.00    -0.310 N 
ATOM     18  O   UNL A   1      32.697  28.788  22.959  1.00  0.00    -0.269 OA
ATOM     19  H   UNL A   1      31.213  30.510  21.979  1.00  0.00     0.171 HD
BRANCH  15  20
ATOM     20  C   UNL A   1      28.735  31.194  22.299  1.00  0.00     0.049 C 
ATOM     21  C   UNL A   1      28.091  31.086  20.921  1.00  0.00     0.016 C 
ATOM     22  C   UNL A   1      27.712  31.606  23.355  1.00  0.00     0.016 C 
ENDBRANCH  15  20
ENDBRANCH   9  11
ENDBRANCH   7   9
ENDBRANCH   6   7
ENDBRANCH   3   6
ENDBRANCH   1   2
BRANCH   1  23
ATOM     23  C   UNL A   1      32.012  30.453  26.142  1.00  0.00     0.023 C 
BRANCH  23  24
ATOM     24  C   UNL A   1      31.606  31.790  26.760  1.00  0.00     0.023 C 
BRANCH  24  25
ATOM     25  C   UNL A   1      32.751  32.615  27.331  1.00  0.00     0.116 C 
BRANCH  25  26
ATOM     26  N   UNL A   1      32.383  33.996  27.602  1.00  0.00    -0.352 N 
ATOM     27  C   UNL A   1      32.940  34.881  28.497  1.00  0.00     0.251 C 
ATOM     28  H   UNL A   1      31.632  34.346  27.070  1.00  0.00     0.163 HD
ATOM     29  O   UNL A   1      32.439  35.978  28.680  1.00  0.00    -0.269 OA
BRANCH  27  30
ATOM     30  C   UNL A   1      34.133  34.471  29.268  1.00  0.00     0.039 A 
ATOM     31  C   UNL A   1      33.953  33.903  30.532  1.00  0.00     0.014 A 
ATOM     32  C   UNL A   1      35.416  34.605  28.730  1.00  0.00     0.014 A 
ATOM     33  C   UNL A   1      35.054  33.392  31.222  1.00  0.00     0.010 A 
ATOM     34  C   UNL A   1      36.502  34.037  29.388  1.00  0.00     0.010 A 
ATOM     35  C   UNL A   1      36.330  33.413  30.634  1.00  0.00    -0.014 A 
BRANCH  35  36
ATOM     36  C   UNL A   1      37.492  32.761  31.287  1.00  0.00     0.031 A 
ATOM     37  C   UNL A   1      38.180  31.601  30.625  1.00  0.00     0.074 A 
ATOM     38  C   UNL A   1      37.869  33.156  32.518  1.00  0.00     0.049 A 
ATOM     39  N   UNL A   1      39.142  30.839  31.080  1.00  0.00    -0.248 NA
ATOM     40  C   UNL A   1      37.703  31.230  29.283  1.00  0.00     0.031 C 
ATOM     41  C   UNL A   1      37.247  34.235  33.287  1.00  0.00     0.029 A 
ATOM     42  N   UNL A   1      38.855  32.683  33.349  1.00  0.00    -0.354 N 
ATOM     43  C   UNL A   1      39.374  29.892  30.092  1.00  0.00     0.074 A 
ATOM     44  C   UNL A   1      38.422  30.146  29.031  1.00  0.00     0.031 C 
ATOM     45  C   UNL A   1      37.871  34.349  34.470  1.00  0.00     0.029 A 
ATOM     46  C   UNL A   1      38.909  33.327  34.562  1.00  0.00     0.049 A 
ATOM     47  H   UNL A   1      39.464  31.951  33.100  1.00  0.00     0.167 HD
ATOM     48  C   UNL A   1      40.308  28.913  30.066  1.00  0.00     0.037 A 
ATOM     49  C   UNL A   1      39.697  33.109  35.631  1.00  0.00     0.037 A 
ATOM     50  C   UNL A   1      41.271  28.682  31.111  1.00  0.00     0.049 A 
ATOM     51  C   UNL A   1      40.724  32.009  35.577  1.00  0.00     0.074 A 
ATOM     52  C   UNL A   1      42.308  27.767  31.139  1.00  0.00     0.029 A 
ATOM     53  N   UNL A   1      41.310  29.370  32.314  1.00  0.00    -0.354 N 
ATOM     54  N   UNL A   1      40.988  31.172  34.604  1.00  0.00    -0.248 NA
ATOM     55  C   UNL A   1      41.565  31.827  36.768  1.00  0.00     0.031 C 
ATOM     56  C   UNL A   1      42.945  27.867  32.381  1.00  0.00     0.029 A 
ATOM     57  C   UNL A   1      42.337  28.879  33.105  1.00  0.00     0.049 A 
ATOM     58  H   UNL A   1      40.700  30.099  32.569  1.00  0.00     0.167 HD
ATOM     59  C   UNL A   1      42.036  30.381  35.055  1.00  0.00     0.074 A 
ATOM     60  C   UNL A   1      42.371  30.850  36.383  1.00  0.00     0.031 C 
ATOM     61  C   UNL A   1      42.663  29.359  34.424  1.00  0.00     0.037 A 
BRANCH  48  62
ATOM     62  C   UNL A   1      40.339  28.013  28.865  1.00  0.00     0.064 A 
ATOM     63  C   UNL A   1      41.082  28.340  27.720  1.00  0.00     0.173 A 
ATOM     64  C   UNL A   1      39.657  26.787  28.876  1.00  0.00     0.173 A 
ATOM     65  F   UNL A   1      41.745  29.505  27.654  1.00  0.00    -0.203 F 
ATOM     66  C   UNL A   1      41.118  27.485  26.622  1.00  0.00     0.198 A 
ATOM     67  C   UNL A   1      39.719  25.922  27.788  1.00  0.00     0.198 A 
ATOM     68  F   UNL A   1      38.937  26.424  29.949  1.00  0.00    -0.203 F 
ATOM     69  F   UNL A   1      41.799  27.839  25.522  1.00  0.00    -0.200 F 
ATOM     70  C   UNL A   1      40.445  26.274  26.660  1.00  0.00     0.200 A 
ATOM     71  F   UNL A   1      39.078  24.745  27.831  1.00  0.00    -0.200 F 
ATOM     72  F   UNL A   1      40.489  25.448  25.605  1.00  0.00    -0.200 F 
ENDBRANCH  48  62
BRANCH  49  73
ATOM     73  C   UNL A   1      39.554  33.956  36.843  1.00  0.00     0.064 A 
ATOM     74  C   UNL A   1      40.210  35.192  36.939  1.00  0.00     0.173 A 
ATOM     75  C   UNL A   1      38.768  33.548  37.931  1.00  0.00     0.173 A 
ATOM     76  F   UNL A   1      40.991  35.613  35.934  1.00  0.00    -0.203 F 
ATOM     77  C   UNL A   1      40.098  35.978  38.083  1.00  0.00     0.198 A 
ATOM     78  C   UNL A   1      38.635  34.349  39.063  1.00  0.00     0.198 A 
ATOM     79  F   UNL A   1      38.117  32.376  37.887  1.00  0.00    -0.203 F 
ATOM     80  F   UNL A   1      40.772  37.134  38.167  1.00  0.00    -0.200 F 
ATOM     81  C   UNL A   1      39.308  35.560  39.142  1.00  0.00     0.200 A 
ATOM     82  F   UNL A   1      37.858  33.947  40.078  1.00  0.00    -0.200 F 
ATOM     83  F   UNL A   1      39.199  36.318  40.241  1.00  0.00    -0.200 F 
ENDBRANCH  49  73
BRANCH  61  84
ATOM     84  C   UNL A   1      43.794  28.691  35.149  1.00  0.00     0.064 A 
ATOM     85  C   UNL A   1      43.580  27.587  35.986  1.00  0.00     0.173 A 
ATOM     86  C   UNL A   1      45.114  29.133  34.966  1.00  0.00     0.173 A 
ATOM     87  F   UNL A   1      42.335  27.137  36.205  1.00  0.00    -0.203 F 
ATOM     88  C   UNL A   1      44.644  26.959  36.627  1.00  0.00     0.198 A 
ATOM     89  C   UNL A   1      46.178  28.484  35.587  1.00  0.00     0.198 A 
ATOM     90  F   UNL A   1      45.372  30.182  34.172  1.00  0.00    -0.203 F 
ATOM     91  F   UNL A   1      44.413  25.930  37.454  1.00  0.00    -0.200 F 
ATOM     92  C   UNL A   1      45.943  27.403  36.421  1.00  0.00     0.200 A 
ATOM     93  F   UNL A   1      47.432  28.907  35.375  1.00  0.00    -0.200 F 
ATOM     94  F   UNL A   1      46.967  26.790  37.031  1.00  0.00    -0.200 F 
ENDBRANCH  61  84
ENDBRANCH  35  36
ENDBRANCH  27  30
ENDBRANCH  25  26
ENDBRANCH  24  25
ENDBRANCH  23  24
ENDBRANCH   1  23
TORSDOF 15
ENDMDL
MODEL 3
REMARK VINA RESULT:     -12.3      1.580      8.134
REMARK SMILES Cc1nc(C(C)C)[nH]c(=O)c1C(=O)N(C)CC(=O)NCCCCNC(=O)c1ccc(-c2c3nc(c(-c4c(F)c(F)c(F)c(F)c4F)c4ccc([nH]4)c(-c4c(F)c(F)c(F)c(F)c4F)c4nc(c(-c5c(F)c(F)c(F)c(F)c5F)c5ccc2[nH]5)C=C4)C=C3)cc1
REMARK SMILES IDX 20 1 19 2 17 3 18 4 16 6 14 7 15 8 12 9 13 10 11 11 1 12
REMARK SMILES IDX 2 13 3 14 4 15 9 16 8 17 10 18 5 20 6 21 7 22 21 23 22 24
REMARK SMILES IDX 23 25 24 26 25 27 26 29 27 30 28 31 89 32 29 33 88 34 30 35
REMARK SMILES IDX 31 36 32 37 82 38 33 39 87 40 81 41 83 42 34 43 86 44 80 45
REMARK SMILES IDX 79 46 35 48 67 49 47 50 66 51 48 52 51 53 65 54 84 55 49 56
REMARK SMILES IDX 50 57 64 59 85 60 52 61 36 62 37 63 45 64 38 65 39 66 43 67
REMARK SMILES IDX 46 68 40 69 41 70 44 71 42 72 68 73 69 74 77 75 70 76 71 77
REMARK SMILES IDX 75 78 78 79 72 80 73 81 76 82 74 83 53 84 54 85 62 86 55 87
REMARK SMILES IDX 56 88 60 89 63 90 57 91 58 92 61 93 59 94
REMARK H PARENT 19 5 8 19 24 28 83 47 51 58
REMARK Flexibility Score: inf
ROOT
ATOM      1  C   UNL A   1      32.183  29.616  27.233  1.00  0.00     0.116 C 
ENDROOT
BRANCH   1   2
ATOM      2  N   UNL A   1      33.226  28.715  26.808  1.00  0.00    -0.355 N 
ATOM      3  C   UNL A   1      33.135  27.464  26.276  1.00  0.00     0.239 C 
ATOM      4  O   UNL A   1      34.166  26.995  25.779  1.00  0.00    -0.273 OA
ATOM      5  H   UNL A   1      34.143  29.056  26.918  1.00  0.00     0.163 HD
BRANCH   3   6
ATOM      6  C   UNL A   1      31.779  26.762  26.064  1.00  0.00     0.219 C 
BRANCH   6   7
ATOM      7  N   UNL A   1      31.547  25.836  24.941  1.00  0.00    -0.332 N 
ATOM      8  C   UNL A   1      31.114  24.498  25.315  1.00  0.00     0.147 C 
BRANCH   7   9
ATOM      9  C   UNL A   1      31.405  26.419  23.688  1.00  0.00     0.261 C 
ATOM     10  O   UNL A   1      31.879  25.860  22.695  1.00  0.00    -0.269 OA
BRANCH   9  11
ATOM     11  C   UNL A   1      30.657  27.696  23.453  1.00  0.00     0.126 A 
ATOM     12  C   UNL A   1      28.273  26.861  23.759  1.00  0.00     0.068 C 
ATOM     13  C   UNL A   1      29.318  27.897  23.434  1.00  0.00     0.058 A 
ATOM     14  N   UNL A   1      28.716  29.072  23.019  1.00  0.00    -0.239 NA
ATOM     15  C   UNL A   1      29.447  29.979  22.459  1.00  0.00     0.111 A 
ATOM     16  C   UNL A   1      31.473  28.848  22.966  1.00  0.00     0.264 A 
ATOM     17  N   UNL A   1      30.794  29.865  22.363  1.00  0.00    -0.310 N 
ATOM     18  O   UNL A   1      32.686  28.936  23.126  1.00  0.00    -0.269 OA
ATOM     19  H   UNL A   1      31.296  30.534  21.844  1.00  0.00     0.171 HD
BRANCH  15  20
ATOM     20  C   UNL A   1      28.798  31.220  21.865  1.00  0.00     0.049 C 
ATOM     21  C   UNL A   1      27.973  30.886  20.627  1.00  0.00     0.016 C 
ATOM     22  C   UNL A   1      27.952  31.934  22.917  1.00  0.00     0.016 C 
ENDBRANCH  15  20
ENDBRANCH   9  11
ENDBRANCH   7   9
ENDBRANCH   6   7
ENDBRANCH   3   6
ENDBRANCH   1   2
BRANCH   1  23
ATOM     23  C   UNL A   1      31.753  30.583  26.132  1.00  0.00     0.023 C 
BRANCH  23  24
ATOM     24  C   UNL A   1      31.495  32.020  26.581  1.00  0.00     0.023 C 
BRANCH  24  25
ATOM     25  C   UNL A   1      32.659  32.695  27.294  1.00  0.00     0.116 C 
BRANCH  25  26
ATOM     26  N   UNL A   1      32.396  34.085  27.633  1.00  0.00    -0.352 N 
ATOM     27  C   UNL A   1      33.013  34.879  28.572  1.00  0.00     0.251 C 
ATOM     28  H   UNL A   1      31.676  34.517  27.118  1.00  0.00     0.163 HD
ATOM     29  O   UNL A   1      32.596  36.001  28.808  1.00  0.00    -0.269 OA
BRANCH  27  30
ATOM     30  C   UNL A   1      34.169  34.342  29.323  1.00  0.00     0.039 A 
ATOM     31  C   UNL A   1      33.934  33.683  30.532  1.00  0.00     0.014 A 
ATOM     32  C   UNL A   1      35.466  34.449  28.816  1.00  0.00     0.014 A 
ATOM     33  C   UNL A   1      34.993  33.057  31.193  1.00  0.00     0.010 A 
ATOM     34  C   UNL A   1      36.507  33.769  29.440  1.00  0.00     0.010 A 
ATOM     35  C   UNL A   1      36.279  33.056  30.627  1.00  0.00    -0.014 A 
BRANCH  35  36
ATOM     36  C   UNL A   1      37.392  32.288  31.240  1.00  0.00     0.031 A 
ATOM     37  C   UNL A   1      37.900  32.652  32.605  1.00  0.00     0.074 A 
ATOM     38  C   UNL A   1      38.003  31.322  30.527  1.00  0.00     0.049 A 
ATOM     39  N   UNL A   1      38.923  32.170  33.265  1.00  0.00    -0.248 NA
ATOM     40  C   UNL A   1      37.179  33.722  33.314  1.00  0.00     0.031 C 
ATOM     41  C   UNL A   1      37.636  30.911  29.171  1.00  0.00     0.029 A 
ATOM     42  N   UNL A   1      39.075  30.523  30.837  1.00  0.00    -0.354 N 
ATOM     43  C   UNL A   1      38.979  32.885  34.452  1.00  0.00     0.074 A 
ATOM     44  C   UNL A   1      37.915  33.866  34.407  1.00  0.00     0.031 C 
ATOM     45  C   UNL A   1      38.460  29.931  28.770  1.00  0.00     0.029 A 
ATOM     46  C   UNL A   1      39.438  29.670  29.821  1.00  0.00     0.049 A 
ATOM     47  H   UNL A   1      39.540  30.556  31.704  1.00  0.00     0.167 HD
ATOM     48  C   UNL A   1      39.829  32.724  35.494  1.00  0.00     0.037 A 
ATOM     49  C   UNL A   1      40.453  28.790  29.742  1.00  0.00     0.037 A 
ATOM     50  C   UNL A   1      40.867  31.728  35.548  1.00  0.00     0.049 A 
ATOM     51  C   UNL A   1      41.387  28.635  30.913  1.00  0.00     0.074 A 
ATOM     52  C   UNL A   1      41.726  31.435  36.592  1.00  0.00     0.029 A 
ATOM     53  N   UNL A   1      41.190  30.868  34.509  1.00  0.00    -0.354 N 
ATOM     54  N   UNL A   1      41.380  29.262  32.064  1.00  0.00    -0.248 NA
ATOM     55  C   UNL A   1      42.467  27.649  30.774  1.00  0.00     0.031 C 
ATOM     56  C   UNL A   1      42.602  30.429  36.168  1.00  0.00     0.029 A 
ATOM     57  C   UNL A   1      42.256  30.062  34.878  1.00  0.00     0.049 A 
ATOM     58  H   UNL A   1      40.731  30.834  33.639  1.00  0.00     0.167 HD
ATOM     59  C   UNL A   1      42.436  28.731  32.793  1.00  0.00     0.074 A 
ATOM     60  C   UNL A   1      43.052  27.720  31.961  1.00  0.00     0.031 C 
ATOM     61  C   UNL A   1      42.855  29.055  34.040  1.00  0.00     0.037 A 
BRANCH  48  62
ATOM     62  C   UNL A   1      39.672  33.645  36.668  1.00  0.00     0.064 A 
ATOM     63  C   UNL A   1      40.298  34.901  36.707  1.00  0.00     0.173 A 
ATOM     64  C   UNL A   1      38.850  33.290  37.747  1.00  0.00     0.173 A 
ATOM     65  F   UNL A   1      41.103  35.286  35.704  1.00  0.00    -0.203 F 
ATOM     66  C   UNL A   1      40.127  35.754  37.793  1.00  0.00     0.198 A 
ATOM     67  C   UNL A   1      38.657  34.157  38.819  1.00  0.00     0.198 A 
ATOM     68  F   UNL A   1      38.224  32.103  37.758  1.00  0.00    -0.203 F 
ATOM     69  F   UNL A   1      40.770  36.930  37.828  1.00  0.00    -0.200 F 
ATOM     70  C   UNL A   1      39.301  35.385  38.844  1.00  0.00     0.200 A 
ATOM     71  F   UNL A   1      37.848  33.805  39.828  1.00  0.00    -0.200 F 
ATOM     72  F   UNL A   1      39.130  36.212  39.885  1.00  0.00    -0.200 F 
ENDBRANCH  48  62
BRANCH  49  73
ATOM     73  C   UNL A   1      40.635  27.977  28.512  1.00  0.00     0.064 A 
ATOM     74  C   UNL A   1      40.045  26.710  28.393  1.00  0.00     0.173 A 
ATOM     75  C   UNL A   1      41.405  28.442  27.436  1.00  0.00     0.173 A 
ATOM     76  F   UNL A   1      39.320  26.213  29.406  1.00  0.00    -0.203 F 
ATOM     77  C   UNL A   1      40.234  25.934  27.252  1.00  0.00     0.198 A 
ATOM     78  C   UNL A   1      41.569  27.676  26.284  1.00  0.00     0.198 A 
ATOM     79  F   UNL A   1      41.987  29.649  27.499  1.00  0.00    -0.203 F 
ATOM     80  F   UNL A   1      39.696  24.708  27.183  1.00  0.00    -0.200 F 
ATOM     81  C   UNL A   1      40.990  26.418  26.197  1.00  0.00     0.200 A 
ATOM     82  F   UNL A   1      42.289  28.154  25.260  1.00  0.00    -0.200 F 
ATOM     83  F   UNL A   1      41.168  25.672  25.099  1.00  0.00    -0.200 F 
ENDBRANCH  49  73
BRANCH  61  84
ATOM     84  C   UNL A   1      44.022  28.292  34.595  1.00  0.00     0.064 A 
ATOM     85  C   UNL A   1      45.336  28.766  34.472  1.00  0.00     0.173 A 
ATOM     86  C   UNL A   1      43.817  27.095  35.299  1.00  0.00     0.173 A 
ATOM     87  F   UNL A   1      45.584  29.896  33.794  1.00  0.00    -0.203 F 
ATOM     88  C   UNL A   1      46.405  28.061  35.019  1.00  0.00     0.198 A 
ATOM     89  C   UNL A   1      44.886  26.408  35.869  1.00  0.00     0.198 A 
ATOM     90  F   UNL A   1      42.579  26.601  35.449  1.00  0.00    -0.203 F 
ATOM     91  F   UNL A   1      47.656  28.512  34.855  1.00  0.00    -0.200 F 
ATOM     92  C   UNL A   1      46.178  26.888  35.724  1.00  0.00     0.200 A 
ATOM     93  F   UNL A   1      44.663  25.282  36.561  1.00  0.00    -0.200 F 
ATOM     94  F   UNL A   1      47.207  26.217  36.259  1.00  0.00    -0.200 F 
ENDBRANCH  61  84
ENDBRANCH  35  36
ENDBRANCH  27  30
ENDBRANCH  25  26
ENDBRANCH  24  25
ENDBRANCH  23  24
ENDBRANCH   1  23
TORSDOF 15
ENDMDL
