MODEL 1
REMARK VINA RESULT:     -12.0      0.000      0.000
REMARK SMILES COCc1cc(C(=O)NCCCCNC(=O)c2ccc(-c3c4nc(c(-c5c(F)c(F)c(F)c(F)c5F)c5ccc([nH]5)c(-c5c(F)c(F)c(F)c(F)c5F)c5nc(c(-c6c(F)c(F)c(F)c(F)c6F)c6ccc3[nH]6)C=C5)C=C4)cc2)ccc1F
REMARK SMILES IDX 11 1 10 2 9 3 7 4 8 5 6 7 4 8 5 9 82 10 81 11 83 12 80 13
REMARK SMILES IDX 3 14 2 15 1 16 12 17 13 18 14 19 15 20 16 22 17 23 18 24
REMARK SMILES IDX 79 25 19 26 78 27 20 28 21 29 22 30 72 31 23 32 77 33 71 34
REMARK SMILES IDX 73 35 24 36 76 37 70 38 69 39 25 41 57 42 37 43 56 44 38 45
REMARK SMILES IDX 41 46 55 47 74 48 39 49 40 50 54 52 75 53 42 54 26 55 27 56
REMARK SMILES IDX 35 57 28 58 29 59 33 60 36 61 30 62 31 63 34 64 32 65 58 66
REMARK SMILES IDX 59 67 67 68 60 69 61 70 65 71 68 72 62 73 63 74 66 75 64 76
REMARK SMILES IDX 43 77 44 78 52 79 45 80 46 81 50 82 53 83 47 84 48 85 51 86
REMARK SMILES IDX 49 87
REMARK H PARENT 9 6 14 21 73 40 41 51
REMARK Flexibility Score: inf
ROOT
ATOM      1  C   UNL A   1      37.226  21.194  24.486  1.00  0.00     0.023 C 
ENDROOT
BRANCH   1   2
ATOM      2  C   UNL A   1      37.176  22.391  25.439  1.00  0.00     0.116 C 
BRANCH   2   3
ATOM      3  N   UNL A   1      36.227  22.155  26.504  1.00  0.00    -0.352 N 
ATOM      4  C   UNL A   1      34.907  21.791  26.504  1.00  0.00     0.251 C 
ATOM      5  O   UNL A   1      34.373  21.641  27.605  1.00  0.00    -0.269 OA
ATOM      6  H   UNL A   1      36.603  22.279  27.405  1.00  0.00     0.163 HD
BRANCH   4   7
ATOM      7  C   UNL A   1      34.098  21.542  25.274  1.00  0.00     0.040 A 
ATOM      8  C   UNL A   1      32.841  19.852  24.007  1.00  0.00     0.014 A 
ATOM      9  C   UNL A   1      33.688  20.212  25.069  1.00  0.00     0.023 A 
ATOM     10  C   UNL A   1      32.462  20.839  23.103  1.00  0.00     0.128 A 
ATOM     11  C   UNL A   1      32.867  22.159  23.272  1.00  0.00     0.040 A 
ATOM     12  F   UNL A   1      31.687  20.534  22.052  1.00  0.00    -0.207 F 
ATOM     13  C   UNL A   1      33.654  22.515  24.374  1.00  0.00     0.017 A 
BRANCH   8  14
ATOM     14  C   UNL A   1      32.309  18.450  23.898  1.00  0.00     0.198 C 
BRANCH  14  15
ATOM     15  O   UNL A   1      32.002  17.888  25.177  1.00  0.00    -0.380 OA
ATOM     16  C   UNL A   1      32.635  16.640  25.429  1.00  0.00     0.195 C 
ENDBRANCH  14  15
ENDBRANCH   8  14
ENDBRANCH   4   7
ENDBRANCH   2   3
ENDBRANCH   1   2
BRANCH   1  17
ATOM     17  C   UNL A   1      37.992  19.983  25.031  1.00  0.00     0.023 C 
BRANCH  17  18
ATOM     18  C   UNL A   1      39.273  20.310  25.793  1.00  0.00     0.116 C 
BRANCH  18  19
ATOM     19  N   UNL A   1      40.205  19.195  25.859  1.00  0.00    -0.352 N 
ATOM     20  C   UNL A   1      41.554  19.212  26.126  1.00  0.00     0.251 C 
ATOM     21  H   UNL A   1      39.816  18.307  25.689  1.00  0.00     0.163 HD
ATOM     22  O   UNL A   1      42.215  18.189  26.050  1.00  0.00    -0.269 OA
BRANCH  20  23
ATOM     23  C   UNL A   1      42.204  20.496  26.460  1.00  0.00     0.039 A 
ATOM     24  C   UNL A   1      42.728  21.267  25.420  1.00  0.00     0.014 A 
ATOM     25  C   UNL A   1      42.262  20.949  27.780  1.00  0.00     0.014 A 
ATOM     26  C   UNL A   1      43.241  22.534  25.695  1.00  0.00     0.010 A 
ATOM     27  C   UNL A   1      42.723  22.235  28.045  1.00  0.00     0.010 A 
ATOM     28  C   UNL A   1      43.201  23.044  27.003  1.00  0.00    -0.014 A 
BRANCH  28  29
ATOM     29  C   UNL A   1      43.607  24.440  27.293  1.00  0.00     0.031 A 
ATOM     30  C   UNL A   1      42.607  25.429  27.810  1.00  0.00     0.074 A 
ATOM     31  C   UNL A   1      44.867  24.827  27.016  1.00  0.00     0.049 A 
ATOM     32  N   UNL A   1      42.756  26.707  28.044  1.00  0.00    -0.248 NA
ATOM     33  C   UNL A   1      41.252  24.921  28.081  1.00  0.00     0.031 C 
ATOM     34  C   UNL A   1      45.915  23.963  26.472  1.00  0.00     0.029 A 
ATOM     35  N   UNL A   1      45.478  26.050  27.145  1.00  0.00    -0.354 N 
ATOM     36  C   UNL A   1      41.519  27.159  28.480  1.00  0.00     0.074 A 
ATOM     37  C   UNL A   1      40.616  26.029  28.438  1.00  0.00     0.031 C 
ATOM     38  C   UNL A   1      47.044  24.675  26.334  1.00  0.00     0.029 A 
ATOM     39  C   UNL A   1      46.791  26.054  26.743  1.00  0.00     0.049 A 
ATOM     40  H   UNL A   1      45.019  26.848  27.492  1.00  0.00     0.167 HD
ATOM     41  C   UNL A   1      41.177  28.399  28.899  1.00  0.00     0.037 A 
ATOM     42  C   UNL A   1      47.687  27.057  26.698  1.00  0.00     0.037 A 
ATOM     43  C   UNL A   1      42.088  29.511  28.966  1.00  0.00     0.049 A 
ATOM     44  C   UNL A   1      47.275  28.432  27.147  1.00  0.00     0.074 A 
ATOM     45  C   UNL A   1      41.854  30.787  29.448  1.00  0.00     0.029 A 
ATOM     46  N   UNL A   1      43.407  29.479  28.538  1.00  0.00    -0.354 N 
ATOM     47  N   UNL A   1      46.118  28.832  27.613  1.00  0.00    -0.248 NA
ATOM     48  C   UNL A   1      48.288  29.493  27.058  1.00  0.00     0.031 C 
ATOM     49  C   UNL A   1      43.017  31.540  29.271  1.00  0.00     0.029 A 
ATOM     50  C   UNL A   1      43.990  30.723  28.718  1.00  0.00     0.049 A 
ATOM     51  H   UNL A   1      43.861  28.690  28.162  1.00  0.00     0.167 HD
ATOM     52  C   UNL A   1      46.264  30.185  27.885  1.00  0.00     0.074 A 
ATOM     53  C   UNL A   1      47.628  30.536  27.545  1.00  0.00     0.031 C 
ATOM     54  C   UNL A   1      45.347  31.056  28.371  1.00  0.00     0.037 A 
BRANCH  41  55
ATOM     55  C   UNL A   1      39.762  28.625  29.336  1.00  0.00     0.064 A 
ATOM     56  C   UNL A   1      38.817  29.157  28.446  1.00  0.00     0.173 A 
ATOM     57  C   UNL A   1      39.358  28.383  30.657  1.00  0.00     0.173 A 
ATOM     58  F   UNL A   1      39.155  29.411  27.172  1.00  0.00    -0.203 F 
ATOM     59  C   UNL A   1      37.523  29.450  28.867  1.00  0.00     0.198 A 
ATOM     60  C   UNL A   1      38.055  28.654  31.069  1.00  0.00     0.198 A 
ATOM     61  F   UNL A   1      40.222  27.865  31.543  1.00  0.00    -0.203 F 
ATOM     62  F   UNL A   1      36.644  29.984  28.007  1.00  0.00    -0.200 F 
ATOM     63  C   UNL A   1      37.142  29.196  30.176  1.00  0.00     0.200 A 
ATOM     64  F   UNL A   1      37.684  28.387  32.328  1.00  0.00    -0.200 F 
ATOM     65  F   UNL A   1      35.893  29.470  30.578  1.00  0.00    -0.200 F 
ENDBRANCH  41  55
BRANCH  42  66
ATOM     66  C   UNL A   1      49.070  26.784  26.233  1.00  0.00     0.064 A 
ATOM     67  C   UNL A   1      49.439  26.960  24.891  1.00  0.00     0.173 A 
ATOM     68  C   UNL A   1      50.042  26.303  27.120  1.00  0.00     0.173 A 
ATOM     69  F   UNL A   1      48.542  27.413  24.002  1.00  0.00    -0.203 F 
ATOM     70  C   UNL A   1      50.723  26.645  24.451  1.00  0.00     0.198 A 
ATOM     71  C   UNL A   1      51.332  26.010  26.684  1.00  0.00     0.198 A 
ATOM     72  F   UNL A   1      49.741  26.138  28.417  1.00  0.00    -0.203 F 
ATOM     73  F   UNL A   1      51.040  26.790  23.157  1.00  0.00    -0.200 F 
ATOM     74  C   UNL A   1      51.669  26.173  25.348  1.00  0.00     0.200 A 
ATOM     75  F   UNL A   1      52.249  25.573  27.558  1.00  0.00    -0.200 F 
ATOM     76  F   UNL A   1      52.906  25.876  24.927  1.00  0.00    -0.200 F 
ENDBRANCH  42  66
BRANCH  54  77
ATOM     77  C   UNL A   1      45.777  32.478  28.569  1.00  0.00     0.064 A 
ATOM     78  C   UNL A   1      45.647  33.413  27.532  1.00  0.00     0.173 A 
ATOM     79  C   UNL A   1      46.406  32.888  29.752  1.00  0.00     0.173 A 
ATOM     80  F   UNL A   1      45.058  33.065  26.377  1.00  0.00    -0.203 F 
ATOM     81  C   UNL A   1      46.151  34.703  27.665  1.00  0.00     0.198 A 
ATOM     82  C   UNL A   1      46.889  34.187  29.891  1.00  0.00     0.198 A 
ATOM     83  F   UNL A   1      46.540  32.032  30.777  1.00  0.00    -0.203 F 
ATOM     84  F   UNL A   1      46.050  35.569  26.647  1.00  0.00    -0.200 F 
ATOM     85  C   UNL A   1      46.772  35.089  28.844  1.00  0.00     0.200 A 
ATOM     86  F   UNL A   1      47.471  34.564  31.038  1.00  0.00    -0.200 F 
ATOM     87  F   UNL A   1      47.257  36.331  28.970  1.00  0.00    -0.200 F 
ENDBRANCH  54  77
ENDBRANCH  28  29
ENDBRANCH  20  23
ENDBRANCH  18  19
ENDBRANCH  17  18
ENDBRANCH   1  17
TORSDOF 13
ENDMDL
MODEL 2
REMARK VINA RESULT:     -11.9      6.697     11.828
REMARK SMILES COCc1cc(C(=O)NCCCCNC(=O)c2ccc(-c3c4nc(c(-c5c(F)c(F)c(F)c(F)c5F)c5ccc([nH]5)c(-c5c(F)c(F)c(F)c(F)c5F)c5nc(c(-c6c(F)c(F)c(F)c(F)c6F)c6ccc3[nH]6)C=C5)C=C4)cc2)ccc1F
REMARK SMILES IDX 11 1 10 2 9 3 7 4 8 5 6 7 4 8 5 9 82 10 81 11 83 12 80 13
REMARK SMILES IDX 3 14 2 15 1 16 12 17 13 18 14 19 15 20 16 22 17 23 18 24
REMARK SMILES IDX 79 25 19 26 78 27 20 28 21 29 22 30 72 31 23 32 77 33 71 34
REMARK SMILES IDX 73 35 24 36 76 37 70 38 69 39 25 41 57 42 37 43 56 44 38 45
REMARK SMILES IDX 41 46 55 47 74 48 39 49 40 50 54 52 75 53 42 54 26 55 27 56
REMARK SMILES IDX 35 57 28 58 29 59 33 60 36 61 30 62 31 63 34 64 32 65 58 66
REMARK SMILES IDX 59 67 67 68 60 69 61 70 65 71 68 72 62 73 63 74 66 75 64 76
REMARK SMILES IDX 43 77 44 78 52 79 45 80 46 81 50 82 53 83 47 84 48 85 51 86
REMARK SMILES IDX 49 87
REMARK H PARENT 9 6 14 21 73 40 41 51
REMARK Flexibility Score: inf
ROOT
ATOM      1  C   UNL A   1      31.814  30.272  26.870  1.00  0.00     0.023 C 
ENDROOT
BRANCH   1   2
ATOM      2  C   UNL A   1      33.203  29.643  26.750  1.00  0.00     0.116 C 
BRANCH   2   3
ATOM      3  N   UNL A   1      33.628  29.608  25.369  1.00  0.00    -0.352 N 
ATOM      4  C   UNL A   1      33.063  29.080  24.239  1.00  0.00     0.251 C 
ATOM      5  O   UNL A   1      33.678  29.244  23.183  1.00  0.00    -0.269 OA
ATOM      6  H   UNL A   1      34.493  30.051  25.208  1.00  0.00     0.163 HD
BRANCH   4   7
ATOM      7  C   UNL A   1      31.759  28.356  24.206  1.00  0.00     0.040 A 
ATOM      8  C   UNL A   1      29.483  28.364  23.277  1.00  0.00     0.014 A 
ATOM      9  C   UNL A   1      30.730  28.979  23.475  1.00  0.00     0.023 A 
ATOM     10  C   UNL A   1      29.250  27.134  23.886  1.00  0.00     0.128 A 
ATOM     11  C   UNL A   1      30.244  26.504  24.628  1.00  0.00     0.040 A 
ATOM     12  F   UNL A   1      28.061  26.528  23.758  1.00  0.00    -0.207 F 
ATOM     13  C   UNL A   1      31.505  27.097  24.758  1.00  0.00     0.017 A 
BRANCH   8  14
ATOM     14  C   UNL A   1      28.457  28.992  22.376  1.00  0.00     0.198 C 
BRANCH  14  15
ATOM     15  O   UNL A   1      29.004  30.061  21.599  1.00  0.00    -0.380 OA
ATOM     16  C   UNL A   1      28.030  30.831  20.905  1.00  0.00     0.195 C 
ENDBRANCH  14  15
ENDBRANCH   8  14
ENDBRANCH   4   7
ENDBRANCH   2   3
ENDBRANCH   1   2
BRANCH   1  17
ATOM     17  C   UNL A   1      31.782  31.786  26.630  1.00  0.00     0.023 C 
BRANCH  17  18
ATOM     18  C   UNL A   1      32.874  32.583  27.338  1.00  0.00     0.116 C 
BRANCH  18  19
ATOM     19  N   UNL A   1      32.491  33.956  27.626  1.00  0.00    -0.352 N 
ATOM     20  C   UNL A   1      33.032  34.830  28.540  1.00  0.00     0.251 C 
ATOM     21  H   UNL A   1      31.742  34.309  27.093  1.00  0.00     0.163 HD
ATOM     22  O   UNL A   1      32.528  35.926  28.724  1.00  0.00    -0.269 OA
BRANCH  20  23
ATOM     23  C   UNL A   1      34.203  34.406  29.333  1.00  0.00     0.039 A 
ATOM     24  C   UNL A   1      33.987  33.850  30.596  1.00  0.00     0.014 A 
ATOM     25  C   UNL A   1      35.497  34.522  28.820  1.00  0.00     0.014 A 
ATOM     26  C   UNL A   1      35.065  33.334  31.314  1.00  0.00     0.010 A 
ATOM     27  C   UNL A   1      36.564  33.958  29.512  1.00  0.00     0.010 A 
ATOM     28  C   UNL A   1      36.355  33.345  30.757  1.00  0.00    -0.014 A 
BRANCH  28  29
ATOM     29  C   UNL A   1      37.488  32.676  31.439  1.00  0.00     0.031 A 
ATOM     30  C   UNL A   1      38.173  31.505  30.800  1.00  0.00     0.074 A 
ATOM     31  C   UNL A   1      37.847  33.085  32.671  1.00  0.00     0.049 A 
ATOM     32  N   UNL A   1      39.124  30.745  31.278  1.00  0.00    -0.248 NA
ATOM     33  C   UNL A   1      37.715  31.123  29.455  1.00  0.00     0.031 C 
ATOM     34  C   UNL A   1      37.227  34.187  33.408  1.00  0.00     0.029 A 
ATOM     35  N   UNL A   1      38.814  32.617  33.525  1.00  0.00    -0.354 N 
ATOM     36  C   UNL A   1      39.373  29.792  30.300  1.00  0.00     0.074 A 
ATOM     37  C   UNL A   1      38.444  30.041  29.220  1.00  0.00     0.031 C 
ATOM     38  C   UNL A   1      37.841  34.324  34.593  1.00  0.00     0.029 A 
ATOM     39  C   UNL A   1      38.872  33.297  34.716  1.00  0.00     0.049 A 
ATOM     40  H   UNL A   1      39.410  31.865  33.305  1.00  0.00     0.167 HD
ATOM     41  C   UNL A   1      40.309  28.815  30.299  1.00  0.00     0.037 A 
ATOM     42  C   UNL A   1      39.661  33.110  35.791  1.00  0.00     0.037 A 
ATOM     43  C   UNL A   1      41.249  28.593  31.365  1.00  0.00     0.049 A 
ATOM     44  C   UNL A   1      40.676  32.001  35.774  1.00  0.00     0.074 A 
ATOM     45  C   UNL A   1      42.283  27.675  31.423  1.00  0.00     0.029 A 
ATOM     46  N   UNL A   1      41.268  29.295  32.562  1.00  0.00    -0.354 N 
ATOM     47  N   UNL A   1      40.941  31.143  34.819  1.00  0.00    -0.248 NA
ATOM     48  C   UNL A   1      41.495  31.829  36.982  1.00  0.00     0.031 C 
ATOM     49  C   UNL A   1      42.901  27.791  32.670  1.00  0.00     0.029 A 
ATOM     50  C   UNL A   1      42.279  28.809  33.375  1.00  0.00     0.049 A 
ATOM     51  H   UNL A   1      40.655  30.027  32.798  1.00  0.00     0.167 HD
ATOM     52  C   UNL A   1      41.963  30.340  35.303  1.00  0.00     0.074 A 
ATOM     53  C   UNL A   1      42.282  30.819  36.632  1.00  0.00     0.031 C 
ATOM     54  C   UNL A   1      42.580  29.296  34.697  1.00  0.00     0.037 A 
BRANCH  41  55
ATOM     55  C   UNL A   1      40.380  27.916  29.103  1.00  0.00     0.064 A 
ATOM     56  C   UNL A   1      41.138  28.279  27.981  1.00  0.00     0.173 A 
ATOM     57  C   UNL A   1      39.636  26.728  29.038  1.00  0.00     0.173 A 
ATOM     58  F   UNL A   1      41.863  29.409  27.991  1.00  0.00    -0.203 F 
ATOM     59  C   UNL A   1      41.141  27.492  26.833  1.00  0.00     0.198 A 
ATOM     60  C   UNL A   1      39.660  25.930  27.897  1.00  0.00     0.198 A 
ATOM     61  F   UNL A   1      38.903  26.332  30.089  1.00  0.00    -0.203 F 
ATOM     62  F   UNL A   1      41.852  27.873  25.762  1.00  0.00    -0.200 F 
ATOM     63  C   UNL A   1      40.405  26.317  26.793  1.00  0.00     0.200 A 
ATOM     64  F   UNL A   1      38.966  24.784  27.869  1.00  0.00    -0.200 F 
ATOM     65  F   UNL A   1      40.416  25.555  25.690  1.00  0.00    -0.200 F 
ENDBRANCH  41  55
BRANCH  42  66
ATOM     66  C   UNL A   1      39.531  34.014  36.962  1.00  0.00     0.064 A 
ATOM     67  C   UNL A   1      40.215  35.237  37.022  1.00  0.00     0.173 A 
ATOM     68  C   UNL A   1      38.746  33.649  38.063  1.00  0.00     0.173 A 
ATOM     69  F   UNL A   1      40.984  35.627  35.994  1.00  0.00    -0.203 F 
ATOM     70  C   UNL A   1      40.134  36.051  38.150  1.00  0.00     0.198 A 
ATOM     71  C   UNL A   1      38.647  34.475  39.181  1.00  0.00     0.198 A 
ATOM     72  F   UNL A   1      38.058  32.498  38.043  1.00  0.00    -0.203 F 
ATOM     73  F   UNL A   1      40.824  37.199  38.195  1.00  0.00    -0.200 F 
ATOM     74  C   UNL A   1      39.348  35.671  39.227  1.00  0.00     0.200 A 
ATOM     75  F   UNL A   1      37.871  34.113  40.212  1.00  0.00    -0.200 F 
ATOM     76  F   UNL A   1      39.264  36.457  40.308  1.00  0.00    -0.200 F 
ENDBRANCH  42  66
BRANCH  54  77
ATOM     77  C   UNL A   1      43.664  28.594  35.457  1.00  0.00     0.064 A 
ATOM     78  C   UNL A   1      43.349  27.587  36.382  1.00  0.00     0.173 A 
ATOM     79  C   UNL A   1      45.005  28.985  35.339  1.00  0.00     0.173 A 
ATOM     80  F   UNL A   1      42.078  27.184  36.535  1.00  0.00    -0.203 F 
ATOM     81  C   UNL A   1      44.336  27.013  37.178  1.00  0.00     0.198 A 
ATOM     82  C   UNL A   1      45.993  28.392  36.120  1.00  0.00     0.198 A 
ATOM     83  F   UNL A   1      45.355  29.934  34.457  1.00  0.00    -0.203 F 
ATOM     84  F   UNL A   1      44.007  26.081  38.082  1.00  0.00    -0.200 F 
ATOM     85  C   UNL A   1      45.657  27.416  37.046  1.00  0.00     0.200 A 
ATOM     86  F   UNL A   1      47.271  28.769  35.978  1.00  0.00    -0.200 F 
ATOM     87  F   UNL A   1      46.605  26.863  37.813  1.00  0.00    -0.200 F 
ENDBRANCH  54  77
ENDBRANCH  28  29
ENDBRANCH  20  23
ENDBRANCH  18  19
ENDBRANCH  17  18
ENDBRANCH   1  17
TORSDOF 13
ENDMDL
MODEL 3
REMARK VINA RESULT:     -11.7      6.388     11.612
REMARK SMILES COCc1cc(C(=O)NCCCCNC(=O)c2ccc(-c3c4nc(c(-c5c(F)c(F)c(F)c(F)c5F)c5ccc([nH]5)c(-c5c(F)c(F)c(F)c(F)c5F)c5nc(c(-c6c(F)c(F)c(F)c(F)c6F)c6ccc3[nH]6)C=C5)C=C4)cc2)ccc1F
REMARK SMILES IDX 11 1 10 2 9 3 7 4 8 5 6 7 4 8 5 9 82 10 81 11 83 12 80 13
REMARK SMILES IDX 3 14 2 15 1 16 12 17 13 18 14 19 15 20 16 22 17 23 18 24
REMARK SMILES IDX 79 25 19 26 78 27 20 28 21 29 22 30 72 31 23 32 77 33 71 34
REMARK SMILES IDX 73 35 24 36 76 37 70 38 69 39 25 41 57 42 37 43 56 44 38 45
REMARK SMILES IDX 41 46 55 47 74 48 39 49 40 50 54 52 75 53 42 54 26 55 27 56
REMARK SMILES IDX 35 57 28 58 29 59 33 60 36 61 30 62 31 63 34 64 32 65 58 66
REMARK SMILES IDX 59 67 67 68 60 69 61 70 65 71 68 72 62 73 63 74 66 75 64 76
REMARK SMILES IDX 43 77 44 78 52 79 45 80 46 81 50 82 53 83 47 84 48 85 51 86
REMARK SMILES IDX 49 87
REMARK H PARENT 9 6 14 21 73 40 41 51
REMARK Flexibility Score: inf
ROOT
ATOM      1  C   UNL A   1      31.799  30.404  26.797  1.00  0.00     0.023 C 
ENDROOT
BRANCH   1   2
ATOM      2  C   UNL A   1      32.066  29.650  25.493  1.00  0.00     0.116 C 
BRANCH   2   3
ATOM      3  N   UNL A   1      31.134  30.064  24.467  1.00  0.00    -0.352 N 
ATOM      4  C   UNL A   1      30.389  29.364  23.557  1.00  0.00     0.251 C 
ATOM      5  O   UNL A   1      29.653  30.023  22.819  1.00  0.00    -0.269 OA
ATOM      6  H   UNL A   1      31.012  31.039  24.412  1.00  0.00     0.163 HD
BRANCH   4   7
ATOM      7  C   UNL A   1      30.390  27.877  23.427  1.00  0.00     0.040 A 
ATOM      8  C   UNL A   1      31.470  25.960  22.331  1.00  0.00     0.014 A 
ATOM      9  C   UNL A   1      31.292  27.345  22.487  1.00  0.00     0.023 A 
ATOM     10  C   UNL A   1      30.673  25.104  23.085  1.00  0.00     0.128 A 
ATOM     11  C   UNL A   1      29.761  25.604  24.009  1.00  0.00     0.040 A 
ATOM     12  F   UNL A   1      30.781  23.776  22.941  1.00  0.00    -0.207 F 
ATOM     13  C   UNL A   1      29.645  26.985  24.204  1.00  0.00     0.017 A 
BRANCH   8  14
ATOM     14  C   UNL A   1      32.541  25.427  21.420  1.00  0.00     0.198 C 
BRANCH  14  15
ATOM     15  O   UNL A   1      33.855  25.702  21.913  1.00  0.00    -0.380 OA
ATOM     16  C   UNL A   1      34.191  24.986  23.095  1.00  0.00     0.195 C 
ENDBRANCH  14  15
ENDBRANCH   8  14
ENDBRANCH   4   7
ENDBRANCH   2   3
ENDBRANCH   1   2
BRANCH   1  17
ATOM     17  C   UNL A   1      31.707  31.927  26.640  1.00  0.00     0.023 C 
BRANCH  17  18
ATOM     18  C   UNL A   1      32.815  32.722  27.324  1.00  0.00     0.116 C 
BRANCH  18  19
ATOM     19  N   UNL A   1      32.423  34.080  27.667  1.00  0.00    -0.352 N 
ATOM     20  C   UNL A   1      32.975  34.929  28.597  1.00  0.00     0.251 C 
ATOM     21  H   UNL A   1      31.656  34.440  27.165  1.00  0.00     0.163 HD
ATOM     22  O   UNL A   1      32.463  36.012  28.830  1.00  0.00    -0.269 OA
BRANCH  20  23
ATOM     23  C   UNL A   1      34.171  34.494  29.347  1.00  0.00     0.039 A 
ATOM     24  C   UNL A   1      33.993  33.912  30.604  1.00  0.00     0.014 A 
ATOM     25  C   UNL A   1      35.449  34.625  28.799  1.00  0.00     0.014 A 
ATOM     26  C   UNL A   1      35.094  33.387  31.281  1.00  0.00     0.010 A 
ATOM     27  C   UNL A   1      36.537  34.051  29.448  1.00  0.00     0.010 A 
ATOM     28  C   UNL A   1      36.366  33.414  30.687  1.00  0.00    -0.014 A 
BRANCH  28  29
ATOM     29  C   UNL A   1      37.521  32.735  31.322  1.00  0.00     0.031 A 
ATOM     30  C   UNL A   1      38.204  31.594  30.630  1.00  0.00     0.074 A 
ATOM     31  C   UNL A   1      37.903  33.108  32.558  1.00  0.00     0.049 A 
ATOM     32  N   UNL A   1      39.173  30.830  31.062  1.00  0.00    -0.248 NA
ATOM     33  C   UNL A   1      37.721  31.251  29.283  1.00  0.00     0.031 C 
ATOM     34  C   UNL A   1      37.287  34.178  33.344  1.00  0.00     0.029 A 
ATOM     35  N   UNL A   1      38.893  32.623  33.375  1.00  0.00    -0.354 N 
ATOM     36  C   UNL A   1      39.411  29.912  30.049  1.00  0.00     0.074 A 
ATOM     37  C   UNL A   1      38.457  30.185  28.997  1.00  0.00     0.031 C 
ATOM     38  C   UNL A   1      37.925  34.284  34.519  1.00  0.00     0.029 A 
ATOM     39  C   UNL A   1      38.969  33.265  34.587  1.00  0.00     0.049 A 
ATOM     40  H   UNL A   1      39.492  31.885  33.118  1.00  0.00     0.167 HD
ATOM     41  C   UNL A   1      40.357  28.946  29.996  1.00  0.00     0.037 A 
ATOM     42  C   UNL A   1      39.783  33.051  35.638  1.00  0.00     0.037 A 
ATOM     43  C   UNL A   1      41.323  28.700  31.033  1.00  0.00     0.049 A 
ATOM     44  C   UNL A   1      40.809  31.955  35.563  1.00  0.00     0.074 A 
ATOM     45  C   UNL A   1      42.367  27.792  31.039  1.00  0.00     0.029 A 
ATOM     46  N   UNL A   1      41.361  29.362  32.251  1.00  0.00    -0.354 N 
ATOM     47  N   UNL A   1      41.063  31.132  34.575  1.00  0.00    -0.248 NA
ATOM     48  C   UNL A   1      41.656  31.753  36.747  1.00  0.00     0.031 C 
ATOM     49  C   UNL A   1      43.011  27.875  32.276  1.00  0.00     0.029 A 
ATOM     50  C   UNL A   1      42.394  28.862  33.026  1.00  0.00     0.049 A 
ATOM     51  H   UNL A   1      40.744  30.080  32.524  1.00  0.00     0.167 HD
ATOM     52  C   UNL A   1      42.104  30.325  35.010  1.00  0.00     0.074 A 
ATOM     53  C   UNL A   1      42.445  30.765  36.347  1.00  0.00     0.031 C 
ATOM     54  C   UNL A   1      42.718  29.309  34.357  1.00  0.00     0.037 A 
BRANCH  41  55
ATOM     55  C   UNL A   1      40.412  28.087  28.769  1.00  0.00     0.064 A 
ATOM     56  C   UNL A   1      39.744  26.854  28.730  1.00  0.00     0.173 A 
ATOM     57  C   UNL A   1      41.186  28.451  27.657  1.00  0.00     0.173 A 
ATOM     58  F   UNL A   1      38.994  26.459  29.771  1.00  0.00    -0.203 F 
ATOM     59  C   UNL A   1      39.859  26.012  27.629  1.00  0.00     0.198 A 
ATOM     60  C   UNL A   1      41.280  27.616  26.546  1.00  0.00     0.198 A 
ATOM     61  F   UNL A   1      41.836  29.624  27.642  1.00  0.00    -0.203 F 
ATOM     62  F   UNL A   1      39.234  24.826  27.625  1.00  0.00    -0.200 F 
ATOM     63  C   UNL A   1      40.623  26.395  26.536  1.00  0.00     0.200 A 
ATOM     64  F   UNL A   1      42.001  27.998  25.483  1.00  0.00    -0.200 F 
ATOM     65  F   UNL A   1      40.726  25.586  25.472  1.00  0.00    -0.200 F 
ENDBRANCH  41  55
BRANCH  42  66
ATOM     66  C   UNL A   1      39.669  33.915  36.840  1.00  0.00     0.064 A 
ATOM     67  C   UNL A   1      38.881  33.541  37.939  1.00  0.00     0.173 A 
ATOM     68  C   UNL A   1      40.320  35.154  36.895  1.00  0.00     0.173 A 
ATOM     69  F   UNL A   1      38.233  32.367  37.932  1.00  0.00    -0.203 F 
ATOM     70  C   UNL A   1      38.733  34.385  39.038  1.00  0.00     0.198 A 
ATOM     71  C   UNL A   1      40.190  35.987  38.004  1.00  0.00     0.198 A 
ATOM     72  F   UNL A   1      41.100  35.545  35.876  1.00  0.00    -0.203 F 
ATOM     73  F   UNL A   1      37.947  34.019  40.060  1.00  0.00    -0.200 F 
ATOM     74  C   UNL A   1      39.390  35.606  39.071  1.00  0.00     0.200 A 
ATOM     75  F   UNL A   1      40.842  37.158  38.040  1.00  0.00    -0.200 F 
ATOM     76  F   UNL A   1      39.253  36.415  40.130  1.00  0.00    -0.200 F 
ENDBRANCH  42  66
BRANCH  54  77
ATOM     77  C   UNL A   1      43.826  28.594  35.070  1.00  0.00     0.064 A 
ATOM     78  C   UNL A   1      43.544  27.533  35.944  1.00  0.00     0.173 A 
ATOM     79  C   UNL A   1      45.155  29.024  34.962  1.00  0.00     0.173 A 
ATOM     80  F   UNL A   1      42.284  27.092  36.086  1.00  0.00    -0.203 F 
ATOM     81  C   UNL A   1      44.551  26.943  36.700  1.00  0.00     0.198 A 
ATOM     82  C   UNL A   1      46.165  28.415  35.702  1.00  0.00     0.198 A 
ATOM     83  F   UNL A   1      45.475  30.025  34.128  1.00  0.00    -0.203 F 
ATOM     84  F   UNL A   1      44.253  25.957  37.557  1.00  0.00    -0.200 F 
ATOM     85  C   UNL A   1      45.861  27.384  36.579  1.00  0.00     0.200 A 
ATOM     86  F   UNL A   1      47.432  28.829  35.570  1.00  0.00    -0.200 F 
ATOM     87  F   UNL A   1      46.829  26.815  37.308  1.00  0.00    -0.200 F 
ENDBRANCH  54  77
ENDBRANCH  28  29
ENDBRANCH  20  23
ENDBRANCH  18  19
ENDBRANCH  17  18
ENDBRANCH   1  17
TORSDOF 13
ENDMDL
