MODEL 1
REMARK VINA RESULT:     -10.4      0.000      0.000
REMARK SMILES CC1CC[NH+]([C@H](c2ccc(F)cc2)c2ccc([C@@H](C)C(=O)NCCCCNC(=O)c3ccc(-c4c5nc(c(-c6c(F)c(F)c(F)c(F)c6F)c6ccc([nH]6)c(-c6c(F)c(F)c(F)c(F)c6F)c6nc(c(-c7c(F)c(F)c(F)c(F)c7F)c7ccc4[nH]7)C=C6)C=C5)cc3)cc2-c2ccc(C(F)(F)F)cc2)CC1
REMARK SMILES IDX 24 1 23 2 22 3 20 4 21 5 18 7 19 8 17 9 14 10 15 11 94 12
REMARK SMILES IDX 16 13 93 14 6 15 5 16 1 17 2 18 3 19 106 20 4 21 105 22 7 24
REMARK SMILES IDX 8 25 13 26 9 27 12 28 10 29 11 30 95 31 96 32 104 33 97 34
REMARK SMILES IDX 103 35 98 36 99 37 100 38 101 39 102 40 25 41 26 42 27 43
REMARK SMILES IDX 28 44 29 46 30 47 31 48 92 49 32 50 91 51 33 52 34 53 35 54
REMARK SMILES IDX 85 55 36 56 90 57 84 58 86 59 37 60 89 61 83 62 82 63 38 65
REMARK SMILES IDX 70 66 50 67 69 68 51 69 54 70 68 71 87 72 52 73 53 74 67 76
REMARK SMILES IDX 88 77 55 78 39 79 40 80 48 81 41 82 42 83 46 84 49 85 43 86
REMARK SMILES IDX 44 87 47 88 45 89 71 90 72 91 80 92 73 93 74 94 78 95 81 96
REMARK SMILES IDX 75 97 76 98 79 99 77 100 56 101 57 102 65 103 58 104 59 105
REMARK SMILES IDX 63 106 66 107 60 108 61 109 64 110 62 111
REMARK H PARENT 22 6 5 23 27 45 86 64 54 75
REMARK Flexibility Score: inf
ROOT
ATOM      1  C   UNL A   1      39.655  33.482  41.507  1.00  0.00     0.023 C 
ENDROOT
BRANCH   1   2
ATOM      2  C   UNL A   1      39.333  32.028  41.145  1.00  0.00     0.116 C 
BRANCH   2   3
ATOM      3  N   UNL A   1      38.026  31.891  40.533  1.00  0.00    -0.356 N 
ATOM      4  C   UNL A   1      37.520  32.291  39.333  1.00  0.00     0.227 C 
ATOM      5  O   UNL A   1      36.317  32.057  39.154  1.00  0.00    -0.274 OA
ATOM      6  H   UNL A   1      37.374  31.416  41.097  1.00  0.00     0.163 HD
BRANCH   4   7
ATOM      7  C   UNL A   1      38.333  32.986  38.220  1.00  0.00     0.105 C 
ATOM      8  C   UNL A   1      38.414  34.504  38.366  1.00  0.00     0.023 C 
BRANCH   7   9
ATOM      9  C   UNL A   1      37.994  32.484  36.829  1.00  0.00    -0.035 A 
ATOM     10  C   UNL A   1      37.745  31.761  34.064  1.00  0.00     0.022 A 
ATOM     11  C   UNL A   1      38.388  30.946  35.009  1.00  0.00     0.011 A 
ATOM     12  C   UNL A   1      37.043  32.886  34.582  1.00  0.00    -0.009 A 
ATOM     13  C   UNL A   1      38.427  31.253  36.368  1.00  0.00     0.005 A 
ATOM     14  C   UNL A   1      37.257  33.268  35.932  1.00  0.00     0.013 A 
BRANCH  10  15
ATOM     15  C   UNL A   1      37.755  31.392  32.549  1.00  0.00     0.247 C 
BRANCH  15  16
ATOM     16  N   UNL A   1      38.466  30.135  32.132  1.00  0.00    -0.325 N 
ATOM     17  C   UNL A   1      39.600  26.844  29.437  1.00  0.00     0.008 C 
ATOM     18  C   UNL A   1      39.018  28.088  30.104  1.00  0.00    -0.003 C 
ATOM     19  C   UNL A   1      40.103  29.105  30.456  1.00  0.00     0.065 C 
ATOM     20  C   UNL A   1      38.303  27.727  31.398  1.00  0.00     0.065 C 
ATOM     21  C   UNL A   1      39.550  30.350  31.168  1.00  0.00     0.263 C 
ATOM     22  C   UNL A   1      37.611  28.960  31.972  1.00  0.00     0.263 C 
ATOM     23  H   UNL A   1      38.997  29.838  32.950  1.00  0.00     0.348 HD
ENDBRANCH  15  16
BRANCH  15  24
ATOM     24  C   UNL A   1      38.182  32.558  31.629  1.00  0.00     0.014 A 
ATOM     25  C   UNL A   1      39.300  33.366  31.916  1.00  0.00     0.013 A 
ATOM     26  C   UNL A   1      37.439  32.834  30.465  1.00  0.00     0.013 A 
ATOM     27  C   UNL A   1      39.667  34.409  31.064  1.00  0.00     0.040 A 
ATOM     28  C   UNL A   1      37.790  33.897  29.631  1.00  0.00     0.040 A 
ATOM     29  C   UNL A   1      38.903  34.669  29.935  1.00  0.00     0.123 A 
ATOM     30  F   UNL A   1      39.246  35.681  29.126  1.00  0.00    -0.207 F 
ENDBRANCH  15  24
ENDBRANCH  10  15
BRANCH  12  31
ATOM     31  C   UNL A   1      36.028  33.639  33.818  1.00  0.00    -0.018 A 
ATOM     32  C   UNL A   1      36.255  34.951  33.378  1.00  0.00     0.009 A 
ATOM     33  C   UNL A   1      34.769  33.069  33.571  1.00  0.00     0.009 A 
ATOM     34  C   UNL A   1      35.266  35.658  32.685  1.00  0.00     0.014 A 
ATOM     35  C   UNL A   1      33.780  33.767  32.872  1.00  0.00     0.014 A 
ATOM     36  C   UNL A   1      34.022  35.068  32.415  1.00  0.00     0.056 A 
BRANCH  36  37
ATOM     37  C   UNL A   1      32.959  35.839  31.672  1.00  0.00     0.416 C 
ATOM     38  F   UNL A   1      31.774  35.869  32.341  1.00  0.00    -0.166 F 
ATOM     39  F   UNL A   1      33.302  37.140  31.457  1.00  0.00    -0.166 F 
ATOM     40  F   UNL A   1      32.678  35.323  30.441  1.00  0.00    -0.166 F 
ENDBRANCH  36  37
ENDBRANCH  12  31
ENDBRANCH   7   9
ENDBRANCH   4   7
ENDBRANCH   2   3
ENDBRANCH   1   2
BRANCH   1  41
ATOM     41  C   UNL A   1      41.118  33.891  41.383  1.00  0.00     0.023 C 
BRANCH  41  42
ATOM     42  C   UNL A   1      41.522  34.445  40.023  1.00  0.00     0.116 C 
BRANCH  42  43
ATOM     43  N   UNL A   1      41.478  35.897  39.930  1.00  0.00    -0.352 N 
ATOM     44  C   UNL A   1      41.689  36.688  38.823  1.00  0.00     0.251 C 
ATOM     45  H   UNL A   1      41.271  36.375  40.766  1.00  0.00     0.163 HD
ATOM     46  O   UNL A   1      41.685  37.907  38.919  1.00  0.00    -0.269 OA
BRANCH  44  47
ATOM     47  C   UNL A   1      41.980  36.045  37.521  1.00  0.00     0.039 A 
ATOM     48  C   UNL A   1      43.301  35.709  37.221  1.00  0.00     0.014 A 
ATOM     49  C   UNL A   1      40.951  35.717  36.634  1.00  0.00     0.014 A 
ATOM     50  C   UNL A   1      43.578  34.964  36.074  1.00  0.00     0.010 A 
ATOM     51  C   UNL A   1      41.218  34.907  35.535  1.00  0.00     0.010 A 
ATOM     52  C   UNL A   1      42.533  34.513  35.249  1.00  0.00    -0.014 A 
BRANCH  52  53
ATOM     53  C   UNL A   1      42.799  33.608  34.103  1.00  0.00     0.031 A 
ATOM     54  C   UNL A   1      43.018  34.168  32.726  1.00  0.00     0.074 A 
ATOM     55  C   UNL A   1      42.782  32.273  34.297  1.00  0.00     0.049 A 
ATOM     56  N   UNL A   1      43.219  33.532  31.600  1.00  0.00    -0.248 NA
ATOM     57  C   UNL A   1      42.980  35.633  32.588  1.00  0.00     0.031 C 
ATOM     58  C   UNL A   1      42.513  31.607  35.573  1.00  0.00     0.029 A 
ATOM     59  N   UNL A   1      42.989  31.236  33.422  1.00  0.00    -0.354 N 
ATOM     60  C   UNL A   1      43.323  34.514  30.625  1.00  0.00     0.074 A 
ATOM     61  C   UNL A   1      43.111  35.787  31.278  1.00  0.00     0.031 C 
ATOM     62  C   UNL A   1      42.602  30.279  35.405  1.00  0.00     0.029 A 
ATOM     63  C   UNL A   1      42.902  29.995  34.004  1.00  0.00     0.049 A 
ATOM     64  H   UNL A   1      43.182  31.369  32.465  1.00  0.00     0.167 HD
ATOM     65  C   UNL A   1      43.600  34.366  29.309  1.00  0.00     0.037 A 
ATOM     66  C   UNL A   1      43.047  28.767  33.471  1.00  0.00     0.037 A 
ATOM     67  C   UNL A   1      43.854  33.103  28.671  1.00  0.00     0.049 A 
ATOM     68  C   UNL A   1      43.375  28.637  32.009  1.00  0.00     0.074 A 
ATOM     69  C   UNL A   1      44.216  32.862  27.357  1.00  0.00     0.029 A 
ATOM     70  N   UNL A   1      43.778  31.869  29.299  1.00  0.00    -0.354 N 
ATOM     71  N   UNL A   1      43.543  29.579  31.114  1.00  0.00    -0.248 NA
ATOM     72  C   UNL A   1      43.542  27.273  31.482  1.00  0.00     0.031 C 
ATOM     73  C   UNL A   1      44.321  31.480  27.180  1.00  0.00     0.029 A 
ATOM     74  C   UNL A   1      44.068  30.863  28.393  1.00  0.00     0.049 A 
ATOM     75  H   UNL A   1      43.551  31.731  30.247  1.00  0.00     0.167 HD
ATOM     76  C   UNL A   1      43.849  28.927  29.927  1.00  0.00     0.074 A 
ATOM     77  C   UNL A   1      43.868  27.509  30.219  1.00  0.00     0.031 C 
ATOM     78  C   UNL A   1      44.086  29.457  28.702  1.00  0.00     0.037 A 
BRANCH  65  79
ATOM     79  C   UNL A   1      43.683  35.600  28.462  1.00  0.00     0.064 A 
ATOM     80  C   UNL A   1      44.879  36.329  28.378  1.00  0.00     0.173 A 
ATOM     81  C   UNL A   1      42.550  36.119  27.820  1.00  0.00     0.173 A 
ATOM     82  F   UNL A   1      45.990  35.876  28.980  1.00  0.00    -0.203 F 
ATOM     83  C   UNL A   1      44.931  37.544  27.701  1.00  0.00     0.198 A 
ATOM     84  C   UNL A   1      42.611  37.322  27.122  1.00  0.00     0.198 A 
ATOM     85  F   UNL A   1      41.386  35.453  27.860  1.00  0.00    -0.203 F 
ATOM     86  F   UNL A   1      46.074  38.242  27.667  1.00  0.00    -0.200 F 
ATOM     87  C   UNL A   1      43.797  38.040  27.075  1.00  0.00     0.200 A 
ATOM     88  F   UNL A   1      41.520  37.791  26.500  1.00  0.00    -0.200 F 
ATOM     89  F   UNL A   1      43.847  39.212  26.425  1.00  0.00    -0.200 F 
ENDBRANCH  65  79
BRANCH  66  90
ATOM     90  C   UNL A   1      42.911  27.562  34.332  1.00  0.00     0.064 A 
ATOM     91  C   UNL A   1      44.015  27.012  34.999  1.00  0.00     0.173 A 
ATOM     92  C   UNL A   1      41.668  26.937  34.502  1.00  0.00     0.173 A 
ATOM     93  F   UNL A   1      45.227  27.569  34.864  1.00  0.00    -0.203 F 
ATOM     94  C   UNL A   1      43.882  25.877  35.795  1.00  0.00     0.198 A 
ATOM     95  C   UNL A   1      41.530  25.818  35.322  1.00  0.00     0.198 A 
ATOM     96  F   UNL A   1      40.578  27.438  33.902  1.00  0.00    -0.203 F 
ATOM     97  F   UNL A   1      44.957  25.356  36.402  1.00  0.00    -0.200 F 
ATOM     98  C   UNL A   1      42.639  25.285  35.963  1.00  0.00     0.200 A 
ATOM     99  F   UNL A   1      40.323  25.267  35.502  1.00  0.00    -0.200 F 
ATOM    100  F   UNL A   1      42.508  24.206  36.747  1.00  0.00    -0.200 F 
ENDBRANCH  66  90
BRANCH  78 101
ATOM    101  C   UNL A   1      44.395  28.508  27.585  1.00  0.00     0.064 A 
ATOM    102  C   UNL A   1      43.368  28.009  26.768  1.00  0.00     0.173 A 
ATOM    103  C   UNL A   1      45.697  28.035  27.368  1.00  0.00     0.173 A 
ATOM    104  F   UNL A   1      42.105  28.424  26.943  1.00  0.00    -0.203 F 
ATOM    105  C   UNL A   1      43.632  27.061  25.784  1.00  0.00     0.198 A 
ATOM    106  C   UNL A   1      45.962  27.107  26.364  1.00  0.00     0.198 A 
ATOM    107  F   UNL A   1      46.714  28.490  28.115  1.00  0.00    -0.203 F 
ATOM    108  F   UNL A   1      42.631  26.574  25.039  1.00  0.00    -0.200 F 
ATOM    109  C   UNL A   1      44.929  26.614  25.581  1.00  0.00     0.200 A 
ATOM    110  F   UNL A   1      47.220  26.694  26.153  1.00  0.00    -0.200 F 
ATOM    111  F   UNL A   1      45.184  25.710  24.626  1.00  0.00    -0.200 F 
ENDBRANCH  78 101
ENDBRANCH  52  53
ENDBRANCH  44  47
ENDBRANCH  42  43
ENDBRANCH  41  42
ENDBRANCH   1  41
TORSDOF 17
ENDMDL
MODEL 2
REMARK VINA RESULT:     -10.2      0.510      6.737
REMARK SMILES CC1CC[NH+]([C@H](c2ccc(F)cc2)c2ccc([C@@H](C)C(=O)NCCCCNC(=O)c3ccc(-c4c5nc(c(-c6c(F)c(F)c(F)c(F)c6F)c6ccc([nH]6)c(-c6c(F)c(F)c(F)c(F)c6F)c6nc(c(-c7c(F)c(F)c(F)c(F)c7F)c7ccc4[nH]7)C=C6)C=C5)cc3)cc2-c2ccc(C(F)(F)F)cc2)CC1
REMARK SMILES IDX 24 1 23 2 22 3 20 4 21 5 18 7 19 8 17 9 14 10 15 11 94 12
REMARK SMILES IDX 16 13 93 14 6 15 5 16 1 17 2 18 3 19 106 20 4 21 105 22 7 24
REMARK SMILES IDX 8 25 13 26 9 27 12 28 10 29 11 30 95 31 96 32 104 33 97 34
REMARK SMILES IDX 103 35 98 36 99 37 100 38 101 39 102 40 25 41 26 42 27 43
REMARK SMILES IDX 28 44 29 46 30 47 31 48 92 49 32 50 91 51 33 52 34 53 35 54
REMARK SMILES IDX 85 55 36 56 90 57 84 58 86 59 37 60 89 61 83 62 82 63 38 65
REMARK SMILES IDX 70 66 50 67 69 68 51 69 54 70 68 71 87 72 52 73 53 74 67 76
REMARK SMILES IDX 88 77 55 78 39 79 40 80 48 81 41 82 42 83 46 84 49 85 43 86
REMARK SMILES IDX 44 87 47 88 45 89 71 90 72 91 80 92 73 93 74 94 78 95 81 96
REMARK SMILES IDX 75 97 76 98 79 99 77 100 56 101 57 102 65 103 58 104 59 105
REMARK SMILES IDX 63 106 66 107 60 108 61 109 64 110 62 111
REMARK H PARENT 22 6 5 23 27 45 86 64 54 75
REMARK Flexibility Score: inf
ROOT
ATOM      1  C   UNL A   1      40.094  32.528  40.928  1.00  0.00     0.023 C 
ENDROOT
BRANCH   1   2
ATOM      2  C   UNL A   1      38.612  32.569  41.319  1.00  0.00     0.116 C 
BRANCH   2   3
ATOM      3  N   UNL A   1      37.806  31.675  40.511  1.00  0.00    -0.356 N 
ATOM      4  C   UNL A   1      37.575  31.595  39.170  1.00  0.00     0.227 C 
ATOM      5  O   UNL A   1      36.767  30.725  38.818  1.00  0.00    -0.274 OA
ATOM      6  H   UNL A   1      37.332  30.990  41.034  1.00  0.00     0.163 HD
BRANCH   4   7
ATOM      7  C   UNL A   1      38.245  32.486  38.104  1.00  0.00     0.105 C 
ATOM      8  C   UNL A   1      38.102  33.984  38.368  1.00  0.00     0.023 C 
BRANCH   7   9
ATOM      9  C   UNL A   1      37.950  32.045  36.683  1.00  0.00    -0.035 A 
ATOM     10  C   UNL A   1      37.782  31.448  33.882  1.00  0.00     0.022 A 
ATOM     11  C   UNL A   1      38.411  30.598  34.806  1.00  0.00     0.011 A 
ATOM     12  C   UNL A   1      37.053  32.539  34.432  1.00  0.00    -0.009 A 
ATOM     13  C   UNL A   1      38.410  30.842  36.178  1.00  0.00     0.005 A 
ATOM     14  C   UNL A   1      37.227  32.862  35.804  1.00  0.00     0.013 A 
BRANCH  10  15
ATOM     15  C   UNL A   1      37.837  31.150  32.353  1.00  0.00     0.247 C 
BRANCH  15  16
ATOM     16  N   UNL A   1      38.597  29.937  31.895  1.00  0.00    -0.325 N 
ATOM     17  C   UNL A   1      39.951  26.853  29.061  1.00  0.00     0.008 C 
ATOM     18  C   UNL A   1      39.305  28.038  29.773  1.00  0.00    -0.003 C 
ATOM     19  C   UNL A   1      40.347  29.051  30.251  1.00  0.00     0.065 C 
ATOM     20  C   UNL A   1      38.528  27.580  30.999  1.00  0.00     0.065 C 
ATOM     21  C   UNL A   1      39.728  30.234  31.010  1.00  0.00     0.263 C 
ATOM     22  C   UNL A   1      37.779  28.759  31.612  1.00  0.00     0.263 C 
ATOM     23  H   UNL A   1      39.090  29.596  32.721  1.00  0.00     0.348 HD
ENDBRANCH  15  16
BRANCH  15  24
ATOM     24  C   UNL A   1      38.245  32.370  31.497  1.00  0.00     0.014 A 
ATOM     25  C   UNL A   1      39.299  33.228  31.872  1.00  0.00     0.013 A 
ATOM     26  C   UNL A   1      37.551  32.646  30.303  1.00  0.00     0.013 A 
ATOM     27  C   UNL A   1      39.649  34.320  31.075  1.00  0.00     0.040 A 
ATOM     28  C   UNL A   1      37.885  33.756  29.525  1.00  0.00     0.040 A 
ATOM     29  C   UNL A   1      38.934  34.577  29.915  1.00  0.00     0.123 A 
ATOM     30  F   UNL A   1      39.261  35.635  29.159  1.00  0.00    -0.207 F 
ENDBRANCH  15  24
ENDBRANCH  10  15
BRANCH  12  31
ATOM     31  C   UNL A   1      36.049  33.316  33.677  1.00  0.00    -0.018 A 
ATOM     32  C   UNL A   1      34.949  32.704  33.060  1.00  0.00     0.009 A 
ATOM     33  C   UNL A   1      36.217  34.700  33.504  1.00  0.00     0.009 A 
ATOM     34  C   UNL A   1      34.029  33.457  32.321  1.00  0.00     0.014 A 
ATOM     35  C   UNL A   1      35.298  35.457  32.774  1.00  0.00     0.014 A 
ATOM     36  C   UNL A   1      34.188  34.843  32.181  1.00  0.00     0.056 A 
BRANCH  36  37
ATOM     37  C   UNL A   1      33.194  35.646  31.378  1.00  0.00     0.416 C 
ATOM     38  F   UNL A   1      32.997  35.133  30.132  1.00  0.00    -0.166 F 
ATOM     39  F   UNL A   1      31.964  35.700  31.960  1.00  0.00    -0.166 F 
ATOM     40  F   UNL A   1      33.572  36.942  31.190  1.00  0.00    -0.166 F 
ENDBRANCH  36  37
ENDBRANCH  12  31
ENDBRANCH   7   9
ENDBRANCH   4   7
ENDBRANCH   2   3
ENDBRANCH   1   2
BRANCH   1  41
ATOM     41  C   UNL A   1      40.939  33.709  41.391  1.00  0.00     0.023 C 
BRANCH  41  42
ATOM     42  C   UNL A   1      41.533  34.556  40.274  1.00  0.00     0.116 C 
BRANCH  42  43
ATOM     43  N   UNL A   1      40.904  35.859  40.110  1.00  0.00    -0.352 N 
ATOM     44  C   UNL A   1      40.692  36.564  38.946  1.00  0.00     0.251 C 
ATOM     45  H   UNL A   1      40.589  36.291  40.937  1.00  0.00     0.163 HD
ATOM     46  O   UNL A   1      40.208  37.686  38.978  1.00  0.00    -0.269 OA
BRANCH  44  47
ATOM     47  C   UNL A   1      41.112  35.971  37.656  1.00  0.00     0.039 A 
ATOM     48  C   UNL A   1      42.472  35.758  37.429  1.00  0.00     0.014 A 
ATOM     49  C   UNL A   1      40.168  35.569  36.707  1.00  0.00     0.014 A 
ATOM     50  C   UNL A   1      42.879  35.060  36.291  1.00  0.00     0.010 A 
ATOM     51  C   UNL A   1      40.567  34.804  35.617  1.00  0.00     0.010 A 
ATOM     52  C   UNL A   1      41.926  34.533  35.402  1.00  0.00    -0.014 A 
BRANCH  52  53
ATOM     53  C   UNL A   1      42.336  33.673  34.263  1.00  0.00     0.031 A 
ATOM     54  C   UNL A   1      42.435  32.183  34.433  1.00  0.00     0.074 A 
ATOM     55  C   UNL A   1      42.678  34.246  33.091  1.00  0.00     0.049 A 
ATOM     56  N   UNL A   1      42.817  31.278  33.567  1.00  0.00    -0.248 NA
ATOM     57  C   UNL A   1      42.085  31.637  35.754  1.00  0.00     0.031 C 
ATOM     58  C   UNL A   1      42.689  35.686  32.825  1.00  0.00     0.029 A 
ATOM     59  N   UNL A   1      43.089  33.689  31.906  1.00  0.00    -0.354 N 
ATOM     60  C   UNL A   1      42.760  30.066  34.239  1.00  0.00     0.074 A 
ATOM     61  C   UNL A   1      42.359  30.350  35.598  1.00  0.00     0.031 C 
ATOM     62  C   UNL A   1      43.055  35.896  31.551  1.00  0.00     0.029 A 
ATOM     63  C   UNL A   1      43.337  34.611  30.918  1.00  0.00     0.049 A 
ATOM     64  H   UNL A   1      43.196  32.719  31.775  1.00  0.00     0.167 HD
ATOM     65  C   UNL A   1      42.995  28.824  33.754  1.00  0.00     0.037 A 
ATOM     66  C   UNL A   1      43.745  34.441  29.646  1.00  0.00     0.037 A 
ATOM     67  C   UNL A   1      43.352  28.541  32.390  1.00  0.00     0.049 A 
ATOM     68  C   UNL A   1      43.977  33.047  29.131  1.00  0.00     0.074 A 
ATOM     69  C   UNL A   1      43.536  27.308  31.789  1.00  0.00     0.029 A 
ATOM     70  N   UNL A   1      43.572  29.500  31.414  1.00  0.00    -0.354 N 
ATOM     71  N   UNL A   1      43.849  31.903  29.757  1.00  0.00    -0.248 NA
ATOM     72  C   UNL A   1      44.404  32.918  27.729  1.00  0.00     0.031 C 
ATOM     73  C   UNL A   1      43.907  27.522  30.459  1.00  0.00     0.029 A 
ATOM     74  C   UNL A   1      43.909  28.886  30.219  1.00  0.00     0.049 A 
ATOM     75  H   UNL A   1      43.499  30.473  31.550  1.00  0.00     0.167 HD
ATOM     76  C   UNL A   1      44.162  30.922  28.828  1.00  0.00     0.074 A 
ATOM     77  C   UNL A   1      44.464  31.601  27.585  1.00  0.00     0.031 C 
ATOM     78  C   UNL A   1      44.203  29.577  28.992  1.00  0.00     0.037 A 
BRANCH  65  79
ATOM     79  C   UNL A   1      42.841  27.661  34.687  1.00  0.00     0.064 A 
ATOM     80  C   UNL A   1      43.924  27.221  35.462  1.00  0.00     0.173 A 
ATOM     81  C   UNL A   1      41.653  26.918  34.732  1.00  0.00     0.173 A 
ATOM     82  F   UNL A   1      45.083  27.896  35.449  1.00  0.00    -0.203 F 
ATOM     83  C   UNL A   1      43.829  26.065  36.232  1.00  0.00     0.198 A 
ATOM     84  C   UNL A   1      41.553  25.777  35.523  1.00  0.00     0.198 A 
ATOM     85  F   UNL A   1      40.585  27.306  34.018  1.00  0.00    -0.203 F 
ATOM     86  F   UNL A   1      44.888  25.642  36.935  1.00  0.00    -0.200 F 
ATOM     87  C   UNL A   1      42.646  25.344  36.261  1.00  0.00     0.200 A 
ATOM     88  F   UNL A   1      40.403  25.091  35.566  1.00  0.00    -0.200 F 
ATOM     89  F   UNL A   1      42.556  24.229  37.001  1.00  0.00    -0.200 F 
ENDBRANCH  65  79
BRANCH  66  90
ATOM     90  C   UNL A   1      43.934  35.622  28.762  1.00  0.00     0.064 A 
ATOM     91  C   UNL A   1      42.883  36.125  27.982  1.00  0.00     0.173 A 
ATOM     92  C   UNL A   1      45.175  36.269  28.682  1.00  0.00     0.173 A 
ATOM     93  F   UNL A   1      41.678  35.539  28.019  1.00  0.00    -0.203 F 
ATOM     94  C   UNL A   1      43.069  37.226  27.147  1.00  0.00     0.198 A 
ATOM     95  C   UNL A   1      45.353  37.387  27.869  1.00  0.00     0.198 A 
ATOM     96  F   UNL A   1      46.204  35.837  29.424  1.00  0.00    -0.203 F 
ATOM     97  F   UNL A   1      42.056  37.672  26.393  1.00  0.00    -0.200 F 
ATOM     98  C   UNL A   1      44.302  37.861  27.097  1.00  0.00     0.200 A 
ATOM     99  F   UNL A   1      46.537  38.013  27.845  1.00  0.00    -0.200 F 
ATOM    100  F   UNL A   1      44.474  38.933  26.312  1.00  0.00    -0.200 F 
ENDBRANCH  66  90
BRANCH  78 101
ATOM    101  C   UNL A   1      44.578  28.745  27.803  1.00  0.00     0.064 A 
ATOM    102  C   UNL A   1      43.597  28.308  26.899  1.00  0.00     0.173 A 
ATOM    103  C   UNL A   1      45.898  28.320  27.598  1.00  0.00     0.173 A 
ATOM    104  F   UNL A   1      42.318  28.681  27.058  1.00  0.00    -0.203 F 
ATOM    105  C   UNL A   1      43.922  27.464  25.842  1.00  0.00     0.198 A 
ATOM    106  C   UNL A   1      46.225  27.499  26.522  1.00  0.00     0.198 A 
ATOM    107  F   UNL A   1      46.874  28.721  28.427  1.00  0.00    -0.203 F 
ATOM    108  F   UNL A   1      42.964  27.033  25.011  1.00  0.00    -0.200 F 
ATOM    109  C   UNL A   1      45.237  27.064  25.652  1.00  0.00     0.200 A 
ATOM    110  F   UNL A   1      47.499  27.131  26.326  1.00  0.00    -0.200 F 
ATOM    111  F   UNL A   1      45.551  26.260  24.627  1.00  0.00    -0.200 F 
ENDBRANCH  78 101
ENDBRANCH  52  53
ENDBRANCH  44  47
ENDBRANCH  42  43
ENDBRANCH  41  42
ENDBRANCH   1  41
TORSDOF 17
ENDMDL
MODEL 3
REMARK VINA RESULT:      -9.4      6.652     12.893
REMARK SMILES CC1CC[NH+]([C@H](c2ccc(F)cc2)c2ccc([C@@H](C)C(=O)NCCCCNC(=O)c3ccc(-c4c5nc(c(-c6c(F)c(F)c(F)c(F)c6F)c6ccc([nH]6)c(-c6c(F)c(F)c(F)c(F)c6F)c6nc(c(-c7c(F)c(F)c(F)c(F)c7F)c7ccc4[nH]7)C=C6)C=C5)cc3)cc2-c2ccc(C(F)(F)F)cc2)CC1
REMARK SMILES IDX 24 1 23 2 22 3 20 4 21 5 18 7 19 8 17 9 14 10 15 11 94 12
REMARK SMILES IDX 16 13 93 14 6 15 5 16 1 17 2 18 3 19 106 20 4 21 105 22 7 24
REMARK SMILES IDX 8 25 13 26 9 27 12 28 10 29 11 30 95 31 96 32 104 33 97 34
REMARK SMILES IDX 103 35 98 36 99 37 100 38 101 39 102 40 25 41 26 42 27 43
REMARK SMILES IDX 28 44 29 46 30 47 31 48 92 49 32 50 91 51 33 52 34 53 35 54
REMARK SMILES IDX 85 55 36 56 90 57 84 58 86 59 37 60 89 61 83 62 82 63 38 65
REMARK SMILES IDX 70 66 50 67 69 68 51 69 54 70 68 71 87 72 52 73 53 74 67 76
REMARK SMILES IDX 88 77 55 78 39 79 40 80 48 81 41 82 42 83 46 84 49 85 43 86
REMARK SMILES IDX 44 87 47 88 45 89 71 90 72 91 80 92 73 93 74 94 78 95 81 96
REMARK SMILES IDX 75 97 76 98 79 99 77 100 56 101 57 102 65 103 58 104 59 105
REMARK SMILES IDX 63 106 66 107 60 108 61 109 64 110 62 111
REMARK H PARENT 22 6 5 23 27 45 86 64 54 75
REMARK Flexibility Score: inf
ROOT
ATOM      1  C   UNL A   1      42.286  23.791  25.968  1.00  0.00     0.023 C 
ENDROOT
BRANCH   1   2
ATOM      2  C   UNL A   1      41.811  22.800  27.037  1.00  0.00     0.116 C 
BRANCH   2   3
ATOM      3  N   UNL A   1      40.890  21.816  26.502  1.00  0.00    -0.356 N 
ATOM      4  C   UNL A   1      39.583  21.881  26.125  1.00  0.00     0.227 C 
ATOM      5  O   UNL A   1      39.077  20.811  25.760  1.00  0.00    -0.274 OA
ATOM      6  H   UNL A   1      41.289  20.923  26.391  1.00  0.00     0.163 HD
BRANCH   4   7
ATOM      7  C   UNL A   1      38.730  23.166  26.117  1.00  0.00     0.105 C 
ATOM      8  C   UNL A   1      38.965  24.075  27.322  1.00  0.00     0.023 C 
BRANCH   7   9
ATOM      9  C   UNL A   1      37.275  22.918  25.765  1.00  0.00    -0.035 A 
ATOM     10  C   UNL A   1      34.691  22.297  24.684  1.00  0.00     0.022 A 
ATOM     11  C   UNL A   1      35.433  21.388  25.454  1.00  0.00     0.011 A 
ATOM     12  C   UNL A   1      35.198  23.626  24.626  1.00  0.00    -0.009 A 
ATOM     13  C   UNL A   1      36.645  21.721  26.056  1.00  0.00     0.005 A 
ATOM     14  C   UNL A   1      36.516  23.881  25.090  1.00  0.00     0.013 A 
BRANCH  10  15
ATOM     15  C   UNL A   1      33.356  21.868  24.003  1.00  0.00     0.247 C 
BRANCH  15  16
ATOM     16  N   UNL A   1      32.075  22.453  24.527  1.00  0.00    -0.325 N 
ATOM     17  C   UNL A   1      29.423  25.577  26.135  1.00  0.00     0.008 C 
ATOM     18  C   UNL A   1      30.575  24.746  25.577  1.00  0.00    -0.003 C 
ATOM     19  C   UNL A   1      30.278  24.240  24.165  1.00  0.00     0.065 C 
ATOM     20  C   UNL A   1      30.838  23.525  26.446  1.00  0.00     0.065 C 
ATOM     21  C   UNL A   1      31.404  23.363  23.594  1.00  0.00     0.263 C 
ATOM     22  C   UNL A   1      32.079  22.789  25.950  1.00  0.00     0.263 C 
ATOM     23  H   UNL A   1      31.410  21.680  24.545  1.00  0.00     0.348 HD
ENDBRANCH  15  16
BRANCH  15  24
ATOM     24  C   UNL A   1      33.202  20.339  23.849  1.00  0.00     0.014 A 
ATOM     25  C   UNL A   1      32.396  19.766  22.844  1.00  0.00     0.013 A 
ATOM     26  C   UNL A   1      33.880  19.477  24.732  1.00  0.00     0.013 A 
ATOM     27  C   UNL A   1      32.279  18.380  22.724  1.00  0.00     0.040 A 
ATOM     28  C   UNL A   1      33.737  18.093  24.628  1.00  0.00     0.040 A 
ATOM     29  C   UNL A   1      32.944  17.558  23.622  1.00  0.00     0.123 A 
ATOM     30  F   UNL A   1      32.819  16.228  23.516  1.00  0.00    -0.207 F 
ENDBRANCH  15  24
ENDBRANCH  10  15
BRANCH  12  31
ATOM     31  C   UNL A   1      34.400  24.788  24.185  1.00  0.00    -0.018 A 
ATOM     32  C   UNL A   1      34.055  24.983  22.840  1.00  0.00     0.009 A 
ATOM     33  C   UNL A   1      34.019  25.771  25.113  1.00  0.00     0.009 A 
ATOM     34  C   UNL A   1      33.326  26.109  22.441  1.00  0.00     0.014 A 
ATOM     35  C   UNL A   1      33.285  26.893  24.722  1.00  0.00     0.014 A 
ATOM     36  C   UNL A   1      32.923  27.070  23.381  1.00  0.00     0.056 A 
BRANCH  36  37
ATOM     37  C   UNL A   1      32.142  28.284  22.941  1.00  0.00     0.416 C 
ATOM     38  F   UNL A   1      31.199  27.985  22.005  1.00  0.00    -0.166 F 
ATOM     39  F   UNL A   1      31.476  28.884  23.966  1.00  0.00    -0.166 F 
ATOM     40  F   UNL A   1      32.921  29.256  22.386  1.00  0.00    -0.166 F 
ENDBRANCH  36  37
ENDBRANCH  12  31
ENDBRANCH   7   9
ENDBRANCH   4   7
ENDBRANCH   2   3
ENDBRANCH   1   2
BRANCH   1  41
ATOM     41  C   UNL A   1      43.426  23.314  25.076  1.00  0.00     0.023 C 
BRANCH  41  42
ATOM     42  C   UNL A   1      44.545  24.325  24.861  1.00  0.00     0.116 C 
BRANCH  42  43
ATOM     43  N   UNL A   1      45.792  23.992  25.535  1.00  0.00    -0.352 N 
ATOM     44  C   UNL A   1      46.219  24.387  26.783  1.00  0.00     0.251 C 
ATOM     45  H   UNL A   1      46.408  23.410  25.034  1.00  0.00     0.163 HD
ATOM     46  O   UNL A   1      47.332  24.078  27.185  1.00  0.00    -0.269 OA
BRANCH  44  47
ATOM     47  C   UNL A   1      45.339  25.242  27.611  1.00  0.00     0.039 A 
ATOM     48  C   UNL A   1      44.518  24.634  28.562  1.00  0.00     0.014 A 
ATOM     49  C   UNL A   1      45.371  26.634  27.495  1.00  0.00     0.014 A 
ATOM     50  C   UNL A   1      43.799  25.427  29.458  1.00  0.00     0.010 A 
ATOM     51  C   UNL A   1      44.719  27.421  28.438  1.00  0.00     0.010 A 
ATOM     52  C   UNL A   1      43.934  26.826  29.435  1.00  0.00    -0.014 A 
BRANCH  52  53
ATOM     53  C   UNL A   1      43.283  27.673  30.466  1.00  0.00     0.031 A 
ATOM     54  C   UNL A   1      43.893  27.809  31.833  1.00  0.00     0.074 A 
ATOM     55  C   UNL A   1      42.108  28.271  30.186  1.00  0.00     0.049 A 
ATOM     56  N   UNL A   1      43.447  28.467  32.873  1.00  0.00    -0.248 NA
ATOM     57  C   UNL A   1      45.155  27.092  32.075  1.00  0.00     0.031 C 
ATOM     58  C   UNL A   1      41.383  28.159  28.918  1.00  0.00     0.029 A 
ATOM     59  N   UNL A   1      41.311  29.088  30.950  1.00  0.00    -0.354 N 
ATOM     60  C   UNL A   1      44.365  28.238  33.888  1.00  0.00     0.074 A 
ATOM     61  C   UNL A   1      45.366  27.338  33.361  1.00  0.00     0.031 C 
ATOM     62  C   UNL A   1      40.268  28.903  28.981  1.00  0.00     0.029 A 
ATOM     63  C   UNL A   1      40.180  29.520  30.301  1.00  0.00     0.049 A 
ATOM     64  H   UNL A   1      41.531  29.342  31.876  1.00  0.00     0.167 HD
ATOM     65  C   UNL A   1      44.384  28.756  35.138  1.00  0.00     0.037 A 
ATOM     66  C   UNL A   1      39.183  30.322  30.723  1.00  0.00     0.037 A 
ATOM     67  C   UNL A   1      43.410  29.684  35.645  1.00  0.00     0.049 A 
ATOM     68  C   UNL A   1      39.244  30.898  32.111  1.00  0.00     0.074 A 
ATOM     69  C   UNL A   1      43.389  30.321  36.874  1.00  0.00     0.029 A 
ATOM     70  N   UNL A   1      42.289  30.115  34.951  1.00  0.00    -0.354 N 
ATOM     71  N   UNL A   1      40.157  30.730  33.036  1.00  0.00    -0.248 NA
ATOM     72  C   UNL A   1      38.139  31.783  32.514  1.00  0.00     0.031 C 
ATOM     73  C   UNL A   1      42.235  31.105  36.939  1.00  0.00     0.029 A 
ATOM     74  C   UNL A   1      41.561  30.994  35.735  1.00  0.00     0.049 A 
ATOM     75  H   UNL A   1      42.049  29.836  34.037  1.00  0.00     0.167 HD
ATOM     76  C   UNL A   1      39.749  31.496  34.118  1.00  0.00     0.074 A 
ATOM     77  C   UNL A   1      38.517  32.150  33.730  1.00  0.00     0.031 C 
ATOM     78  C   UNL A   1      40.339  31.638  35.331  1.00  0.00     0.037 A 
BRANCH  65  79
ATOM     79  C   UNL A   1      45.510  28.366  36.046  1.00  0.00     0.064 A 
ATOM     80  C   UNL A   1      46.723  29.071  36.022  1.00  0.00     0.173 A 
ATOM     81  C   UNL A   1      45.425  27.230  36.864  1.00  0.00     0.173 A 
ATOM     82  F   UNL A   1      46.855  30.162  35.252  1.00  0.00    -0.203 F 
ATOM     83  C   UNL A   1      47.817  28.638  36.766  1.00  0.00     0.198 A 
ATOM     84  C   UNL A   1      46.513  26.815  37.626  1.00  0.00     0.198 A 
ATOM     85  F   UNL A   1      44.282  26.531  36.932  1.00  0.00    -0.203 F 
ATOM     86  F   UNL A   1      48.978  29.304  36.697  1.00  0.00    -0.200 F 
ATOM     87  C   UNL A   1      47.712  27.511  37.566  1.00  0.00     0.200 A 
ATOM     88  F   UNL A   1      46.404  25.736  38.415  1.00  0.00    -0.200 F 
ATOM     89  F   UNL A   1      48.767  27.093  38.280  1.00  0.00    -0.200 F 
ENDBRANCH  65  79
BRANCH  66  90
ATOM     90  C   UNL A   1      38.056  30.649  29.810  1.00  0.00     0.064 A 
ATOM     91  C   UNL A   1      37.061  29.707  29.510  1.00  0.00     0.173 A 
ATOM     92  C   UNL A   1      37.954  31.916  29.219  1.00  0.00     0.173 A 
ATOM     93  F   UNL A   1      37.116  28.479  30.046  1.00  0.00    -0.203 F 
ATOM     94  C   UNL A   1      36.014  30.017  28.646  1.00  0.00     0.198 A 
ATOM     95  C   UNL A   1      36.891  32.235  28.377  1.00  0.00     0.198 A 
ATOM     96  F   UNL A   1      38.870  32.857  29.491  1.00  0.00    -0.203 F 
ATOM     97  F   UNL A   1      35.090  29.091  28.356  1.00  0.00    -0.200 F 
ATOM     98  C   UNL A   1      35.924  31.283  28.086  1.00  0.00     0.200 A 
ATOM     99  F   UNL A   1      36.794  33.467  27.860  1.00  0.00    -0.200 F 
ATOM    100  F   UNL A   1      34.904  31.588  27.272  1.00  0.00    -0.200 F 
ENDBRANCH  66  90
BRANCH  78 101
ATOM    101  C   UNL A   1      39.671  32.539  36.325  1.00  0.00     0.064 A 
ATOM    102  C   UNL A   1      40.139  33.846  36.531  1.00  0.00     0.173 A 
ATOM    103  C   UNL A   1      38.614  32.084  37.126  1.00  0.00     0.173 A 
ATOM    104  F   UNL A   1      41.155  34.323  35.797  1.00  0.00    -0.203 F 
ATOM    105  C   UNL A   1      39.582  34.659  37.513  1.00  0.00     0.198 A 
ATOM    106  C   UNL A   1      38.039  32.911  38.087  1.00  0.00     0.198 A 
ATOM    107  F   UNL A   1      38.123  30.847  36.958  1.00  0.00    -0.203 F 
ATOM    108  F   UNL A   1      40.067  35.892  37.715  1.00  0.00    -0.200 F 
ATOM    109  C   UNL A   1      38.530  34.192  38.287  1.00  0.00     0.200 A 
ATOM    110  F   UNL A   1      37.007  32.467  38.819  1.00  0.00    -0.200 F 
ATOM    111  F   UNL A   1      37.986  34.981  39.224  1.00  0.00    -0.200 F 
ENDBRANCH  78 101
ENDBRANCH  52  53
ENDBRANCH  44  47
ENDBRANCH  42  43
ENDBRANCH  41  42
ENDBRANCH   1  41
TORSDOF 17
ENDMDL
