MODEL 1
REMARK VINA RESULT:     -13.0      0.000      0.000
REMARK SMILES Cc1ccc(S(=O)(=O)N[C@@H](C)C(=O)Oc2csc(C(=O)NCCCCNC(=O)c3ccc(-c4c5nc(c(-c6c(F)c(F)c(F)c(F)c6F)c6ccc([nH]6)c(-c6c(F)c(F)c(F)c(F)c6F)c6nc(c(-c7c(F)c(F)c(F)c(F)c7F)c7ccc4[nH]7)C=C6)C=C5)cc3)c2C)cc1
REMARK SMILES IDX 19 1 20 2 21 3 18 5 15 6 16 7 92 8 17 9 93 10 14 11 12 12
REMARK SMILES IDX 13 13 10 14 11 15 9 16 6 18 7 19 8 20 5 21 1 22 2 23 3 24
REMARK SMILES IDX 95 25 4 26 94 27 22 28 23 29 24 30 25 31 26 32 27 33 28 35
REMARK SMILES IDX 29 36 30 37 91 38 31 39 90 40 32 41 33 42 34 43 84 44 35 45
REMARK SMILES IDX 89 46 83 47 85 48 36 49 88 50 82 51 81 52 37 54 69 55 49 56
REMARK SMILES IDX 68 57 50 58 53 59 67 60 86 61 51 62 52 63 66 65 87 66 54 67
REMARK SMILES IDX 38 68 39 69 47 70 40 71 41 72 45 73 48 74 42 75 43 76 46 77
REMARK SMILES IDX 44 78 70 79 71 80 79 81 72 82 73 83 77 84 80 85 74 86 75 87
REMARK SMILES IDX 78 88 76 89 55 90 56 91 64 92 57 93 58 94 62 95 65 96 59 97
REMARK SMILES IDX 60 98 63 99 61 100
REMARK H PARENT 21 4 9 17 26 34 85 53 53 64
REMARK Flexibility Score: inf
ROOT
ATOM      1  C   UNL A   1      30.968  26.645  25.654  1.00  0.00     0.261 C 
ATOM      2  O   UNL A   1      30.351  26.204  26.635  1.00  0.00    -0.268 OA
ATOM      3  N   UNL A   1      30.989  28.018  25.644  1.00  0.00    -0.351 N 
ATOM      4  H   UNL A   1      30.495  28.407  26.402  1.00  0.00     0.163 HD
ENDROOT
BRANCH   1   5
ATOM      5  C   UNL A   1      31.606  25.758  24.665  1.00  0.00     0.099 A 
ATOM      6  C   UNL A   1      32.913  24.465  23.193  1.00  0.00     0.145 A 
ATOM      7  C   UNL A   1      31.675  23.971  22.893  1.00  0.00     0.113 A 
ATOM      8  C   UNL A   1      32.882  25.570  24.123  1.00  0.00     0.015 A 
ATOM      9  S   UNL A   1      30.480  24.682  23.864  1.00  0.00    -0.134 S 
ATOM     10  C   UNL A   1      34.116  26.365  24.344  1.00  0.00     0.050 C 
BRANCH   6  11
ATOM     11  O   UNL A   1      34.018  24.022  22.541  1.00  0.00    -0.424 OA
BRANCH  11  12
ATOM     12  C   UNL A   1      34.935  23.333  23.294  1.00  0.00     0.329 C 
ATOM     13  O   UNL A   1      36.143  23.284  23.078  1.00  0.00    -0.250 OA
BRANCH  12  14
ATOM     14  C   UNL A   1      34.278  22.654  24.495  1.00  0.00     0.177 C 
ATOM     15  C   UNL A   1      35.054  22.880  25.783  1.00  0.00     0.038 C 
BRANCH  14  16
ATOM     16  N   UNL A   1      34.089  21.238  24.169  1.00  0.00    -0.197 NA
ATOM     17  H   UNL A   1      34.545  21.097  23.267  1.00  0.00     0.142 HD
BRANCH  16  18
ATOM     18  S   UNL A   1      32.599  20.510  24.044  1.00  0.00     0.241 S 
ATOM     19  O   UNL A   1      32.180  20.616  22.656  1.00  0.00    -0.207 OA
ATOM     20  O   UNL A   1      31.810  21.055  25.112  1.00  0.00    -0.207 OA
BRANCH  18  21
ATOM     21  C   UNL A   1      32.847  18.789  24.389  1.00  0.00     0.082 A 
ATOM     22  C   UNL A   1      33.093  14.609  25.361  1.00  0.00     0.044 C 
ATOM     23  C   UNL A   1      33.014  16.066  25.012  1.00  0.00    -0.051 A 
ATOM     24  C   UNL A   1      32.667  16.996  26.000  1.00  0.00     0.005 A 
ATOM     25  C   UNL A   1      33.308  16.516  23.719  1.00  0.00     0.005 A 
ATOM     26  C   UNL A   1      32.571  18.352  25.688  1.00  0.00     0.022 A 
ATOM     27  C   UNL A   1      33.238  17.878  23.406  1.00  0.00     0.022 A 
ENDBRANCH  18  21
ENDBRANCH  16  18
ENDBRANCH  14  16
ENDBRANCH  12  14
ENDBRANCH  11  12
ENDBRANCH   6  11
ENDBRANCH   1   5
BRANCH   3  28
ATOM     28  C   UNL A   1      31.565  29.029  24.788  1.00  0.00     0.116 C 
BRANCH  28  29
ATOM     29  C   UNL A   1      32.059  30.239  25.600  1.00  0.00     0.023 C 
BRANCH  29  30
ATOM     30  C   UNL A   1      33.399  30.060  26.305  1.00  0.00     0.023 C 
BRANCH  30  31
ATOM     31  C   UNL A   1      33.331  30.349  27.793  1.00  0.00     0.116 C 
BRANCH  31  32
ATOM     32  N   UNL A   1      34.158  31.454  28.263  1.00  0.00    -0.352 N 
ATOM     33  C   UNL A   1      35.426  31.418  28.826  1.00  0.00     0.251 C 
ATOM     34  H   UNL A   1      33.762  32.351  28.168  1.00  0.00     0.163 HD
ATOM     35  O   UNL A   1      35.926  32.442  29.279  1.00  0.00    -0.269 OA
BRANCH  33  36
ATOM     36  C   UNL A   1      36.242  30.180  28.726  1.00  0.00     0.039 A 
ATOM     37  C   UNL A   1      36.543  29.500  29.914  1.00  0.00     0.014 A 
ATOM     38  C   UNL A   1      36.944  29.886  27.565  1.00  0.00     0.014 A 
ATOM     39  C   UNL A   1      37.735  28.788  30.004  1.00  0.00     0.010 A 
ATOM     40  C   UNL A   1      38.195  29.334  27.691  1.00  0.00     0.010 A 
ATOM     41  C   UNL A   1      38.615  28.850  28.931  1.00  0.00    -0.014 A 
BRANCH  41  42
ATOM     42  C   UNL A   1      40.018  28.480  28.999  1.00  0.00     0.031 A 
ATOM     43  C   UNL A   1      40.400  27.094  28.681  1.00  0.00     0.074 A 
ATOM     44  C   UNL A   1      40.942  29.448  29.178  1.00  0.00     0.049 A 
ATOM     45  N   UNL A   1      41.536  26.565  28.968  1.00  0.00    -0.248 NA
ATOM     46  C   UNL A   1      39.478  26.161  28.046  1.00  0.00     0.031 C 
ATOM     47  C   UNL A   1      42.387  29.360  28.979  1.00  0.00     0.029 A 
ATOM     48  N   UNL A   1      40.757  30.700  29.793  1.00  0.00    -0.354 N 
ATOM     49  C   UNL A   1      41.615  25.358  28.310  1.00  0.00     0.074 A 
ATOM     50  C   UNL A   1      40.275  25.110  27.843  1.00  0.00     0.031 C 
ATOM     51  C   UNL A   1      42.984  30.307  29.722  1.00  0.00     0.029 A 
ATOM     52  C   UNL A   1      41.946  30.924  30.529  1.00  0.00     0.049 A 
ATOM     53  H   UNL A   1      39.973  31.291  29.725  1.00  0.00     0.167 HD
ATOM     54  C   UNL A   1      42.852  24.807  28.128  1.00  0.00     0.037 A 
ATOM     55  C   UNL A   1      41.924  30.935  31.894  1.00  0.00     0.037 A 
ATOM     56  C   UNL A   1      43.841  25.528  28.940  1.00  0.00     0.049 A 
ATOM     57  C   UNL A   1      42.781  29.853  32.512  1.00  0.00     0.074 A 
ATOM     58  C   UNL A   1      44.792  26.491  28.641  1.00  0.00     0.029 A 
ATOM     59  N   UNL A   1      43.694  25.543  30.327  1.00  0.00    -0.354 N 
ATOM     60  N   UNL A   1      43.145  28.764  31.890  1.00  0.00    -0.248 NA
ATOM     61  C   UNL A   1      43.296  29.915  33.876  1.00  0.00     0.031 C 
ATOM     62  C   UNL A   1      45.149  27.145  29.851  1.00  0.00     0.029 A 
ATOM     63  C   UNL A   1      44.442  26.561  30.888  1.00  0.00     0.049 A 
ATOM     64  H   UNL A   1      43.133  24.914  30.836  1.00  0.00     0.167 HD
ATOM     65  C   UNL A   1      43.920  27.997  32.721  1.00  0.00     0.074 A 
ATOM     66  C   UNL A   1      43.995  28.769  33.949  1.00  0.00     0.031 C 
ATOM     67  C   UNL A   1      44.435  26.791  32.329  1.00  0.00     0.037 A 
BRANCH  54  68
ATOM     68  C   UNL A   1      43.219  23.828  27.021  1.00  0.00     0.064 A 
ATOM     69  C   UNL A   1      42.848  22.467  27.124  1.00  0.00     0.173 A 
ATOM     70  C   UNL A   1      44.008  24.116  25.889  1.00  0.00     0.173 A 
ATOM     71  F   UNL A   1      42.028  22.037  28.092  1.00  0.00    -0.203 F 
ATOM     72  C   UNL A   1      43.309  21.482  26.239  1.00  0.00     0.198 A 
ATOM     73  C   UNL A   1      44.491  23.131  25.019  1.00  0.00     0.198 A 
ATOM     74  F   UNL A   1      44.319  25.362  25.533  1.00  0.00    -0.203 F 
ATOM     75  F   UNL A   1      42.938  20.206  26.412  1.00  0.00    -0.200 F 
ATOM     76  C   UNL A   1      44.153  21.812  25.201  1.00  0.00     0.200 A 
ATOM     77  F   UNL A   1      45.290  23.485  24.001  1.00  0.00    -0.200 F 
ATOM     78  F   UNL A   1      44.618  20.870  24.369  1.00  0.00    -0.200 F 
ENDBRANCH  54  68
BRANCH  55  79
ATOM     79  C   UNL A   1      40.639  31.455  32.443  1.00  0.00     0.064 A 
ATOM     80  C   UNL A   1      40.337  32.818  32.230  1.00  0.00     0.173 A 
ATOM     81  C   UNL A   1      39.577  30.607  32.772  1.00  0.00     0.173 A 
ATOM     82  F   UNL A   1      41.318  33.681  31.920  1.00  0.00    -0.203 F 
ATOM     83  C   UNL A   1      39.022  33.276  32.199  1.00  0.00     0.198 A 
ATOM     84  C   UNL A   1      38.259  31.078  32.772  1.00  0.00     0.198 A 
ATOM     85  F   UNL A   1      39.789  29.299  32.974  1.00  0.00    -0.203 F 
ATOM     86  F   UNL A   1      38.764  34.545  31.849  1.00  0.00    -0.200 F 
ATOM     87  C   UNL A   1      37.981  32.398  32.441  1.00  0.00     0.200 A 
ATOM     88  F   UNL A   1      37.247  30.225  32.982  1.00  0.00    -0.200 F 
ATOM     89  F   UNL A   1      36.712  32.808  32.312  1.00  0.00    -0.200 F 
ENDBRANCH  55  79
BRANCH  67  90
ATOM     90  C   UNL A   1      45.068  25.750  33.232  1.00  0.00     0.064 A 
ATOM     91  C   UNL A   1      44.344  24.855  34.037  1.00  0.00     0.173 A 
ATOM     92  C   UNL A   1      46.469  25.525  33.193  1.00  0.00     0.173 A 
ATOM     93  F   UNL A   1      43.006  24.860  34.063  1.00  0.00    -0.203 F 
ATOM     94  C   UNL A   1      44.975  23.868  34.802  1.00  0.00     0.198 A 
ATOM     95  C   UNL A   1      47.085  24.494  33.902  1.00  0.00     0.198 A 
ATOM     96  F   UNL A   1      47.284  26.278  32.443  1.00  0.00    -0.203 F 
ATOM     97  F   UNL A   1      44.238  23.075  35.595  1.00  0.00    -0.200 F 
ATOM     98  C   UNL A   1      46.340  23.678  34.724  1.00  0.00     0.200 A 
ATOM     99  F   UNL A   1      48.402  24.286  33.764  1.00  0.00    -0.200 F 
ATOM    100  F   UNL A   1      46.931  22.697  35.418  1.00  0.00    -0.200 F 
ENDBRANCH  67  90
ENDBRANCH  41  42
ENDBRANCH  33  36
ENDBRANCH  31  32
ENDBRANCH  30  31
ENDBRANCH  29  30
ENDBRANCH  28  29
ENDBRANCH   3  28
TORSDOF 17
ENDMDL
MODEL 2
REMARK VINA RESULT:     -12.8      1.822      2.498
REMARK SMILES Cc1ccc(S(=O)(=O)N[C@@H](C)C(=O)Oc2csc(C(=O)NCCCCNC(=O)c3ccc(-c4c5nc(c(-c6c(F)c(F)c(F)c(F)c6F)c6ccc([nH]6)c(-c6c(F)c(F)c(F)c(F)c6F)c6nc(c(-c7c(F)c(F)c(F)c(F)c7F)c7ccc4[nH]7)C=C6)C=C5)cc3)c2C)cc1
REMARK SMILES IDX 19 1 20 2 21 3 18 5 15 6 16 7 92 8 17 9 93 10 14 11 12 12
REMARK SMILES IDX 13 13 10 14 11 15 9 16 6 18 7 19 8 20 5 21 1 22 2 23 3 24
REMARK SMILES IDX 95 25 4 26 94 27 22 28 23 29 24 30 25 31 26 32 27 33 28 35
REMARK SMILES IDX 29 36 30 37 91 38 31 39 90 40 32 41 33 42 34 43 84 44 35 45
REMARK SMILES IDX 89 46 83 47 85 48 36 49 88 50 82 51 81 52 37 54 69 55 49 56
REMARK SMILES IDX 68 57 50 58 53 59 67 60 86 61 51 62 52 63 66 65 87 66 54 67
REMARK SMILES IDX 38 68 39 69 47 70 40 71 41 72 45 73 48 74 42 75 43 76 46 77
REMARK SMILES IDX 44 78 70 79 71 80 79 81 72 82 73 83 77 84 80 85 74 86 75 87
REMARK SMILES IDX 78 88 76 89 55 90 56 91 64 92 57 93 58 94 62 95 65 96 59 97
REMARK SMILES IDX 60 98 63 99 61 100
REMARK H PARENT 21 4 9 17 26 34 85 53 53 64
REMARK Flexibility Score: inf
ROOT
ATOM      1  C   UNL A   1      31.982  28.350  23.849  1.00  0.00     0.261 C 
ATOM      2  O   UNL A   1      32.526  28.206  22.745  1.00  0.00    -0.268 OA
ATOM      3  N   UNL A   1      31.791  29.677  24.150  1.00  0.00    -0.351 N 
ATOM      4  H   UNL A   1      32.139  30.275  23.449  1.00  0.00     0.163 HD
ENDROOT
BRANCH   1   5
ATOM      5  C   UNL A   1      31.583  27.203  24.683  1.00  0.00     0.099 A 
ATOM      6  C   UNL A   1      31.248  25.392  26.151  1.00  0.00     0.145 A 
ATOM      7  C   UNL A   1      30.006  25.459  25.584  1.00  0.00     0.113 A 
ATOM      8  C   UNL A   1      32.198  26.309  25.565  1.00  0.00     0.015 A 
ATOM      9  S   UNL A   1      29.902  26.749  24.488  1.00  0.00    -0.134 S 
ATOM     10  C   UNL A   1      33.638  26.171  25.902  1.00  0.00     0.050 C 
BRANCH   6  11
ATOM     11  O   UNL A   1      31.545  24.437  27.069  1.00  0.00    -0.424 OA
BRANCH  11  12
ATOM     12  C   UNL A   1      31.280  23.140  26.706  1.00  0.00     0.329 C 
ATOM     13  O   UNL A   1      30.273  22.757  26.117  1.00  0.00    -0.250 OA
BRANCH  12  14
ATOM     14  C   UNL A   1      32.430  22.206  27.080  1.00  0.00     0.177 C 
ATOM     15  C   UNL A   1      33.681  22.966  27.491  1.00  0.00     0.038 C 
BRANCH  14  16
ATOM     16  N   UNL A   1      32.649  21.285  25.962  1.00  0.00    -0.197 NA
ATOM     17  H   UNL A   1      33.220  20.526  26.335  1.00  0.00     0.142 HD
BRANCH  16  18
ATOM     18  S   UNL A   1      33.363  21.728  24.527  1.00  0.00     0.241 S 
ATOM     19  O   UNL A   1      32.993  23.109  24.267  1.00  0.00    -0.207 OA
ATOM     20  O   UNL A   1      33.053  20.678  23.599  1.00  0.00    -0.207 OA
BRANCH  18  21
ATOM     21  C   UNL A   1      35.114  21.695  24.803  1.00  0.00     0.082 A 
ATOM     22  C   UNL A   1      39.300  21.854  25.766  1.00  0.00     0.044 C 
ATOM     23  C   UNL A   1      37.840  21.787  25.427  1.00  0.00    -0.051 A 
ATOM     24  C   UNL A   1      37.131  22.971  25.186  1.00  0.00     0.005 A 
ATOM     25  C   UNL A   1      37.179  20.557  25.320  1.00  0.00     0.005 A 
ATOM     26  C   UNL A   1      35.770  22.927  24.888  1.00  0.00     0.022 A 
ATOM     27  C   UNL A   1      35.819  20.506  24.996  1.00  0.00     0.022 A 
ENDBRANCH  18  21
ENDBRANCH  16  18
ENDBRANCH  14  16
ENDBRANCH  12  14
ENDBRANCH  11  12
ENDBRANCH   6  11
ENDBRANCH   1   5
BRANCH   3  28
ATOM     28  C   UNL A   1      31.202  30.405  25.250  1.00  0.00     0.116 C 
BRANCH  28  29
ATOM     29  C   UNL A   1      31.913  30.091  26.577  1.00  0.00     0.023 C 
BRANCH  29  30
ATOM     30  C   UNL A   1      33.002  31.074  26.994  1.00  0.00     0.023 C 
BRANCH  30  31
ATOM     31  C   UNL A   1      34.056  30.450  27.887  1.00  0.00     0.116 C 
BRANCH  31  32
ATOM     32  N   UNL A   1      34.883  31.384  28.641  1.00  0.00    -0.352 N 
ATOM     33  C   UNL A   1      36.079  31.152  29.307  1.00  0.00     0.251 C 
ATOM     34  H   UNL A   1      34.547  32.309  28.684  1.00  0.00     0.163 HD
ATOM     35  O   UNL A   1      36.579  32.034  29.997  1.00  0.00    -0.269 OA
BRANCH  33  36
ATOM     36  C   UNL A   1      36.836  29.900  29.047  1.00  0.00     0.039 A 
ATOM     37  C   UNL A   1      37.020  29.016  30.119  1.00  0.00     0.014 A 
ATOM     38  C   UNL A   1      37.599  29.758  27.896  1.00  0.00     0.014 A 
ATOM     39  C   UNL A   1      38.165  28.227  30.157  1.00  0.00     0.010 A 
ATOM     40  C   UNL A   1      38.809  29.117  28.000  1.00  0.00     0.010 A 
ATOM     41  C   UNL A   1      39.119  28.411  29.163  1.00  0.00    -0.014 A 
BRANCH  41  42
ATOM     42  C   UNL A   1      40.493  27.949  29.249  1.00  0.00     0.031 A 
ATOM     43  C   UNL A   1      40.814  26.592  28.776  1.00  0.00     0.074 A 
ATOM     44  C   UNL A   1      41.458  28.828  29.596  1.00  0.00     0.049 A 
ATOM     45  N   UNL A   1      41.901  25.962  29.045  1.00  0.00    -0.248 NA
ATOM     46  C   UNL A   1      39.878  25.805  27.982  1.00  0.00     0.031 C 
ATOM     47  C   UNL A   1      42.904  28.675  29.455  1.00  0.00     0.029 A 
ATOM     48  N   UNL A   1      41.309  30.001  30.356  1.00  0.00    -0.354 N 
ATOM     49  C   UNL A   1      41.950  24.844  28.242  1.00  0.00     0.074 A 
ATOM     50  C   UNL A   1      40.626  24.741  27.684  1.00  0.00     0.031 C 
ATOM     51  C   UNL A   1      43.511  29.483  30.341  1.00  0.00     0.029 A 
ATOM     52  C   UNL A   1      42.466  30.057  31.170  1.00  0.00     0.049 A 
ATOM     53  H   UNL A   1      40.563  30.644  30.328  1.00  0.00     0.167 HD
ATOM     54  C   UNL A   1      43.162  24.246  28.050  1.00  0.00     0.037 A 
ATOM     55  C   UNL A   1      42.370  29.898  32.523  1.00  0.00     0.037 A 
ATOM     56  C   UNL A   1      44.144  24.796  28.994  1.00  0.00     0.049 A 
ATOM     57  C   UNL A   1      43.131  28.696  33.037  1.00  0.00     0.074 A 
ATOM     58  C   UNL A   1      45.161  25.728  28.866  1.00  0.00     0.029 A 
ATOM     59  N   UNL A   1      43.922  24.647  30.363  1.00  0.00    -0.354 N 
ATOM     60  N   UNL A   1      43.467  27.673  32.299  1.00  0.00    -0.248 NA
ATOM     61  C   UNL A   1      43.572  28.555  34.421  1.00  0.00     0.031 C 
ATOM     62  C   UNL A   1      45.487  26.202  30.166  1.00  0.00     0.029 A 
ATOM     63  C   UNL A   1      44.693  25.537  31.085  1.00  0.00     0.049 A 
ATOM     64  H   UNL A   1      43.299  23.994  30.759  1.00  0.00     0.167 HD
ATOM     65  C   UNL A   1      44.152  26.761  33.060  1.00  0.00     0.074 A 
ATOM     66  C   UNL A   1      44.202  27.368  34.379  1.00  0.00     0.031 C 
ATOM     67  C   UNL A   1      44.619  25.585  32.541  1.00  0.00     0.037 A 
BRANCH  54  68
ATOM     68  C   UNL A   1      43.534  23.392  26.845  1.00  0.00     0.064 A 
ATOM     69  C   UNL A   1      43.097  22.049  26.763  1.00  0.00     0.173 A 
ATOM     70  C   UNL A   1      44.387  23.775  25.790  1.00  0.00     0.173 A 
ATOM     71  F   UNL A   1      42.215  21.546  27.636  1.00  0.00    -0.203 F 
ATOM     72  C   UNL A   1      43.553  21.158  25.781  1.00  0.00     0.198 A 
ATOM     73  C   UNL A   1      44.864  22.881  24.825  1.00  0.00     0.198 A 
ATOM     74  F   UNL A   1      44.771  25.038  25.606  1.00  0.00    -0.203 F 
ATOM     75  F   UNL A   1      43.116  19.891  25.779  1.00  0.00    -0.200 F 
ATOM     76  C   UNL A   1      44.458  21.568  24.827  1.00  0.00     0.200 A 
ATOM     77  F   UNL A   1      45.725  23.316  23.891  1.00  0.00    -0.200 F 
ATOM     78  F   UNL A   1      44.917  20.714  23.904  1.00  0.00    -0.200 F 
ENDBRANCH  54  68
BRANCH  55  79
ATOM     79  C   UNL A   1      41.087  30.425  33.072  1.00  0.00     0.064 A 
ATOM     80  C   UNL A   1      40.878  31.820  33.032  1.00  0.00     0.173 A 
ATOM     81  C   UNL A   1      39.961  29.612  33.230  1.00  0.00     0.173 A 
ATOM     82  F   UNL A   1      41.925  32.650  32.891  1.00  0.00    -0.203 F 
ATOM     83  C   UNL A   1      39.596  32.364  32.998  1.00  0.00     0.198 A 
ATOM     84  C   UNL A   1      38.675  30.164  33.227  1.00  0.00     0.198 A 
ATOM     85  F   UNL A   1      40.084  28.277  33.263  1.00  0.00    -0.203 F 
ATOM     86  F   UNL A   1      39.434  33.682  32.811  1.00  0.00    -0.200 F 
ATOM     87  C   UNL A   1      38.494  31.531  33.065  1.00  0.00     0.200 A 
ATOM     88  F   UNL A   1      37.604  29.358  33.269  1.00  0.00    -0.200 F 
ATOM     89  F   UNL A   1      37.260  32.037  32.930  1.00  0.00    -0.200 F 
ENDBRANCH  55  79
BRANCH  67  90
ATOM     90  C   UNL A   1      45.144  24.402  33.332  1.00  0.00     0.064 A 
ATOM     91  C   UNL A   1      44.412  23.227  33.577  1.00  0.00     0.173 A 
ATOM     92  C   UNL A   1      46.498  24.364  33.752  1.00  0.00     0.173 A 
ATOM     93  F   UNL A   1      43.166  23.067  33.115  1.00  0.00    -0.203 F 
ATOM     94  C   UNL A   1      44.965  22.136  34.256  1.00  0.00     0.198 A 
ATOM     95  C   UNL A   1      47.065  23.248  34.365  1.00  0.00     0.198 A 
ATOM     96  F   UNL A   1      47.327  25.399  33.555  1.00  0.00    -0.203 F 
ATOM     97  F   UNL A   1      44.205  21.061  34.509  1.00  0.00    -0.200 F 
ATOM     98  C   UNL A   1      46.293  22.139  34.636  1.00  0.00     0.200 A 
ATOM     99  F   UNL A   1      48.371  23.247  34.669  1.00  0.00    -0.200 F 
ATOM    100  F   UNL A   1      46.831  21.072  35.238  1.00  0.00    -0.200 F 
ENDBRANCH  67  90
ENDBRANCH  41  42
ENDBRANCH  33  36
ENDBRANCH  31  32
ENDBRANCH  30  31
ENDBRANCH  29  30
ENDBRANCH  28  29
ENDBRANCH   3  28
TORSDOF 17
ENDMDL
MODEL 3
REMARK VINA RESULT:     -12.8      1.968      3.295
REMARK SMILES Cc1ccc(S(=O)(=O)N[C@@H](C)C(=O)Oc2csc(C(=O)NCCCCNC(=O)c3ccc(-c4c5nc(c(-c6c(F)c(F)c(F)c(F)c6F)c6ccc([nH]6)c(-c6c(F)c(F)c(F)c(F)c6F)c6nc(c(-c7c(F)c(F)c(F)c(F)c7F)c7ccc4[nH]7)C=C6)C=C5)cc3)c2C)cc1
REMARK SMILES IDX 19 1 20 2 21 3 18 5 15 6 16 7 92 8 17 9 93 10 14 11 12 12
REMARK SMILES IDX 13 13 10 14 11 15 9 16 6 18 7 19 8 20 5 21 1 22 2 23 3 24
REMARK SMILES IDX 95 25 4 26 94 27 22 28 23 29 24 30 25 31 26 32 27 33 28 35
REMARK SMILES IDX 29 36 30 37 91 38 31 39 90 40 32 41 33 42 34 43 84 44 35 45
REMARK SMILES IDX 89 46 83 47 85 48 36 49 88 50 82 51 81 52 37 54 69 55 49 56
REMARK SMILES IDX 68 57 50 58 53 59 67 60 86 61 51 62 52 63 66 65 87 66 54 67
REMARK SMILES IDX 38 68 39 69 47 70 40 71 41 72 45 73 48 74 42 75 43 76 46 77
REMARK SMILES IDX 44 78 70 79 71 80 79 81 72 82 73 83 77 84 80 85 74 86 75 87
REMARK SMILES IDX 78 88 76 89 55 90 56 91 64 92 57 93 58 94 62 95 65 96 59 97
REMARK SMILES IDX 60 98 63 99 61 100
REMARK H PARENT 21 4 9 17 26 34 85 53 53 64
REMARK Flexibility Score: inf
ROOT
ATOM      1  C   UNL A   1      31.500  28.885  24.143  1.00  0.00     0.261 C 
ATOM      2  O   UNL A   1      31.751  28.929  22.930  1.00  0.00    -0.268 OA
ATOM      3  N   UNL A   1      31.472  30.140  24.701  1.00  0.00    -0.351 N 
ATOM      4  H   UNL A   1      31.678  30.846  24.046  1.00  0.00     0.163 HD
ENDROOT
BRANCH   1   5
ATOM      5  C   UNL A   1      31.242  27.615  24.846  1.00  0.00     0.099 A 
ATOM      6  C   UNL A   1      31.077  25.676  26.171  1.00  0.00     0.145 A 
ATOM      7  C   UNL A   1      30.024  25.465  25.326  1.00  0.00     0.113 A 
ATOM      8  C   UNL A   1      31.856  26.845  25.838  1.00  0.00     0.015 A 
ATOM      9  S   UNL A   1      29.832  26.763  24.251  1.00  0.00    -0.134 S 
ATOM     10  C   UNL A   1      33.166  27.056  26.506  1.00  0.00     0.050 C 
BRANCH   6  11
ATOM     11  O   UNL A   1      31.401  24.763  27.123  1.00  0.00    -0.424 OA
BRANCH  11  12
ATOM     12  C   UNL A   1      31.127  23.451  26.826  1.00  0.00     0.329 C 
ATOM     13  O   UNL A   1      30.247  22.772  27.349  1.00  0.00    -0.250 OA
BRANCH  12  14
ATOM     14  C   UNL A   1      32.027  22.928  25.708  1.00  0.00     0.177 C 
ATOM     15  C   UNL A   1      31.774  21.461  25.401  1.00  0.00     0.038 C 
BRANCH  14  16
ATOM     16  N   UNL A   1      33.417  23.215  26.073  1.00  0.00    -0.197 NA
ATOM     17  H   UNL A   1      33.392  24.092  26.594  1.00  0.00     0.142 HD
BRANCH  16  18
ATOM     18  S   UNL A   1      34.647  23.380  24.966  1.00  0.00     0.241 S 
ATOM     19  O   UNL A   1      35.174  22.051  24.702  1.00  0.00    -0.207 OA
ATOM     20  O   UNL A   1      35.481  24.435  25.466  1.00  0.00    -0.207 OA
BRANCH  18  21
ATOM     21  C   UNL A   1      33.900  23.958  23.465  1.00  0.00     0.082 A 
ATOM     22  C   UNL A   1      32.397  25.581  19.779  1.00  0.00     0.044 C 
ATOM     23  C   UNL A   1      32.917  25.004  21.063  1.00  0.00    -0.051 A 
ATOM     24  C   UNL A   1      33.274  25.861  22.112  1.00  0.00     0.005 A 
ATOM     25  C   UNL A   1      33.026  23.619  21.241  1.00  0.00     0.005 A 
ATOM     26  C   UNL A   1      33.777  25.342  23.304  1.00  0.00     0.022 A 
ATOM     27  C   UNL A   1      33.506  23.091  22.444  1.00  0.00     0.022 A 
ENDBRANCH  18  21
ENDBRANCH  16  18
ENDBRANCH  14  16
ENDBRANCH  12  14
ENDBRANCH  11  12
ENDBRANCH   6  11
ENDBRANCH   1   5
BRANCH   3  28
ATOM     28  C   UNL A   1      31.213  30.672  26.018  1.00  0.00     0.116 C 
BRANCH  28  29
ATOM     29  C   UNL A   1      32.447  31.395  26.585  1.00  0.00     0.023 C 
BRANCH  29  30
ATOM     30  C   UNL A   1      33.708  30.549  26.717  1.00  0.00     0.023 C 
BRANCH  30  31
ATOM     31  C   UNL A   1      34.320  30.605  28.104  1.00  0.00     0.116 C 
BRANCH  31  32
ATOM     32  N   UNL A   1      35.368  31.600  28.296  1.00  0.00    -0.352 N 
ATOM     33  C   UNL A   1      36.709  31.408  28.601  1.00  0.00     0.251 C 
ATOM     34  H   UNL A   1      35.086  32.538  28.195  1.00  0.00     0.163 HD
ATOM     35  O   UNL A   1      37.426  32.372  28.847  1.00  0.00    -0.269 OA
BRANCH  33  36
ATOM     36  C   UNL A   1      37.311  30.057  28.461  1.00  0.00     0.039 A 
ATOM     37  C   UNL A   1      37.474  29.293  29.624  1.00  0.00     0.014 A 
ATOM     38  C   UNL A   1      37.973  29.693  27.297  1.00  0.00     0.014 A 
ATOM     39  C   UNL A   1      38.530  28.391  29.700  1.00  0.00     0.010 A 
ATOM     40  C   UNL A   1      39.114  28.937  27.414  1.00  0.00     0.010 A 
ATOM     41  C   UNL A   1      39.427  28.345  28.640  1.00  0.00    -0.014 A 
BRANCH  41  42
ATOM     42  C   UNL A   1      40.748  27.745  28.708  1.00  0.00     0.031 A 
ATOM     43  C   UNL A   1      40.878  26.295  28.491  1.00  0.00     0.074 A 
ATOM     44  C   UNL A   1      41.828  28.550  28.795  1.00  0.00     0.049 A 
ATOM     45  N   UNL A   1      41.916  25.600  28.795  1.00  0.00    -0.248 NA
ATOM     46  C   UNL A   1      39.790  25.490  27.947  1.00  0.00     0.031 C 
ATOM     47  C   UNL A   1      43.229  28.200  28.574  1.00  0.00     0.029 A 
ATOM     48  N   UNL A   1      41.879  29.856  29.315  1.00  0.00    -0.354 N 
ATOM     49  C   UNL A   1      41.767  24.353  28.230  1.00  0.00     0.074 A 
ATOM     50  C   UNL A   1      40.390  24.306  27.810  1.00  0.00     0.031 C 
ATOM     51  C   UNL A   1      44.003  29.081  29.230  1.00  0.00     0.029 A 
ATOM     52  C   UNL A   1      43.112  29.924  30.007  1.00  0.00     0.049 A 
ATOM     53  H   UNL A   1      41.205  30.567  29.217  1.00  0.00     0.167 HD
ATOM     54  C   UNL A   1      42.886  23.586  28.067  1.00  0.00     0.037 A 
ATOM     55  C   UNL A   1      43.136  30.038  31.368  1.00  0.00     0.037 A 
ATOM     56  C   UNL A   1      44.009  24.183  28.801  1.00  0.00     0.049 A 
ATOM     57  C   UNL A   1      43.817  28.872  32.051  1.00  0.00     0.074 A 
ATOM     58  C   UNL A   1      45.099  24.943  28.410  1.00  0.00     0.029 A 
ATOM     59  N   UNL A   1      43.912  24.323  30.185  1.00  0.00    -0.354 N 
ATOM     60  N   UNL A   1      43.970  27.695  31.507  1.00  0.00    -0.248 NA
ATOM     61  C   UNL A   1      44.378  28.944  33.395  1.00  0.00     0.031 C 
ATOM     62  C   UNL A   1      45.601  25.612  29.559  1.00  0.00     0.029 A 
ATOM     63  C   UNL A   1      44.840  25.235  30.653  1.00  0.00     0.049 A 
ATOM     64  H   UNL A   1      43.269  23.839  30.752  1.00  0.00     0.167 HD
ATOM     65  C   UNL A   1      44.630  26.868  32.380  1.00  0.00     0.074 A 
ATOM     66  C   UNL A   1      44.875  27.703  33.542  1.00  0.00     0.031 C 
ATOM     67  C   UNL A   1      44.919  25.567  32.070  1.00  0.00     0.037 A 
BRANCH  54  68
ATOM     68  C   UNL A   1      43.045  22.481  27.031  1.00  0.00     0.064 A 
ATOM     69  C   UNL A   1      42.303  21.282  27.152  1.00  0.00     0.173 A 
ATOM     70  C   UNL A   1      43.962  22.474  25.961  1.00  0.00     0.173 A 
ATOM     71  F   UNL A   1      41.328  21.151  28.061  1.00  0.00    -0.203 F 
ATOM     72  C   UNL A   1      42.535  20.159  26.345  1.00  0.00     0.198 A 
ATOM     73  C   UNL A   1      44.213  21.346  25.172  1.00  0.00     0.198 A 
ATOM     74  F   UNL A   1      44.633  23.564  25.589  1.00  0.00    -0.203 F 
ATOM     75  F   UNL A   1      41.811  19.046  26.532  1.00  0.00    -0.200 F 
ATOM     76  C   UNL A   1      43.510  20.182  25.372  1.00  0.00     0.200 A 
ATOM     77  F   UNL A   1      45.151  21.406  24.214  1.00  0.00    -0.200 F 
ATOM     78  F   UNL A   1      43.752  19.103  24.618  1.00  0.00    -0.200 F 
ENDBRANCH  54  68
BRANCH  55  79
ATOM     79  C   UNL A   1      41.977  30.810  31.900  1.00  0.00     0.064 A 
ATOM     80  C   UNL A   1      41.941  32.199  31.649  1.00  0.00     0.173 A 
ATOM     81  C   UNL A   1      40.774  30.191  32.252  1.00  0.00     0.173 A 
ATOM     82  F   UNL A   1      43.068  32.849  31.316  1.00  0.00    -0.203 F 
ATOM     83  C   UNL A   1      40.738  32.900  31.603  1.00  0.00     0.198 A 
ATOM     84  C   UNL A   1      39.571  30.906  32.236  1.00  0.00     0.198 A 
ATOM     85  F   UNL A   1      40.732  28.872  32.491  1.00  0.00    -0.203 F 
ATOM     86  F   UNL A   1      40.727  34.184  31.217  1.00  0.00    -0.200 F 
ATOM     87  C   UNL A   1      39.550  32.244  31.868  1.00  0.00     0.200 A 
ATOM     88  F   UNL A   1      38.415  30.268  32.469  1.00  0.00    -0.200 F 
ATOM     89  F   UNL A   1      38.381  32.886  31.726  1.00  0.00    -0.200 F 
ENDBRANCH  55  79
BRANCH  67  90
ATOM     90  C   UNL A   1      45.395  24.500  33.038  1.00  0.00     0.064 A 
ATOM     91  C   UNL A   1      46.683  24.458  33.598  1.00  0.00     0.173 A 
ATOM     92  C   UNL A   1      44.483  23.544  33.556  1.00  0.00     0.173 A 
ATOM     93  F   UNL A   1      47.605  25.383  33.308  1.00  0.00    -0.203 F 
ATOM     94  C   UNL A   1      47.052  23.490  34.539  1.00  0.00     0.198 A 
ATOM     95  C   UNL A   1      44.836  22.627  34.545  1.00  0.00     0.198 A 
ATOM     96  F   UNL A   1      43.211  23.486  33.140  1.00  0.00    -0.203 F 
ATOM     97  F   UNL A   1      48.311  23.464  35.001  1.00  0.00    -0.200 F 
ATOM     98  C   UNL A   1      46.128  22.586  35.023  1.00  0.00     0.200 A 
ATOM     99  F   UNL A   1      43.908  21.800  35.047  1.00  0.00    -0.200 F 
ATOM    100  F   UNL A   1      46.473  21.696  35.962  1.00  0.00    -0.200 F 
ENDBRANCH  67  90
ENDBRANCH  41  42
ENDBRANCH  33  36
ENDBRANCH  31  32
ENDBRANCH  30  31
ENDBRANCH  29  30
ENDBRANCH  28  29
ENDBRANCH   3  28
TORSDOF 17
ENDMDL
