MODEL 1
REMARK VINA RESULT:     -13.6      0.000      0.000
REMARK SMILES C[C@H]1CCCCN1c1nc2nc(CC(=O)NCCCCNC(=O)c3ccc(-c4c5nc(c(-c6c(F)c(F)c(F)c(F)c6F)c6ccc([nH]6)c(-c6c(F)c(F)c(F)c(F)c6F)c6nc(c(-c7c(F)c(F)c(F)c(F)c7F)c7ccc4[nH]7)C=C6)C=C5)cc3)cc(O)n2n1
REMARK SMILES IDX 18 1 17 2 16 3 14 4 15 5 13 7 12 8 8 9 9 10 91 11 10 12
REMARK SMILES IDX 90 13 11 14 88 15 87 16 7 17 1 18 2 19 3 20 4 21 6 22 5 23
REMARK SMILES IDX 89 24 19 26 20 27 21 28 22 29 23 31 24 32 25 33 86 34 26 35
REMARK SMILES IDX 85 36 27 37 28 38 29 39 79 40 30 41 84 42 78 43 80 44 31 45
REMARK SMILES IDX 83 46 77 47 76 48 32 50 64 51 44 52 63 53 45 54 48 55 62 56
REMARK SMILES IDX 81 57 46 58 47 59 61 61 82 62 49 63 33 64 34 65 42 66 35 67
REMARK SMILES IDX 36 68 40 69 43 70 37 71 38 72 41 73 39 74 65 75 66 76 74 77
REMARK SMILES IDX 67 78 68 79 72 80 75 81 69 82 70 83 73 84 71 85 50 86 51 87
REMARK SMILES IDX 59 88 52 89 53 90 57 91 60 92 54 93 55 94 58 95 56 96
REMARK H PARENT 16 6 89 25 21 30 80 49 48 60
REMARK Flexibility Score: inf
ROOT
ATOM      1  C   UNL A   1      35.662  21.586  26.169  1.00  0.00     0.023 C 
ENDROOT
BRANCH   1   2
ATOM      2  C   UNL A   1      35.377  20.631  25.007  1.00  0.00     0.116 C 
BRANCH   2   3
ATOM      3  N   UNL A   1      34.258  19.748  25.265  1.00  0.00    -0.356 N 
ATOM      4  C   UNL A   1      32.957  19.833  24.861  1.00  0.00     0.226 C 
ATOM      5  O   UNL A   1      32.196  18.912  25.166  1.00  0.00    -0.275 OA
ATOM      6  H   UNL A   1      34.469  18.962  25.819  1.00  0.00     0.163 HD
BRANCH   4   7
ATOM      7  C   UNL A   1      32.501  20.962  23.967  1.00  0.00     0.156 C 
BRANCH   7   8
ATOM      8  C   UNL A   1      32.235  22.268  24.677  1.00  0.00     0.059 A 
ATOM      9  C   UNL A   1      32.393  26.478  25.646  1.00  0.00     0.247 A 
ATOM     10  N   UNL A   1      32.996  25.718  24.685  1.00  0.00    -0.173 NA
ATOM     11  N   UNL A   1      31.514  25.824  26.400  1.00  0.00    -0.123 NA
ATOM     12  C   UNL A   1      32.548  24.505  24.911  1.00  0.00     0.257 A 
ATOM     13  N   UNL A   1      31.614  24.559  25.948  1.00  0.00    -0.161 N 
ATOM     14  N   UNL A   1      32.854  23.337  24.273  1.00  0.00    -0.215 NA
ATOM     15  C   UNL A   1      30.944  23.402  26.377  1.00  0.00     0.217 A 
ATOM     16  C   UNL A   1      31.243  22.226  25.804  1.00  0.00     0.092 A 
BRANCH   9  17
ATOM     17  N   UNL A   1      32.742  27.774  25.756  1.00  0.00    -0.337 N 
ATOM     18  C   UNL A   1      30.844  28.505  24.237  1.00  0.00     0.031 C 
ATOM     19  C   UNL A   1      32.124  28.868  24.994  1.00  0.00     0.082 C 
ATOM     20  C   UNL A   1      31.787  29.999  25.988  1.00  0.00     0.025 C 
ATOM     21  C   UNL A   1      33.012  30.436  26.787  1.00  0.00     0.004 C 
ATOM     22  C   UNL A   1      33.945  28.113  26.513  1.00  0.00     0.120 C 
ATOM     23  C   UNL A   1      33.655  29.245  27.491  1.00  0.00     0.022 C 
ENDBRANCH   9  17
BRANCH  15  24
ATOM     24  O   UNL A   1      29.988  23.508  27.375  1.00  0.00    -0.493 OA
ATOM     25  H   UNL A   1      29.098  23.275  27.198  1.00  0.00     0.295 HD
ENDBRANCH  15  24
ENDBRANCH   7   8
ENDBRANCH   4   7
ENDBRANCH   2   3
ENDBRANCH   1   2
BRANCH   1  26
ATOM     26  C   UNL A   1      36.201  22.968  25.779  1.00  0.00     0.023 C 
BRANCH  26  27
ATOM     27  C   UNL A   1      37.685  22.996  25.443  1.00  0.00     0.116 C 
BRANCH  27  28
ATOM     28  N   UNL A   1      38.473  22.125  26.312  1.00  0.00    -0.352 N 
ATOM     29  C   UNL A   1      39.586  22.454  27.044  1.00  0.00     0.251 C 
ATOM     30  H   UNL A   1      38.170  21.191  26.380  1.00  0.00     0.163 HD
ATOM     31  O   UNL A   1      40.374  21.572  27.421  1.00  0.00    -0.269 OA
BRANCH  29  32
ATOM     32  C   UNL A   1      39.844  23.857  27.391  1.00  0.00     0.039 A 
ATOM     33  C   UNL A   1      38.945  24.861  27.024  1.00  0.00     0.014 A 
ATOM     34  C   UNL A   1      41.016  24.168  28.083  1.00  0.00     0.014 A 
ATOM     35  C   UNL A   1      39.205  26.171  27.413  1.00  0.00     0.010 A 
ATOM     36  C   UNL A   1      41.215  25.440  28.566  1.00  0.00     0.010 A 
ATOM     37  C   UNL A   1      40.337  26.450  28.195  1.00  0.00    -0.014 A 
BRANCH  37  38
ATOM     38  C   UNL A   1      40.574  27.804  28.675  1.00  0.00     0.031 A 
ATOM     39  C   UNL A   1      41.769  28.482  28.108  1.00  0.00     0.074 A 
ATOM     40  C   UNL A   1      39.710  28.473  29.464  1.00  0.00     0.049 A 
ATOM     41  N   UNL A   1      42.856  28.796  28.729  1.00  0.00    -0.248 NA
ATOM     42  C   UNL A   1      41.807  28.756  26.665  1.00  0.00     0.031 C 
ATOM     43  C   UNL A   1      38.357  28.098  29.882  1.00  0.00     0.029 A 
ATOM     44  N   UNL A   1      39.864  29.710  30.011  1.00  0.00    -0.354 N 
ATOM     45  C   UNL A   1      43.666  29.449  27.805  1.00  0.00     0.074 A 
ATOM     46  C   UNL A   1      43.028  29.278  26.525  1.00  0.00     0.031 C 
ATOM     47  C   UNL A   1      37.742  29.168  30.435  1.00  0.00     0.029 A 
ATOM     48  C   UNL A   1      38.710  30.241  30.565  1.00  0.00     0.049 A 
ATOM     49  H   UNL A   1      40.724  30.187  30.012  1.00  0.00     0.167 HD
ATOM     50  C   UNL A   1      44.695  30.243  28.215  1.00  0.00     0.037 A 
ATOM     51  C   UNL A   1      38.565  31.487  31.078  1.00  0.00     0.037 A 
ATOM     52  C   UNL A   1      45.022  29.991  29.596  1.00  0.00     0.049 A 
ATOM     53  C   UNL A   1      39.922  31.974  31.434  1.00  0.00     0.074 A 
ATOM     54  C   UNL A   1      45.461  28.886  30.301  1.00  0.00     0.029 A 
ATOM     55  N   UNL A   1      44.554  30.870  30.542  1.00  0.00    -0.354 N 
ATOM     56  N   UNL A   1      40.643  31.463  32.394  1.00  0.00    -0.248 NA
ATOM     57  C   UNL A   1      40.659  32.722  30.428  1.00  0.00     0.031 C 
ATOM     58  C   UNL A   1      44.771  28.951  31.548  1.00  0.00     0.029 A 
ATOM     59  C   UNL A   1      44.008  30.121  31.551  1.00  0.00     0.049 A 
ATOM     60  H   UNL A   1      44.601  31.853  30.503  1.00  0.00     0.167 HD
ATOM     61  C   UNL A   1      41.936  31.449  31.892  1.00  0.00     0.074 A 
ATOM     62  C   UNL A   1      41.898  32.316  30.717  1.00  0.00     0.031 C 
ATOM     63  C   UNL A   1      42.845  30.520  32.306  1.00  0.00     0.037 A 
BRANCH  50  64
ATOM     64  C   UNL A   1      45.180  31.487  27.507  1.00  0.00     0.064 A 
ATOM     65  C   UNL A   1      46.499  31.513  27.003  1.00  0.00     0.173 A 
ATOM     66  C   UNL A   1      44.538  32.739  27.588  1.00  0.00     0.173 A 
ATOM     67  F   UNL A   1      47.208  30.380  26.878  1.00  0.00    -0.203 F 
ATOM     68  C   UNL A   1      47.158  32.710  26.715  1.00  0.00     0.198 A 
ATOM     69  C   UNL A   1      45.183  33.928  27.249  1.00  0.00     0.198 A 
ATOM     70  F   UNL A   1      43.312  32.880  28.103  1.00  0.00    -0.203 F 
ATOM     71  F   UNL A   1      48.456  32.691  26.380  1.00  0.00    -0.200 F 
ATOM     72  C   UNL A   1      46.503  33.918  26.851  1.00  0.00     0.200 A 
ATOM     73  F   UNL A   1      44.535  35.093  27.398  1.00  0.00    -0.200 F 
ATOM     74  F   UNL A   1      47.153  35.072  26.648  1.00  0.00    -0.200 F 
ENDBRANCH  50  64
BRANCH  51  75
ATOM     75  C   UNL A   1      37.386  32.378  30.998  1.00  0.00     0.064 A 
ATOM     76  C   UNL A   1      37.101  33.103  29.829  1.00  0.00     0.173 A 
ATOM     77  C   UNL A   1      36.360  32.316  31.962  1.00  0.00     0.173 A 
ATOM     78  F   UNL A   1      38.008  33.176  28.845  1.00  0.00    -0.203 F 
ATOM     79  C   UNL A   1      35.854  33.701  29.623  1.00  0.00     0.198 A 
ATOM     80  C   UNL A   1      35.117  32.917  31.758  1.00  0.00     0.198 A 
ATOM     81  F   UNL A   1      36.510  31.589  33.079  1.00  0.00    -0.203 F 
ATOM     82  F   UNL A   1      35.597  34.328  28.467  1.00  0.00    -0.200 F 
ATOM     83  C   UNL A   1      34.859  33.597  30.581  1.00  0.00     0.200 A 
ATOM     84  F   UNL A   1      34.152  32.778  32.677  1.00  0.00    -0.200 F 
ATOM     85  F   UNL A   1      33.642  34.113  30.357  1.00  0.00    -0.200 F 
ENDBRANCH  51  75
BRANCH  63  86
ATOM     86  C   UNL A   1      42.504  29.669  33.495  1.00  0.00     0.064 A 
ATOM     87  C   UNL A   1      41.853  28.426  33.409  1.00  0.00     0.173 A 
ATOM     88  C   UNL A   1      43.031  30.035  34.741  1.00  0.00     0.173 A 
ATOM     89  F   UNL A   1      41.402  27.963  32.237  1.00  0.00    -0.203 F 
ATOM     90  C   UNL A   1      41.720  27.601  34.525  1.00  0.00     0.198 A 
ATOM     91  C   UNL A   1      42.928  29.194  35.846  1.00  0.00     0.198 A 
ATOM     92  F   UNL A   1      43.708  31.187  34.871  1.00  0.00    -0.203 F 
ATOM     93  F   UNL A   1      41.099  26.417  34.416  1.00  0.00    -0.200 F 
ATOM     94  C   UNL A   1      42.269  27.981  35.739  1.00  0.00     0.200 A 
ATOM     95  F   UNL A   1      43.502  29.544  37.005  1.00  0.00    -0.200 F 
ATOM     96  F   UNL A   1      42.190  27.162  36.798  1.00  0.00    -0.200 F 
ENDBRANCH  63  86
ENDBRANCH  37  38
ENDBRANCH  29  32
ENDBRANCH  27  28
ENDBRANCH  26  27
ENDBRANCH   1  26
TORSDOF 14
ENDMDL
MODEL 2
REMARK VINA RESULT:     -13.5      2.589      3.904
REMARK SMILES C[C@H]1CCCCN1c1nc2nc(CC(=O)NCCCCNC(=O)c3ccc(-c4c5nc(c(-c6c(F)c(F)c(F)c(F)c6F)c6ccc([nH]6)c(-c6c(F)c(F)c(F)c(F)c6F)c6nc(c(-c7c(F)c(F)c(F)c(F)c7F)c7ccc4[nH]7)C=C6)C=C5)cc3)cc(O)n2n1
REMARK SMILES IDX 18 1 17 2 16 3 14 4 15 5 13 7 12 8 8 9 9 10 91 11 10 12
REMARK SMILES IDX 90 13 11 14 88 15 87 16 7 17 1 18 2 19 3 20 4 21 6 22 5 23
REMARK SMILES IDX 89 24 19 26 20 27 21 28 22 29 23 31 24 32 25 33 86 34 26 35
REMARK SMILES IDX 85 36 27 37 28 38 29 39 79 40 30 41 84 42 78 43 80 44 31 45
REMARK SMILES IDX 83 46 77 47 76 48 32 50 64 51 44 52 63 53 45 54 48 55 62 56
REMARK SMILES IDX 81 57 46 58 47 59 61 61 82 62 49 63 33 64 34 65 42 66 35 67
REMARK SMILES IDX 36 68 40 69 43 70 37 71 38 72 41 73 39 74 65 75 66 76 74 77
REMARK SMILES IDX 67 78 68 79 72 80 75 81 69 82 70 83 73 84 71 85 50 86 51 87
REMARK SMILES IDX 59 88 52 89 53 90 57 91 60 92 54 93 55 94 58 95 56 96
REMARK H PARENT 16 6 89 25 21 30 80 49 48 60
REMARK Flexibility Score: inf
ROOT
ATOM      1  C   UNL A   1      40.854  20.947  27.529  1.00  0.00     0.023 C 
ENDROOT
BRANCH   1   2
ATOM      2  C   UNL A   1      39.845  21.239  26.415  1.00  0.00     0.116 C 
BRANCH   2   3
ATOM      3  N   UNL A   1      39.468  22.636  26.350  1.00  0.00    -0.356 N 
ATOM      4  C   UNL A   1      38.267  23.211  26.052  1.00  0.00     0.226 C 
ATOM      5  O   UNL A   1      38.181  24.439  26.122  1.00  0.00    -0.275 OA
ATOM      6  H   UNL A   1      40.192  23.271  26.554  1.00  0.00     0.163 HD
BRANCH   4   7
ATOM      7  C   UNL A   1      37.054  22.357  25.765  1.00  0.00     0.156 C 
BRANCH   7   8
ATOM      8  C   UNL A   1      35.727  23.033  26.014  1.00  0.00     0.059 A 
ATOM      9  C   UNL A   1      32.479  25.867  25.683  1.00  0.00     0.247 A 
ATOM     10  N   UNL A   1      33.695  25.766  25.071  1.00  0.00    -0.173 NA
ATOM     11  N   UNL A   1      32.180  24.855  26.493  1.00  0.00    -0.123 NA
ATOM     12  C   UNL A   1      34.228  24.688  25.599  1.00  0.00     0.257 A 
ATOM     13  N   UNL A   1      33.296  24.102  26.457  1.00  0.00    -0.161 N 
ATOM     14  N   UNL A   1      35.458  24.136  25.381  1.00  0.00    -0.215 NA
ATOM     15  C   UNL A   1      33.589  22.907  27.134  1.00  0.00     0.217 A 
ATOM     16  C   UNL A   1      34.800  22.352  26.980  1.00  0.00     0.092 A 
BRANCH   9  17
ATOM     17  N   UNL A   1      31.723  26.953  25.438  1.00  0.00    -0.337 N 
ATOM     18  C   UNL A   1      32.984  28.327  27.161  1.00  0.00     0.031 C 
ATOM     19  C   UNL A   1      31.793  28.204  26.206  1.00  0.00     0.082 C 
ATOM     20  C   UNL A   1      31.867  29.370  25.197  1.00  0.00     0.025 C 
ATOM     21  C   UNL A   1      30.708  29.335  24.204  1.00  0.00     0.004 C 
ATOM     22  C   UNL A   1      30.612  26.836  24.496  1.00  0.00     0.120 C 
ATOM     23  C   UNL A   1      30.639  27.986  23.496  1.00  0.00     0.022 C 
ENDBRANCH   9  17
BRANCH  15  24
ATOM     24  O   UNL A   1      32.617  22.333  27.937  1.00  0.00    -0.493 OA
ATOM     25  H   UNL A   1      31.713  22.541  27.801  1.00  0.00     0.295 HD
ENDBRANCH  15  24
ENDBRANCH   7   8
ENDBRANCH   4   7
ENDBRANCH   2   3
ENDBRANCH   1   2
BRANCH   1  26
ATOM     26  C   UNL A   1      41.921  19.894  27.201  1.00  0.00     0.023 C 
BRANCH  26  27
ATOM     27  C   UNL A   1      42.052  19.567  25.721  1.00  0.00     0.116 C 
BRANCH  27  28
ATOM     28  N   UNL A   1      43.443  19.408  25.302  1.00  0.00    -0.352 N 
ATOM     29  C   UNL A   1      44.344  20.395  24.990  1.00  0.00     0.251 C 
ATOM     30  H   UNL A   1      43.772  18.483  25.234  1.00  0.00     0.163 HD
ATOM     31  O   UNL A   1      45.339  20.141  24.294  1.00  0.00    -0.269 OA
BRANCH  29  32
ATOM     32  C   UNL A   1      44.134  21.760  25.489  1.00  0.00     0.039 A 
ATOM     33  C   UNL A   1      43.203  22.608  24.884  1.00  0.00     0.014 A 
ATOM     34  C   UNL A   1      44.898  22.199  26.572  1.00  0.00     0.014 A 
ATOM     35  C   UNL A   1      43.003  23.877  25.416  1.00  0.00     0.010 A 
ATOM     36  C   UNL A   1      44.620  23.405  27.169  1.00  0.00     0.010 A 
ATOM     37  C   UNL A   1      43.707  24.264  26.568  1.00  0.00    -0.014 A 
BRANCH  37  38
ATOM     38  C   UNL A   1      43.445  25.558  27.180  1.00  0.00     0.031 A 
ATOM     39  C   UNL A   1      44.393  26.642  26.812  1.00  0.00     0.074 A 
ATOM     40  C   UNL A   1      42.348  25.822  27.917  1.00  0.00     0.049 A 
ATOM     41  N   UNL A   1      45.262  27.213  27.577  1.00  0.00    -0.248 NA
ATOM     42  C   UNL A   1      44.458  27.076  25.410  1.00  0.00     0.031 C 
ATOM     43  C   UNL A   1      41.163  24.989  28.144  1.00  0.00     0.029 A 
ATOM     44  N   UNL A   1      42.040  26.972  28.576  1.00  0.00    -0.354 N 
ATOM     45  C   UNL A   1      45.884  28.192  26.809  1.00  0.00     0.074 A 
ATOM     46  C   UNL A   1      45.447  27.973  25.454  1.00  0.00     0.031 C 
ATOM     47  C   UNL A   1      40.188  25.737  28.708  1.00  0.00     0.029 A 
ATOM     48  C   UNL A   1      40.734  27.041  29.035  1.00  0.00     0.049 A 
ATOM     49  H   UNL A   1      42.693  27.695  28.715  1.00  0.00     0.167 HD
ATOM     50  C   UNL A   1      46.558  29.220  27.397  1.00  0.00     0.037 A 
ATOM     51  C   UNL A   1      40.145  28.108  29.627  1.00  0.00     0.037 A 
ATOM     52  C   UNL A   1      46.835  28.929  28.782  1.00  0.00     0.049 A 
ATOM     53  C   UNL A   1      41.233  28.958  30.176  1.00  0.00     0.074 A 
ATOM     54  C   UNL A   1      47.552  27.949  29.441  1.00  0.00     0.029 A 
ATOM     55  N   UNL A   1      46.027  29.498  29.736  1.00  0.00    -0.354 N 
ATOM     56  N   UNL A   1      42.000  28.598  31.168  1.00  0.00    -0.248 NA
ATOM     57  C   UNL A   1      41.763  30.012  29.325  1.00  0.00     0.031 C 
ATOM     58  C   UNL A   1      46.779  27.648  30.601  1.00  0.00     0.029 A 
ATOM     59  C   UNL A   1      45.677  28.505  30.611  1.00  0.00     0.049 A 
ATOM     60  H   UNL A   1      45.751  30.443  29.783  1.00  0.00     0.167 HD
ATOM     61  C   UNL A   1      43.263  29.055  30.819  1.00  0.00     0.074 A 
ATOM     62  C   UNL A   1      43.039  29.992  29.721  1.00  0.00     0.031 C 
ATOM     63  C   UNL A   1      44.389  28.423  31.258  1.00  0.00     0.037 A 
BRANCH  50  64
ATOM     64  C   UNL A   1      46.664  30.625  26.854  1.00  0.00     0.064 A 
ATOM     65  C   UNL A   1      47.918  31.274  26.880  1.00  0.00     0.173 A 
ATOM     66  C   UNL A   1      45.554  31.463  26.617  1.00  0.00     0.173 A 
ATOM     67  F   UNL A   1      49.045  30.577  27.095  1.00  0.00    -0.203 F 
ATOM     68  C   UNL A   1      48.036  32.662  26.793  1.00  0.00     0.198 A 
ATOM     69  C   UNL A   1      45.682  32.844  26.477  1.00  0.00     0.198 A 
ATOM     70  F   UNL A   1      44.299  31.002  26.625  1.00  0.00    -0.203 F 
ATOM     71  F   UNL A   1      49.231  33.241  26.971  1.00  0.00    -0.200 F 
ATOM     72  C   UNL A   1      46.915  33.448  26.604  1.00  0.00     0.200 A 
ATOM     73  F   UNL A   1      44.583  33.592  26.305  1.00  0.00    -0.200 F 
ATOM     74  F   UNL A   1      47.014  34.784  26.594  1.00  0.00    -0.200 F 
ENDBRANCH  50  64
BRANCH  51  75
ATOM     75  C   UNL A   1      38.750  28.580  29.485  1.00  0.00     0.064 A 
ATOM     76  C   UNL A   1      37.949  28.824  30.612  1.00  0.00     0.173 A 
ATOM     77  C   UNL A   1      38.270  29.073  28.256  1.00  0.00     0.173 A 
ATOM     78  F   UNL A   1      38.353  28.424  31.826  1.00  0.00    -0.203 F 
ATOM     79  C   UNL A   1      36.755  29.548  30.520  1.00  0.00     0.198 A 
ATOM     80  C   UNL A   1      37.077  29.791  28.164  1.00  0.00     0.198 A 
ATOM     81  F   UNL A   1      38.997  28.953  27.136  1.00  0.00    -0.203 F 
ATOM     82  F   UNL A   1      36.050  29.818  31.628  1.00  0.00    -0.200 F 
ATOM     83  C   UNL A   1      36.327  30.041  29.298  1.00  0.00     0.200 A 
ATOM     84  F   UNL A   1      36.692  30.293  26.982  1.00  0.00    -0.200 F 
ATOM     85  F   UNL A   1      35.218  30.791  29.219  1.00  0.00    -0.200 F 
ENDBRANCH  51  75
BRANCH  63  86
ATOM     86  C   UNL A   1      44.250  27.377  32.327  1.00  0.00     0.064 A 
ATOM     87  C   UNL A   1      44.149  26.000  32.067  1.00  0.00     0.173 A 
ATOM     88  C   UNL A   1      44.424  27.771  33.660  1.00  0.00     0.173 A 
ATOM     89  F   UNL A   1      44.073  25.536  30.814  1.00  0.00    -0.203 F 
ATOM     90  C   UNL A   1      44.200  25.064  33.100  1.00  0.00     0.198 A 
ATOM     91  C   UNL A   1      44.508  26.834  34.686  1.00  0.00     0.198 A 
ATOM     92  F   UNL A   1      44.577  29.070  33.962  1.00  0.00    -0.203 F 
ATOM     93  F   UNL A   1      44.108  23.754  32.826  1.00  0.00    -0.200 F 
ATOM     94  C   UNL A   1      44.392  25.482  34.406  1.00  0.00     0.200 A 
ATOM     95  F   UNL A   1      44.743  27.240  35.942  1.00  0.00    -0.200 F 
ATOM     96  F   UNL A   1      44.497  24.580  35.392  1.00  0.00    -0.200 F 
ENDBRANCH  63  86
ENDBRANCH  37  38
ENDBRANCH  29  32
ENDBRANCH  27  28
ENDBRANCH  26  27
ENDBRANCH   1  26
TORSDOF 14
ENDMDL
MODEL 3
REMARK VINA RESULT:     -13.4      1.009      1.615
REMARK SMILES C[C@H]1CCCCN1c1nc2nc(CC(=O)NCCCCNC(=O)c3ccc(-c4c5nc(c(-c6c(F)c(F)c(F)c(F)c6F)c6ccc([nH]6)c(-c6c(F)c(F)c(F)c(F)c6F)c6nc(c(-c7c(F)c(F)c(F)c(F)c7F)c7ccc4[nH]7)C=C6)C=C5)cc3)cc(O)n2n1
REMARK SMILES IDX 18 1 17 2 16 3 14 4 15 5 13 7 12 8 8 9 9 10 91 11 10 12
REMARK SMILES IDX 90 13 11 14 88 15 87 16 7 17 1 18 2 19 3 20 4 21 6 22 5 23
REMARK SMILES IDX 89 24 19 26 20 27 21 28 22 29 23 31 24 32 25 33 86 34 26 35
REMARK SMILES IDX 85 36 27 37 28 38 29 39 79 40 30 41 84 42 78 43 80 44 31 45
REMARK SMILES IDX 83 46 77 47 76 48 32 50 64 51 44 52 63 53 45 54 48 55 62 56
REMARK SMILES IDX 81 57 46 58 47 59 61 61 82 62 49 63 33 64 34 65 42 66 35 67
REMARK SMILES IDX 36 68 40 69 43 70 37 71 38 72 41 73 39 74 65 75 66 76 74 77
REMARK SMILES IDX 67 78 68 79 72 80 75 81 69 82 70 83 73 84 71 85 50 86 51 87
REMARK SMILES IDX 59 88 52 89 53 90 57 91 60 92 54 93 55 94 58 95 56 96
REMARK H PARENT 16 6 89 25 21 30 80 49 48 60
REMARK Flexibility Score: inf
ROOT
ATOM      1  C   UNL A   1      36.677  21.789  25.633  1.00  0.00     0.023 C 
ENDROOT
BRANCH   1   2
ATOM      2  C   UNL A   1      35.772  21.065  24.632  1.00  0.00     0.116 C 
BRANCH   2   3
ATOM      3  N   UNL A   1      34.844  20.154  25.270  1.00  0.00    -0.356 N 
ATOM      4  C   UNL A   1      33.483  20.086  25.192  1.00  0.00     0.226 C 
ATOM      5  O   UNL A   1      32.916  19.168  25.790  1.00  0.00    -0.275 OA
ATOM      6  H   UNL A   1      35.260  19.476  25.850  1.00  0.00     0.163 HD
BRANCH   4   7
ATOM      7  C   UNL A   1      32.714  21.033  24.302  1.00  0.00     0.156 C 
BRANCH   7   8
ATOM      8  C   UNL A   1      32.389  22.369  24.927  1.00  0.00     0.059 A 
ATOM      9  C   UNL A   1      32.497  26.613  25.742  1.00  0.00     0.247 A 
ATOM     10  N   UNL A   1      33.192  25.810  24.884  1.00  0.00    -0.173 NA
ATOM     11  N   UNL A   1      31.531  25.999  26.418  1.00  0.00    -0.123 NA
ATOM     12  C   UNL A   1      32.705  24.611  25.107  1.00  0.00     0.257 A 
ATOM     13  N   UNL A   1      31.663  24.715  26.030  1.00  0.00    -0.161 N 
ATOM     14  N   UNL A   1      33.064  23.416  24.553  1.00  0.00    -0.215 NA
ATOM     15  C   UNL A   1      30.933  23.583  26.426  1.00  0.00     0.217 A 
ATOM     16  C   UNL A   1      31.277  22.383  25.937  1.00  0.00     0.092 A 
BRANCH   9  17
ATOM     17  N   UNL A   1      32.850  27.909  25.840  1.00  0.00    -0.337 N 
ATOM     18  C   UNL A   1      30.930  28.635  24.345  1.00  0.00     0.031 C 
ATOM     19  C   UNL A   1      32.222  29.000  25.081  1.00  0.00     0.082 C 
ATOM     20  C   UNL A   1      31.902  30.137  26.073  1.00  0.00     0.025 C 
ATOM     21  C   UNL A   1      33.139  30.577  26.852  1.00  0.00     0.004 C 
ATOM     22  C   UNL A   1      34.065  28.251  26.576  1.00  0.00     0.120 C 
ATOM     23  C   UNL A   1      33.791  29.389  27.553  1.00  0.00     0.022 C 
ENDBRANCH   9  17
BRANCH  15  24
ATOM     24  O   UNL A   1      29.874  23.739  27.307  1.00  0.00    -0.493 OA
ATOM     25  H   UNL A   1      29.076  23.268  27.168  1.00  0.00     0.295 HD
ENDBRANCH  15  24
ENDBRANCH   7   8
ENDBRANCH   4   7
ENDBRANCH   2   3
ENDBRANCH   1   2
BRANCH   1  26
ATOM     26  C   UNL A   1      38.180  21.515  25.489  1.00  0.00     0.023 C 
BRANCH  26  27
ATOM     27  C   UNL A   1      39.056  22.270  26.478  1.00  0.00     0.116 C 
BRANCH  27  28
ATOM     28  N   UNL A   1      40.482  22.030  26.262  1.00  0.00    -0.352 N 
ATOM     29  C   UNL A   1      41.493  22.956  26.224  1.00  0.00     0.251 C 
ATOM     30  H   UNL A   1      40.747  21.092  26.128  1.00  0.00     0.163 HD
ATOM     31  O   UNL A   1      42.568  22.691  25.664  1.00  0.00    -0.269 OA
BRANCH  29  32
ATOM     32  C   UNL A   1      41.307  24.268  26.855  1.00  0.00     0.039 A 
ATOM     33  C   UNL A   1      41.901  24.561  28.085  1.00  0.00     0.014 A 
ATOM     34  C   UNL A   1      40.509  25.213  26.208  1.00  0.00     0.014 A 
ATOM     35  C   UNL A   1      41.736  25.831  28.627  1.00  0.00     0.010 A 
ATOM     36  C   UNL A   1      40.441  26.501  26.682  1.00  0.00     0.010 A 
ATOM     37  C   UNL A   1      41.014  26.801  27.912  1.00  0.00    -0.014 A 
BRANCH  37  38
ATOM     38  C   UNL A   1      40.904  28.156  28.431  1.00  0.00     0.031 A 
ATOM     39  C   UNL A   1      41.986  29.088  28.017  1.00  0.00     0.074 A 
ATOM     40  C   UNL A   1      39.835  28.603  29.120  1.00  0.00     0.049 A 
ATOM     41  N   UNL A   1      42.906  29.598  28.766  1.00  0.00    -0.248 NA
ATOM     42  C   UNL A   1      42.129  29.414  26.592  1.00  0.00     0.031 C 
ATOM     43  C   UNL A   1      38.553  27.940  29.371  1.00  0.00     0.029 A 
ATOM     44  N   UNL A   1      39.662  29.825  29.694  1.00  0.00    -0.354 N 
ATOM     45  C   UNL A   1      43.658  30.438  27.951  1.00  0.00     0.074 A 
ATOM     46  C   UNL A   1      43.221  30.183  26.602  1.00  0.00     0.031 C 
ATOM     47  C   UNL A   1      37.668  28.839  29.859  1.00  0.00     0.029 A 
ATOM     48  C   UNL A   1      38.367  30.085  30.114  1.00  0.00     0.049 A 
ATOM     49  H   UNL A   1      40.397  30.470  29.803  1.00  0.00     0.167 HD
ATOM     50  C   UNL A   1      44.445  31.414  28.488  1.00  0.00     0.037 A 
ATOM     51  C   UNL A   1      37.905  31.254  30.619  1.00  0.00     0.037 A 
ATOM     52  C   UNL A   1      44.659  31.186  29.896  1.00  0.00     0.049 A 
ATOM     53  C   UNL A   1      39.080  31.999  31.139  1.00  0.00     0.074 A 
ATOM     54  C   UNL A   1      45.237  30.172  30.636  1.00  0.00     0.029 A 
ATOM     55  N   UNL A   1      43.911  31.914  30.789  1.00  0.00    -0.354 N 
ATOM     56  N   UNL A   1      39.780  31.616  32.172  1.00  0.00    -0.248 NA
ATOM     57  C   UNL A   1      39.753  32.919  30.235  1.00  0.00     0.031 C 
ATOM     58  C   UNL A   1      44.412  30.048  31.793  1.00  0.00     0.029 A 
ATOM     59  C   UNL A   1      43.425  31.033  31.718  1.00  0.00     0.049 A 
ATOM     60  H   UNL A   1      43.755  32.887  30.766  1.00  0.00     0.167 HD
ATOM     61  C   UNL A   1      41.095  31.889  31.826  1.00  0.00     0.074 A 
ATOM     62  C   UNL A   1      41.009  32.770  30.664  1.00  0.00     0.031 C 
ATOM     63  C   UNL A   1      42.126  31.155  32.335  1.00  0.00     0.037 A 
BRANCH  50  64
ATOM     64  C   UNL A   1      44.734  32.755  27.856  1.00  0.00     0.064 A 
ATOM     65  C   UNL A   1      45.996  32.969  27.260  1.00  0.00     0.173 A 
ATOM     66  C   UNL A   1      43.971  33.917  28.092  1.00  0.00     0.173 A 
ATOM     67  F   UNL A   1      46.809  31.936  26.986  1.00  0.00    -0.203 F 
ATOM     68  C   UNL A   1      46.498  34.251  27.028  1.00  0.00     0.198 A 
ATOM     69  C   UNL A   1      44.455  35.194  27.810  1.00  0.00     0.198 A 
ATOM     70  F   UNL A   1      42.784  33.878  28.706  1.00  0.00    -0.203 F 
ATOM     71  F   UNL A   1      47.758  34.405  26.598  1.00  0.00    -0.200 F 
ATOM     72  C   UNL A   1      45.731  35.364  27.316  1.00  0.00     0.200 A 
ATOM     73  F   UNL A   1      43.702  36.262  28.106  1.00  0.00    -0.200 F 
ATOM     74  F   UNL A   1      46.236  36.595  27.165  1.00  0.00    -0.200 F 
ENDBRANCH  50  64
BRANCH  51  75
ATOM     75  C   UNL A   1      36.582  31.883  30.410  1.00  0.00     0.064 A 
ATOM     76  C   UNL A   1      35.826  32.359  31.494  1.00  0.00     0.173 A 
ATOM     77  C   UNL A   1      36.163  32.289  29.128  1.00  0.00     0.173 A 
ATOM     78  F   UNL A   1      36.182  32.053  32.750  1.00  0.00    -0.203 F 
ATOM     79  C   UNL A   1      34.736  33.216  31.308  1.00  0.00     0.198 A 
ATOM     80  C   UNL A   1      35.073  33.141  28.942  1.00  0.00     0.198 A 
ATOM     81  F   UNL A   1      36.862  31.947  28.036  1.00  0.00    -0.203 F 
ATOM     82  F   UNL A   1      34.079  33.701  32.370  1.00  0.00    -0.200 F 
ATOM     83  C   UNL A   1      34.369  33.615  30.033  1.00  0.00     0.200 A 
ATOM     84  F   UNL A   1      34.750  33.548  27.707  1.00  0.00    -0.200 F 
ATOM     85  F   UNL A   1      33.366  34.488  29.858  1.00  0.00    -0.200 F 
ENDBRANCH  51  75
BRANCH  63  86
ATOM     86  C   UNL A   1      41.839  30.210  33.466  1.00  0.00     0.064 A 
ATOM     87  C   UNL A   1      41.503  28.856  33.291  1.00  0.00     0.173 A 
ATOM     88  C   UNL A   1      42.107  30.644  34.771  1.00  0.00     0.173 A 
ATOM     89  F   UNL A   1      41.322  28.342  32.068  1.00  0.00    -0.203 F 
ATOM     90  C   UNL A   1      41.421  27.986  34.377  1.00  0.00     0.198 A 
ATOM     91  C   UNL A   1      42.058  29.765  35.850  1.00  0.00     0.198 A 
ATOM     92  F   UNL A   1      42.483  31.913  34.993  1.00  0.00    -0.203 F 
ATOM     93  F   UNL A   1      41.105  26.696  34.183  1.00  0.00    -0.200 F 
ATOM     94  C   UNL A   1      41.711  28.438  35.653  1.00  0.00     0.200 A 
ATOM     95  F   UNL A   1      42.386  30.196  37.076  1.00  0.00    -0.200 F 
ATOM     96  F   UNL A   1      41.686  27.589  36.690  1.00  0.00    -0.200 F 
ENDBRANCH  63  86
ENDBRANCH  37  38
ENDBRANCH  29  32
ENDBRANCH  27  28
ENDBRANCH  26  27
ENDBRANCH   1  26
TORSDOF 14
ENDMDL
