MODEL 1
REMARK VINA RESULT:     -12.7      0.000      0.000
REMARK SMILES C[NH2+][C@H]1CC[C@@H](Nc2ccc(C(=O)NCCCCNC(=O)c3ccc(-c4c5nc(c(-c6c(F)c(F)c(F)c(F)c6F)c6ccc([nH]6)c(-c6c(F)c(F)c(F)c(F)c6F)c6nc(c(-c7c(F)c(F)c(F)c(F)c7F)c7ccc4[nH]7)C=C6)C=C5)cc3)c(F)c2F)CC1
REMARK SMILES IDX 16 1 15 2 14 3 12 4 13 5 11 7 8 8 9 9 87 10 10 11 85 12
REMARK SMILES IDX 88 13 86 14 7 15 6 17 3 18 90 19 4 20 89 21 5 22 2 23 1 24
REMARK SMILES IDX 17 27 18 28 19 29 20 30 21 32 22 33 23 34 84 35 24 36 83 37
REMARK SMILES IDX 25 38 26 39 27 40 77 41 28 42 82 43 76 44 78 45 29 46 81 47
REMARK SMILES IDX 75 48 74 49 30 51 62 52 42 53 61 54 43 55 46 56 60 57 79 58
REMARK SMILES IDX 44 59 45 60 59 62 80 63 47 64 31 65 32 66 40 67 33 68 34 69
REMARK SMILES IDX 38 70 41 71 35 72 36 73 39 74 37 75 63 76 64 77 72 78 65 79
REMARK SMILES IDX 66 80 70 81 73 82 67 83 68 84 71 85 69 86 48 87 49 88 57 89
REMARK SMILES IDX 50 90 51 91 55 92 58 93 52 94 53 95 56 96 54 97
REMARK H PARENT 14 6 7 16 2 25 2 26 19 31 78 50 46 61
REMARK Flexibility Score: inf
ROOT
ATOM      1  C   UNL A   1      31.744  30.503  26.737  1.00  0.00     0.023 C 
ENDROOT
BRANCH   1   2
ATOM      2  C   UNL A   1      32.236  30.031  25.373  1.00  0.00     0.116 C 
BRANCH   2   3
ATOM      3  N   UNL A   1      31.164  29.700  24.449  1.00  0.00    -0.352 N 
ATOM      4  C   UNL A   1      30.906  28.524  23.787  1.00  0.00     0.254 C 
ATOM      5  O   UNL A   1      29.942  28.458  23.028  1.00  0.00    -0.269 OA
ATOM      6  H   UNL A   1      30.527  30.428  24.271  1.00  0.00     0.163 HD
BRANCH   4   7
ATOM      7  C   UNL A   1      31.810  27.362  23.895  1.00  0.00     0.078 A 
ATOM      8  C   UNL A   1      33.703  25.272  24.053  1.00  0.00     0.074 A 
ATOM      9  C   UNL A   1      33.590  26.045  22.894  1.00  0.00     0.030 A 
ATOM     10  C   UNL A   1      32.791  25.522  25.092  1.00  0.00     0.182 A 
ATOM     11  C   UNL A   1      32.650  27.080  22.810  1.00  0.00     0.019 A 
ATOM     12  C   UNL A   1      31.845  26.539  25.012  1.00  0.00     0.173 A 
ATOM     13  F   UNL A   1      32.863  24.789  26.216  1.00  0.00    -0.201 F 
ATOM     14  F   UNL A   1      30.997  26.720  26.035  1.00  0.00    -0.203 F 
BRANCH   8  15
ATOM     15  N   UNL A   1      34.684  24.311  24.232  1.00  0.00    -0.380 N 
ATOM     16  H   UNL A   1      35.319  24.446  24.972  1.00  0.00     0.160 HD
BRANCH  15  17
ATOM     17  C   UNL A   1      34.852  23.116  23.414  1.00  0.00     0.079 C 
ATOM     18  C   UNL A   1      34.124  20.863  25.246  1.00  0.00     0.182 C 
ATOM     19  C   UNL A   1      33.059  21.783  24.625  1.00  0.00     0.067 C 
ATOM     20  C   UNL A   1      35.476  21.583  25.368  1.00  0.00     0.067 C 
ATOM     21  C   UNL A   1      33.518  22.377  23.295  1.00  0.00     0.031 C 
ATOM     22  C   UNL A   1      35.921  22.213  24.046  1.00  0.00     0.031 C 
BRANCH  18  23
ATOM     23  N   UNL A   1      33.650  20.428  26.566  1.00  0.00    -0.346 N 
ATOM     24  C   UNL A   1      33.699  21.493  27.561  1.00  0.00     0.331 C 
ATOM     25  H   UNL A   1      32.686  20.109  26.479  1.00  0.00     0.346 HD
ATOM     26  H   UNL A   1      34.268  19.682  26.885  1.00  0.00     0.346 HD
ENDBRANCH  18  23
ENDBRANCH  15  17
ENDBRANCH   8  15
ENDBRANCH   4   7
ENDBRANCH   2   3
ENDBRANCH   1   2
BRANCH   1  27
ATOM     27  C   UNL A   1      31.502  32.003  26.886  1.00  0.00     0.023 C 
BRANCH  27  28
ATOM     28  C   UNL A   1      32.717  32.848  27.255  1.00  0.00     0.116 C 
BRANCH  28  29
ATOM     29  N   UNL A   1      32.387  34.209  27.646  1.00  0.00    -0.352 N 
ATOM     30  C   UNL A   1      32.974  35.033  28.578  1.00  0.00     0.251 C 
ATOM     31  H   UNL A   1      31.621  34.604  27.168  1.00  0.00     0.163 HD
ATOM     32  O   UNL A   1      32.487  36.129  28.823  1.00  0.00    -0.269 OA
BRANCH  30  33
ATOM     33  C   UNL A   1      34.170  34.581  29.326  1.00  0.00     0.039 A 
ATOM     34  C   UNL A   1      33.995  34.041  30.604  1.00  0.00     0.014 A 
ATOM     35  C   UNL A   1      35.449  34.671  28.774  1.00  0.00     0.014 A 
ATOM     36  C   UNL A   1      35.088  33.503  31.285  1.00  0.00     0.010 A 
ATOM     37  C   UNL A   1      36.525  34.065  29.420  1.00  0.00     0.010 A 
ATOM     38  C   UNL A   1      36.354  33.463  30.676  1.00  0.00    -0.014 A 
BRANCH  38  39
ATOM     39  C   UNL A   1      37.501  32.776  31.323  1.00  0.00     0.031 A 
ATOM     40  C   UNL A   1      38.189  31.634  30.631  1.00  0.00     0.074 A 
ATOM     41  C   UNL A   1      37.876  33.134  32.567  1.00  0.00     0.049 A 
ATOM     42  N   UNL A   1      39.141  30.851  31.073  1.00  0.00    -0.248 NA
ATOM     43  C   UNL A   1      37.730  31.310  29.271  1.00  0.00     0.031 C 
ATOM     44  C   UNL A   1      37.260  34.195  33.364  1.00  0.00     0.029 A 
ATOM     45  N   UNL A   1      38.861  32.636  33.386  1.00  0.00    -0.354 N 
ATOM     46  C   UNL A   1      39.379  29.936  30.057  1.00  0.00     0.074 A 
ATOM     47  C   UNL A   1      38.444  30.229  28.994  1.00  0.00     0.031 C 
ATOM     48  C   UNL A   1      37.896  34.288  34.543  1.00  0.00     0.029 A 
ATOM     49  C   UNL A   1      38.939  33.268  34.603  1.00  0.00     0.049 A 
ATOM     50  H   UNL A   1      39.456  31.897  33.124  1.00  0.00     0.167 HD
ATOM     51  C   UNL A   1      40.312  28.955  30.008  1.00  0.00     0.037 A 
ATOM     52  C   UNL A   1      39.753  33.048  35.653  1.00  0.00     0.037 A 
ATOM     53  C   UNL A   1      41.268  28.691  31.050  1.00  0.00     0.049 A 
ATOM     54  C   UNL A   1      40.785  31.956  35.569  1.00  0.00     0.074 A 
ATOM     55  C   UNL A   1      42.289  27.757  31.063  1.00  0.00     0.029 A 
ATOM     56  N   UNL A   1      41.324  29.365  32.260  1.00  0.00    -0.354 N 
ATOM     57  N   UNL A   1      41.032  31.129  34.583  1.00  0.00    -0.248 NA
ATOM     58  C   UNL A   1      41.650  31.765  36.743  1.00  0.00     0.031 C 
ATOM     59  C   UNL A   1      42.942  27.842  32.296  1.00  0.00     0.029 A 
ATOM     60  C   UNL A   1      42.355  28.856  33.034  1.00  0.00     0.049 A 
ATOM     61  H   UNL A   1      40.722  30.095  32.529  1.00  0.00     0.167 HD
ATOM     62  C   UNL A   1      42.091  30.337  35.005  1.00  0.00     0.074 A 
ATOM     63  C   UNL A   1      42.450  30.790  36.333  1.00  0.00     0.031 C 
ATOM     64  C   UNL A   1      42.706  29.324  34.350  1.00  0.00     0.037 A 
BRANCH  51  65
ATOM     65  C   UNL A   1      40.366  28.102  28.775  1.00  0.00     0.064 A 
ATOM     66  C   UNL A   1      39.702  26.868  28.732  1.00  0.00     0.173 A 
ATOM     67  C   UNL A   1      41.137  28.473  27.664  1.00  0.00     0.173 A 
ATOM     68  F   UNL A   1      38.956  26.463  29.773  1.00  0.00    -0.203 F 
ATOM     69  C   UNL A   1      39.818  26.030  27.626  1.00  0.00     0.198 A 
ATOM     70  C   UNL A   1      41.230  27.646  26.549  1.00  0.00     0.198 A 
ATOM     71  F   UNL A   1      41.784  29.649  27.653  1.00  0.00    -0.203 F 
ATOM     72  F   UNL A   1      39.199  24.842  27.619  1.00  0.00    -0.200 F 
ATOM     73  C   UNL A   1      40.579  26.421  26.535  1.00  0.00     0.200 A 
ATOM     74  F   UNL A   1      41.948  28.035  25.486  1.00  0.00    -0.200 F 
ATOM     75  F   UNL A   1      40.684  25.618  25.467  1.00  0.00    -0.200 F 
ENDBRANCH  51  65
BRANCH  52  76
ATOM     76  C   UNL A   1      39.647  33.906  36.861  1.00  0.00     0.064 A 
ATOM     77  C   UNL A   1      38.856  33.535  37.958  1.00  0.00     0.173 A 
ATOM     78  C   UNL A   1      40.326  35.131  36.930  1.00  0.00     0.173 A 
ATOM     79  F   UNL A   1      38.184  32.374  37.939  1.00  0.00    -0.203 F 
ATOM     80  C   UNL A   1      38.735  34.365  39.070  1.00  0.00     0.198 A 
ATOM     81  C   UNL A   1      40.223  35.949  38.054  1.00  0.00     0.198 A 
ATOM     82  F   UNL A   1      41.111  35.518  35.915  1.00  0.00    -0.203 F 
ATOM     83  F   UNL A   1      37.949  34.001  40.093  1.00  0.00    -0.200 F 
ATOM     84  C   UNL A   1      39.422  35.569  39.120  1.00  0.00     0.200 A 
ATOM     85  F   UNL A   1      40.908  37.099  38.107  1.00  0.00    -0.200 F 
ATOM     86  F   UNL A   1      39.315  36.360  40.195  1.00  0.00    -0.200 F 
ENDBRANCH  52  76
BRANCH  64  87
ATOM     87  C   UNL A   1      43.849  28.640  35.040  1.00  0.00     0.064 A 
ATOM     88  C   UNL A   1      45.166  29.081  34.840  1.00  0.00     0.173 A 
ATOM     89  C   UNL A   1      43.648  27.499  35.828  1.00  0.00     0.173 A 
ATOM     90  F   UNL A   1      45.409  30.165  34.086  1.00  0.00    -0.203 F 
ATOM     91  C   UNL A   1      46.242  28.391  35.388  1.00  0.00     0.198 A 
ATOM     92  C   UNL A   1      44.725  26.826  36.397  1.00  0.00     0.198 A 
ATOM     93  F   UNL A   1      42.406  27.048  36.059  1.00  0.00    -0.203 F 
ATOM     94  F   UNL A   1      47.494  28.809  35.155  1.00  0.00    -0.200 F 
ATOM     95  C   UNL A   1      46.021  27.266  36.168  1.00  0.00     0.200 A 
ATOM     96  F   UNL A   1      44.510  25.750  37.168  1.00  0.00    -0.200 F 
ATOM     97  F   UNL A   1      47.058  26.604  36.700  1.00  0.00    -0.200 F 
ENDBRANCH  64  87
ENDBRANCH  38  39
ENDBRANCH  30  33
ENDBRANCH  28  29
ENDBRANCH  27  28
ENDBRANCH   1  27
TORSDOF 14
ENDMDL
MODEL 2
REMARK VINA RESULT:     -12.6      5.758     11.302
REMARK SMILES C[NH2+][C@H]1CC[C@@H](Nc2ccc(C(=O)NCCCCNC(=O)c3ccc(-c4c5nc(c(-c6c(F)c(F)c(F)c(F)c6F)c6ccc([nH]6)c(-c6c(F)c(F)c(F)c(F)c6F)c6nc(c(-c7c(F)c(F)c(F)c(F)c7F)c7ccc4[nH]7)C=C6)C=C5)cc3)c(F)c2F)CC1
REMARK SMILES IDX 16 1 15 2 14 3 12 4 13 5 11 7 8 8 9 9 87 10 10 11 85 12
REMARK SMILES IDX 88 13 86 14 7 15 6 17 3 18 90 19 4 20 89 21 5 22 2 23 1 24
REMARK SMILES IDX 17 27 18 28 19 29 20 30 21 32 22 33 23 34 84 35 24 36 83 37
REMARK SMILES IDX 25 38 26 39 27 40 77 41 28 42 82 43 76 44 78 45 29 46 81 47
REMARK SMILES IDX 75 48 74 49 30 51 62 52 42 53 61 54 43 55 46 56 60 57 79 58
REMARK SMILES IDX 44 59 45 60 59 62 80 63 47 64 31 65 32 66 40 67 33 68 34 69
REMARK SMILES IDX 38 70 41 71 35 72 36 73 39 74 37 75 63 76 64 77 72 78 65 79
REMARK SMILES IDX 66 80 70 81 73 82 67 83 68 84 71 85 69 86 48 87 49 88 57 89
REMARK SMILES IDX 50 90 51 91 55 92 58 93 52 94 53 95 56 96 54 97
REMARK H PARENT 14 6 7 16 2 25 2 26 19 31 78 50 46 61
REMARK Flexibility Score: inf
ROOT
ATOM      1  C   UNL A   1      36.932  21.075  24.720  1.00  0.00     0.023 C 
ENDROOT
BRANCH   1   2
ATOM      2  C   UNL A   1      35.830  21.295  25.751  1.00  0.00     0.116 C 
BRANCH   2   3
ATOM      3  N   UNL A   1      34.738  20.340  25.651  1.00  0.00    -0.352 N 
ATOM      4  C   UNL A   1      33.400  20.557  25.427  1.00  0.00     0.254 C 
ATOM      5  O   UNL A   1      32.632  19.598  25.393  1.00  0.00    -0.269 OA
ATOM      6  H   UNL A   1      34.997  19.397  25.760  1.00  0.00     0.163 HD
BRANCH   4   7
ATOM      7  C   UNL A   1      32.846  21.920  25.313  1.00  0.00     0.078 A 
ATOM      8  C   UNL A   1      31.942  24.595  25.228  1.00  0.00     0.074 A 
ATOM      9  C   UNL A   1      32.087  23.929  26.449  1.00  0.00     0.030 A 
ATOM     10  C   UNL A   1      32.183  23.859  24.056  1.00  0.00     0.182 A 
ATOM     11  C   UNL A   1      32.531  22.602  26.495  1.00  0.00     0.019 A 
ATOM     12  C   UNL A   1      32.611  22.536  24.092  1.00  0.00     0.173 A 
ATOM     13  F   UNL A   1      32.042  24.464  22.864  1.00  0.00    -0.201 F 
ATOM     14  F   UNL A   1      32.816  21.886  22.935  1.00  0.00    -0.203 F 
BRANCH   8  15
ATOM     15  N   UNL A   1      31.613  25.935  25.128  1.00  0.00    -0.380 N 
ATOM     16  H   UNL A   1      30.712  26.156  24.799  1.00  0.00     0.160 HD
BRANCH  15  17
ATOM     17  C   UNL A   1      32.493  27.046  25.471  1.00  0.00     0.079 C 
ATOM     18  C   UNL A   1      32.090  29.015  23.253  1.00  0.00     0.182 C 
ATOM     19  C   UNL A   1      31.040  28.810  24.358  1.00  0.00     0.067 C 
ATOM     20  C   UNL A   1      32.936  27.749  23.050  1.00  0.00     0.067 C 
ATOM     21  C   UNL A   1      31.669  28.320  25.663  1.00  0.00     0.031 C 
ATOM     22  C   UNL A   1      33.535  27.233  24.360  1.00  0.00     0.031 C 
BRANCH  18  23
ATOM     23  N   UNL A   1      31.393  29.375  22.011  1.00  0.00    -0.346 N 
ATOM     24  C   UNL A   1      29.985  29.687  22.225  1.00  0.00     0.331 C 
ATOM     25  H   UNL A   1      31.849  30.191  21.605  1.00  0.00     0.346 HD
ATOM     26  H   UNL A   1      31.437  28.568  21.388  1.00  0.00     0.346 HD
ENDBRANCH  18  23
ENDBRANCH  15  17
ENDBRANCH   8  15
ENDBRANCH   4   7
ENDBRANCH   2   3
ENDBRANCH   1   2
BRANCH   1  27
ATOM     27  C   UNL A   1      37.901  19.930  24.999  1.00  0.00     0.023 C 
BRANCH  27  28
ATOM     28  C   UNL A   1      39.181  20.298  25.743  1.00  0.00     0.116 C 
BRANCH  28  29
ATOM     29  N   UNL A   1      40.132  19.203  25.850  1.00  0.00    -0.352 N 
ATOM     30  C   UNL A   1      41.480  19.220  26.127  1.00  0.00     0.251 C 
ATOM     31  H   UNL A   1      39.751  18.307  25.700  1.00  0.00     0.163 HD
ATOM     32  O   UNL A   1      42.128  18.183  26.086  1.00  0.00    -0.269 OA
BRANCH  30  33
ATOM     33  C   UNL A   1      42.163  20.499  26.428  1.00  0.00     0.039 A 
ATOM     34  C   UNL A   1      42.686  21.245  25.366  1.00  0.00     0.014 A 
ATOM     35  C   UNL A   1      42.277  20.972  27.737  1.00  0.00     0.014 A 
ATOM     36  C   UNL A   1      43.234  22.506  25.607  1.00  0.00     0.010 A 
ATOM     37  C   UNL A   1      42.753  22.261  27.967  1.00  0.00     0.010 A 
ATOM     38  C   UNL A   1      43.224  23.047  26.904  1.00  0.00    -0.014 A 
BRANCH  38  39
ATOM     39  C   UNL A   1      43.676  24.438  27.164  1.00  0.00     0.031 A 
ATOM     40  C   UNL A   1      42.705  25.470  27.662  1.00  0.00     0.074 A 
ATOM     41  C   UNL A   1      44.946  24.789  26.882  1.00  0.00     0.049 A 
ATOM     42  N   UNL A   1      42.887  26.752  27.854  1.00  0.00    -0.248 NA
ATOM     43  C   UNL A   1      41.340  25.008  27.957  1.00  0.00     0.031 C 
ATOM     44  C   UNL A   1      45.973  23.892  26.351  1.00  0.00     0.029 A 
ATOM     45  N   UNL A   1      45.589  25.998  26.991  1.00  0.00    -0.354 N 
ATOM     46  C   UNL A   1      41.661  27.249  28.274  1.00  0.00     0.074 A 
ATOM     47  C   UNL A   1      40.729  26.143  28.265  1.00  0.00     0.031 C 
ATOM     48  C   UNL A   1      47.122  24.572  26.208  1.00  0.00     0.029 A 
ATOM     49  C   UNL A   1      46.905  25.962  26.597  1.00  0.00     0.049 A 
ATOM     50  H   UNL A   1      45.148  26.814  27.322  1.00  0.00     0.167 HD
ATOM     51  C   UNL A   1      41.348  28.510  28.655  1.00  0.00     0.037 A 
ATOM     52  C   UNL A   1      47.830  26.939  26.548  1.00  0.00     0.037 A 
ATOM     53  C   UNL A   1      42.286  29.601  28.701  1.00  0.00     0.049 A 
ATOM     54  C   UNL A   1      47.458  28.330  26.984  1.00  0.00     0.074 A 
ATOM     55  C   UNL A   1      42.074  30.899  29.131  1.00  0.00     0.029 A 
ATOM     56  N   UNL A   1      43.613  29.518  28.310  1.00  0.00    -0.354 N 
ATOM     57  N   UNL A   1      46.307  28.775  27.425  1.00  0.00    -0.248 NA
ATOM     58  C   UNL A   1      48.511  29.354  26.914  1.00  0.00     0.031 C 
ATOM     59  C   UNL A   1      43.265  31.612  28.967  1.00  0.00     0.029 A 
ATOM     60  C   UNL A   1      44.229  30.749  28.475  1.00  0.00     0.049 A 
ATOM     61  H   UNL A   1      44.053  28.707  27.966  1.00  0.00     0.167 HD
ATOM     62  C   UNL A   1      46.501  30.121  27.706  1.00  0.00     0.074 A 
ATOM     63  C   UNL A   1      47.884  30.418  27.398  1.00  0.00     0.031 C 
ATOM     64  C   UNL A   1      45.610  31.026  28.174  1.00  0.00     0.037 A 
BRANCH  51  65
ATOM     65  C   UNL A   1      39.936  28.783  29.078  1.00  0.00     0.064 A 
ATOM     66  C   UNL A   1      39.534  28.570  30.405  1.00  0.00     0.173 A 
ATOM     67  C   UNL A   1      38.961  29.185  28.153  1.00  0.00     0.173 A 
ATOM     68  F   UNL A   1      40.427  28.178  31.328  1.00  0.00    -0.203 F 
ATOM     69  C   UNL A   1      38.205  28.736  30.787  1.00  0.00     0.198 A 
ATOM     70  C   UNL A   1      37.639  29.376  28.543  1.00  0.00     0.198 A 
ATOM     71  F   UNL A   1      39.297  29.412  26.874  1.00  0.00    -0.203 F 
ATOM     72  F   UNL A   1      37.838  28.497  32.053  1.00  0.00    -0.200 F 
ATOM     73  C   UNL A   1      37.261  29.143  29.857  1.00  0.00     0.200 A 
ATOM     74  F   UNL A   1      36.731  29.791  27.648  1.00  0.00    -0.200 F 
ATOM     75  F   UNL A   1      35.983  29.310  30.227  1.00  0.00    -0.200 F 
ENDBRANCH  51  65
BRANCH  52  76
ATOM     76  C   UNL A   1      49.212  26.623  26.101  1.00  0.00     0.064 A 
ATOM     77  C   UNL A   1      49.623  26.843  24.779  1.00  0.00     0.173 A 
ATOM     78  C   UNL A   1      50.144  26.075  26.992  1.00  0.00     0.173 A 
ATOM     79  F   UNL A   1      48.768  27.363  23.887  1.00  0.00    -0.203 F 
ATOM     80  C   UNL A   1      50.911  26.509  24.362  1.00  0.00     0.198 A 
ATOM     81  C   UNL A   1      51.439  25.765  26.580  1.00  0.00     0.198 A 
ATOM     82  F   UNL A   1      49.803  25.867  28.273  1.00  0.00    -0.203 F 
ATOM     83  F   UNL A   1      51.270  26.701  23.085  1.00  0.00    -0.200 F 
ATOM     84  C   UNL A   1      51.819  25.975  25.263  1.00  0.00     0.200 A 
ATOM     85  F   UNL A   1      52.320  25.271  27.461  1.00  0.00    -0.200 F 
ATOM     86  F   UNL A   1      53.059  25.666  24.865  1.00  0.00    -0.200 F 
ENDBRANCH  52  76
BRANCH  64  87
ATOM     87  C   UNL A   1      46.096  32.426  28.407  1.00  0.00     0.064 A 
ATOM     88  C   UNL A   1      46.586  32.807  29.666  1.00  0.00     0.173 A 
ATOM     89  C   UNL A   1      45.996  33.409  27.413  1.00  0.00     0.173 A 
ATOM     90  F   UNL A   1      46.693  31.903  30.652  1.00  0.00    -0.203 F 
ATOM     91  C   UNL A   1      46.940  34.127  29.926  1.00  0.00     0.198 A 
ATOM     92  C   UNL A   1      46.374  34.724  27.669  1.00  0.00     0.198 A 
ATOM     93  F   UNL A   1      45.545  33.090  26.191  1.00  0.00    -0.203 F 
ATOM     94  F   UNL A   1      47.371  34.477  31.146  1.00  0.00    -0.200 F 
ATOM     95  C   UNL A   1      46.836  35.083  28.927  1.00  0.00     0.200 A 
ATOM     96  F   UNL A   1      46.294  35.644  26.697  1.00  0.00    -0.200 F 
ATOM     97  F   UNL A   1      47.182  36.354  29.176  1.00  0.00    -0.200 F 
ENDBRANCH  64  87
ENDBRANCH  38  39
ENDBRANCH  30  33
ENDBRANCH  28  29
ENDBRANCH  27  28
ENDBRANCH   1  27
TORSDOF 14
ENDMDL
MODEL 3
REMARK VINA RESULT:     -12.6      5.068     10.373
REMARK SMILES C[NH2+][C@H]1CC[C@@H](Nc2ccc(C(=O)NCCCCNC(=O)c3ccc(-c4c5nc(c(-c6c(F)c(F)c(F)c(F)c6F)c6ccc([nH]6)c(-c6c(F)c(F)c(F)c(F)c6F)c6nc(c(-c7c(F)c(F)c(F)c(F)c7F)c7ccc4[nH]7)C=C6)C=C5)cc3)c(F)c2F)CC1
REMARK SMILES IDX 16 1 15 2 14 3 12 4 13 5 11 7 8 8 9 9 87 10 10 11 85 12
REMARK SMILES IDX 88 13 86 14 7 15 6 17 3 18 90 19 4 20 89 21 5 22 2 23 1 24
REMARK SMILES IDX 17 27 18 28 19 29 20 30 21 32 22 33 23 34 84 35 24 36 83 37
REMARK SMILES IDX 25 38 26 39 27 40 77 41 28 42 82 43 76 44 78 45 29 46 81 47
REMARK SMILES IDX 75 48 74 49 30 51 62 52 42 53 61 54 43 55 46 56 60 57 79 58
REMARK SMILES IDX 44 59 45 60 59 62 80 63 47 64 31 65 32 66 40 67 33 68 34 69
REMARK SMILES IDX 38 70 41 71 35 72 36 73 39 74 37 75 63 76 64 77 72 78 65 79
REMARK SMILES IDX 66 80 70 81 73 82 67 83 68 84 71 85 69 86 48 87 49 88 57 89
REMARK SMILES IDX 50 90 51 91 55 92 58 93 52 94 53 95 56 96 54 97
REMARK H PARENT 14 6 7 16 2 25 2 26 19 31 78 50 46 61
REMARK Flexibility Score: inf
ROOT
ATOM      1  C   UNL A   1      47.529  26.105  31.861  1.00  0.00     0.023 C 
ENDROOT
BRANCH   1   2
ATOM      2  C   UNL A   1      47.979  26.103  30.404  1.00  0.00     0.116 C 
BRANCH   2   3
ATOM      3  N   UNL A   1      47.275  27.067  29.575  1.00  0.00    -0.352 N 
ATOM      4  C   UNL A   1      46.459  26.863  28.488  1.00  0.00     0.254 C 
ATOM      5  O   UNL A   1      45.969  27.831  27.912  1.00  0.00    -0.269 OA
ATOM      6  H   UNL A   1      47.402  28.009  29.831  1.00  0.00     0.163 HD
BRANCH   4   7
ATOM      7  C   UNL A   1      46.227  25.512  27.940  1.00  0.00     0.078 A 
ATOM      8  C   UNL A   1      45.571  22.964  26.911  1.00  0.00     0.074 A 
ATOM      9  C   UNL A   1      45.093  23.375  28.159  1.00  0.00     0.030 A 
ATOM     10  C   UNL A   1      46.449  23.831  26.237  1.00  0.00     0.182 A 
ATOM     11  C   UNL A   1      45.418  24.635  28.674  1.00  0.00     0.019 A 
ATOM     12  C   UNL A   1      46.789  25.079  26.748  1.00  0.00     0.173 A 
ATOM     13  F   UNL A   1      46.938  23.463  25.040  1.00  0.00    -0.201 F 
ATOM     14  F   UNL A   1      47.639  25.854  26.058  1.00  0.00    -0.203 F 
BRANCH   8  15
ATOM     15  N   UNL A   1      45.195  21.779  26.305  1.00  0.00    -0.380 N 
ATOM     16  H   UNL A   1      45.468  20.940  26.744  1.00  0.00     0.160 HD
BRANCH  15  17
ATOM     17  C   UNL A   1      44.427  21.670  25.071  1.00  0.00     0.079 C 
ATOM     18  C   UNL A   1      42.816  19.172  25.424  1.00  0.00     0.182 C 
ATOM     19  C   UNL A   1      42.462  20.478  26.156  1.00  0.00     0.067 C 
ATOM     20  C   UNL A   1      44.315  19.112  25.091  1.00  0.00     0.067 C 
ATOM     21  C   UNL A   1      42.930  21.712  25.386  1.00  0.00     0.031 C 
ATOM     22  C   UNL A   1      44.796  20.365  24.353  1.00  0.00     0.031 C 
BRANCH  18  23
ATOM     23  N   UNL A   1      42.433  18.041  26.281  1.00  0.00    -0.346 N 
ATOM     24  C   UNL A   1      43.148  18.029  27.551  1.00  0.00     0.331 C 
ATOM     25  H   UNL A   1      41.433  18.099  26.471  1.00  0.00     0.346 HD
ATOM     26  H   UNL A   1      42.675  17.183  25.785  1.00  0.00     0.346 HD
ENDBRANCH  18  23
ENDBRANCH  15  17
ENDBRANCH   8  15
ENDBRANCH   4   7
ENDBRANCH   2   3
ENDBRANCH   1   2
BRANCH   1  27
ATOM     27  C   UNL A   1      48.537  25.578  32.880  1.00  0.00     0.023 C 
BRANCH  27  28
ATOM     28  C   UNL A   1      48.006  24.567  33.891  1.00  0.00     0.116 C 
BRANCH  28  29
ATOM     29  N   UNL A   1      48.236  24.947  35.275  1.00  0.00    -0.352 N 
ATOM     30  C   UNL A   1      47.549  25.826  36.082  1.00  0.00     0.251 C 
ATOM     31  H   UNL A   1      49.006  24.507  35.704  1.00  0.00     0.163 HD
ATOM     32  O   UNL A   1      47.960  26.075  37.208  1.00  0.00    -0.269 OA
BRANCH  30  33
ATOM     33  C   UNL A   1      46.338  26.511  35.577  1.00  0.00     0.039 A 
ATOM     34  C   UNL A   1      46.474  27.785  35.015  1.00  0.00     0.014 A 
ATOM     35  C   UNL A   1      45.081  25.906  35.638  1.00  0.00     0.014 A 
ATOM     36  C   UNL A   1      45.371  28.407  34.429  1.00  0.00     0.010 A 
ATOM     37  C   UNL A   1      43.998  26.492  34.985  1.00  0.00     0.010 A 
ATOM     38  C   UNL A   1      44.135  27.743  34.362  1.00  0.00    -0.014 A 
BRANCH  38  39
ATOM     39  C   UNL A   1      42.983  28.324  33.626  1.00  0.00     0.031 A 
ATOM     40  C   UNL A   1      42.765  27.995  32.177  1.00  0.00     0.074 A 
ATOM     41  C   UNL A   1      42.175  29.209  34.244  1.00  0.00     0.049 A 
ATOM     42  N   UNL A   1      41.878  28.476  31.343  1.00  0.00    -0.248 NA
ATOM     43  C   UNL A   1      43.682  27.014  31.575  1.00  0.00     0.031 C 
ATOM     44  C   UNL A   1      42.308  29.646  35.634  1.00  0.00     0.029 A 
ATOM     45  N   UNL A   1      41.087  29.907  33.780  1.00  0.00    -0.354 N 
ATOM     46  C   UNL A   1      42.141  27.873  30.121  1.00  0.00     0.074 A 
ATOM     47  C   UNL A   1      43.297  27.025  30.307  1.00  0.00     0.031 C 
ATOM     48  C   UNL A   1      41.325  30.515  35.919  1.00  0.00     0.029 A 
ATOM     49  C   UNL A   1      40.516  30.729  34.723  1.00  0.00     0.049 A 
ATOM     50  H   UNL A   1      40.748  29.826  32.860  1.00  0.00     0.167 HD
ATOM     51  C   UNL A   1      41.462  27.998  28.956  1.00  0.00     0.037 A 
ATOM     52  C   UNL A   1      39.464  31.564  34.632  1.00  0.00     0.037 A 
ATOM     53  C   UNL A   1      40.289  28.812  28.783  1.00  0.00     0.049 A 
ATOM     54  C   UNL A   1      38.724  31.679  33.327  1.00  0.00     0.074 A 
ATOM     55  C   UNL A   1      39.500  28.954  27.656  1.00  0.00     0.029 A 
ATOM     56  N   UNL A   1      39.732  29.615  29.767  1.00  0.00    -0.354 N 
ATOM     57  N   UNL A   1      38.954  31.065  32.193  1.00  0.00    -0.248 NA
ATOM     58  C   UNL A   1      37.579  32.602  33.289  1.00  0.00     0.031 C 
ATOM     59  C   UNL A   1      38.485  29.871  27.945  1.00  0.00     0.029 A 
ATOM     60  C   UNL A   1      38.617  30.268  29.266  1.00  0.00     0.049 A 
ATOM     61  H   UNL A   1      40.078  29.708  30.684  1.00  0.00     0.167 HD
ATOM     62  C   UNL A   1      37.974  31.508  31.314  1.00  0.00     0.074 A 
ATOM     63  C   UNL A   1      37.139  32.434  32.049  1.00  0.00     0.031 C 
ATOM     64  C   UNL A   1      37.789  31.178  30.014  1.00  0.00     0.037 A 
BRANCH  51  65
ATOM     65  C   UNL A   1      41.955  27.219  27.773  1.00  0.00     0.064 A 
ATOM     66  C   UNL A   1      41.536  25.897  27.564  1.00  0.00     0.173 A 
ATOM     67  C   UNL A   1      42.900  27.757  26.887  1.00  0.00     0.173 A 
ATOM     68  F   UNL A   1      40.638  25.333  28.387  1.00  0.00    -0.203 F 
ATOM     69  C   UNL A   1      42.055  25.138  26.518  1.00  0.00     0.198 A 
ATOM     70  C   UNL A   1      43.398  27.005  25.827  1.00  0.00     0.198 A 
ATOM     71  F   UNL A   1      43.325  29.021  27.039  1.00  0.00    -0.203 F 
ATOM     72  F   UNL A   1      41.664  23.867  26.356  1.00  0.00    -0.200 F 
ATOM     73  C   UNL A   1      42.982  25.693  25.649  1.00  0.00     0.200 A 
ATOM     74  F   UNL A   1      44.277  27.550  24.974  1.00  0.00    -0.200 F 
ATOM     75  F   UNL A   1      43.475  24.965  24.639  1.00  0.00    -0.200 F 
ENDBRANCH  51  65
BRANCH  52  76
ATOM     76  C   UNL A   1      39.026  32.331  35.828  1.00  0.00     0.064 A 
ATOM     77  C   UNL A   1      39.418  33.662  36.028  1.00  0.00     0.173 A 
ATOM     78  C   UNL A   1      38.219  31.733  36.804  1.00  0.00     0.173 A 
ATOM     79  F   UNL A   1      40.194  34.278  35.124  1.00  0.00    -0.203 F 
ATOM     80  C   UNL A   1      39.032  34.360  37.172  1.00  0.00     0.198 A 
ATOM     81  C   UNL A   1      37.813  32.440  37.935  1.00  0.00     0.198 A 
ATOM     82  F   UNL A   1      37.801  30.469  36.645  1.00  0.00    -0.203 F 
ATOM     83  F   UNL A   1      39.445  35.622  37.355  1.00  0.00    -0.200 F 
ATOM     84  C   UNL A   1      38.227  33.751  38.121  1.00  0.00     0.200 A 
ATOM     85  F   UNL A   1      37.015  31.855  38.838  1.00  0.00    -0.200 F 
ATOM     86  F   UNL A   1      37.845  34.426  39.213  1.00  0.00    -0.200 F 
ENDBRANCH  52  76
BRANCH  64  87
ATOM     87  C   UNL A   1      36.628  31.799  29.296  1.00  0.00     0.064 A 
ATOM     88  C   UNL A   1      36.609  33.178  29.035  1.00  0.00     0.173 A 
ATOM     89  C   UNL A   1      35.499  31.046  28.945  1.00  0.00     0.173 A 
ATOM     90  F   UNL A   1      37.664  33.942  29.360  1.00  0.00    -0.203 F 
ATOM     91  C   UNL A   1      35.493  33.783  28.467  1.00  0.00     0.198 A 
ATOM     92  C   UNL A   1      34.394  31.651  28.353  1.00  0.00     0.198 A 
ATOM     93  F   UNL A   1      35.476  29.723  29.163  1.00  0.00    -0.203 F 
ATOM     94  F   UNL A   1      35.482  35.107  28.259  1.00  0.00    -0.200 F 
ATOM     95  C   UNL A   1      34.388  33.019  28.124  1.00  0.00     0.200 A 
ATOM     96  F   UNL A   1      33.334  30.909  28.002  1.00  0.00    -0.200 F 
ATOM     97  F   UNL A   1      33.314  33.602  27.571  1.00  0.00    -0.200 F 
ENDBRANCH  64  87
ENDBRANCH  38  39
ENDBRANCH  30  33
ENDBRANCH  28  29
ENDBRANCH  27  28
ENDBRANCH   1  27
TORSDOF 14
ENDMDL
