MODEL 1
REMARK VINA RESULT:     -13.5      0.000      0.000
REMARK SMILES O=C(NCCCCNC(=O)c1cc(N2C(=O)C[C@H](Nc3ccccc3O)C2=O)ccc1O)c1ccc(-c2c3nc(c(-c4c(F)c(F)c(F)c(F)c4F)c4ccc([nH]4)c(-c4c(F)c(F)c(F)c(F)c4F)c4nc(c(-c5c(F)c(F)c(F)c(F)c5F)c5ccc2[nH]5)C=C4)C=C3)cc1
REMARK SMILES IDX 6 1 5 2 4 3 3 4 1 5 2 6 33 8 34 9 95 10 35 11 94 12 36 13
REMARK SMILES IDX 37 14 38 15 88 16 39 17 93 18 87 19 89 20 40 21 92 22 86 23
REMARK SMILES IDX 85 24 41 26 73 27 53 28 72 29 54 30 57 31 71 32 90 33 55 34
REMARK SMILES IDX 56 35 70 37 91 38 58 39 42 40 43 41 51 42 44 43 45 44 49 45
REMARK SMILES IDX 52 46 46 47 47 48 50 49 48 50 74 51 75 52 83 53 76 54 77 55
REMARK SMILES IDX 81 56 84 57 78 58 79 59 82 60 80 61 59 62 60 63 68 64 61 65
REMARK SMILES IDX 62 66 66 67 69 68 63 69 64 70 67 71 65 72 7 73 8 74 9 75
REMARK SMILES IDX 10 77 11 78 12 79 31 80 13 81 30 82 29 83 32 84 14 86 15 87
REMARK SMILES IDX 27 88 16 89 17 90 18 91 28 92 19 93 20 95 21 96 25 97 22 98
REMARK SMILES IDX 24 99 23 100 26 101
REMARK H PARENT 3 7 89 25 57 36 8 76 32 85 19 94 26 102
REMARK Flexibility Score: inf
ROOT
ATOM      1  C   UNL A   1      31.513  30.913  25.823  1.00  0.00     0.023 C 
ENDROOT
BRANCH   1   2
ATOM      2  C   UNL A   1      31.392  31.966  26.922  1.00  0.00     0.023 C 
BRANCH   2   3
ATOM      3  C   UNL A   1      32.654  32.773  27.187  1.00  0.00     0.116 C 
BRANCH   3   4
ATOM      4  N   UNL A   1      32.384  34.139  27.610  1.00  0.00    -0.352 N 
ATOM      5  O   UNL A   1      32.579  35.988  28.899  1.00  0.00    -0.269 OA
ATOM      6  C   UNL A   1      33.009  34.882  28.583  1.00  0.00     0.251 C 
ATOM      7  H   UNL A   1      31.653  34.594  27.133  1.00  0.00     0.163 HD
BRANCH   6   8
ATOM      8  C   UNL A   1      34.192  34.326  29.274  1.00  0.00     0.039 A 
ATOM      9  C   UNL A   1      35.476  34.612  28.811  1.00  0.00     0.014 A 
ATOM     10  C   UNL A   1      34.012  33.484  30.377  1.00  0.00     0.014 A 
ATOM     11  C   UNL A   1      36.564  33.931  29.339  1.00  0.00     0.010 A 
ATOM     12  C   UNL A   1      35.121  32.878  30.974  1.00  0.00     0.010 A 
ATOM     13  C   UNL A   1      36.403  33.068  30.439  1.00  0.00    -0.014 A 
BRANCH  13  14
ATOM     14  C   UNL A   1      37.613  32.450  31.036  1.00  0.00     0.031 A 
ATOM     15  C   UNL A   1      38.081  32.808  32.419  1.00  0.00     0.074 A 
ATOM     16  C   UNL A   1      38.252  31.497  30.329  1.00  0.00     0.049 A 
ATOM     17  N   UNL A   1      39.079  32.305  33.104  1.00  0.00    -0.248 NA
ATOM     18  C   UNL A   1      37.347  33.870  33.124  1.00  0.00     0.031 C 
ATOM     19  C   UNL A   1      37.898  31.086  28.967  1.00  0.00     0.029 A 
ATOM     20  N   UNL A   1      39.302  30.682  30.658  1.00  0.00    -0.354 N 
ATOM     21  C   UNL A   1      39.099  32.991  34.311  1.00  0.00     0.074 A 
ATOM     22  C   UNL A   1      38.031  33.968  34.258  1.00  0.00     0.031 C 
ATOM     23  C   UNL A   1      38.671  30.054  28.604  1.00  0.00     0.029 A 
ATOM     24  C   UNL A   1      39.617  29.773  29.677  1.00  0.00     0.049 A 
ATOM     25  H   UNL A   1      39.784  30.740  31.515  1.00  0.00     0.167 HD
ATOM     26  C   UNL A   1      39.929  32.812  35.369  1.00  0.00     0.037 A 
ATOM     27  C   UNL A   1      40.569  28.826  29.638  1.00  0.00     0.037 A 
ATOM     28  C   UNL A   1      40.981  31.828  35.420  1.00  0.00     0.049 A 
ATOM     29  C   UNL A   1      41.468  28.651  30.826  1.00  0.00     0.074 A 
ATOM     30  C   UNL A   1      41.867  31.563  36.451  1.00  0.00     0.029 A 
ATOM     31  N   UNL A   1      41.287  30.943  34.396  1.00  0.00    -0.354 N 
ATOM     32  N   UNL A   1      41.463  29.297  31.967  1.00  0.00    -0.248 NA
ATOM     33  C   UNL A   1      42.507  27.620  30.722  1.00  0.00     0.031 C 
ATOM     34  C   UNL A   1      42.731  30.543  36.037  1.00  0.00     0.029 A 
ATOM     35  C   UNL A   1      42.357  30.141  34.765  1.00  0.00     0.049 A 
ATOM     36  H   UNL A   1      40.815  30.893  33.533  1.00  0.00     0.167 HD
ATOM     37  C   UNL A   1      42.494  28.752  32.716  1.00  0.00     0.074 A 
ATOM     38  C   UNL A   1      43.078  27.695  31.915  1.00  0.00     0.031 C 
ATOM     39  C   UNL A   1      42.929  29.103  33.950  1.00  0.00     0.037 A 
BRANCH  26  40
ATOM     40  C   UNL A   1      39.744  33.700  36.565  1.00  0.00     0.064 A 
ATOM     41  C   UNL A   1      40.342  34.966  36.639  1.00  0.00     0.173 A 
ATOM     42  C   UNL A   1      38.896  33.313  37.615  1.00  0.00     0.173 A 
ATOM     43  F   UNL A   1      41.169  35.379  35.666  1.00  0.00    -0.203 F 
ATOM     44  C   UNL A   1      40.107  35.808  37.723  1.00  0.00     0.198 A 
ATOM     45  C   UNL A   1      38.644  34.167  38.686  1.00  0.00     0.198 A 
ATOM     46  F   UNL A   1      38.294  32.115  37.591  1.00  0.00    -0.203 F 
ATOM     47  F   UNL A   1      40.709  37.004  37.784  1.00  0.00    -0.200 F 
ATOM     48  C   UNL A   1      39.252  35.412  38.740  1.00  0.00     0.200 A 
ATOM     49  F   UNL A   1      37.807  33.787  39.662  1.00  0.00    -0.200 F 
ATOM     50  F   UNL A   1      39.013  36.231  39.774  1.00  0.00    -0.200 F 
ENDBRANCH  26  40
BRANCH  27  51
ATOM     51  C   UNL A   1      40.722  27.982  28.426  1.00  0.00     0.064 A 
ATOM     52  C   UNL A   1      40.090  26.736  28.323  1.00  0.00     0.173 A 
ATOM     53  C   UNL A   1      41.502  28.409  27.340  1.00  0.00     0.173 A 
ATOM     54  F   UNL A   1      39.347  26.275  29.342  1.00  0.00    -0.203 F 
ATOM     55  C   UNL A   1      40.247  25.941  27.190  1.00  0.00     0.198 A 
ATOM     56  C   UNL A   1      41.631  27.630  26.194  1.00  0.00     0.198 A 
ATOM     57  F   UNL A   1      42.123  29.598  27.386  1.00  0.00    -0.203 F 
ATOM     58  F   UNL A   1      39.669  24.733  27.137  1.00  0.00    -0.200 F 
ATOM     59  C   UNL A   1      41.012  26.392  26.123  1.00  0.00     0.200 A 
ATOM     60  F   UNL A   1      42.356  28.078  25.160  1.00  0.00    -0.200 F 
ATOM     61  F   UNL A   1      41.157  25.630  25.032  1.00  0.00    -0.200 F 
ENDBRANCH  27  51
BRANCH  39  62
ATOM     62  C   UNL A   1      44.089  28.327  34.499  1.00  0.00     0.064 A 
ATOM     63  C   UNL A   1      45.411  28.748  34.290  1.00  0.00     0.173 A 
ATOM     64  C   UNL A   1      43.879  27.155  35.239  1.00  0.00     0.173 A 
ATOM     65  F   UNL A   1      45.664  29.854  33.574  1.00  0.00    -0.203 F 
ATOM     66  C   UNL A   1      46.483  28.001  34.771  1.00  0.00     0.198 A 
ATOM     67  C   UNL A   1      44.952  26.426  35.742  1.00  0.00     0.198 A 
ATOM     68  F   UNL A   1      42.633  26.715  35.468  1.00  0.00    -0.203 F 
ATOM     69  F   UNL A   1      47.739  28.388  34.510  1.00  0.00    -0.200 F 
ATOM     70  C   UNL A   1      46.252  26.843  35.500  1.00  0.00     0.200 A 
ATOM     71  F   UNL A   1      44.728  25.312  36.454  1.00  0.00    -0.200 F 
ATOM     72  F   UNL A   1      47.284  26.123  35.958  1.00  0.00    -0.200 F 
ENDBRANCH  39  62
ENDBRANCH  13  14
ENDBRANCH   6   8
ENDBRANCH   3   4
ENDBRANCH   2   3
ENDBRANCH   1   2
BRANCH   1  73
ATOM     73  C   UNL A   1      32.629  29.895  26.025  1.00  0.00     0.116 C 
BRANCH  73  74
ATOM     74  N   UNL A   1      33.442  29.731  24.835  1.00  0.00    -0.352 N 
ATOM     75  C   UNL A   1      33.241  28.878  23.783  1.00  0.00     0.255 C 
ATOM     76  H   UNL A   1      34.239  30.306  24.777  1.00  0.00     0.163 HD
ATOM     77  O   UNL A   1      34.071  28.793  22.882  1.00  0.00    -0.269 OA
BRANCH  75  78
ATOM     78  C   UNL A   1      32.056  28.005  23.760  1.00  0.00     0.083 A 
ATOM     79  C   UNL A   1      32.217  26.702  24.245  1.00  0.00     0.044 A 
ATOM     80  C   UNL A   1      30.834  28.411  23.219  1.00  0.00     0.128 A 
ATOM     81  C   UNL A   1      31.165  25.779  24.176  1.00  0.00     0.053 A 
ATOM     82  C   UNL A   1      29.772  27.512  23.168  1.00  0.00     0.049 A 
ATOM     83  C   UNL A   1      29.945  26.200  23.626  1.00  0.00     0.031 A 
BRANCH  80  84
ATOM     84  O   UNL A   1      30.673  29.682  22.745  1.00  0.00    -0.507 OA
ATOM     85  H   UNL A   1      30.986  29.906  21.891  1.00  0.00     0.293 HD
ENDBRANCH  80  84
BRANCH  81  86
ATOM     86  N   UNL A   1      31.362  24.447  24.623  1.00  0.00    -0.249 N 
ATOM     87  C   UNL A   1      31.116  24.006  25.898  1.00  0.00     0.236 C 
ATOM     88  C   UNL A   1      31.866  23.451  23.822  1.00  0.00     0.256 C 
ATOM     89  O   UNL A   1      30.727  24.655  26.860  1.00  0.00    -0.274 OA
ATOM     90  C   UNL A   1      31.312  22.520  25.960  1.00  0.00     0.136 C 
ATOM     91  C   UNL A   1      31.842  22.136  24.592  1.00  0.00     0.179 C 
ATOM     92  O   UNL A   1      32.366  23.591  22.712  1.00  0.00    -0.272 OA
BRANCH  91  93
ATOM     93  N   UNL A   1      33.193  21.561  24.711  1.00  0.00    -0.370 N 
ATOM     94  H   UNL A   1      33.956  22.076  25.060  1.00  0.00     0.161 HD
BRANCH  93  95
ATOM     95  C   UNL A   1      33.321  20.225  24.288  1.00  0.00     0.077 A 
ATOM     96  C   UNL A   1      32.317  19.638  23.516  1.00  0.00     0.029 A 
ATOM     97  C   UNL A   1      34.418  19.435  24.671  1.00  0.00     0.138 A 
ATOM     98  C   UNL A   1      32.407  18.293  23.143  1.00  0.00     0.002 A 
ATOM     99  C   UNL A   1      34.519  18.097  24.298  1.00  0.00     0.048 A 
ATOM    100  C   UNL A   1      33.505  17.525  23.534  1.00  0.00     0.004 A 
BRANCH  97 101
ATOM    101  O   UNL A   1      35.393  20.009  25.439  1.00  0.00    -0.506 OA
ATOM    102  H   UNL A   1      35.325  20.911  25.687  1.00  0.00     0.293 HD
ENDBRANCH  97 101
ENDBRANCH  93  95
ENDBRANCH  91  93
ENDBRANCH  81  86
ENDBRANCH  75  78
ENDBRANCH  73  74
ENDBRANCH   1  73
TORSDOF 16
ENDMDL
MODEL 2
REMARK VINA RESULT:     -13.5      5.064     11.012
REMARK SMILES O=C(NCCCCNC(=O)c1cc(N2C(=O)C[C@H](Nc3ccccc3O)C2=O)ccc1O)c1ccc(-c2c3nc(c(-c4c(F)c(F)c(F)c(F)c4F)c4ccc([nH]4)c(-c4c(F)c(F)c(F)c(F)c4F)c4nc(c(-c5c(F)c(F)c(F)c(F)c5F)c5ccc2[nH]5)C=C4)C=C3)cc1
REMARK SMILES IDX 6 1 5 2 4 3 3 4 1 5 2 6 33 8 34 9 95 10 35 11 94 12 36 13
REMARK SMILES IDX 37 14 38 15 88 16 39 17 93 18 87 19 89 20 40 21 92 22 86 23
REMARK SMILES IDX 85 24 41 26 73 27 53 28 72 29 54 30 57 31 71 32 90 33 55 34
REMARK SMILES IDX 56 35 70 37 91 38 58 39 42 40 43 41 51 42 44 43 45 44 49 45
REMARK SMILES IDX 52 46 46 47 47 48 50 49 48 50 74 51 75 52 83 53 76 54 77 55
REMARK SMILES IDX 81 56 84 57 78 58 79 59 82 60 80 61 59 62 60 63 68 64 61 65
REMARK SMILES IDX 62 66 66 67 69 68 63 69 64 70 67 71 65 72 7 73 8 74 9 75
REMARK SMILES IDX 10 77 11 78 12 79 31 80 13 81 30 82 29 83 32 84 14 86 15 87
REMARK SMILES IDX 27 88 16 89 17 90 18 91 28 92 19 93 20 95 21 96 25 97 22 98
REMARK SMILES IDX 24 99 23 100 26 101
REMARK H PARENT 3 7 89 25 57 36 8 76 32 85 19 94 26 102
REMARK Flexibility Score: inf
ROOT
ATOM      1  C   UNL A   1      36.751  20.343  25.018  1.00  0.00     0.023 C 
ENDROOT
BRANCH   1   2
ATOM      2  C   UNL A   1      38.148  19.812  24.709  1.00  0.00     0.023 C 
BRANCH   2   3
ATOM      3  C   UNL A   1      39.200  20.105  25.768  1.00  0.00     0.116 C 
BRANCH   3   4
ATOM      4  N   UNL A   1      40.218  19.069  25.869  1.00  0.00    -0.352 N 
ATOM      5  O   UNL A   1      42.310  18.227  26.056  1.00  0.00    -0.269 OA
ATOM      6  C   UNL A   1      41.563  19.200  26.120  1.00  0.00     0.251 C 
ATOM      7  H   UNL A   1      39.899  18.147  25.741  1.00  0.00     0.163 HD
BRANCH   6   8
ATOM      8  C   UNL A   1      42.116  20.533  26.440  1.00  0.00     0.039 A 
ATOM      9  C   UNL A   1      42.244  20.942  27.768  1.00  0.00     0.014 A 
ATOM     10  C   UNL A   1      42.480  21.395  25.400  1.00  0.00     0.014 A 
ATOM     11  C   UNL A   1      42.574  22.259  28.052  1.00  0.00     0.010 A 
ATOM     12  C   UNL A   1      42.912  22.692  25.693  1.00  0.00     0.010 A 
ATOM     13  C   UNL A   1      42.929  23.146  27.019  1.00  0.00    -0.014 A 
BRANCH  13  14
ATOM     14  C   UNL A   1      43.381  24.513  27.385  1.00  0.00     0.031 A 
ATOM     15  C   UNL A   1      44.780  24.983  27.103  1.00  0.00     0.074 A 
ATOM     16  C   UNL A   1      42.476  25.357  27.920  1.00  0.00     0.049 A 
ATOM     17  N   UNL A   1      45.303  26.168  27.300  1.00  0.00    -0.248 NA
ATOM     18  C   UNL A   1      45.718  24.002  26.536  1.00  0.00     0.031 C 
ATOM     19  C   UNL A   1      41.095  25.000  28.257  1.00  0.00     0.029 A 
ATOM     20  N   UNL A   1      42.562  26.685  28.242  1.00  0.00    -0.354 N 
ATOM     21  C   UNL A   1      46.628  26.075  26.893  1.00  0.00     0.074 A 
ATOM     22  C   UNL A   1      46.840  24.708  26.463  1.00  0.00     0.031 C 
ATOM     23  C   UNL A   1      40.446  26.095  28.675  1.00  0.00     0.029 A 
ATOM     24  C   UNL A   1      41.380  27.215  28.698  1.00  0.00     0.049 A 
ATOM     25  H   UNL A   1      43.391  27.210  28.154  1.00  0.00     0.167 HD
ATOM     26  C   UNL A   1      47.574  27.045  26.873  1.00  0.00     0.037 A 
ATOM     27  C   UNL A   1      41.080  28.461  29.103  1.00  0.00     0.037 A 
ATOM     28  C   UNL A   1      47.352  28.407  27.291  1.00  0.00     0.049 A 
ATOM     29  C   UNL A   1      42.150  29.513  29.065  1.00  0.00     0.074 A 
ATOM     30  C   UNL A   1      48.245  29.466  27.297  1.00  0.00     0.029 A 
ATOM     31  N   UNL A   1      46.148  28.900  27.773  1.00  0.00    -0.354 N 
ATOM     32  N   UNL A   1      43.392  29.412  28.661  1.00  0.00    -0.248 NA
ATOM     33  C   UNL A   1      41.777  30.850  29.541  1.00  0.00     0.031 C 
ATOM     34  C   UNL A   1      47.591  30.589  27.816  1.00  0.00     0.029 A 
ATOM     35  C   UNL A   1      46.279  30.243  28.093  1.00  0.00     0.049 A 
ATOM     36  H   UNL A   1      45.322  28.374  27.874  1.00  0.00     0.167 HD
ATOM     37  C   UNL A   1      43.950  30.669  28.833  1.00  0.00     0.074 A 
ATOM     38  C   UNL A   1      42.898  31.526  29.341  1.00  0.00     0.031 C 
ATOM     39  C   UNL A   1      45.223  31.075  28.607  1.00  0.00     0.037 A 
BRANCH  26  40
ATOM     40  C   UNL A   1      48.947  26.679  26.389  1.00  0.00     0.064 A 
ATOM     41  C   UNL A   1      49.335  26.889  25.058  1.00  0.00     0.173 A 
ATOM     42  C   UNL A   1      49.910  26.185  27.282  1.00  0.00     0.173 A 
ATOM     43  F   UNL A   1      48.450  27.350  24.161  1.00  0.00    -0.203 F 
ATOM     44  C   UNL A   1      50.633  26.609  24.637  1.00  0.00     0.198 A 
ATOM     45  C   UNL A   1      51.213  25.928  26.864  1.00  0.00     0.198 A 
ATOM     46  F   UNL A   1      49.592  25.971  28.568  1.00  0.00    -0.203 F 
ATOM     47  F   UNL A   1      50.975  26.795  23.354  1.00  0.00    -0.200 F 
ATOM     48  C   UNL A   1      51.573  26.138  25.541  1.00  0.00     0.200 A 
ATOM     49  F   UNL A   1      52.124  25.485  27.742  1.00  0.00    -0.200 F 
ATOM     50  F   UNL A   1      52.826  25.886  25.138  1.00  0.00    -0.200 F 
ENDBRANCH  26  40
BRANCH  27  51
ATOM     51  C   UNL A   1      39.712  28.772  29.587  1.00  0.00     0.064 A 
ATOM     52  C   UNL A   1      38.741  29.306  28.730  1.00  0.00     0.173 A 
ATOM     53  C   UNL A   1      39.345  28.533  30.921  1.00  0.00     0.173 A 
ATOM     54  F   UNL A   1      39.049  29.568  27.450  1.00  0.00    -0.203 F 
ATOM     55  C   UNL A   1      37.462  29.609  29.192  1.00  0.00     0.198 A 
ATOM     56  C   UNL A   1      38.057  28.804  31.373  1.00  0.00     0.198 A 
ATOM     57  F   UNL A   1      40.236  28.015  31.780  1.00  0.00    -0.203 F 
ATOM     58  F   UNL A   1      36.567  30.163  28.363  1.00  0.00    -0.200 F 
ATOM     59  C   UNL A   1      37.119  29.350  30.512  1.00  0.00     0.200 A 
ATOM     60  F   UNL A   1      37.725  28.536  32.644  1.00  0.00    -0.200 F 
ATOM     61  F   UNL A   1      35.887  29.636  30.953  1.00  0.00    -0.200 F 
ENDBRANCH  27  51
BRANCH  39  62
ATOM     62  C   UNL A   1      45.533  32.512  28.905  1.00  0.00     0.064 A 
ATOM     63  C   UNL A   1      45.350  33.512  27.938  1.00  0.00     0.173 A 
ATOM     64  C   UNL A   1      46.016  32.893  30.164  1.00  0.00     0.173 A 
ATOM     65  F   UNL A   1      44.906  33.195  26.712  1.00  0.00    -0.203 F 
ATOM     66  C   UNL A   1      45.675  34.838  28.211  1.00  0.00     0.198 A 
ATOM     67  C   UNL A   1      46.314  34.223  30.443  1.00  0.00     0.198 A 
ATOM     68  F   UNL A   1      46.203  31.973  31.122  1.00  0.00    -0.203 F 
ATOM     69  F   UNL A   1      45.549  35.768  27.255  1.00  0.00    -0.200 F 
ATOM     70  C   UNL A   1      46.153  35.193  29.464  1.00  0.00     0.200 A 
ATOM     71  F   UNL A   1      46.767  34.567  31.657  1.00  0.00    -0.200 F 
ATOM     72  F   UNL A   1      46.471  36.468  29.724  1.00  0.00    -0.200 F 
ENDBRANCH  39  62
ENDBRANCH  13  14
ENDBRANCH   6   8
ENDBRANCH   3   4
ENDBRANCH   2   3
ENDBRANCH   1   2
BRANCH   1  73
ATOM     73  C   UNL A   1      36.673  21.845  25.272  1.00  0.00     0.116 C 
BRANCH  73  74
ATOM     74  N   UNL A   1      36.016  22.154  26.528  1.00  0.00    -0.352 N 
ATOM     75  C   UNL A   1      34.676  22.303  26.768  1.00  0.00     0.255 C 
ATOM     76  H   UNL A   1      36.608  22.271  27.305  1.00  0.00     0.163 HD
ATOM     77  O   UNL A   1      34.277  22.653  27.875  1.00  0.00    -0.269 OA
BRANCH  75  78
ATOM     78  C   UNL A   1      33.707  22.109  25.676  1.00  0.00     0.083 A 
ATOM     79  C   UNL A   1      33.359  23.240  24.928  1.00  0.00     0.044 A 
ATOM     80  C   UNL A   1      33.096  20.880  25.424  1.00  0.00     0.128 A 
ATOM     81  C   UNL A   1      32.377  23.162  23.931  1.00  0.00     0.053 A 
ATOM     82  C   UNL A   1      32.138  20.782  24.419  1.00  0.00     0.049 A 
ATOM     83  C   UNL A   1      31.769  21.921  23.692  1.00  0.00     0.031 A 
BRANCH  80  84
ATOM     84  O   UNL A   1      33.434  19.775  26.151  1.00  0.00    -0.507 OA
ATOM     85  H   UNL A   1      32.883  19.017  26.136  1.00  0.00     0.293 HD
ENDBRANCH  80  84
BRANCH  81  86
ATOM     86  N   UNL A   1      31.998  24.329  23.219  1.00  0.00    -0.249 N 
ATOM     87  C   UNL A   1      32.636  24.806  22.104  1.00  0.00     0.236 C 
ATOM     88  C   UNL A   1      30.956  25.139  23.602  1.00  0.00     0.256 C 
ATOM     89  O   UNL A   1      33.632  24.355  21.552  1.00  0.00    -0.274 OA
ATOM     90  C   UNL A   1      31.875  25.975  21.553  1.00  0.00     0.136 C 
ATOM     91  C   UNL A   1      30.767  26.231  22.556  1.00  0.00     0.179 C 
ATOM     92  O   UNL A   1      30.341  25.083  24.661  1.00  0.00    -0.272 OA
BRANCH  91  93
ATOM     93  N   UNL A   1      30.915  27.572  23.150  1.00  0.00    -0.370 N 
ATOM     94  H   UNL A   1      31.679  27.812  23.723  1.00  0.00     0.161 HD
BRANCH  93  95
ATOM     95  C   UNL A   1      29.889  28.485  22.844  1.00  0.00     0.077 A 
ATOM     96  C   UNL A   1      28.579  28.224  23.250  1.00  0.00     0.029 A 
ATOM     97  C   UNL A   1      30.137  29.641  22.085  1.00  0.00     0.138 A 
ATOM     98  C   UNL A   1      27.543  29.095  22.898  1.00  0.00     0.002 A 
ATOM     99  C   UNL A   1      29.112  30.517  21.737  1.00  0.00     0.048 A 
ATOM    100  C   UNL A   1      27.809  30.239  22.143  1.00  0.00     0.004 A 
BRANCH  97 101
ATOM    101  O   UNL A   1      31.419  29.886  21.678  1.00  0.00    -0.506 OA
ATOM    102  H   UNL A   1      31.710  29.583  20.840  1.00  0.00     0.293 HD
ENDBRANCH  97 101
ENDBRANCH  93  95
ENDBRANCH  91  93
ENDBRANCH  81  86
ENDBRANCH  75  78
ENDBRANCH  73  74
ENDBRANCH   1  73
TORSDOF 16
ENDMDL
MODEL 3
REMARK VINA RESULT:     -13.3      1.148      2.445
REMARK SMILES O=C(NCCCCNC(=O)c1cc(N2C(=O)C[C@H](Nc3ccccc3O)C2=O)ccc1O)c1ccc(-c2c3nc(c(-c4c(F)c(F)c(F)c(F)c4F)c4ccc([nH]4)c(-c4c(F)c(F)c(F)c(F)c4F)c4nc(c(-c5c(F)c(F)c(F)c(F)c5F)c5ccc2[nH]5)C=C4)C=C3)cc1
REMARK SMILES IDX 6 1 5 2 4 3 3 4 1 5 2 6 33 8 34 9 95 10 35 11 94 12 36 13
REMARK SMILES IDX 37 14 38 15 88 16 39 17 93 18 87 19 89 20 40 21 92 22 86 23
REMARK SMILES IDX 85 24 41 26 73 27 53 28 72 29 54 30 57 31 71 32 90 33 55 34
REMARK SMILES IDX 56 35 70 37 91 38 58 39 42 40 43 41 51 42 44 43 45 44 49 45
REMARK SMILES IDX 52 46 46 47 47 48 50 49 48 50 74 51 75 52 83 53 76 54 77 55
REMARK SMILES IDX 81 56 84 57 78 58 79 59 82 60 80 61 59 62 60 63 68 64 61 65
REMARK SMILES IDX 62 66 66 67 69 68 63 69 64 70 67 71 65 72 7 73 8 74 9 75
REMARK SMILES IDX 10 77 11 78 12 79 31 80 13 81 30 82 29 83 32 84 14 86 15 87
REMARK SMILES IDX 27 88 16 89 17 90 18 91 28 92 19 93 20 95 21 96 25 97 22 98
REMARK SMILES IDX 24 99 23 100 26 101
REMARK H PARENT 3 7 89 25 57 36 8 76 32 85 19 94 26 102
REMARK Flexibility Score: inf
ROOT
ATOM      1  C   UNL A   1      31.352  30.532  25.581  1.00  0.00     0.023 C 
ENDROOT
BRANCH   1   2
ATOM      2  C   UNL A   1      31.169  31.754  26.477  1.00  0.00     0.023 C 
BRANCH   2   3
ATOM      3  C   UNL A   1      32.454  32.462  26.876  1.00  0.00     0.116 C 
BRANCH   3   4
ATOM      4  N   UNL A   1      32.232  33.797  27.413  1.00  0.00    -0.352 N 
ATOM      5  O   UNL A   1      32.547  35.551  28.806  1.00  0.00    -0.269 OA
ATOM      6  C   UNL A   1      32.940  34.469  28.381  1.00  0.00     0.251 C 
ATOM      7  H   UNL A   1      31.468  34.286  27.031  1.00  0.00     0.163 HD
BRANCH   6   8
ATOM      8  C   UNL A   1      34.170  33.862  28.933  1.00  0.00     0.039 A 
ATOM      9  C   UNL A   1      34.097  32.705  29.708  1.00  0.00     0.014 A 
ATOM     10  C   UNL A   1      35.405  34.475  28.698  1.00  0.00     0.014 A 
ATOM     11  C   UNL A   1      35.224  32.258  30.382  1.00  0.00     0.010 A 
ATOM     12  C   UNL A   1      36.560  33.961  29.297  1.00  0.00     0.010 A 
ATOM     13  C   UNL A   1      36.473  32.869  30.172  1.00  0.00    -0.014 A 
BRANCH  13  14
ATOM     14  C   UNL A   1      37.667  32.284  30.831  1.00  0.00     0.031 A 
ATOM     15  C   UNL A   1      38.063  32.663  32.231  1.00  0.00     0.074 A 
ATOM     16  C   UNL A   1      38.360  31.340  30.163  1.00  0.00     0.049 A 
ATOM     17  N   UNL A   1      39.038  32.188  32.966  1.00  0.00    -0.248 NA
ATOM     18  C   UNL A   1      37.273  33.713  32.891  1.00  0.00     0.031 C 
ATOM     19  C   UNL A   1      38.079  30.910  28.790  1.00  0.00     0.029 A 
ATOM     20  N   UNL A   1      39.411  30.551  30.548  1.00  0.00    -0.354 N 
ATOM     21  C   UNL A   1      38.986  32.885  34.167  1.00  0.00     0.074 A 
ATOM     22  C   UNL A   1      37.901  33.836  34.055  1.00  0.00     0.031 C 
ATOM     23  C   UNL A   1      38.891  29.892  28.473  1.00  0.00     0.029 A 
ATOM     24  C   UNL A   1      39.792  29.642  29.591  1.00  0.00     0.049 A 
ATOM     25  H   UNL A   1      39.851  30.627  31.426  1.00  0.00     0.167 HD
ATOM     26  C   UNL A   1      39.769  32.733  35.263  1.00  0.00     0.037 A 
ATOM     27  C   UNL A   1      40.766  28.716  29.605  1.00  0.00     0.037 A 
ATOM     28  C   UNL A   1      40.839  31.774  35.373  1.00  0.00     0.049 A 
ATOM     29  C   UNL A   1      41.612  28.571  30.836  1.00  0.00     0.074 A 
ATOM     30  C   UNL A   1      41.682  31.537  36.446  1.00  0.00     0.029 A 
ATOM     31  N   UNL A   1      41.213  30.888  34.372  1.00  0.00    -0.354 N 
ATOM     32  N   UNL A   1      41.539  29.226  31.969  1.00  0.00    -0.248 NA
ATOM     33  C   UNL A   1      42.677  27.563  30.790  1.00  0.00     0.031 C 
ATOM     34  C   UNL A   1      42.587  30.533  36.083  1.00  0.00     0.029 A 
ATOM     35  C   UNL A   1      42.282  30.113  34.799  1.00  0.00     0.049 A 
ATOM     36  H   UNL A   1      40.783  30.819  33.489  1.00  0.00     0.167 HD
ATOM     37  C   UNL A   1      42.546  28.710  32.771  1.00  0.00     0.074 A 
ATOM     38  C   UNL A   1      43.190  27.661  32.007  1.00  0.00     0.031 C 
ATOM     39  C   UNL A   1      42.915  29.082  34.020  1.00  0.00     0.037 A 
BRANCH  26  40
ATOM     40  C   UNL A   1      39.509  33.626  36.442  1.00  0.00     0.064 A 
ATOM     41  C   UNL A   1      38.706  33.210  37.514  1.00  0.00     0.173 A 
ATOM     42  C   UNL A   1      40.131  34.880  36.537  1.00  0.00     0.173 A 
ATOM     43  F   UNL A   1      38.080  32.024  37.468  1.00  0.00    -0.203 F 
ATOM     44  C   UNL A   1      38.528  34.020  38.633  1.00  0.00     0.198 A 
ATOM     45  C   UNL A   1      39.970  35.678  37.667  1.00  0.00     0.198 A 
ATOM     46  F   UNL A   1      40.914  35.323  35.542  1.00  0.00    -0.203 F 
ATOM     47  F   UNL A   1      37.737  33.612  39.635  1.00  0.00    -0.200 F 
ATOM     48  C   UNL A   1      39.167  35.248  38.713  1.00  0.00     0.200 A 
ATOM     49  F   UNL A   1      40.599  36.859  37.748  1.00  0.00    -0.200 F 
ATOM     50  F   UNL A   1      39.008  36.019  39.798  1.00  0.00    -0.200 F 
ENDBRANCH  26  40
BRANCH  27  51
ATOM     51  C   UNL A   1      40.994  27.866  28.410  1.00  0.00     0.064 A 
ATOM     52  C   UNL A   1      41.842  28.280  27.375  1.00  0.00     0.173 A 
ATOM     53  C   UNL A   1      40.372  26.614  28.282  1.00  0.00     0.173 A 
ATOM     54  F   UNL A   1      42.446  29.476  27.442  1.00  0.00    -0.203 F 
ATOM     55  C   UNL A   1      42.043  27.485  26.248  1.00  0.00     0.198 A 
ATOM     56  C   UNL A   1      40.600  25.805  27.173  1.00  0.00     0.198 A 
ATOM     57  F   UNL A   1      39.557  26.168  29.250  1.00  0.00    -0.203 F 
ATOM     58  F   UNL A   1      42.822  27.926  25.251  1.00  0.00    -0.200 F 
ATOM     59  C   UNL A   1      41.428  26.245  26.152  1.00  0.00     0.200 A 
ATOM     60  F   UNL A   1      40.017  24.601  27.093  1.00  0.00    -0.200 F 
ATOM     61  F   UNL A   1      41.627  25.479  25.072  1.00  0.00    -0.200 F 
ENDBRANCH  27  51
BRANCH  39  62
ATOM     62  C   UNL A   1      44.065  28.337  34.630  1.00  0.00     0.064 A 
ATOM     63  C   UNL A   1      43.864  27.150  35.351  1.00  0.00     0.173 A 
ATOM     64  C   UNL A   1      45.377  28.812  34.494  1.00  0.00     0.173 A 
ATOM     65  F   UNL A   1      42.625  26.665  35.523  1.00  0.00    -0.203 F 
ATOM     66  C   UNL A   1      44.933  26.485  35.945  1.00  0.00     0.198 A 
ATOM     67  C   UNL A   1      46.446  28.130  35.066  1.00  0.00     0.198 A 
ATOM     68  F   UNL A   1      45.620  29.939  33.811  1.00  0.00    -0.203 F 
ATOM     69  F   UNL A   1      44.712  25.386  36.679  1.00  0.00    -0.200 F 
ATOM     70  C   UNL A   1      46.223  26.973  35.799  1.00  0.00     0.200 A 
ATOM     71  F   UNL A   1      47.694  28.597  34.917  1.00  0.00    -0.200 F 
ATOM     72  F   UNL A   1      47.250  26.336  36.376  1.00  0.00    -0.200 F 
ENDBRANCH  39  62
ENDBRANCH  13  14
ENDBRANCH   6   8
ENDBRANCH   3   4
ENDBRANCH   2   3
ENDBRANCH   1   2
BRANCH   1  73
ATOM     73  C   UNL A   1      31.672  29.234  26.316  1.00  0.00     0.116 C 
BRANCH  73  74
ATOM     74  N   UNL A   1      33.054  29.178  26.751  1.00  0.00    -0.352 N 
ATOM     75  C   UNL A   1      34.078  28.438  26.224  1.00  0.00     0.255 C 
ATOM     76  H   UNL A   1      33.285  29.745  27.522  1.00  0.00     0.163 HD
ATOM     77  O   UNL A   1      35.182  28.431  26.761  1.00  0.00    -0.269 OA
BRANCH  75  78
ATOM     78  C   UNL A   1      33.841  27.589  25.045  1.00  0.00     0.083 A 
ATOM     79  C   UNL A   1      33.808  26.205  25.255  1.00  0.00     0.044 A 
ATOM     80  C   UNL A   1      33.722  28.110  23.755  1.00  0.00     0.128 A 
ATOM     81  C   UNL A   1      33.678  25.322  24.174  1.00  0.00     0.053 A 
ATOM     82  C   UNL A   1      33.566  27.246  22.676  1.00  0.00     0.049 A 
ATOM     83  C   UNL A   1      33.564  25.860  22.884  1.00  0.00     0.031 A 
BRANCH  80  84
ATOM     84  O   UNL A   1      33.753  29.460  23.547  1.00  0.00    -0.507 OA
ATOM     85  H   UNL A   1      32.996  29.899  23.214  1.00  0.00     0.293 HD
ENDBRANCH  80  84
BRANCH  81  86
ATOM     86  N   UNL A   1      33.701  23.921  24.399  1.00  0.00    -0.249 N 
ATOM     87  C   UNL A   1      34.580  23.049  23.811  1.00  0.00     0.236 C 
ATOM     88  C   UNL A   1      32.803  23.275  25.214  1.00  0.00     0.256 C 
ATOM     89  O   UNL A   1      35.455  23.297  22.990  1.00  0.00    -0.274 OA
ATOM     90  C   UNL A   1      34.389  21.679  24.389  1.00  0.00     0.136 C 
ATOM     91  C   UNL A   1      33.187  21.803  25.305  1.00  0.00     0.179 C 
ATOM     92  O   UNL A   1      31.787  23.755  25.704  1.00  0.00    -0.272 OA
BRANCH  91  93
ATOM     93  N   UNL A   1      32.093  20.935  24.835  1.00  0.00    -0.370 N 
ATOM     94  H   UNL A   1      31.162  21.247  24.777  1.00  0.00     0.161 HD
BRANCH  93  95
ATOM     95  C   UNL A   1      32.471  19.628  24.475  1.00  0.00     0.077 A 
ATOM     96  C   UNL A   1      32.387  19.219  23.143  1.00  0.00     0.029 A 
ATOM     97  C   UNL A   1      32.883  18.691  25.438  1.00  0.00     0.138 A 
ATOM     98  C   UNL A   1      32.702  17.904  22.786  1.00  0.00     0.002 A 
ATOM     99  C   UNL A   1      33.205  17.382  25.090  1.00  0.00     0.048 A 
ATOM    100  C   UNL A   1      33.109  16.988  23.758  1.00  0.00     0.004 A 
BRANCH  97 101
ATOM    101  O   UNL A   1      32.950  19.091  26.744  1.00  0.00    -0.506 OA
ATOM    102  H   UNL A   1      32.924  20.004  26.957  1.00  0.00     0.293 HD
ENDBRANCH  97 101
ENDBRANCH  93  95
ENDBRANCH  91  93
ENDBRANCH  81  86
ENDBRANCH  75  78
ENDBRANCH  73  74
ENDBRANCH   1  73
TORSDOF 16
ENDMDL
