MODEL 1
REMARK VINA RESULT:     -12.8      0.000      0.000
REMARK SMILES C[C@@H](C(=O)NCCCCNC(=O)c1ccc(-c2c3nc(c(-c4c(F)c(F)c(F)c(F)c4F)c4ccc([nH]4)c(-c4c(F)c(F)c(F)c(F)c4F)c4nc(c(-c5c(F)c(F)c(F)c(F)c5F)c5ccc2[nH]5)C=C4)C=C3)cc1)c1ccc(C[C@H]2CCCC2=O)cc1Cl
REMARK SMILES IDX 7 1 6 2 5 3 3 4 4 5 2 7 1 8 76 9 77 10 88 11 78 12 87 13
REMARK SMILES IDX 89 14 79 15 80 16 81 17 82 18 85 19 83 20 84 21 86 22 8 23
REMARK SMILES IDX 9 24 10 25 11 26 12 28 13 29 14 30 75 31 15 32 74 33 16 34
REMARK SMILES IDX 17 35 18 36 68 37 19 38 73 39 67 40 69 41 20 42 72 43 66 44
REMARK SMILES IDX 65 45 21 47 53 48 33 49 52 50 34 51 37 52 51 53 70 54 35 55
REMARK SMILES IDX 36 56 50 58 71 59 38 60 22 61 23 62 31 63 24 64 25 65 29 66
REMARK SMILES IDX 32 67 26 68 27 69 30 70 28 71 54 72 55 73 63 74 56 75 57 76
REMARK SMILES IDX 61 77 64 78 58 79 59 80 62 81 60 82 39 83 40 84 48 85 41 86
REMARK SMILES IDX 42 87 46 88 49 89 43 90 44 91 47 92 45 93
REMARK H PARENT 5 6 10 27 69 46 37 57
REMARK Flexibility Score: inf
ROOT
ATOM      1  C   UNL A   1      31.480  30.656  26.124  1.00  0.00     0.023 C 
ENDROOT
BRANCH   1   2
ATOM      2  C   UNL A   1      32.799  30.003  26.547  1.00  0.00     0.116 C 
BRANCH   2   3
ATOM      3  N   UNL A   1      33.612  29.721  25.382  1.00  0.00    -0.356 N 
ATOM      4  C   UNL A   1      33.647  28.594  24.607  1.00  0.00     0.227 C 
ATOM      5  O   UNL A   1      34.635  28.439  23.885  1.00  0.00    -0.274 OA
ATOM      6  H   UNL A   1      34.226  30.441  25.109  1.00  0.00     0.163 HD
BRANCH   4   7
ATOM      7  C   UNL A   1      32.473  27.596  24.655  1.00  0.00     0.107 C 
ATOM      8  C   UNL A   1      33.007  26.205  24.276  1.00  0.00     0.023 C 
BRANCH   7   9
ATOM      9  C   UNL A   1      31.289  28.050  23.788  1.00  0.00    -0.017 A 
ATOM     10  C   UNL A   1      31.466  29.000  22.767  1.00  0.00     0.006 A 
ATOM     11  C   UNL A   1      29.985  27.546  23.971  1.00  0.00     0.045 A 
ATOM     12  C   UNL A   1      30.391  29.492  22.029  1.00  0.00     0.004 A 
ATOM     13  C   UNL A   1      28.896  28.091  23.272  1.00  0.00     0.024 A 
ATOM     14  Cl  UNL A   1      29.648  26.216  25.028  1.00  0.00    -0.084 Cl
ATOM     15  C   UNL A   1      29.087  29.102  22.324  1.00  0.00    -0.046 A 
BRANCH  15  16
ATOM     16  C   UNL A   1      27.920  29.769  21.636  1.00  0.00     0.047 C 
BRANCH  16  17
ATOM     17  C   UNL A   1      27.422  31.082  22.264  1.00  0.00     0.060 C 
ATOM     18  C   UNL A   1      27.737  31.287  23.749  1.00  0.00     0.012 C 
ATOM     19  C   UNL A   1      28.039  32.315  21.643  1.00  0.00     0.136 C 
ATOM     20  C   UNL A   1      28.981  32.164  23.809  1.00  0.00     0.009 C 
ATOM     21  C   UNL A   1      28.871  33.106  22.619  1.00  0.00     0.076 C 
ATOM     22  O   UNL A   1      27.877  32.644  20.473  1.00  0.00    -0.299 OA
ENDBRANCH  16  17
ENDBRANCH  15  16
ENDBRANCH   7   9
ENDBRANCH   4   7
ENDBRANCH   2   3
ENDBRANCH   1   2
BRANCH   1  23
ATOM     23  C   UNL A   1      31.327  32.118  26.554  1.00  0.00     0.023 C 
BRANCH  23  24
ATOM     24  C   UNL A   1      32.568  32.735  27.186  1.00  0.00     0.116 C 
BRANCH  24  25
ATOM     25  N   UNL A   1      32.344  34.091  27.658  1.00  0.00    -0.352 N 
ATOM     26  C   UNL A   1      33.018  34.801  28.615  1.00  0.00     0.251 C 
ATOM     27  H   UNL A   1      31.599  34.569  27.227  1.00  0.00     0.163 HD
ATOM     28  O   UNL A   1      32.593  35.900  28.971  1.00  0.00    -0.269 OA
BRANCH  26  29
ATOM     29  C   UNL A   1      34.230  34.243  29.249  1.00  0.00     0.039 A 
ATOM     30  C   UNL A   1      34.075  33.431  30.375  1.00  0.00     0.014 A 
ATOM     31  C   UNL A   1      35.509  34.519  28.755  1.00  0.00     0.014 A 
ATOM     32  C   UNL A   1      35.196  32.857  30.975  1.00  0.00     0.010 A 
ATOM     33  C   UNL A   1      36.620  33.886  29.309  1.00  0.00     0.010 A 
ATOM     34  C   UNL A   1      36.475  33.055  30.427  1.00  0.00    -0.014 A 
BRANCH  34  35
ATOM     35  C   UNL A   1      37.655  32.382  31.024  1.00  0.00     0.031 A 
ATOM     36  C   UNL A   1      38.145  32.764  32.393  1.00  0.00     0.074 A 
ATOM     37  C   UNL A   1      38.299  31.434  30.316  1.00  0.00     0.049 A 
ATOM     38  N   UNL A   1      39.134  32.258  33.087  1.00  0.00    -0.248 NA
ATOM     39  C   UNL A   1      37.451  33.874  33.062  1.00  0.00     0.031 C 
ATOM     40  C   UNL A   1      37.964  31.030  28.949  1.00  0.00     0.029 A 
ATOM     41  N   UNL A   1      39.365  30.638  30.646  1.00  0.00    -0.354 N 
ATOM     42  C   UNL A   1      39.175  32.982  34.270  1.00  0.00     0.074 A 
ATOM     43  C   UNL A   1      38.158  34.006  34.176  1.00  0.00     0.031 C 
ATOM     44  C   UNL A   1      38.787  30.039  28.570  1.00  0.00     0.029 A 
ATOM     45  C   UNL A   1      39.719  29.756  29.655  1.00  0.00     0.049 A 
ATOM     46  H   UNL A   1      39.832  30.693  31.511  1.00  0.00     0.167 HD
ATOM     47  C   UNL A   1      39.966  32.789  35.352  1.00  0.00     0.037 A 
ATOM     48  C   UNL A   1      40.684  28.818  29.629  1.00  0.00     0.037 A 
ATOM     49  C   UNL A   1      40.973  31.763  35.449  1.00  0.00     0.049 A 
ATOM     50  C   UNL A   1      41.534  28.608  30.853  1.00  0.00     0.074 A 
ATOM     51  C   UNL A   1      41.803  31.462  36.514  1.00  0.00     0.029 A 
ATOM     52  N   UNL A   1      41.286  30.869  34.435  1.00  0.00    -0.354 N 
ATOM     53  N   UNL A   1      41.511  29.249  31.996  1.00  0.00    -0.248 NA
ATOM     54  C   UNL A   1      42.531  27.532  30.788  1.00  0.00     0.031 C 
ATOM     55  C   UNL A   1      42.643  30.410  36.133  1.00  0.00     0.029 A 
ATOM     56  C   UNL A   1      42.305  30.023  34.846  1.00  0.00     0.049 A 
ATOM     57  H   UNL A   1      40.848  30.839  33.554  1.00  0.00     0.167 HD
ATOM     58  C   UNL A   1      42.475  28.645  32.791  1.00  0.00     0.074 A 
ATOM     59  C   UNL A   1      43.042  27.566  32.009  1.00  0.00     0.031 C 
ATOM     60  C   UNL A   1      42.862  28.959  34.053  1.00  0.00     0.037 A 
BRANCH  47  61
ATOM     61  C   UNL A   1      39.762  33.697  36.531  1.00  0.00     0.064 A 
ATOM     62  C   UNL A   1      40.388  34.952  36.603  1.00  0.00     0.173 A 
ATOM     63  C   UNL A   1      38.905  33.331  37.580  1.00  0.00     0.173 A 
ATOM     64  F   UNL A   1      41.227  35.343  35.633  1.00  0.00    -0.203 F 
ATOM     65  C   UNL A   1      40.183  35.795  37.692  1.00  0.00     0.198 A 
ATOM     66  C   UNL A   1      38.679  34.190  38.653  1.00  0.00     0.198 A 
ATOM     67  F   UNL A   1      38.279  32.146  37.559  1.00  0.00    -0.203 F 
ATOM     68  F   UNL A   1      40.827  36.968  37.760  1.00  0.00    -0.200 F 
ATOM     69  C   UNL A   1      39.322  35.417  38.711  1.00  0.00     0.200 A 
ATOM     70  F   UNL A   1      37.838  33.829  39.632  1.00  0.00    -0.200 F 
ATOM     71  F   UNL A   1      39.119  36.234  39.754  1.00  0.00    -0.200 F 
ENDBRANCH  47  61
BRANCH  48  72
ATOM     72  C   UNL A   1      40.874  27.981  28.415  1.00  0.00     0.064 A 
ATOM     73  C   UNL A   1      41.685  28.413  27.357  1.00  0.00     0.173 A 
ATOM     74  C   UNL A   1      40.240  26.736  28.286  1.00  0.00     0.173 A 
ATOM     75  F   UNL A   1      42.298  29.604  27.428  1.00  0.00    -0.203 F 
ATOM     76  C   UNL A   1      41.836  27.645  26.206  1.00  0.00     0.198 A 
ATOM     77  C   UNL A   1      40.415  25.955  27.146  1.00  0.00     0.198 A 
ATOM     78  F   UNL A   1      39.460  26.274  29.273  1.00  0.00    -0.203 F 
ATOM     79  F   UNL A   1      42.577  28.105  25.188  1.00  0.00    -0.200 F 
ATOM     80  C   UNL A   1      41.205  26.414  26.103  1.00  0.00     0.200 A 
ATOM     81  F   UNL A   1      39.817  24.760  27.057  1.00  0.00    -0.200 F 
ATOM     82  F   UNL A   1      41.352  25.675  24.995  1.00  0.00    -0.200 F 
ENDBRANCH  48  72
BRANCH  60  83
ATOM     83  C   UNL A   1      43.939  28.110  34.664  1.00  0.00     0.064 A 
ATOM     84  C   UNL A   1      45.295  28.456  34.557  1.00  0.00     0.173 A 
ATOM     85  C   UNL A   1      43.613  26.942  35.368  1.00  0.00     0.173 A 
ATOM     86  F   UNL A   1      45.660  29.556  33.881  1.00  0.00    -0.203 F 
ATOM     87  C   UNL A   1      46.286  27.642  35.100  1.00  0.00     0.198 A 
ATOM     88  C   UNL A   1      44.604  26.148  35.936  1.00  0.00     0.198 A 
ATOM     89  F   UNL A   1      42.331  26.571  35.505  1.00  0.00    -0.203 F 
ATOM     90  F   UNL A   1      47.577  27.959  34.932  1.00  0.00    -0.200 F 
ATOM     91  C   UNL A   1      45.939  26.492  35.792  1.00  0.00     0.200 A 
ATOM     92  F   UNL A   1      44.267  25.043  36.617  1.00  0.00    -0.200 F 
ATOM     93  F   UNL A   1      46.894  25.708  36.312  1.00  0.00    -0.200 F 
ENDBRANCH  60  83
ENDBRANCH  34  35
ENDBRANCH  26  29
ENDBRANCH  24  25
ENDBRANCH  23  24
ENDBRANCH   1  23
TORSDOF 14
ENDMDL
MODEL 2
REMARK VINA RESULT:     -12.5      0.713      2.096
REMARK SMILES C[C@@H](C(=O)NCCCCNC(=O)c1ccc(-c2c3nc(c(-c4c(F)c(F)c(F)c(F)c4F)c4ccc([nH]4)c(-c4c(F)c(F)c(F)c(F)c4F)c4nc(c(-c5c(F)c(F)c(F)c(F)c5F)c5ccc2[nH]5)C=C4)C=C3)cc1)c1ccc(C[C@H]2CCCC2=O)cc1Cl
REMARK SMILES IDX 7 1 6 2 5 3 3 4 4 5 2 7 1 8 76 9 77 10 88 11 78 12 87 13
REMARK SMILES IDX 89 14 79 15 80 16 81 17 82 18 85 19 83 20 84 21 86 22 8 23
REMARK SMILES IDX 9 24 10 25 11 26 12 28 13 29 14 30 75 31 15 32 74 33 16 34
REMARK SMILES IDX 17 35 18 36 68 37 19 38 73 39 67 40 69 41 20 42 72 43 66 44
REMARK SMILES IDX 65 45 21 47 53 48 33 49 52 50 34 51 37 52 51 53 70 54 35 55
REMARK SMILES IDX 36 56 50 58 71 59 38 60 22 61 23 62 31 63 24 64 25 65 29 66
REMARK SMILES IDX 32 67 26 68 27 69 30 70 28 71 54 72 55 73 63 74 56 75 57 76
REMARK SMILES IDX 61 77 64 78 58 79 59 80 62 81 60 82 39 83 40 84 48 85 41 86
REMARK SMILES IDX 42 87 46 88 49 89 43 90 44 91 47 92 45 93
REMARK H PARENT 5 6 10 27 69 46 37 57
REMARK Flexibility Score: inf
ROOT
ATOM      1  C   UNL A   1      31.435  30.973  26.013  1.00  0.00     0.023 C 
ENDROOT
BRANCH   1   2
ATOM      2  C   UNL A   1      32.612  30.196  26.611  1.00  0.00     0.116 C 
BRANCH   2   3
ATOM      3  N   UNL A   1      32.133  29.003  27.279  1.00  0.00    -0.356 N 
ATOM      4  C   UNL A   1      31.773  27.798  26.740  1.00  0.00     0.227 C 
ATOM      5  O   UNL A   1      31.087  27.052  27.441  1.00  0.00    -0.274 OA
ATOM      6  H   UNL A   1      32.057  29.067  28.259  1.00  0.00     0.163 HD
BRANCH   4   7
ATOM      7  C   UNL A   1      32.239  27.427  25.317  1.00  0.00     0.107 C 
ATOM      8  C   UNL A   1      33.669  27.958  25.125  1.00  0.00     0.023 C 
BRANCH   7   9
ATOM      9  C   UNL A   1      31.258  27.915  24.240  1.00  0.00    -0.017 A 
ATOM     10  C   UNL A   1      31.616  28.944  23.351  1.00  0.00     0.006 A 
ATOM     11  C   UNL A   1      29.968  27.366  24.093  1.00  0.00     0.045 A 
ATOM     12  C   UNL A   1      30.712  29.461  22.425  1.00  0.00     0.004 A 
ATOM     13  C   UNL A   1      29.038  27.933  23.206  1.00  0.00     0.024 A 
ATOM     14  Cl  UNL A   1      29.461  25.952  24.955  1.00  0.00    -0.084 Cl
ATOM     15  C   UNL A   1      29.392  29.017  22.395  1.00  0.00    -0.046 A 
BRANCH  15  16
ATOM     16  C   UNL A   1      28.380  29.704  21.510  1.00  0.00     0.047 C 
BRANCH  16  17
ATOM     17  C   UNL A   1      27.650  30.911  22.123  1.00  0.00     0.060 C 
ATOM     18  C   UNL A   1      27.784  31.087  23.640  1.00  0.00     0.012 C 
ATOM     19  C   UNL A   1      28.156  32.241  21.611  1.00  0.00     0.136 C 
ATOM     20  C   UNL A   1      28.887  32.114  23.859  1.00  0.00     0.009 C 
ATOM     21  C   UNL A   1      28.773  33.088  22.695  1.00  0.00     0.076 C 
ATOM     22  O   UNL A   1      28.070  32.600  20.442  1.00  0.00    -0.299 OA
ENDBRANCH  16  17
ENDBRANCH  15  16
ENDBRANCH   7   9
ENDBRANCH   4   7
ENDBRANCH   2   3
ENDBRANCH   1   2
BRANCH   1  23
ATOM     23  C   UNL A   1      31.290  32.407  26.529  1.00  0.00     0.023 C 
BRANCH  23  24
ATOM     24  C   UNL A   1      32.517  32.960  27.242  1.00  0.00     0.116 C 
BRANCH  24  25
ATOM     25  N   UNL A   1      32.312  34.304  27.756  1.00  0.00    -0.352 N 
ATOM     26  C   UNL A   1      32.992  34.972  28.738  1.00  0.00     0.251 C 
ATOM     27  H   UNL A   1      31.577  34.807  27.337  1.00  0.00     0.163 HD
ATOM     28  O   UNL A   1      32.583  36.067  29.126  1.00  0.00    -0.269 OA
BRANCH  26  29
ATOM     29  C   UNL A   1      34.193  34.376  29.359  1.00  0.00     0.039 A 
ATOM     30  C   UNL A   1      34.037  33.658  30.547  1.00  0.00     0.014 A 
ATOM     31  C   UNL A   1      35.463  34.526  28.793  1.00  0.00     0.014 A 
ATOM     32  C   UNL A   1      35.144  33.050  31.139  1.00  0.00     0.010 A 
ATOM     33  C   UNL A   1      36.553  33.857  29.343  1.00  0.00     0.010 A 
ATOM     34  C   UNL A   1      36.406  33.118  30.525  1.00  0.00    -0.014 A 
BRANCH  34  35
ATOM     35  C   UNL A   1      37.565  32.407  31.118  1.00  0.00     0.031 A 
ATOM     36  C   UNL A   1      38.046  32.745  32.502  1.00  0.00     0.074 A 
ATOM     37  C   UNL A   1      38.198  31.464  30.395  1.00  0.00     0.049 A 
ATOM     38  N   UNL A   1      39.016  32.203  33.195  1.00  0.00    -0.248 NA
ATOM     39  C   UNL A   1      37.366  33.853  33.190  1.00  0.00     0.031 C 
ATOM     40  C   UNL A   1      37.871  31.099  29.015  1.00  0.00     0.029 A 
ATOM     41  N   UNL A   1      39.244  30.638  30.717  1.00  0.00    -0.354 N 
ATOM     42  C   UNL A   1      39.057  32.897  34.396  1.00  0.00     0.074 A 
ATOM     43  C   UNL A   1      38.062  33.944  34.314  1.00  0.00     0.031 C 
ATOM     44  C   UNL A   1      38.679  30.102  28.621  1.00  0.00     0.029 A 
ATOM     45  C   UNL A   1      39.592  29.773  29.709  1.00  0.00     0.049 A 
ATOM     46  H   UNL A   1      39.702  30.663  31.589  1.00  0.00     0.167 HD
ATOM     47  C   UNL A   1      39.832  32.662  35.482  1.00  0.00     0.037 A 
ATOM     48  C   UNL A   1      40.538  28.816  29.672  1.00  0.00     0.037 A 
ATOM     49  C   UNL A   1      40.816  31.614  35.565  1.00  0.00     0.049 A 
ATOM     50  C   UNL A   1      41.369  28.560  30.900  1.00  0.00     0.074 A 
ATOM     51  C   UNL A   1      41.627  31.270  36.632  1.00  0.00     0.029 A 
ATOM     52  N   UNL A   1      41.123  30.738  34.533  1.00  0.00    -0.354 N 
ATOM     53  N   UNL A   1      41.345  29.173  32.058  1.00  0.00    -0.248 NA
ATOM     54  C   UNL A   1      42.345  27.465  30.821  1.00  0.00     0.031 C 
ATOM     55  C   UNL A   1      42.451  30.211  36.235  1.00  0.00     0.029 A 
ATOM     56  C   UNL A   1      42.120  29.862  34.936  1.00  0.00     0.049 A 
ATOM     57  H   UNL A   1      40.695  30.738  33.647  1.00  0.00     0.167 HD
ATOM     58  C   UNL A   1      42.286  28.531  32.849  1.00  0.00     0.074 A 
ATOM     59  C   UNL A   1      42.842  27.459  32.048  1.00  0.00     0.031 C 
ATOM     60  C   UNL A   1      42.665  28.806  34.123  1.00  0.00     0.037 A 
BRANCH  47  61
ATOM     61  C   UNL A   1      39.631  33.545  36.680  1.00  0.00     0.064 A 
ATOM     62  C   UNL A   1      38.733  33.197  37.701  1.00  0.00     0.173 A 
ATOM     63  C   UNL A   1      40.369  34.729  36.832  1.00  0.00     0.173 A 
ATOM     64  F   UNL A   1      37.994  32.082  37.598  1.00  0.00    -0.203 F 
ATOM     65  C   UNL A   1      38.562  34.013  38.816  1.00  0.00     0.198 A 
ATOM     66  C   UNL A   1      40.217  35.528  37.963  1.00  0.00     0.198 A 
ATOM     67  F   UNL A   1      41.243  35.106  35.888  1.00  0.00    -0.203 F 
ATOM     68  F   UNL A   1      37.665  33.682  39.755  1.00  0.00    -0.200 F 
ATOM     69  C   UNL A   1      39.310  35.172  38.950  1.00  0.00     0.200 A 
ATOM     70  F   UNL A   1      40.949  36.642  38.097  1.00  0.00    -0.200 F 
ATOM     71  F   UNL A   1      39.151  35.952  40.029  1.00  0.00    -0.200 F 
ENDBRANCH  47  61
BRANCH  48  72
ATOM     72  C   UNL A   1      40.725  28.006  28.441  1.00  0.00     0.064 A 
ATOM     73  C   UNL A   1      40.083  26.770  28.282  1.00  0.00     0.173 A 
ATOM     74  C   UNL A   1      41.557  28.447  27.401  1.00  0.00     0.173 A 
ATOM     75  F   UNL A   1      39.291  26.298  29.257  1.00  0.00    -0.203 F 
ATOM     76  C   UNL A   1      40.284  25.995  27.143  1.00  0.00     0.198 A 
ATOM     77  C   UNL A   1      41.735  27.684  26.249  1.00  0.00     0.198 A 
ATOM     78  F   UNL A   1      42.188  29.625  27.500  1.00  0.00    -0.203 F 
ATOM     79  F   UNL A   1      39.698  24.794  27.040  1.00  0.00    -0.200 F 
ATOM     80  C   UNL A   1      41.106  26.454  26.125  1.00  0.00     0.200 A 
ATOM     81  F   UNL A   1      42.517  28.139  25.261  1.00  0.00    -0.200 F 
ATOM     82  F   UNL A   1      41.299  25.709  25.029  1.00  0.00    -0.200 F 
ENDBRANCH  48  72
BRANCH  60  83
ATOM     83  C   UNL A   1      43.717  27.921  34.725  1.00  0.00     0.064 A 
ATOM     84  C   UNL A   1      43.382  26.742  35.407  1.00  0.00     0.173 A 
ATOM     85  C   UNL A   1      45.075  28.252  34.615  1.00  0.00     0.173 A 
ATOM     86  F   UNL A   1      42.096  26.388  35.553  1.00  0.00    -0.203 F 
ATOM     87  C   UNL A   1      44.366  25.947  35.990  1.00  0.00     0.198 A 
ATOM     88  C   UNL A   1      46.058  27.440  35.171  1.00  0.00     0.198 A 
ATOM     89  F   UNL A   1      45.450  29.365  33.966  1.00  0.00    -0.203 F 
ATOM     90  F   UNL A   1      44.018  24.859  36.690  1.00  0.00    -0.200 F 
ATOM     91  C   UNL A   1      45.703  26.295  35.868  1.00  0.00     0.200 A 
ATOM     92  F   UNL A   1      47.351  27.769  35.041  1.00  0.00    -0.200 F 
ATOM     93  F   UNL A   1      46.649  25.531  36.432  1.00  0.00    -0.200 F 
ENDBRANCH  60  83
ENDBRANCH  34  35
ENDBRANCH  26  29
ENDBRANCH  24  25
ENDBRANCH  23  24
ENDBRANCH   1  23
TORSDOF 14
ENDMDL
MODEL 3
REMARK VINA RESULT:     -12.4      1.044      7.473
REMARK SMILES C[C@@H](C(=O)NCCCCNC(=O)c1ccc(-c2c3nc(c(-c4c(F)c(F)c(F)c(F)c4F)c4ccc([nH]4)c(-c4c(F)c(F)c(F)c(F)c4F)c4nc(c(-c5c(F)c(F)c(F)c(F)c5F)c5ccc2[nH]5)C=C4)C=C3)cc1)c1ccc(C[C@H]2CCCC2=O)cc1Cl
REMARK SMILES IDX 7 1 6 2 5 3 3 4 4 5 2 7 1 8 76 9 77 10 88 11 78 12 87 13
REMARK SMILES IDX 89 14 79 15 80 16 81 17 82 18 85 19 83 20 84 21 86 22 8 23
REMARK SMILES IDX 9 24 10 25 11 26 12 28 13 29 14 30 75 31 15 32 74 33 16 34
REMARK SMILES IDX 17 35 18 36 68 37 19 38 73 39 67 40 69 41 20 42 72 43 66 44
REMARK SMILES IDX 65 45 21 47 53 48 33 49 52 50 34 51 37 52 51 53 70 54 35 55
REMARK SMILES IDX 36 56 50 58 71 59 38 60 22 61 23 62 31 63 24 64 25 65 29 66
REMARK SMILES IDX 32 67 26 68 27 69 30 70 28 71 54 72 55 73 63 74 56 75 57 76
REMARK SMILES IDX 61 77 64 78 58 79 59 80 62 81 60 82 39 83 40 84 48 85 41 86
REMARK SMILES IDX 42 87 46 88 49 89 43 90 44 91 47 92 45 93
REMARK H PARENT 5 6 10 27 69 46 37 57
REMARK Flexibility Score: inf
ROOT
ATOM      1  C   UNL A   1      31.399  31.074  26.203  1.00  0.00     0.023 C 
ENDROOT
BRANCH   1   2
ATOM      2  C   UNL A   1      32.588  30.308  26.793  1.00  0.00     0.116 C 
BRANCH   2   3
ATOM      3  N   UNL A   1      32.126  29.107  27.458  1.00  0.00    -0.356 N 
ATOM      4  C   UNL A   1      31.803  27.892  26.919  1.00  0.00     0.227 C 
ATOM      5  O   UNL A   1      31.122  27.133  27.612  1.00  0.00    -0.274 OA
ATOM      6  H   UNL A   1      32.031  29.174  28.436  1.00  0.00     0.163 HD
BRANCH   4   7
ATOM      7  C   UNL A   1      32.301  27.525  25.506  1.00  0.00     0.107 C 
ATOM      8  C   UNL A   1      33.714  28.105  25.329  1.00  0.00     0.023 C 
BRANCH   7   9
ATOM      9  C   UNL A   1      31.319  27.969  24.411  1.00  0.00    -0.017 A 
ATOM     10  C   UNL A   1      31.654  29.002  23.518  1.00  0.00     0.006 A 
ATOM     11  C   UNL A   1      30.052  27.373  24.251  1.00  0.00     0.045 A 
ATOM     12  C   UNL A   1      30.745  29.480  22.576  1.00  0.00     0.004 A 
ATOM     13  C   UNL A   1      29.115  27.899  23.346  1.00  0.00     0.024 A 
ATOM     14  Cl  UNL A   1      29.584  25.949  25.119  1.00  0.00    -0.084 Cl
ATOM     15  C   UNL A   1      29.442  28.988  22.531  1.00  0.00    -0.046 A 
BRANCH  15  16
ATOM     16  C   UNL A   1      28.418  29.631  21.626  1.00  0.00     0.047 C 
BRANCH  16  17
ATOM     17  C   UNL A   1      27.668  30.843  22.203  1.00  0.00     0.060 C 
ATOM     18  C   UNL A   1      27.817  31.080  23.710  1.00  0.00     0.012 C 
ATOM     19  C   UNL A   1      28.136  32.164  21.634  1.00  0.00     0.136 C 
ATOM     20  C   UNL A   1      28.898  32.141  23.874  1.00  0.00     0.009 C 
ATOM     21  C   UNL A   1      28.746  33.066  22.676  1.00  0.00     0.076 C 
ATOM     22  O   UNL A   1      28.026  32.476  20.453  1.00  0.00    -0.299 OA
ENDBRANCH  16  17
ENDBRANCH  15  16
ENDBRANCH   7   9
ENDBRANCH   4   7
ENDBRANCH   2   3
ENDBRANCH   1   2
BRANCH   1  23
ATOM     23  C   UNL A   1      31.401  32.576  26.498  1.00  0.00     0.023 C 
BRANCH  23  24
ATOM     24  C   UNL A   1      32.535  33.053  27.396  1.00  0.00     0.116 C 
BRANCH  24  25
ATOM     25  N   UNL A   1      32.406  34.453  27.770  1.00  0.00    -0.352 N 
ATOM     26  C   UNL A   1      33.088  35.164  28.719  1.00  0.00     0.251 C 
ATOM     27  H   UNL A   1      31.730  34.962  27.267  1.00  0.00     0.163 HD
ATOM     28  O   UNL A   1      32.744  36.317  28.981  1.00  0.00    -0.269 OA
BRANCH  26  29
ATOM     29  C   UNL A   1      34.212  34.549  29.456  1.00  0.00     0.039 A 
ATOM     30  C   UNL A   1      33.942  33.928  30.678  1.00  0.00     0.014 A 
ATOM     31  C   UNL A   1      35.520  34.589  28.965  1.00  0.00     0.014 A 
ATOM     32  C   UNL A   1      34.972  33.305  31.381  1.00  0.00     0.010 A 
ATOM     33  C   UNL A   1      36.534  33.902  29.629  1.00  0.00     0.010 A 
ATOM     34  C   UNL A   1      36.271  33.259  30.846  1.00  0.00    -0.014 A 
BRANCH  34  35
ATOM     35  C   UNL A   1      37.348  32.531  31.561  1.00  0.00     0.031 A 
ATOM     36  C   UNL A   1      38.042  31.362  30.918  1.00  0.00     0.074 A 
ATOM     37  C   UNL A   1      37.687  32.916  32.806  1.00  0.00     0.049 A 
ATOM     38  N   UNL A   1      39.028  30.633  31.376  1.00  0.00    -0.248 NA
ATOM     39  C   UNL A   1      37.549  30.941  29.598  1.00  0.00     0.031 C 
ATOM     40  C   UNL A   1      37.037  33.986  33.564  1.00  0.00     0.029 A 
ATOM     41  N   UNL A   1      38.662  32.455  33.653  1.00  0.00    -0.354 N 
ATOM     42  C   UNL A   1      39.276  29.676  30.402  1.00  0.00     0.074 A 
ATOM     43  C   UNL A   1      38.295  29.872  29.357  1.00  0.00     0.031 C 
ATOM     44  C   UNL A   1      37.651  34.121  34.750  1.00  0.00     0.029 A 
ATOM     45  C   UNL A   1      38.721  33.134  34.845  1.00  0.00     0.049 A 
ATOM     46  H   UNL A   1      39.263  31.708  33.428  1.00  0.00     0.167 HD
ATOM     47  C   UNL A   1      40.254  28.740  30.365  1.00  0.00     0.037 A 
ATOM     48  C   UNL A   1      39.551  32.982  35.893  1.00  0.00     0.037 A 
ATOM     49  C   UNL A   1      41.236  28.552  31.403  1.00  0.00     0.049 A 
ATOM     50  C   UNL A   1      40.644  31.950  35.817  1.00  0.00     0.074 A 
ATOM     51  C   UNL A   1      42.289  27.656  31.445  1.00  0.00     0.029 A 
ATOM     52  N   UNL A   1      41.282  29.278  32.584  1.00  0.00    -0.354 N 
ATOM     53  N   UNL A   1      40.916  31.102  34.856  1.00  0.00    -0.248 NA
ATOM     54  C   UNL A   1      41.556  31.869  36.966  1.00  0.00     0.031 C 
ATOM     55  C   UNL A   1      42.951  27.813  32.668  1.00  0.00     0.029 A 
ATOM     56  C   UNL A   1      42.339  28.841  33.368  1.00  0.00     0.049 A 
ATOM     57  H   UNL A   1      40.657  29.997  32.830  1.00  0.00     0.167 HD
ATOM     58  C   UNL A   1      42.037  30.399  35.273  1.00  0.00     0.074 A 
ATOM     59  C   UNL A   1      42.413  30.944  36.563  1.00  0.00     0.031 C 
ATOM     60  C   UNL A   1      42.694  29.389  34.651  1.00  0.00     0.037 A 
BRANCH  47  61
ATOM     61  C   UNL A   1      40.324  27.857  29.152  1.00  0.00     0.064 A 
ATOM     62  C   UNL A   1      39.619  26.644  29.092  1.00  0.00     0.173 A 
ATOM     63  C   UNL A   1      41.066  28.240  28.026  1.00  0.00     0.173 A 
ATOM     64  F   UNL A   1      38.904  26.226  30.147  1.00  0.00    -0.203 F 
ATOM     65  C   UNL A   1      39.676  25.837  27.959  1.00  0.00     0.198 A 
ATOM     66  C   UNL A   1      41.097  27.444  26.883  1.00  0.00     0.198 A 
ATOM     67  F   UNL A   1      41.755  29.391  28.029  1.00  0.00    -0.203 F 
ATOM     68  F   UNL A   1      39.032  24.662  27.943  1.00  0.00    -0.200 F 
ATOM     69  C   UNL A   1      40.408  26.241  26.853  1.00  0.00     0.200 A 
ATOM     70  F   UNL A   1      41.795  27.842  25.810  1.00  0.00    -0.200 F 
ATOM     71  F   UNL A   1      40.454  25.467  25.760  1.00  0.00    -0.200 F 
ENDBRANCH  47  61
BRANCH  48  72
ATOM     72  C   UNL A   1      39.404  33.852  37.089  1.00  0.00     0.064 A 
ATOM     73  C   UNL A   1      40.005  35.117  37.143  1.00  0.00     0.173 A 
ATOM     74  C   UNL A   1      38.665  33.433  38.205  1.00  0.00     0.173 A 
ATOM     75  F   UNL A   1      40.737  35.554  36.107  1.00  0.00    -0.203 F 
ATOM     76  C   UNL A   1      39.896  35.919  38.276  1.00  0.00     0.198 A 
ATOM     77  C   UNL A   1      38.531  34.248  39.327  1.00  0.00     0.198 A 
ATOM     78  F   UNL A   1      38.063  32.235  38.200  1.00  0.00    -0.203 F 
ATOM     79  F   UNL A   1      40.524  37.102  38.321  1.00  0.00    -0.200 F 
ATOM     80  C   UNL A   1      39.155  35.485  39.365  1.00  0.00     0.200 A 
ATOM     81  F   UNL A   1      37.801  33.832  40.371  1.00  0.00    -0.200 F 
ATOM     82  F   UNL A   1      39.048  36.258  40.455  1.00  0.00    -0.200 F 
ENDBRANCH  48  72
BRANCH  60  83
ATOM     83  C   UNL A   1      43.894  28.823  35.355  1.00  0.00     0.064 A 
ATOM     84  C   UNL A   1      43.773  27.796  36.302  1.00  0.00     0.173 A 
ATOM     85  C   UNL A   1      45.179  29.310  35.075  1.00  0.00     0.173 A 
ATOM     86  F   UNL A   1      42.563  27.306  36.615  1.00  0.00    -0.203 F 
ATOM     87  C   UNL A   1      44.890  27.303  36.971  1.00  0.00     0.198 A 
ATOM     88  C   UNL A   1      46.297  28.794  35.723  1.00  0.00     0.198 A 
ATOM     89  F   UNL A   1      45.351  30.287  34.171  1.00  0.00    -0.203 F 
ATOM     90  F   UNL A   1      44.742  26.366  37.917  1.00  0.00    -0.200 F 
ATOM     91  C   UNL A   1      46.150  27.799  36.678  1.00  0.00     0.200 A 
ATOM     92  F   UNL A   1      47.517  29.265  35.429  1.00  0.00    -0.200 F 
ATOM     93  F   UNL A   1      47.225  27.326  37.325  1.00  0.00    -0.200 F 
ENDBRANCH  60  83
ENDBRANCH  34  35
ENDBRANCH  26  29
ENDBRANCH  24  25
ENDBRANCH  23  24
ENDBRANCH   1  23
TORSDOF 14
ENDMDL
