MODEL 1
REMARK VINA RESULT:     -10.5      0.000      0.000
REMARK SMILES CC(=O)Oc1ccccc1SCCCCCC(=O)NCCCCNC(=O)c1ccc(-c2c3nc(c(-c4c(F)c(F)c(F)c(F)c4F)c4ccc([nH]4)c(-c4c(F)c(F)c(F)c(F)c4F)c4nc(c(-c5c(F)c(F)c(F)c(F)c5F)c5ccc2[nH]5)C=C4)C=C3)cc1
REMARK SMILES IDX 17 1 18 2 19 3 16 5 15 6 14 7 13 8 12 9 11 10 10 11 5 12
REMARK SMILES IDX 6 13 7 14 9 15 8 16 4 17 2 18 1 19 3 20 20 21 21 22 22 23
REMARK SMILES IDX 23 24 24 25 25 26 26 28 27 29 28 30 89 31 29 32 88 33 30 34
REMARK SMILES IDX 31 35 32 36 82 37 33 38 87 39 81 40 83 41 34 42 86 43 80 44
REMARK SMILES IDX 79 45 35 47 67 48 47 49 66 50 48 51 51 52 65 53 84 54 49 55
REMARK SMILES IDX 50 56 64 58 85 59 52 60 36 61 37 62 45 63 38 64 39 65 43 66
REMARK SMILES IDX 46 67 40 68 41 69 44 70 42 71 68 72 69 73 77 74 70 75 71 76
REMARK SMILES IDX 75 77 78 78 72 79 73 80 76 81 74 82 53 83 54 84 62 85 55 86
REMARK SMILES IDX 56 87 60 88 63 89 57 90 58 91 61 92 59 93
REMARK H PARENT 19 4 24 27 83 46 51 57
REMARK Flexibility Score: inf
ROOT
ATOM      1  C   UNL A   1      33.240  28.169  24.581  1.00  0.00     0.219 C 
ATOM      2  O   UNL A   1      32.801  28.233  23.433  1.00  0.00    -0.275 OA
ATOM      3  N   UNL A   1      33.577  29.322  25.222  1.00  0.00    -0.356 N 
ATOM      4  H   UNL A   1      33.348  30.159  24.757  1.00  0.00     0.163 HD
ENDROOT
BRANCH   1   5
ATOM      5  C   UNL A   1      33.389  26.841  25.298  1.00  0.00     0.100 C 
BRANCH   5   6
ATOM      6  C   UNL A   1      32.153  26.412  26.093  1.00  0.00     0.010 C 
BRANCH   6   7
ATOM      7  C   UNL A   1      32.000  24.947  26.552  1.00  0.00     0.001 C 
BRANCH   7   8
ATOM      8  C   UNL A   1      30.869  24.099  25.975  1.00  0.00     0.011 C 
BRANCH   8   9
ATOM      9  C   UNL A   1      30.916  22.563  25.876  1.00  0.00     0.075 C 
BRANCH   9  10
ATOM     10  S   UNL A   1      32.088  21.493  24.978  1.00  0.00    -0.122 SA
BRANCH  10  11
ATOM     11  C   UNL A   1      33.651  22.330  24.857  1.00  0.00     0.050 A 
ATOM     12  C   UNL A   1      34.167  23.127  23.827  1.00  0.00     0.144 A 
ATOM     13  C   UNL A   1      35.293  23.942  24.052  1.00  0.00     0.048 A 
ATOM     14  C   UNL A   1      35.945  23.928  25.284  1.00  0.00     0.004 A 
ATOM     15  C   UNL A   1      34.385  22.267  26.060  1.00  0.00     0.019 A 
ATOM     16  C   UNL A   1      35.508  23.067  26.282  1.00  0.00     0.001 A 
BRANCH  12  17
ATOM     17  O   UNL A   1      33.472  23.479  22.636  1.00  0.00    -0.426 OA
BRANCH  17  18
ATOM     18  C   UNL A   1      33.044  24.730  22.203  1.00  0.00     0.308 C 
ATOM     19  C   UNL A   1      31.619  24.908  22.662  1.00  0.00     0.139 C 
ATOM     20  O   UNL A   1      33.689  25.545  21.570  1.00  0.00    -0.252 OA
ENDBRANCH  17  18
ENDBRANCH  12  17
ENDBRANCH  10  11
ENDBRANCH   9  10
ENDBRANCH   8   9
ENDBRANCH   7   8
ENDBRANCH   6   7
ENDBRANCH   5   6
ENDBRANCH   1   5
BRANCH   3  21
ATOM     21  C   UNL A   1      34.227  29.464  26.502  1.00  0.00     0.116 C 
BRANCH  21  22
ATOM     22  C   UNL A   1      33.251  30.024  27.532  1.00  0.00     0.023 C 
BRANCH  22  23
ATOM     23  C   UNL A   1      32.624  31.355  27.191  1.00  0.00     0.023 C 
BRANCH  23  24
ATOM     24  C   UNL A   1      33.500  32.529  27.562  1.00  0.00     0.116 C 
BRANCH  24  25
ATOM     25  N   UNL A   1      32.803  33.807  27.687  1.00  0.00    -0.352 N 
ATOM     26  C   UNL A   1      33.099  34.812  28.584  1.00  0.00     0.251 C 
ATOM     27  H   UNL A   1      32.051  33.966  27.071  1.00  0.00     0.163 HD
ATOM     28  O   UNL A   1      32.435  35.836  28.659  1.00  0.00    -0.269 OA
BRANCH  26  29
ATOM     29  C   UNL A   1      34.227  34.562  29.498  1.00  0.00     0.039 A 
ATOM     30  C   UNL A   1      33.968  34.004  30.748  1.00  0.00     0.014 A 
ATOM     31  C   UNL A   1      35.525  34.629  28.985  1.00  0.00     0.014 A 
ATOM     32  C   UNL A   1      35.020  33.428  31.458  1.00  0.00     0.010 A 
ATOM     33  C   UNL A   1      36.530  33.926  29.625  1.00  0.00     0.010 A 
ATOM     34  C   UNL A   1      36.297  33.336  30.878  1.00  0.00    -0.014 A 
BRANCH  34  35
ATOM     35  C   UNL A   1      37.424  32.675  31.580  1.00  0.00     0.031 A 
ATOM     36  C   UNL A   1      38.122  31.521  30.910  1.00  0.00     0.074 A 
ATOM     37  C   UNL A   1      37.778  33.058  32.822  1.00  0.00     0.049 A 
ATOM     38  N   UNL A   1      39.068  30.744  31.368  1.00  0.00    -0.248 NA
ATOM     39  C   UNL A   1      37.655  31.158  29.560  1.00  0.00     0.031 C 
ATOM     40  C   UNL A   1      37.131  34.113  33.606  1.00  0.00     0.029 A 
ATOM     41  N   UNL A   1      38.773  32.598  33.648  1.00  0.00    -0.354 N 
ATOM     42  C   UNL A   1      39.290  29.801  30.373  1.00  0.00     0.074 A 
ATOM     43  C   UNL A   1      38.317  30.037  29.334  1.00  0.00     0.031 C 
ATOM     44  C   UNL A   1      37.768  34.241  34.782  1.00  0.00     0.029 A 
ATOM     45  C   UNL A   1      38.844  33.257  34.852  1.00  0.00     0.049 A 
ATOM     46  H   UNL A   1      39.380  31.862  33.402  1.00  0.00     0.167 HD
ATOM     47  C   UNL A   1      40.254  28.855  30.304  1.00  0.00     0.037 A 
ATOM     48  C   UNL A   1      39.686  33.084  35.889  1.00  0.00     0.037 A 
ATOM     49  C   UNL A   1      41.249  28.653  31.320  1.00  0.00     0.049 A 
ATOM     50  C   UNL A   1      40.763  32.035  35.782  1.00  0.00     0.074 A 
ATOM     51  C   UNL A   1      42.300  27.756  31.333  1.00  0.00     0.029 A 
ATOM     52  N   UNL A   1      41.317  29.374  32.503  1.00  0.00    -0.354 N 
ATOM     53  N   UNL A   1      41.009  31.196  34.805  1.00  0.00    -0.248 NA
ATOM     54  C   UNL A   1      41.689  31.919  36.917  1.00  0.00     0.031 C 
ATOM     55  C   UNL A   1      42.983  27.907  32.544  1.00  0.00     0.029 A 
ATOM     56  C   UNL A   1      42.389  28.935  33.260  1.00  0.00     0.049 A 
ATOM     57  H   UNL A   1      40.696  30.091  32.766  1.00  0.00     0.167 HD
ATOM     58  C   UNL A   1      42.131  30.476  35.190  1.00  0.00     0.074 A 
ATOM     59  C   UNL A   1      42.531  30.991  36.483  1.00  0.00     0.031 C 
ATOM     60  C   UNL A   1      42.775  29.477  34.538  1.00  0.00     0.037 A 
BRANCH  47  61
ATOM     61  C   UNL A   1      40.287  27.995  29.074  1.00  0.00     0.064 A 
ATOM     62  C   UNL A   1      39.574  26.787  29.005  1.00  0.00     0.173 A 
ATOM     63  C   UNL A   1      41.031  28.381  27.950  1.00  0.00     0.173 A 
ATOM     64  F   UNL A   1      38.863  26.360  30.060  1.00  0.00    -0.203 F 
ATOM     65  C   UNL A   1      39.636  25.980  27.872  1.00  0.00     0.198 A 
ATOM     66  C   UNL A   1      41.061  27.590  26.805  1.00  0.00     0.198 A 
ATOM     67  F   UNL A   1      41.732  29.525  27.963  1.00  0.00    -0.203 F 
ATOM     68  F   UNL A   1      39.000  24.801  27.856  1.00  0.00    -0.200 F 
ATOM     69  C   UNL A   1      40.373  26.387  26.770  1.00  0.00     0.200 A 
ATOM     70  F   UNL A   1      41.765  27.988  25.736  1.00  0.00    -0.200 F 
ATOM     71  F   UNL A   1      40.426  25.613  25.678  1.00  0.00    -0.200 F 
ENDBRANCH  47  61
BRANCH  48  72
ATOM     72  C   UNL A   1      39.571  33.938  37.102  1.00  0.00     0.064 A 
ATOM     73  C   UNL A   1      38.830  33.518  38.216  1.00  0.00     0.173 A 
ATOM     74  C   UNL A   1      40.181  35.199  37.167  1.00  0.00     0.173 A 
ATOM     75  F   UNL A   1      38.212  32.327  38.198  1.00  0.00    -0.203 F 
ATOM     76  C   UNL A   1      38.675  34.337  39.333  1.00  0.00     0.198 A 
ATOM     77  C   UNL A   1      40.052  36.006  38.297  1.00  0.00     0.198 A 
ATOM     78  F   UNL A   1      40.909  35.648  36.134  1.00  0.00    -0.203 F 
ATOM     79  F   UNL A   1      37.913  33.933  40.358  1.00  0.00    -0.200 F 
ATOM     80  C   UNL A   1      39.291  35.580  39.374  1.00  0.00     0.200 A 
ATOM     81  F   UNL A   1      40.662  37.199  38.339  1.00  0.00    -0.200 F 
ATOM     82  F   UNL A   1      39.141  36.369  40.446  1.00  0.00    -0.200 F 
ENDBRANCH  48  72
BRANCH  60  83
ATOM     83  C   UNL A   1      44.002  28.908  35.187  1.00  0.00     0.064 A 
ATOM     84  C   UNL A   1      43.937  27.793  36.034  1.00  0.00     0.173 A 
ATOM     85  C   UNL A   1      45.264  29.460  34.919  1.00  0.00     0.173 A 
ATOM     86  F   UNL A   1      42.753  27.237  36.331  1.00  0.00    -0.203 F 
ATOM     87  C   UNL A   1      45.090  27.269  36.614  1.00  0.00     0.198 A 
ATOM     88  C   UNL A   1      46.416  28.913  35.473  1.00  0.00     0.198 A 
ATOM     89  F   UNL A   1      45.380  30.521  34.105  1.00  0.00    -0.203 F 
ATOM     90  F   UNL A   1      45.000  26.235  37.461  1.00  0.00    -0.200 F 
ATOM     91  C   UNL A   1      46.328  27.825  36.326  1.00  0.00     0.200 A 
ATOM     92  F   UNL A   1      47.614  29.440  35.179  1.00  0.00    -0.200 F 
ATOM     93  F   UNL A   1      47.437  27.313  36.878  1.00  0.00    -0.200 F 
ENDBRANCH  60  83
ENDBRANCH  34  35
ENDBRANCH  26  29
ENDBRANCH  24  25
ENDBRANCH  23  24
ENDBRANCH  22  23
ENDBRANCH  21  22
ENDBRANCH   3  21
TORSDOF 19
ENDMDL
MODEL 2
REMARK VINA RESULT:     -10.4      1.110      7.329
REMARK SMILES CC(=O)Oc1ccccc1SCCCCCC(=O)NCCCCNC(=O)c1ccc(-c2c3nc(c(-c4c(F)c(F)c(F)c(F)c4F)c4ccc([nH]4)c(-c4c(F)c(F)c(F)c(F)c4F)c4nc(c(-c5c(F)c(F)c(F)c(F)c5F)c5ccc2[nH]5)C=C4)C=C3)cc1
REMARK SMILES IDX 17 1 18 2 19 3 16 5 15 6 14 7 13 8 12 9 11 10 10 11 5 12
REMARK SMILES IDX 6 13 7 14 9 15 8 16 4 17 2 18 1 19 3 20 20 21 21 22 22 23
REMARK SMILES IDX 23 24 24 25 25 26 26 28 27 29 28 30 89 31 29 32 88 33 30 34
REMARK SMILES IDX 31 35 32 36 82 37 33 38 87 39 81 40 83 41 34 42 86 43 80 44
REMARK SMILES IDX 79 45 35 47 67 48 47 49 66 50 48 51 51 52 65 53 84 54 49 55
REMARK SMILES IDX 50 56 64 58 85 59 52 60 36 61 37 62 45 63 38 64 39 65 43 66
REMARK SMILES IDX 46 67 40 68 41 69 44 70 42 71 68 72 69 73 77 74 70 75 71 76
REMARK SMILES IDX 75 77 78 78 72 79 73 80 76 81 74 82 53 83 54 84 62 85 55 86
REMARK SMILES IDX 56 87 60 88 63 89 57 90 58 91 61 92 59 93
REMARK H PARENT 19 4 24 27 83 46 51 57
REMARK Flexibility Score: inf
ROOT
ATOM      1  C   UNL A   1      31.156  28.768  24.542  1.00  0.00     0.219 C 
ATOM      2  O   UNL A   1      30.335  28.913  23.637  1.00  0.00    -0.275 OA
ATOM      3  N   UNL A   1      32.112  29.719  24.722  1.00  0.00    -0.356 N 
ATOM      4  H   UNL A   1      32.025  30.531  24.171  1.00  0.00     0.163 HD
ENDROOT
BRANCH   1   5
ATOM      5  C   UNL A   1      31.106  27.569  25.471  1.00  0.00     0.100 C 
BRANCH   5   6
ATOM      6  C   UNL A   1      30.377  26.354  24.893  1.00  0.00     0.010 C 
BRANCH   6   7
ATOM      7  C   UNL A   1      30.396  25.010  25.650  1.00  0.00     0.001 C 
BRANCH   7   8
ATOM      8  C   UNL A   1      30.864  23.751  24.924  1.00  0.00     0.011 C 
BRANCH   8   9
ATOM      9  C   UNL A   1      31.949  22.804  25.468  1.00  0.00     0.075 C 
BRANCH   9  10
ATOM     10  S   UNL A   1      32.713  21.344  24.688  1.00  0.00    -0.122 SA
BRANCH  10  11
ATOM     11  C   UNL A   1      34.408  21.718  24.309  1.00  0.00     0.050 A 
ATOM     12  C   UNL A   1      34.958  22.812  23.629  1.00  0.00     0.144 A 
ATOM     13  C   UNL A   1      36.340  23.073  23.697  1.00  0.00     0.048 A 
ATOM     14  C   UNL A   1      37.191  22.218  24.396  1.00  0.00     0.004 A 
ATOM     15  C   UNL A   1      35.305  20.821  24.929  1.00  0.00     0.019 A 
ATOM     16  C   UNL A   1      36.677  21.073  24.989  1.00  0.00     0.001 A 
BRANCH  12  17
ATOM     17  O   UNL A   1      34.220  23.922  23.129  1.00  0.00    -0.426 OA
BRANCH  17  18
ATOM     18  C   UNL A   1      34.012  25.171  23.706  1.00  0.00     0.308 C 
ATOM     19  C   UNL A   1      33.480  26.086  22.632  1.00  0.00     0.139 C 
ATOM     20  O   UNL A   1      34.215  25.485  24.864  1.00  0.00    -0.252 OA
ENDBRANCH  17  18
ENDBRANCH  12  17
ENDBRANCH  10  11
ENDBRANCH   9  10
ENDBRANCH   8   9
ENDBRANCH   7   8
ENDBRANCH   6   7
ENDBRANCH   5   6
ENDBRANCH   1   5
BRANCH   3  21
ATOM     21  C   UNL A   1      33.238  29.682  25.623  1.00  0.00     0.116 C 
BRANCH  21  22
ATOM     22  C   UNL A   1      32.839  30.230  26.991  1.00  0.00     0.023 C 
BRANCH  22  23
ATOM     23  C   UNL A   1      32.243  31.617  26.997  1.00  0.00     0.023 C 
BRANCH  23  24
ATOM     24  C   UNL A   1      33.202  32.667  27.508  1.00  0.00     0.116 C 
BRANCH  24  25
ATOM     25  N   UNL A   1      32.614  33.983  27.743  1.00  0.00    -0.352 N 
ATOM     26  C   UNL A   1      33.046  34.916  28.662  1.00  0.00     0.251 C 
ATOM     27  H   UNL A   1      31.835  34.227  27.192  1.00  0.00     0.163 HD
ATOM     28  O   UNL A   1      32.467  35.979  28.834  1.00  0.00    -0.269 OA
BRANCH  26  29
ATOM     29  C   UNL A   1      34.212  34.539  29.479  1.00  0.00     0.039 A 
ATOM     30  C   UNL A   1      34.010  33.778  30.629  1.00  0.00     0.014 A 
ATOM     31  C   UNL A   1      35.487  34.713  28.936  1.00  0.00     0.014 A 
ATOM     32  C   UNL A   1      35.096  33.111  31.193  1.00  0.00     0.010 A 
ATOM     33  C   UNL A   1      36.526  33.931  29.412  1.00  0.00     0.010 A 
ATOM     34  C   UNL A   1      36.350  33.138  30.558  1.00  0.00    -0.014 A 
BRANCH  34  35
ATOM     35  C   UNL A   1      37.512  32.391  31.098  1.00  0.00     0.031 A 
ATOM     36  C   UNL A   1      38.036  32.749  32.463  1.00  0.00     0.074 A 
ATOM     37  C   UNL A   1      38.128  31.451  30.355  1.00  0.00     0.049 A 
ATOM     38  N   UNL A   1      39.084  32.292  33.096  1.00  0.00    -0.248 NA
ATOM     39  C   UNL A   1      37.311  33.802  33.195  1.00  0.00     0.031 C 
ATOM     40  C   UNL A   1      37.761  31.066  28.990  1.00  0.00     0.029 A 
ATOM     41  N   UNL A   1      39.201  30.647  30.646  1.00  0.00    -0.354 N 
ATOM     42  C   UNL A   1      39.147  33.013  34.281  1.00  0.00     0.074 A 
ATOM     43  C   UNL A   1      38.099  34.003  34.237  1.00  0.00     0.031 C 
ATOM     44  C   UNL A   1      38.573  30.078  28.578  1.00  0.00     0.029 A 
ATOM     45  C   UNL A   1      39.538  29.782  29.632  1.00  0.00     0.049 A 
ATOM     46  H   UNL A   1      39.687  30.686  31.502  1.00  0.00     0.167 HD
ATOM     47  C   UNL A   1      39.971  32.832  35.338  1.00  0.00     0.037 A 
ATOM     48  C   UNL A   1      40.515  28.857  29.567  1.00  0.00     0.037 A 
ATOM     49  C   UNL A   1      40.985  31.816  35.396  1.00  0.00     0.049 A 
ATOM     50  C   UNL A   1      41.410  28.663  30.764  1.00  0.00     0.074 A 
ATOM     51  C   UNL A   1      41.845  31.513  36.434  1.00  0.00     0.029 A 
ATOM     52  N   UNL A   1      41.263  30.928  34.367  1.00  0.00    -0.354 N 
ATOM     53  N   UNL A   1      41.415  29.302  31.909  1.00  0.00    -0.248 NA
ATOM     54  C   UNL A   1      42.426  27.606  30.665  1.00  0.00     0.031 C 
ATOM     55  C   UNL A   1      42.672  30.464  36.018  1.00  0.00     0.029 A 
ATOM     56  C   UNL A   1      42.290  30.080  34.743  1.00  0.00     0.049 A 
ATOM     57  H   UNL A   1      40.799  30.904  33.500  1.00  0.00     0.167 HD
ATOM     58  C   UNL A   1      42.408  28.709  32.675  1.00  0.00     0.074 A 
ATOM     59  C   UNL A   1      42.972  27.644  31.873  1.00  0.00     0.031 C 
ATOM     60  C   UNL A   1      42.821  29.016  33.930  1.00  0.00     0.037 A 
BRANCH  47  61
ATOM     61  C   UNL A   1      39.783  33.738  36.521  1.00  0.00     0.064 A 
ATOM     62  C   UNL A   1      38.969  33.368  37.604  1.00  0.00     0.173 A 
ATOM     63  C   UNL A   1      40.423  34.983  36.578  1.00  0.00     0.173 A 
ATOM     64  F   UNL A   1      38.316  32.196  37.590  1.00  0.00    -0.203 F 
ATOM     65  C   UNL A   1      38.775  34.227  38.682  1.00  0.00     0.198 A 
ATOM     66  C   UNL A   1      40.256  35.824  37.676  1.00  0.00     0.198 A 
ATOM     67  F   UNL A   1      41.211  35.387  35.569  1.00  0.00    -0.203 F 
ATOM     68  F   UNL A   1      37.942  33.878  39.672  1.00  0.00    -0.200 F 
ATOM     69  C   UNL A   1      39.426  35.451  38.721  1.00  0.00     0.200 A 
ATOM     70  F   UNL A   1      40.894  37.002  37.717  1.00  0.00    -0.200 F 
ATOM     71  F   UNL A   1      39.243  36.274  39.761  1.00  0.00    -0.200 F 
ENDBRANCH  47  61
BRANCH  48  72
ATOM     72  C   UNL A   1      40.681  28.022  28.347  1.00  0.00     0.064 A 
ATOM     73  C   UNL A   1      40.024  26.790  28.216  1.00  0.00     0.173 A 
ATOM     74  C   UNL A   1      41.517  28.426  27.295  1.00  0.00     0.173 A 
ATOM     75  F   UNL A   1      39.228  26.349  29.201  1.00  0.00    -0.203 F 
ATOM     76  C   UNL A   1      40.221  25.981  27.099  1.00  0.00     0.198 A 
ATOM     77  C   UNL A   1      41.689  27.631  26.163  1.00  0.00     0.198 A 
ATOM     78  F   UNL A   1      42.164  29.600  27.363  1.00  0.00    -0.203 F 
ATOM     79  F   UNL A   1      39.625  24.783  27.028  1.00  0.00    -0.200 F 
ATOM     80  C   UNL A   1      41.050  26.405  26.070  1.00  0.00     0.200 A 
ATOM     81  F   UNL A   1      42.478  28.052  25.164  1.00  0.00    -0.200 F 
ATOM     82  F   UNL A   1      41.240  25.626  24.997  1.00  0.00    -0.200 F 
ENDBRANCH  48  72
BRANCH  60  83
ATOM     83  C   UNL A   1      43.901  28.164  34.528  1.00  0.00     0.064 A 
ATOM     84  C   UNL A   1      43.609  26.967  35.198  1.00  0.00     0.173 A 
ATOM     85  C   UNL A   1      45.248  28.529  34.388  1.00  0.00     0.173 A 
ATOM     86  F   UNL A   1      42.335  26.581  35.369  1.00  0.00    -0.203 F 
ATOM     87  C   UNL A   1      44.627  26.181  35.731  1.00  0.00     0.198 A 
ATOM     88  C   UNL A   1      46.264  27.724  34.893  1.00  0.00     0.198 A 
ATOM     89  F   UNL A   1      45.580  29.659  33.745  1.00  0.00    -0.203 F 
ATOM     90  F   UNL A   1      44.323  25.067  36.412  1.00  0.00    -0.200 F 
ATOM     91  C   UNL A   1      45.953  26.556  35.572  1.00  0.00     0.200 A 
ATOM     92  F   UNL A   1      47.546  28.079  34.721  1.00  0.00    -0.200 F 
ATOM     93  F   UNL A   1      46.931  25.793  36.078  1.00  0.00    -0.200 F 
ENDBRANCH  60  83
ENDBRANCH  34  35
ENDBRANCH  26  29
ENDBRANCH  24  25
ENDBRANCH  23  24
ENDBRANCH  22  23
ENDBRANCH  21  22
ENDBRANCH   3  21
TORSDOF 19
ENDMDL
MODEL 3
REMARK VINA RESULT:     -10.3      1.342      7.644
REMARK SMILES CC(=O)Oc1ccccc1SCCCCCC(=O)NCCCCNC(=O)c1ccc(-c2c3nc(c(-c4c(F)c(F)c(F)c(F)c4F)c4ccc([nH]4)c(-c4c(F)c(F)c(F)c(F)c4F)c4nc(c(-c5c(F)c(F)c(F)c(F)c5F)c5ccc2[nH]5)C=C4)C=C3)cc1
REMARK SMILES IDX 17 1 18 2 19 3 16 5 15 6 14 7 13 8 12 9 11 10 10 11 5 12
REMARK SMILES IDX 6 13 7 14 9 15 8 16 4 17 2 18 1 19 3 20 20 21 21 22 22 23
REMARK SMILES IDX 23 24 24 25 25 26 26 28 27 29 28 30 89 31 29 32 88 33 30 34
REMARK SMILES IDX 31 35 32 36 82 37 33 38 87 39 81 40 83 41 34 42 86 43 80 44
REMARK SMILES IDX 79 45 35 47 67 48 47 49 66 50 48 51 51 52 65 53 84 54 49 55
REMARK SMILES IDX 50 56 64 58 85 59 52 60 36 61 37 62 45 63 38 64 39 65 43 66
REMARK SMILES IDX 46 67 40 68 41 69 44 70 42 71 68 72 69 73 77 74 70 75 71 76
REMARK SMILES IDX 75 77 78 78 72 79 73 80 76 81 74 82 53 83 54 84 62 85 55 86
REMARK SMILES IDX 56 87 60 88 63 89 57 90 58 91 61 92 59 93
REMARK H PARENT 19 4 24 27 83 46 51 57
REMARK Flexibility Score: inf
ROOT
ATOM      1  C   UNL A   1      31.567  28.902  24.236  1.00  0.00     0.219 C 
ATOM      2  O   UNL A   1      30.987  29.255  23.209  1.00  0.00    -0.275 OA
ATOM      3  N   UNL A   1      32.439  29.763  24.827  1.00  0.00    -0.356 N 
ATOM      4  H   UNL A   1      32.476  30.671  24.448  1.00  0.00     0.163 HD
ENDROOT
BRANCH   1   5
ATOM      5  C   UNL A   1      31.310  27.545  24.862  1.00  0.00     0.100 C 
BRANCH   5   6
ATOM      6  C   UNL A   1      30.276  26.694  24.121  1.00  0.00     0.010 C 
BRANCH   6   7
ATOM      7  C   UNL A   1      30.156  25.187  24.426  1.00  0.00     0.001 C 
BRANCH   7   8
ATOM      8  C   UNL A   1      30.735  24.176  23.438  1.00  0.00     0.011 C 
BRANCH   8   9
ATOM      9  C   UNL A   1      32.133  24.303  22.807  1.00  0.00     0.075 C 
BRANCH   9  10
ATOM     10  S   UNL A   1      33.614  23.268  23.049  1.00  0.00    -0.122 SA
BRANCH  10  11
ATOM     11  C   UNL A   1      33.578  22.591  24.691  1.00  0.00     0.050 A 
ATOM     12  C   UNL A   1      33.485  21.258  25.113  1.00  0.00     0.144 A 
ATOM     13  C   UNL A   1      33.776  20.911  26.447  1.00  0.00     0.048 A 
ATOM     14  C   UNL A   1      34.107  21.892  27.380  1.00  0.00     0.004 A 
ATOM     15  C   UNL A   1      33.824  23.570  25.677  1.00  0.00     0.019 A 
ATOM     16  C   UNL A   1      34.103  23.227  27.002  1.00  0.00     0.001 A 
BRANCH  12  17
ATOM     17  O   UNL A   1      33.453  20.126  24.252  1.00  0.00    -0.426 OA
BRANCH  17  18
ATOM     18  C   UNL A   1      33.164  18.798  24.555  1.00  0.00     0.308 C 
ATOM     19  C   UNL A   1      34.433  18.004  24.379  1.00  0.00     0.139 C 
ATOM     20  O   UNL A   1      32.088  18.345  24.900  1.00  0.00    -0.252 OA
ENDBRANCH  17  18
ENDBRANCH  12  17
ENDBRANCH  10  11
ENDBRANCH   9  10
ENDBRANCH   8   9
ENDBRANCH   7   8
ENDBRANCH   6   7
ENDBRANCH   5   6
ENDBRANCH   1   5
BRANCH   3  21
ATOM     21  C   UNL A   1      33.315  29.505  25.945  1.00  0.00     0.116 C 
BRANCH  21  22
ATOM     22  C   UNL A   1      32.798  30.212  27.195  1.00  0.00     0.023 C 
BRANCH  22  23
ATOM     23  C   UNL A   1      32.279  31.615  26.993  1.00  0.00     0.023 C 
BRANCH  23  24
ATOM     24  C   UNL A   1      33.229  32.672  27.506  1.00  0.00     0.116 C 
BRANCH  24  25
ATOM     25  N   UNL A   1      32.633  33.988  27.723  1.00  0.00    -0.352 N 
ATOM     26  C   UNL A   1      33.053  34.933  28.637  1.00  0.00     0.251 C 
ATOM     27  H   UNL A   1      31.857  34.224  27.165  1.00  0.00     0.163 HD
ATOM     28  O   UNL A   1      32.468  35.994  28.794  1.00  0.00    -0.269 OA
BRANCH  26  29
ATOM     29  C   UNL A   1      34.216  34.568  29.466  1.00  0.00     0.039 A 
ATOM     30  C   UNL A   1      34.004  33.854  30.643  1.00  0.00     0.014 A 
ATOM     31  C   UNL A   1      35.492  34.703  28.915  1.00  0.00     0.014 A 
ATOM     32  C   UNL A   1      35.082  33.193  31.230  1.00  0.00     0.010 A 
ATOM     33  C   UNL A   1      36.520  33.925  29.418  1.00  0.00     0.010 A 
ATOM     34  C   UNL A   1      36.334  33.178  30.593  1.00  0.00    -0.014 A 
BRANCH  34  35
ATOM     35  C   UNL A   1      37.486  32.434  31.159  1.00  0.00     0.031 A 
ATOM     36  C   UNL A   1      37.993  32.809  32.526  1.00  0.00     0.074 A 
ATOM     37  C   UNL A   1      38.109  31.481  30.438  1.00  0.00     0.049 A 
ATOM     38  N   UNL A   1      39.031  32.357  33.179  1.00  0.00    -0.248 NA
ATOM     39  C   UNL A   1      37.262  33.875  33.234  1.00  0.00     0.031 C 
ATOM     40  C   UNL A   1      37.759  31.079  29.074  1.00  0.00     0.029 A 
ATOM     41  N   UNL A   1      39.175  30.677  30.755  1.00  0.00    -0.354 N 
ATOM     42  C   UNL A   1      39.081  33.094  34.354  1.00  0.00     0.074 A 
ATOM     43  C   UNL A   1      38.038  34.088  34.283  1.00  0.00     0.031 C 
ATOM     44  C   UNL A   1      38.572  30.082  28.686  1.00  0.00     0.029 A 
ATOM     45  C   UNL A   1      39.522  29.797  29.757  1.00  0.00     0.049 A 
ATOM     46  H   UNL A   1      39.650  30.726  31.616  1.00  0.00     0.167 HD
ATOM     47  C   UNL A   1      39.891  32.926  35.425  1.00  0.00     0.037 A 
ATOM     48  C   UNL A   1      40.496  28.867  29.718  1.00  0.00     0.037 A 
ATOM     49  C   UNL A   1      40.899  31.906  35.511  1.00  0.00     0.049 A 
ATOM     50  C   UNL A   1      41.374  28.687  30.930  1.00  0.00     0.074 A 
ATOM     51  C   UNL A   1      41.745  31.615  36.564  1.00  0.00     0.029 A 
ATOM     52  N   UNL A   1      41.187  31.003  34.499  1.00  0.00    -0.354 N 
ATOM     53  N   UNL A   1      41.367  29.343  32.065  1.00  0.00    -0.248 NA
ATOM     54  C   UNL A   1      42.388  27.625  30.859  1.00  0.00     0.031 C 
ATOM     55  C   UNL A   1      42.573  30.558  36.175  1.00  0.00     0.029 A 
ATOM     56  C   UNL A   1      42.206  30.157  34.900  1.00  0.00     0.049 A 
ATOM     57  H   UNL A   1      40.735  30.969  33.625  1.00  0.00     0.167 HD
ATOM     58  C   UNL A   1      42.347  28.757  32.853  1.00  0.00     0.074 A 
ATOM     59  C   UNL A   1      42.918  27.679  32.073  1.00  0.00     0.031 C 
ATOM     60  C   UNL A   1      42.744  29.080  34.109  1.00  0.00     0.037 A 
BRANCH  47  61
ATOM     61  C   UNL A   1      39.689  33.848  36.592  1.00  0.00     0.064 A 
ATOM     62  C   UNL A   1      40.308  35.109  36.645  1.00  0.00     0.173 A 
ATOM     63  C   UNL A   1      38.868  33.477  37.665  1.00  0.00     0.173 A 
ATOM     64  F   UNL A   1      41.122  35.505  35.655  1.00  0.00    -0.203 F 
ATOM     65  C   UNL A   1      40.141  35.944  37.746  1.00  0.00     0.198 A 
ATOM     66  C   UNL A   1      38.673  34.331  38.748  1.00  0.00     0.198 A 
ATOM     67  F   UNL A   1      38.254  32.283  37.666  1.00  0.00    -0.203 F 
ATOM     68  F   UNL A   1      40.794  37.113  37.802  1.00  0.00    -0.200 F 
ATOM     69  C   UNL A   1      39.317  35.558  38.792  1.00  0.00     0.200 A 
ATOM     70  F   UNL A   1      37.869  33.962  39.753  1.00  0.00    -0.200 F 
ATOM     71  F   UNL A   1      39.152  36.366  39.848  1.00  0.00    -0.200 F 
ENDBRANCH  47  61
BRANCH  48  72
ATOM     72  C   UNL A   1      40.676  28.015  28.512  1.00  0.00     0.064 A 
ATOM     73  C   UNL A   1      41.457  28.446  27.430  1.00  0.00     0.173 A 
ATOM     74  C   UNL A   1      40.054  26.762  28.404  1.00  0.00     0.173 A 
ATOM     75  F   UNL A   1      42.057  29.645  27.475  1.00  0.00    -0.203 F 
ATOM     76  C   UNL A   1      41.583  27.675  26.276  1.00  0.00     0.198 A 
ATOM     77  C   UNL A   1      40.206  25.977  27.263  1.00  0.00     0.198 A 
ATOM     78  F   UNL A   1      39.302  26.296  29.413  1.00  0.00    -0.203 F 
ATOM     79  F   UNL A   1      42.288  28.139  25.236  1.00  0.00    -0.200 F 
ATOM     80  C   UNL A   1      40.961  26.438  26.196  1.00  0.00     0.200 A 
ATOM     81  F   UNL A   1      39.617  24.774  27.196  1.00  0.00    -0.200 F 
ATOM     82  F   UNL A   1      41.081  25.697  25.086  1.00  0.00    -0.200 F 
ENDBRANCH  48  72
BRANCH  60  83
ATOM     83  C   UNL A   1      43.813  28.232  34.734  1.00  0.00     0.064 A 
ATOM     84  C   UNL A   1      43.507  27.048  35.420  1.00  0.00     0.173 A 
ATOM     85  C   UNL A   1      45.164  28.587  34.601  1.00  0.00     0.173 A 
ATOM     86  F   UNL A   1      42.230  26.672  35.585  1.00  0.00    -0.203 F 
ATOM     87  C   UNL A   1      44.515  26.267  35.979  1.00  0.00     0.198 A 
ATOM     88  C   UNL A   1      46.170  27.785  35.131  1.00  0.00     0.198 A 
ATOM     89  F   UNL A   1      45.509  29.704  33.943  1.00  0.00    -0.203 F 
ATOM     90  F   UNL A   1      44.198  25.166  36.676  1.00  0.00    -0.200 F 
ATOM     91  C   UNL A   1      45.844  26.632  35.827  1.00  0.00     0.200 A 
ATOM     92  F   UNL A   1      47.455  28.131  34.967  1.00  0.00    -0.200 F 
ATOM     93  F   UNL A   1      46.813  25.872  36.357  1.00  0.00    -0.200 F 
ENDBRANCH  60  83
ENDBRANCH  34  35
ENDBRANCH  26  29
ENDBRANCH  24  25
ENDBRANCH  23  24
ENDBRANCH  22  23
ENDBRANCH  21  22
ENDBRANCH   3  21
TORSDOF 19
ENDMDL
