MODEL 1
REMARK VINA RESULT:     -13.2      0.000      0.000
REMARK SMILES O=C(NCCCCNC(=O)[C@@]1([C@@H]2CCC[C@@H]2O)CCCc2ccccc21)c1ccc(-c2c3nc(c(-c4c(F)c(F)c(F)c(F)c4F)c4ccc([nH]4)c(-c4c(F)c(F)c(F)c(F)c4F)c4nc(c(-c5c(F)c(F)c(F)c(F)c5F)c5ccc2[nH]5)C=C4)C=C3)cc1
REMARK SMILES IDX 5 1 4 2 3 3 1 4 2 5 27 7 28 8 89 9 29 10 88 11 30 12 31 13
REMARK SMILES IDX 32 14 82 15 33 16 87 17 81 18 83 19 34 20 86 21 80 22 79 23
REMARK SMILES IDX 35 25 67 26 47 27 66 28 48 29 51 30 65 31 84 32 49 33 50 34
REMARK SMILES IDX 64 36 85 37 52 38 36 39 37 40 45 41 38 42 39 43 43 44 46 45
REMARK SMILES IDX 40 46 41 47 44 48 42 49 68 50 69 51 77 52 70 53 71 54 75 55
REMARK SMILES IDX 78 56 72 57 73 58 76 59 74 60 53 61 54 62 62 63 55 64 56 65
REMARK SMILES IDX 60 66 63 67 57 68 58 69 61 70 59 71 6 72 7 73 8 74 9 75
REMARK SMILES IDX 10 77 11 78 18 79 26 80 19 81 21 82 25 83 20 84 22 85 24 86
REMARK SMILES IDX 23 87 12 88 13 89 16 90 14 91 15 92 17 93
REMARK H PARENT 3 6 83 24 51 35 8 76 17 94
REMARK Flexibility Score: inf
ROOT
ATOM      1  C   UNL A   1      33.275  28.925  23.643  1.00  0.00     0.023 C 
ENDROOT
BRANCH   1   2
ATOM      2  C   UNL A   1      33.475  29.041  25.142  1.00  0.00     0.116 C 
BRANCH   2   3
ATOM      3  N   UNL A   1      32.809  30.210  25.707  1.00  0.00    -0.352 N 
ATOM      4  O   UNL A   1      32.391  31.812  27.251  1.00  0.00    -0.269 OA
ATOM      5  C   UNL A   1      33.158  30.977  26.797  1.00  0.00     0.251 C 
ATOM      6  H   UNL A   1      31.989  30.492  25.241  1.00  0.00     0.163 HD
BRANCH   5   7
ATOM      7  C   UNL A   1      34.478  30.755  27.422  1.00  0.00     0.039 A 
ATOM      8  C   UNL A   1      34.819  29.477  27.854  1.00  0.00     0.014 A 
ATOM      9  C   UNL A   1      35.348  31.829  27.626  1.00  0.00     0.014 A 
ATOM     10  C   UNL A   1      35.910  29.313  28.687  1.00  0.00     0.010 A 
ATOM     11  C   UNL A   1      36.532  31.628  28.343  1.00  0.00     0.010 A 
ATOM     12  C   UNL A   1      36.801  30.376  28.913  1.00  0.00    -0.014 A 
BRANCH  12  13
ATOM     13  C   UNL A   1      38.032  30.088  29.691  1.00  0.00     0.031 A 
ATOM     14  C   UNL A   1      38.204  30.557  31.107  1.00  0.00     0.074 A 
ATOM     15  C   UNL A   1      38.959  29.295  29.115  1.00  0.00     0.049 A 
ATOM     16  N   UNL A   1      39.189  30.312  31.936  1.00  0.00    -0.248 NA
ATOM     17  C   UNL A   1      37.152  31.418  31.666  1.00  0.00     0.031 C 
ATOM     18  C   UNL A   1      38.895  28.802  27.735  1.00  0.00     0.029 A 
ATOM     19  N   UNL A   1      40.094  28.720  29.618  1.00  0.00    -0.354 N 
ATOM     20  C   UNL A   1      38.889  31.006  33.101  1.00  0.00     0.074 A 
ATOM     21  C   UNL A   1      37.640  31.697  32.868  1.00  0.00     0.031 C 
ATOM     22  C   UNL A   1      39.884  27.923  27.534  1.00  0.00     0.029 A 
ATOM     23  C   UNL A   1      40.706  27.862  28.736  1.00  0.00     0.049 A 
ATOM     24  H   UNL A   1      40.438  28.901  30.522  1.00  0.00     0.167 HD
ATOM     25  C   UNL A   1      39.596  31.052  34.255  1.00  0.00     0.037 A 
ATOM     26  C   UNL A   1      41.816  27.116  28.870  1.00  0.00     0.037 A 
ATOM     27  C   UNL A   1      40.831  30.341  34.478  1.00  0.00     0.049 A 
ATOM     28  C   UNL A   1      42.560  27.170  30.170  1.00  0.00     0.074 A 
ATOM     29  C   UNL A   1      41.631  30.329  35.608  1.00  0.00     0.029 A 
ATOM     30  N   UNL A   1      41.440  29.506  33.551  1.00  0.00    -0.354 N 
ATOM     31  N   UNL A   1      42.272  27.844  31.257  1.00  0.00    -0.248 NA
ATOM     32  C   UNL A   1      43.787  26.372  30.261  1.00  0.00     0.031 C 
ATOM     33  C   UNL A   1      42.738  29.511  35.355  1.00  0.00     0.029 A 
ATOM     34  C   UNL A   1      42.606  28.978  34.082  1.00  0.00     0.049 A 
ATOM     35  H   UNL A   1      41.092  29.316  32.650  1.00  0.00     0.167 HD
ATOM     36  C   UNL A   1      43.285  27.561  32.157  1.00  0.00     0.074 A 
ATOM     37  C   UNL A   1      44.171  26.618  31.505  1.00  0.00     0.031 C 
ATOM     38  C   UNL A   1      43.478  28.053  33.406  1.00  0.00     0.037 A 
BRANCH  25  39
ATOM     39  C   UNL A   1      39.066  31.912  35.367  1.00  0.00     0.064 A 
ATOM     40  C   UNL A   1      38.298  31.376  36.411  1.00  0.00     0.173 A 
ATOM     41  C   UNL A   1      39.384  33.278  35.422  1.00  0.00     0.173 A 
ATOM     42  F   UNL A   1      37.957  30.078  36.400  1.00  0.00    -0.203 F 
ATOM     43  C   UNL A   1      37.854  32.178  37.459  1.00  0.00     0.198 A 
ATOM     44  C   UNL A   1      38.959  34.073  36.485  1.00  0.00     0.198 A 
ATOM     45  F   UNL A   1      40.120  33.841  34.452  1.00  0.00    -0.203 F 
ATOM     46  F   UNL A   1      37.094  31.651  38.430  1.00  0.00    -0.200 F 
ATOM     47  C   UNL A   1      38.192  33.523  37.501  1.00  0.00     0.200 A 
ATOM     48  F   UNL A   1      39.296  35.369  36.528  1.00  0.00    -0.200 F 
ATOM     49  F   UNL A   1      37.774  34.290  38.518  1.00  0.00    -0.200 F 
ENDBRANCH  25  39
BRANCH  26  50
ATOM     50  C   UNL A   1      42.287  26.285  27.734  1.00  0.00     0.064 A 
ATOM     51  C   UNL A   1      43.271  26.749  26.852  1.00  0.00     0.173 A 
ATOM     52  C   UNL A   1      41.781  24.991  27.528  1.00  0.00     0.173 A 
ATOM     53  F   UNL A   1      43.774  27.983  26.998  1.00  0.00    -0.203 F 
ATOM     54  C   UNL A   1      43.724  25.955  25.799  1.00  0.00     0.198 A 
ATOM     55  C   UNL A   1      42.259  24.186  26.498  1.00  0.00     0.198 A 
ATOM     56  F   UNL A   1      40.845  24.497  28.351  1.00  0.00    -0.203 F 
ATOM     57  F   UNL A   1      44.637  26.436  24.947  1.00  0.00    -0.200 F 
ATOM     58  C   UNL A   1      43.224  24.672  25.629  1.00  0.00     0.200 A 
ATOM     59  F   UNL A   1      41.791  22.940  26.354  1.00  0.00    -0.200 F 
ATOM     60  F   UNL A   1      43.671  23.905  24.627  1.00  0.00    -0.200 F 
ENDBRANCH  26  50
BRANCH  38  61
ATOM     61  C   UNL A   1      44.699  27.572  34.130  1.00  0.00     0.064 A 
ATOM     62  C   UNL A   1      44.668  26.413  34.919  1.00  0.00     0.173 A 
ATOM     63  C   UNL A   1      45.906  28.278  34.038  1.00  0.00     0.173 A 
ATOM     64  F   UNL A   1      43.529  25.716  35.051  1.00  0.00    -0.203 F 
ATOM     65  C   UNL A   1      45.796  25.997  35.620  1.00  0.00     0.198 A 
ATOM     66  C   UNL A   1      47.040  27.844  34.719  1.00  0.00     0.198 A 
ATOM     67  F   UNL A   1      45.985  29.391  33.294  1.00  0.00    -0.203 F 
ATOM     68  F   UNL A   1      45.728  24.920  36.415  1.00  0.00    -0.200 F 
ATOM     69  C   UNL A   1      46.981  26.710  35.516  1.00  0.00     0.200 A 
ATOM     70  F   UNL A   1      48.186  28.529  34.614  1.00  0.00    -0.200 F 
ATOM     71  F   UNL A   1      48.064  26.313  36.197  1.00  0.00    -0.200 F 
ENDBRANCH  38  61
ENDBRANCH  12  13
ENDBRANCH   5   7
ENDBRANCH   2   3
ENDBRANCH   1   2
BRANCH   1  72
ATOM     72  C   UNL A   1      33.829  27.640  23.056  1.00  0.00     0.023 C 
BRANCH  72  73
ATOM     73  C   UNL A   1      33.075  26.366  23.445  1.00  0.00     0.116 C 
BRANCH  73  74
ATOM     74  N   UNL A   1      33.189  25.287  22.482  1.00  0.00    -0.355 N 
ATOM     75  C   UNL A   1      33.315  23.932  22.602  1.00  0.00     0.231 C 
ATOM     76  H   UNL A   1      33.175  25.595  21.547  1.00  0.00     0.163 HD
ATOM     77  O   UNL A   1      33.529  23.376  21.517  1.00  0.00    -0.274 OA
BRANCH  75  78
ATOM     78  C   UNL A   1      33.258  23.124  23.978  1.00  0.00     0.080 C 
ATOM     79  C   UNL A   1      32.541  21.764  23.707  1.00  0.00     0.022 C 
ATOM     80  C   UNL A   1      34.740  22.823  24.460  1.00  0.00    -0.029 A 
ATOM     81  C   UNL A   1      32.881  20.577  24.595  1.00  0.00     0.006 C 
ATOM     82  C   UNL A   1      35.181  21.537  24.836  1.00  0.00    -0.044 A 
ATOM     83  C   UNL A   1      35.656  23.889  24.638  1.00  0.00     0.005 A 
ATOM     84  C   UNL A   1      34.362  20.298  24.626  1.00  0.00     0.036 C 
ATOM     85  C   UNL A   1      36.471  21.360  25.382  1.00  0.00     0.004 A 
ATOM     86  C   UNL A   1      36.931  23.701  25.175  1.00  0.00     0.000 A 
ATOM     87  C   UNL A   1      37.335  22.436  25.560  1.00  0.00     0.000 A 
BRANCH  78  88
ATOM     88  C   UNL A   1      32.653  24.040  25.137  1.00  0.00     0.038 C 
ATOM     89  C   UNL A   1      33.211  23.789  26.550  1.00  0.00     0.008 C 
ATOM     90  C   UNL A   1      31.159  24.105  25.477  1.00  0.00     0.119 C 
ATOM     91  C   UNL A   1      32.211  22.857  27.244  1.00  0.00     0.003 C 
ATOM     92  C   UNL A   1      30.908  22.974  26.461  1.00  0.00     0.032 C 
BRANCH  90  93
ATOM     93  O   UNL A   1      30.278  24.118  24.393  1.00  0.00    -0.393 OA
ATOM     94  H   UNL A   1      30.583  24.762  23.735  1.00  0.00     0.210 HD
ENDBRANCH  90  93
ENDBRANCH  78  88
ENDBRANCH  75  78
ENDBRANCH  73  74
ENDBRANCH  72  73
ENDBRANCH   1  72
TORSDOF 13
ENDMDL
MODEL 2
REMARK VINA RESULT:     -13.2      0.165      1.138
REMARK SMILES O=C(NCCCCNC(=O)[C@@]1([C@@H]2CCC[C@@H]2O)CCCc2ccccc21)c1ccc(-c2c3nc(c(-c4c(F)c(F)c(F)c(F)c4F)c4ccc([nH]4)c(-c4c(F)c(F)c(F)c(F)c4F)c4nc(c(-c5c(F)c(F)c(F)c(F)c5F)c5ccc2[nH]5)C=C4)C=C3)cc1
REMARK SMILES IDX 5 1 4 2 3 3 1 4 2 5 27 7 28 8 89 9 29 10 88 11 30 12 31 13
REMARK SMILES IDX 32 14 82 15 33 16 87 17 81 18 83 19 34 20 86 21 80 22 79 23
REMARK SMILES IDX 35 25 67 26 47 27 66 28 48 29 51 30 65 31 84 32 49 33 50 34
REMARK SMILES IDX 64 36 85 37 52 38 36 39 37 40 45 41 38 42 39 43 43 44 46 45
REMARK SMILES IDX 40 46 41 47 44 48 42 49 68 50 69 51 77 52 70 53 71 54 75 55
REMARK SMILES IDX 78 56 72 57 73 58 76 59 74 60 53 61 54 62 62 63 55 64 56 65
REMARK SMILES IDX 60 66 63 67 57 68 58 69 61 70 59 71 6 72 7 73 8 74 9 75
REMARK SMILES IDX 10 77 11 78 18 79 26 80 19 81 21 82 25 83 20 84 22 85 24 86
REMARK SMILES IDX 23 87 12 88 13 89 16 90 14 91 15 92 17 93
REMARK H PARENT 3 6 83 24 51 35 8 76 17 94
REMARK Flexibility Score: inf
ROOT
ATOM      1  C   UNL A   1      33.199  28.912  23.675  1.00  0.00     0.023 C 
ENDROOT
BRANCH   1   2
ATOM      2  C   UNL A   1      33.543  29.095  25.140  1.00  0.00     0.116 C 
BRANCH   2   3
ATOM      3  N   UNL A   1      32.852  30.233  25.739  1.00  0.00    -0.352 N 
ATOM      4  O   UNL A   1      32.404  31.783  27.327  1.00  0.00    -0.269 OA
ATOM      5  C   UNL A   1      33.189  30.979  26.848  1.00  0.00     0.251 C 
ATOM      6  H   UNL A   1      32.022  30.507  25.285  1.00  0.00     0.163 HD
BRANCH   5   7
ATOM      7  C   UNL A   1      34.516  30.772  27.459  1.00  0.00     0.039 A 
ATOM      8  C   UNL A   1      34.861  29.507  27.926  1.00  0.00     0.014 A 
ATOM      9  C   UNL A   1      35.392  31.850  27.619  1.00  0.00     0.014 A 
ATOM     10  C   UNL A   1      35.964  29.365  28.747  1.00  0.00     0.010 A 
ATOM     11  C   UNL A   1      36.586  31.667  28.324  1.00  0.00     0.010 A 
ATOM     12  C   UNL A   1      36.860  30.432  28.929  1.00  0.00    -0.014 A 
BRANCH  12  13
ATOM     13  C   UNL A   1      38.102  30.165  29.697  1.00  0.00     0.031 A 
ATOM     14  C   UNL A   1      38.275  30.635  31.112  1.00  0.00     0.074 A 
ATOM     15  C   UNL A   1      39.037  29.389  29.113  1.00  0.00     0.049 A 
ATOM     16  N   UNL A   1      39.270  30.407  31.934  1.00  0.00    -0.248 NA
ATOM     17  C   UNL A   1      37.212  31.477  31.681  1.00  0.00     0.031 C 
ATOM     18  C   UNL A   1      38.973  28.897  27.733  1.00  0.00     0.029 A 
ATOM     19  N   UNL A   1      40.187  28.833  29.608  1.00  0.00    -0.354 N 
ATOM     20  C   UNL A   1      38.966  31.093  33.102  1.00  0.00     0.074 A 
ATOM     21  C   UNL A   1      37.704  31.763  32.880  1.00  0.00     0.031 C 
ATOM     22  C   UNL A   1      39.976  28.036  27.524  1.00  0.00     0.029 A 
ATOM     23  C   UNL A   1      40.807  27.988  28.720  1.00  0.00     0.049 A 
ATOM     24  H   UNL A   1      40.534  29.019  30.510  1.00  0.00     0.167 HD
ATOM     25  C   UNL A   1      39.681  31.151  34.252  1.00  0.00     0.037 A 
ATOM     26  C   UNL A   1      41.930  27.261  28.845  1.00  0.00     0.037 A 
ATOM     27  C   UNL A   1      40.930  30.461  34.465  1.00  0.00     0.049 A 
ATOM     28  C   UNL A   1      42.683  27.326  30.140  1.00  0.00     0.074 A 
ATOM     29  C   UNL A   1      41.738  30.461  35.589  1.00  0.00     0.029 A 
ATOM     30  N   UNL A   1      41.546  29.638  33.532  1.00  0.00    -0.354 N 
ATOM     31  N   UNL A   1      42.391  27.993  31.229  1.00  0.00    -0.248 NA
ATOM     32  C   UNL A   1      43.924  26.550  30.220  1.00  0.00     0.031 C 
ATOM     33  C   UNL A   1      42.857  29.663  35.326  1.00  0.00     0.029 A 
ATOM     34  C   UNL A   1      42.725  29.130  34.053  1.00  0.00     0.049 A 
ATOM     35  H   UNL A   1      41.195  29.443  32.633  1.00  0.00     0.167 HD
ATOM     36  C   UNL A   1      43.415  27.728  32.122  1.00  0.00     0.074 A 
ATOM     37  C   UNL A   1      44.313  26.800  31.462  1.00  0.00     0.031 C 
ATOM     38  C   UNL A   1      43.609  28.221  33.370  1.00  0.00     0.037 A 
BRANCH  25  39
ATOM     39  C   UNL A   1      39.144  32.000  35.369  1.00  0.00     0.064 A 
ATOM     40  C   UNL A   1      38.382  31.451  36.410  1.00  0.00     0.173 A 
ATOM     41  C   UNL A   1      39.449  33.369  35.430  1.00  0.00     0.173 A 
ATOM     42  F   UNL A   1      38.054  30.150  36.392  1.00  0.00    -0.203 F 
ATOM     43  C   UNL A   1      37.932  32.244  37.463  1.00  0.00     0.198 A 
ATOM     44  C   UNL A   1      39.017  34.154  36.497  1.00  0.00     0.198 A 
ATOM     45  F   UNL A   1      40.179  33.944  34.463  1.00  0.00    -0.203 F 
ATOM     46  F   UNL A   1      37.178  31.705  38.432  1.00  0.00    -0.200 F 
ATOM     47  C   UNL A   1      38.257  33.592  37.511  1.00  0.00     0.200 A 
ATOM     48  F   UNL A   1      39.342  35.453  36.547  1.00  0.00    -0.200 F 
ATOM     49  F   UNL A   1      37.833  34.349  38.532  1.00  0.00    -0.200 F 
ENDBRANCH  25  39
BRANCH  26  50
ATOM     50  C   UNL A   1      42.407  26.440  27.704  1.00  0.00     0.064 A 
ATOM     51  C   UNL A   1      41.887  25.162  27.460  1.00  0.00     0.173 A 
ATOM     52  C   UNL A   1      43.374  26.934  26.814  1.00  0.00     0.173 A 
ATOM     53  F   UNL A   1      40.973  24.641  28.291  1.00  0.00    -0.203 F 
ATOM     54  C   UNL A   1      42.324  24.405  26.374  1.00  0.00     0.198 A 
ATOM     55  C   UNL A   1      43.784  26.191  25.710  1.00  0.00     0.198 A 
ATOM     56  F   UNL A   1      43.896  28.155  26.998  1.00  0.00    -0.203 F 
ATOM     57  F   UNL A   1      41.840  23.171  26.185  1.00  0.00    -0.200 F 
ATOM     58  C   UNL A   1      43.265  24.923  25.496  1.00  0.00     0.200 A 
ATOM     59  F   UNL A   1      44.674  26.706  24.852  1.00  0.00    -0.200 F 
ATOM     60  F   UNL A   1      43.673  24.200  24.445  1.00  0.00    -0.200 F 
ENDBRANCH  26  50
BRANCH  38  61
ATOM     61  C   UNL A   1      44.843  27.760  34.085  1.00  0.00     0.064 A 
ATOM     62  C   UNL A   1      44.833  26.608  34.885  1.00  0.00     0.173 A 
ATOM     63  C   UNL A   1      46.041  28.479  33.973  1.00  0.00     0.173 A 
ATOM     64  F   UNL A   1      43.704  25.900  35.036  1.00  0.00    -0.203 F 
ATOM     65  C   UNL A   1      45.974  26.211  35.576  1.00  0.00     0.198 A 
ATOM     66  C   UNL A   1      47.187  28.064  34.646  1.00  0.00     0.198 A 
ATOM     67  F   UNL A   1      46.098  29.586  33.218  1.00  0.00    -0.203 F 
ATOM     68  F   UNL A   1      45.928  25.141  36.382  1.00  0.00    -0.200 F 
ATOM     69  C   UNL A   1      47.150  26.937  35.453  1.00  0.00     0.200 A 
ATOM     70  F   UNL A   1      48.323  28.761  34.521  1.00  0.00    -0.200 F 
ATOM     71  F   UNL A   1      48.245  26.558  36.126  1.00  0.00    -0.200 F 
ENDBRANCH  38  61
ENDBRANCH  12  13
ENDBRANCH   5   7
ENDBRANCH   2   3
ENDBRANCH   1   2
BRANCH   1  72
ATOM     72  C   UNL A   1      33.792  27.654  23.067  1.00  0.00     0.023 C 
BRANCH  72  73
ATOM     73  C   UNL A   1      33.108  26.346  23.476  1.00  0.00     0.116 C 
BRANCH  73  74
ATOM     74  N   UNL A   1      33.231  25.278  22.502  1.00  0.00    -0.355 N 
ATOM     75  C   UNL A   1      33.355  23.922  22.608  1.00  0.00     0.231 C 
ATOM     76  H   UNL A   1      33.223  25.597  21.570  1.00  0.00     0.163 HD
ATOM     77  O   UNL A   1      33.578  23.379  21.517  1.00  0.00    -0.274 OA
BRANCH  75  78
ATOM     78  C   UNL A   1      33.289  23.098  23.973  1.00  0.00     0.080 C 
ATOM     79  C   UNL A   1      32.571  21.742  23.682  1.00  0.00     0.022 C 
ATOM     80  C   UNL A   1      34.766  22.790  24.462  1.00  0.00    -0.029 A 
ATOM     81  C   UNL A   1      32.904  20.544  24.558  1.00  0.00     0.006 C 
ATOM     82  C   UNL A   1      35.204  21.499  24.826  1.00  0.00    -0.044 A 
ATOM     83  C   UNL A   1      35.682  23.853  24.659  1.00  0.00     0.005 A 
ATOM     84  C   UNL A   1      34.385  20.263  24.596  1.00  0.00     0.036 C 
ATOM     85  C   UNL A   1      36.489  21.315  25.379  1.00  0.00     0.004 A 
ATOM     86  C   UNL A   1      36.953  23.658  25.203  1.00  0.00     0.000 A 
ATOM     87  C   UNL A   1      37.353  22.387  25.576  1.00  0.00     0.000 A 
BRANCH  78  88
ATOM     88  C   UNL A   1      32.676  24.001  25.139  1.00  0.00     0.038 C 
ATOM     89  C   UNL A   1      33.224  23.734  26.552  1.00  0.00     0.008 C 
ATOM     90  C   UNL A   1      31.180  24.063  25.470  1.00  0.00     0.119 C 
ATOM     91  C   UNL A   1      32.220  22.795  27.229  1.00  0.00     0.003 C 
ATOM     92  C   UNL A   1      30.922  22.921  26.439  1.00  0.00     0.032 C 
BRANCH  90  93
ATOM     93  O   UNL A   1      30.306  24.089  24.381  1.00  0.00    -0.393 OA
ATOM     94  H   UNL A   1      29.605  24.739  24.543  1.00  0.00     0.210 HD
ENDBRANCH  90  93
ENDBRANCH  78  88
ENDBRANCH  75  78
ENDBRANCH  73  74
ENDBRANCH  72  73
ENDBRANCH   1  72
TORSDOF 13
ENDMDL
MODEL 3
REMARK VINA RESULT:     -12.9      4.002      9.468
REMARK SMILES O=C(NCCCCNC(=O)[C@@]1([C@@H]2CCC[C@@H]2O)CCCc2ccccc21)c1ccc(-c2c3nc(c(-c4c(F)c(F)c(F)c(F)c4F)c4ccc([nH]4)c(-c4c(F)c(F)c(F)c(F)c4F)c4nc(c(-c5c(F)c(F)c(F)c(F)c5F)c5ccc2[nH]5)C=C4)C=C3)cc1
REMARK SMILES IDX 5 1 4 2 3 3 1 4 2 5 27 7 28 8 89 9 29 10 88 11 30 12 31 13
REMARK SMILES IDX 32 14 82 15 33 16 87 17 81 18 83 19 34 20 86 21 80 22 79 23
REMARK SMILES IDX 35 25 67 26 47 27 66 28 48 29 51 30 65 31 84 32 49 33 50 34
REMARK SMILES IDX 64 36 85 37 52 38 36 39 37 40 45 41 38 42 39 43 43 44 46 45
REMARK SMILES IDX 40 46 41 47 44 48 42 49 68 50 69 51 77 52 70 53 71 54 75 55
REMARK SMILES IDX 78 56 72 57 73 58 76 59 74 60 53 61 54 62 62 63 55 64 56 65
REMARK SMILES IDX 60 66 63 67 57 68 58 69 61 70 59 71 6 72 7 73 8 74 9 75
REMARK SMILES IDX 10 77 11 78 18 79 26 80 19 81 21 82 25 83 20 84 22 85 24 86
REMARK SMILES IDX 23 87 12 88 13 89 16 90 14 91 15 92 17 93
REMARK H PARENT 3 6 83 24 51 35 8 76 17 94
REMARK Flexibility Score: inf
ROOT
ATOM      1  C   UNL A   1      34.620  22.260  26.734  1.00  0.00     0.023 C 
ENDROOT
BRANCH   1   2
ATOM      2  C   UNL A   1      35.920  22.717  26.103  1.00  0.00     0.116 C 
BRANCH   2   3
ATOM      3  N   UNL A   1      36.817  21.605  25.802  1.00  0.00    -0.352 N 
ATOM      4  O   UNL A   1      38.799  20.599  25.378  1.00  0.00    -0.269 OA
ATOM      5  C   UNL A   1      38.193  21.554  25.839  1.00  0.00     0.251 C 
ATOM      6  H   UNL A   1      36.373  20.769  25.532  1.00  0.00     0.163 HD
BRANCH   5   7
ATOM      7  C   UNL A   1      38.925  22.690  26.433  1.00  0.00     0.039 A 
ATOM      8  C   UNL A   1      38.533  23.988  26.122  1.00  0.00     0.014 A 
ATOM      9  C   UNL A   1      40.034  22.460  27.252  1.00  0.00     0.014 A 
ATOM     10  C   UNL A   1      39.374  25.042  26.433  1.00  0.00     0.010 A 
ATOM     11  C   UNL A   1      40.800  23.544  27.693  1.00  0.00     0.010 A 
ATOM     12  C   UNL A   1      40.497  24.840  27.252  1.00  0.00    -0.014 A 
BRANCH  12  13
ATOM     13  C   UNL A   1      41.267  26.038  27.672  1.00  0.00     0.031 A 
ATOM     14  C   UNL A   1      42.662  26.297  27.182  1.00  0.00     0.074 A 
ATOM     15  C   UNL A   1      40.628  26.950  28.433  1.00  0.00     0.049 A 
ATOM     16  N   UNL A   1      43.426  27.340  27.399  1.00  0.00    -0.248 NA
ATOM     17  C   UNL A   1      43.293  25.257  26.356  1.00  0.00     0.031 C 
ATOM     18  C   UNL A   1      39.277  26.785  28.978  1.00  0.00     0.029 A 
ATOM     19  N   UNL A   1      40.994  28.207  28.835  1.00  0.00    -0.354 N 
ATOM     20  C   UNL A   1      44.629  27.072  26.760  1.00  0.00     0.074 A 
ATOM     21  C   UNL A   1      44.505  25.761  26.162  1.00  0.00     0.031 C 
ATOM     22  C   UNL A   1      38.889  27.929  29.553  1.00  0.00     0.029 A 
ATOM     23  C   UNL A   1      39.996  28.875  29.502  1.00  0.00     0.049 A 
ATOM     24  H   UNL A   1      41.882  28.594  28.661  1.00  0.00     0.167 HD
ATOM     25  C   UNL A   1      45.731  27.856  26.683  1.00  0.00     0.037 A 
ATOM     26  C   UNL A   1      39.974  30.112  30.029  1.00  0.00     0.037 A 
ATOM     27  C   UNL A   1      45.832  29.171  27.269  1.00  0.00     0.049 A 
ATOM     28  C   UNL A   1      41.200  30.964  29.902  1.00  0.00     0.074 A 
ATOM     29  C   UNL A   1      46.907  30.043  27.257  1.00  0.00     0.029 A 
ATOM     30  N   UNL A   1      44.813  29.806  27.966  1.00  0.00    -0.354 N 
ATOM     31  N   UNL A   1      42.336  30.690  29.310  1.00  0.00    -0.248 NA
ATOM     32  C   UNL A   1      41.148  32.290  30.527  1.00  0.00     0.031 C 
ATOM     33  C   UNL A   1      46.549  31.192  27.971  1.00  0.00     0.029 A 
ATOM     34  C   UNL A   1      45.235  31.054  28.392  1.00  0.00     0.049 A 
ATOM     35  H   UNL A   1      43.921  29.424  28.131  1.00  0.00     0.167 HD
ATOM     36  C   UNL A   1      43.139  31.802  29.497  1.00  0.00     0.074 A 
ATOM     37  C   UNL A   1      42.343  32.774  30.219  1.00  0.00     0.031 C 
ATOM     38  C   UNL A   1      44.428  31.997  29.123  1.00  0.00     0.037 A 
BRANCH  25  39
ATOM     39  C   UNL A   1      46.927  27.315  25.953  1.00  0.00     0.064 A 
ATOM     40  C   UNL A   1      47.120  27.545  24.583  1.00  0.00     0.173 A 
ATOM     41  C   UNL A   1      47.923  26.610  26.646  1.00  0.00     0.173 A 
ATOM     42  F   UNL A   1      46.192  28.203  23.873  1.00  0.00    -0.203 F 
ATOM     43  C   UNL A   1      48.258  27.076  23.932  1.00  0.00     0.198 A 
ATOM     44  C   UNL A   1      49.072  26.164  25.996  1.00  0.00     0.198 A 
ATOM     45  F   UNL A   1      47.791  26.367  27.959  1.00  0.00    -0.203 F 
ATOM     46  F   UNL A   1      48.407  27.280  22.615  1.00  0.00    -0.200 F 
ATOM     47  C   UNL A   1      49.237  26.394  24.639  1.00  0.00     0.200 A 
ATOM     48  F   UNL A   1      50.021  25.515  26.684  1.00  0.00    -0.200 F 
ATOM     49  F   UNL A   1      50.337  25.955  24.012  1.00  0.00    -0.200 F 
ENDBRANCH  25  39
BRANCH  26  50
ATOM     50  C   UNL A   1      38.760  30.589  30.737  1.00  0.00     0.064 A 
ATOM     51  C   UNL A   1      38.643  30.491  32.129  1.00  0.00     0.173 A 
ATOM     52  C   UNL A   1      37.702  31.186  30.032  1.00  0.00     0.173 A 
ATOM     53  F   UNL A   1      39.621  29.916  32.844  1.00  0.00    -0.203 F 
ATOM     54  C   UNL A   1      37.509  30.961  32.790  1.00  0.00     0.198 A 
ATOM     55  C   UNL A   1      36.585  31.687  30.696  1.00  0.00     0.198 A 
ATOM     56  F   UNL A   1      37.769  31.313  28.699  1.00  0.00    -0.203 F 
ATOM     57  F   UNL A   1      37.404  30.820  34.117  1.00  0.00    -0.200 F 
ATOM     58  C   UNL A   1      36.486  31.566  32.074  1.00  0.00     0.200 A 
ATOM     59  F   UNL A   1      35.612  32.292  30.002  1.00  0.00    -0.200 F 
ATOM     60  F   UNL A   1      35.404  32.030  32.711  1.00  0.00    -0.200 F 
ENDBRANCH  26  50
BRANCH  38  61
ATOM     61  C   UNL A   1      45.040  33.312  29.499  1.00  0.00     0.064 A 
ATOM     62  C   UNL A   1      44.973  34.418  28.640  1.00  0.00     0.173 A 
ATOM     63  C   UNL A   1      45.702  33.464  30.725  1.00  0.00     0.173 A 
ATOM     64  F   UNL A   1      44.366  34.312  27.448  1.00  0.00    -0.203 F 
ATOM     65  C   UNL A   1      45.579  35.624  28.981  1.00  0.00     0.198 A 
ATOM     66  C   UNL A   1      46.284  34.680  31.075  1.00  0.00     0.198 A 
ATOM     67  F   UNL A   1      45.789  32.435  31.580  1.00  0.00    -0.203 F 
ATOM     68  F   UNL A   1      45.555  36.651  28.120  1.00  0.00    -0.200 F 
ATOM     69  C   UNL A   1      46.230  35.754  30.199  1.00  0.00     0.200 A 
ATOM     70  F   UNL A   1      46.907  34.807  32.253  1.00  0.00    -0.200 F 
ATOM     71  F   UNL A   1      46.820  36.913  30.523  1.00  0.00    -0.200 F 
ENDBRANCH  38  61
ENDBRANCH  12  13
ENDBRANCH   5   7
ENDBRANCH   2   3
ENDBRANCH   1   2
BRANCH   1  72
ATOM     72  C   UNL A   1      33.597  23.372  26.884  1.00  0.00     0.023 C 
BRANCH  72  73
ATOM     73  C   UNL A   1      32.537  23.437  25.781  1.00  0.00     0.116 C 
BRANCH  73  74
ATOM     74  N   UNL A   1      31.313  24.113  26.168  1.00  0.00    -0.355 N 
ATOM     75  C   UNL A   1      30.754  25.311  25.825  1.00  0.00     0.231 C 
ATOM     76  H   UNL A   1      30.772  23.601  26.813  1.00  0.00     0.163 HD
ATOM     77  O   UNL A   1      29.752  25.579  26.501  1.00  0.00    -0.274 OA
BRANCH  75  78
ATOM     78  C   UNL A   1      31.333  26.312  24.725  1.00  0.00     0.080 C 
ATOM     79  C   UNL A   1      30.130  26.864  23.897  1.00  0.00     0.022 C 
ATOM     80  C   UNL A   1      32.041  27.530  25.456  1.00  0.00    -0.029 A 
ATOM     81  C   UNL A   1      30.265  28.234  23.250  1.00  0.00     0.006 C 
ATOM     82  C   UNL A   1      31.767  28.878  25.147  1.00  0.00    -0.044 A 
ATOM     83  C   UNL A   1      33.079  27.287  26.389  1.00  0.00     0.005 A 
ATOM     84  C   UNL A   1      30.642  29.298  24.248  1.00  0.00     0.036 C 
ATOM     85  C   UNL A   1      32.525  29.910  25.739  1.00  0.00     0.004 A 
ATOM     86  C   UNL A   1      33.821  28.317  26.972  1.00  0.00     0.000 A 
ATOM     87  C   UNL A   1      33.552  29.632  26.636  1.00  0.00     0.000 A 
BRANCH  78  88
ATOM     88  C   UNL A   1      32.513  25.615  23.904  1.00  0.00     0.038 C 
ATOM     89  C   UNL A   1      33.653  26.544  23.451  1.00  0.00     0.008 C 
ATOM     90  C   UNL A   1      32.299  24.842  22.598  1.00  0.00     0.119 C 
ATOM     91  C   UNL A   1      33.341  26.926  22.000  1.00  0.00     0.003 C 
ATOM     92  C   UNL A   1      32.357  25.879  21.488  1.00  0.00     0.032 C 
BRANCH  90  93
ATOM     93  O   UNL A   1      31.172  24.018  22.544  1.00  0.00    -0.393 OA
ATOM     94  H   UNL A   1      31.210  23.470  21.745  1.00  0.00     0.210 HD
ENDBRANCH  90  93
ENDBRANCH  78  88
ENDBRANCH  75  78
ENDBRANCH  73  74
ENDBRANCH  72  73
ENDBRANCH   1  72
TORSDOF 13
ENDMDL
