MODEL 1
REMARK VINA RESULT:     -10.8      0.000      0.000
REMARK SMILES COC(=O)[C@H]1CC[C@]2(C)[C@H](CC[C@]3(C)[C@H]2CC=C2[C@H]4CC(C)(C)CC[C@]4(C(=O)NCCCCNC(=O)c4ccc(-c5c6nc(c(-c7c(F)c(F)c(F)c(F)c7F)c7ccc([nH]7)c(-c7c(F)c(F)c(F)c(F)c7F)c7nc(c(-c8c(F)c(F)c(F)c(F)c8F)c8ccc5[nH]8)C=C7)C=C6)cc4)CC[C@@]23C)C1(C)C
REMARK SMILES IDX 31 1 30 2 29 3 27 4 28 5 26 7 5 8 6 9 104 10 7 11 10 12
REMARK SMILES IDX 105 13 106 14 8 15 11 16 15 17 9 18 12 19 16 20 13 21 17 22
REMARK SMILES IDX 102 23 14 24 18 25 101 26 103 27 19 28 100 29 20 30 21 31
REMARK SMILES IDX 25 32 24 33 22 34 23 35 3 36 4 37 2 38 1 39 32 40 33 41
REMARK SMILES IDX 34 42 35 43 36 45 37 46 38 47 99 48 39 49 98 50 40 51 41 52
REMARK SMILES IDX 42 53 92 54 43 55 97 56 91 57 93 58 44 59 96 60 90 61 89 62
REMARK SMILES IDX 45 64 77 65 57 66 76 67 58 68 61 69 75 70 94 71 59 72 60 73
REMARK SMILES IDX 74 75 95 76 62 77 46 78 47 79 55 80 48 81 49 82 53 83 56 84
REMARK SMILES IDX 50 85 51 86 54 87 52 88 78 89 79 90 87 91 80 92 81 93 85 94
REMARK SMILES IDX 88 95 82 96 83 97 86 98 84 99 63 100 64 101 72 102 65 103
REMARK SMILES IDX 66 104 70 105 73 106 67 107 68 108 71 109 69 110
REMARK H PARENT 29 6 34 44 93 63 61 74
REMARK Flexibility Score: inf
ROOT
ATOM      1  C   UNL A   1      40.794  27.606  26.915  1.00  0.00     0.023 C 
ENDROOT
BRANCH   1   2
ATOM      2  C   UNL A   1      40.038  28.917  26.729  1.00  0.00     0.116 C 
BRANCH   2   3
ATOM      3  N   UNL A   1      39.681  29.574  27.951  1.00  0.00    -0.356 N 
ATOM      4  C   UNL A   1      38.355  29.676  28.254  1.00  0.00     0.226 C 
ATOM      5  O   UNL A   1      37.515  29.690  27.357  1.00  0.00    -0.274 OA
ATOM      6  H   UNL A   1      40.369  29.940  28.552  1.00  0.00     0.163 HD
BRANCH   4   7
ATOM      7  C   UNL A   1      38.002  29.702  29.741  1.00  0.00     0.056 C 
ATOM      8  C   UNL A   1      39.592  33.957  36.222  1.00  0.00     0.105 C 
ATOM      9  C   UNL A   1      41.135  33.671  36.191  1.00  0.00     0.016 C 
ATOM     10  C   UNL A   1      38.752  33.483  34.962  1.00  0.00    -0.019 C 
ATOM     11  C   UNL A   1      41.632  32.407  35.424  1.00  0.00     0.008 C 
ATOM     12  C   UNL A   1      39.416  32.111  34.530  1.00  0.00     0.002 C 
ATOM     13  C   UNL A   1      38.626  34.640  33.921  1.00  0.00     0.012 C 
ATOM     14  C   UNL A   1      37.240  33.264  35.300  1.00  0.00     0.012 C 
ATOM     15  C   UNL A   1      40.903  32.215  34.046  1.00  0.00    -0.026 C 
ATOM     16  C   UNL A   1      38.521  31.090  33.865  1.00  0.00     0.005 C 
ATOM     17  C   UNL A   1      41.494  30.936  33.242  1.00  0.00     0.006 C 
ATOM     18  C   UNL A   1      41.297  33.499  33.276  1.00  0.00     0.012 C 
ATOM     19  C   UNL A   1      39.145  29.717  33.680  1.00  0.00     0.008 C 
ATOM     20  C   UNL A   1      42.213  31.311  31.859  1.00  0.00     0.032 C 
ATOM     21  C   UNL A   1      40.573  29.594  33.084  1.00  0.00    -0.020 C 
ATOM     22  C   UNL A   1      41.297  31.240  30.672  1.00  0.00    -0.027 C 
ATOM     23  C   UNL A   1      40.550  29.104  31.536  1.00  0.00    -0.006 C 
ATOM     24  C   UNL A   1      41.238  28.483  33.962  1.00  0.00     0.012 C 
ATOM     25  C   UNL A   1      40.288  30.360  30.699  1.00  0.00    -0.064 C 
ATOM     26  C   UNL A   1      39.578  27.983  31.033  1.00  0.00     0.013 C 
ATOM     27  C   UNL A   1      41.948  28.428  31.185  1.00  0.00     0.017 C 
ATOM     28  C   UNL A   1      38.811  30.753  30.479  1.00  0.00     0.031 C 
ATOM     29  C   UNL A   1      38.200  28.322  30.437  1.00  0.00     0.018 C 
ATOM     30  C   UNL A   1      38.434  32.208  30.104  1.00  0.00     0.015 C 
ATOM     31  C   UNL A   1      36.890  32.527  30.104  1.00  0.00    -0.035 C 
ATOM     32  C   UNL A   1      36.478  30.013  29.835  1.00  0.00     0.018 C 
ATOM     33  C   UNL A   1      36.074  31.427  29.411  1.00  0.00     0.007 C 
ATOM     34  C   UNL A   1      36.671  33.859  29.359  1.00  0.00     0.011 C 
ATOM     35  C   UNL A   1      36.294  32.711  31.514  1.00  0.00     0.011 C 
BRANCH   8  36
ATOM     36  C   UNL A   1      39.036  33.323  37.497  1.00  0.00     0.309 C 
ATOM     37  O   UNL A   1      39.028  32.124  37.738  1.00  0.00    -0.252 OA
BRANCH  36  38
ATOM     38  O   UNL A   1      38.434  34.273  38.268  1.00  0.00    -0.469 OA
ATOM     39  C   UNL A   1      38.686  34.123  39.666  1.00  0.00     0.282 C 
ENDBRANCH  36  38
ENDBRANCH   8  36
ENDBRANCH   4   7
ENDBRANCH   2   3
ENDBRANCH   1   2
BRANCH   1  40
ATOM     40  C   UNL A   1      39.917  26.394  27.217  1.00  0.00     0.023 C 
BRANCH  40  41
ATOM     41  C   UNL A   1      40.498  25.447  28.262  1.00  0.00     0.116 C 
BRANCH  41  42
ATOM     42  N   UNL A   1      40.926  24.177  27.677  1.00  0.00    -0.352 N 
ATOM     43  C   UNL A   1      41.961  23.908  26.836  1.00  0.00     0.251 C 
ATOM     44  H   UNL A   1      40.382  23.396  27.931  1.00  0.00     0.163 HD
ATOM     45  O   UNL A   1      41.999  22.849  26.199  1.00  0.00    -0.269 OA
BRANCH  43  46
ATOM     46  C   UNL A   1      43.031  24.891  26.704  1.00  0.00     0.039 A 
ATOM     47  C   UNL A   1      43.282  25.466  25.460  1.00  0.00     0.014 A 
ATOM     48  C   UNL A   1      43.754  25.262  27.841  1.00  0.00     0.014 A 
ATOM     49  C   UNL A   1      44.228  26.479  25.368  1.00  0.00     0.010 A 
ATOM     50  C   UNL A   1      44.638  26.323  27.762  1.00  0.00     0.010 A 
ATOM     51  C   UNL A   1      44.877  26.939  26.525  1.00  0.00    -0.014 A 
BRANCH  51  52
ATOM     52  C   UNL A   1      45.801  28.090  26.475  1.00  0.00     0.031 A 
ATOM     53  C   UNL A   1      47.267  27.855  26.277  1.00  0.00     0.074 A 
ATOM     54  C   UNL A   1      45.315  29.323  26.702  1.00  0.00     0.049 A 
ATOM     55  N   UNL A   1      48.249  28.717  26.305  1.00  0.00    -0.248 NA
ATOM     56  C   UNL A   1      47.689  26.464  26.046  1.00  0.00     0.031 C 
ATOM     57  C   UNL A   1      43.910  29.644  26.956  1.00  0.00     0.029 A 
ATOM     58  N   UNL A   1      45.953  30.533  26.776  1.00  0.00    -0.354 N 
ATOM     59  C   UNL A   1      49.403  27.973  26.108  1.00  0.00     0.074 A 
ATOM     60  C   UNL A   1      49.008  26.585  26.015  1.00  0.00     0.031 C 
ATOM     61  C   UNL A   1      43.789  30.967  27.145  1.00  0.00     0.029 A 
ATOM     62  C   UNL A   1      45.113  31.577  27.075  1.00  0.00     0.049 A 
ATOM     63  H   UNL A   1      46.920  30.644  26.629  1.00  0.00     0.167 HD
ATOM     64  C   UNL A   1      50.675  28.418  25.996  1.00  0.00     0.037 A 
ATOM     65  C   UNL A   1      45.388  32.876  27.293  1.00  0.00     0.037 A 
ATOM     66  C   UNL A   1      51.047  29.806  26.078  1.00  0.00     0.049 A 
ATOM     67  C   UNL A   1      46.815  33.339  27.194  1.00  0.00     0.074 A 
ATOM     68  C   UNL A   1      52.294  30.376  25.900  1.00  0.00     0.029 A 
ATOM     69  N   UNL A   1      50.170  30.840  26.378  1.00  0.00    -0.354 N 
ATOM     70  N   UNL A   1      47.892  32.643  26.916  1.00  0.00    -0.248 NA
ATOM     71  C   UNL A   1      47.067  34.764  27.441  1.00  0.00     0.031 C 
ATOM     72  C   UNL A   1      52.184  31.747  26.158  1.00  0.00     0.029 A 
ATOM     73  C   UNL A   1      50.858  32.040  26.436  1.00  0.00     0.049 A 
ATOM     74  H   UNL A   1      49.202  30.736  26.526  1.00  0.00     0.167 HD
ATOM     75  C   UNL A   1      48.946  33.546  26.941  1.00  0.00     0.074 A 
ATOM     76  C   UNL A   1      48.375  34.844  27.237  1.00  0.00     0.031 C 
ATOM     77  C   UNL A   1      50.268  33.319  26.744  1.00  0.00     0.037 A 
BRANCH  64  78
ATOM     78  C   UNL A   1      51.756  27.398  25.787  1.00  0.00     0.064 A 
ATOM     79  C   UNL A   1      52.465  26.839  26.861  1.00  0.00     0.173 A 
ATOM     80  C   UNL A   1      52.064  26.947  24.495  1.00  0.00     0.173 A 
ATOM     81  F   UNL A   1      52.219  27.244  28.117  1.00  0.00    -0.203 F 
ATOM     82  C   UNL A   1      53.462  25.891  26.648  1.00  0.00     0.198 A 
ATOM     83  C   UNL A   1      53.038  25.974  24.287  1.00  0.00     0.198 A 
ATOM     84  F   UNL A   1      51.416  27.447  23.432  1.00  0.00    -0.203 F 
ATOM     85  F   UNL A   1      54.161  25.410  27.685  1.00  0.00    -0.200 F 
ATOM     86  C   UNL A   1      53.741  25.453  25.362  1.00  0.00     0.200 A 
ATOM     87  F   UNL A   1      53.298  25.543  23.045  1.00  0.00    -0.200 F 
ATOM     88  F   UNL A   1      54.694  24.533  25.158  1.00  0.00    -0.200 F 
ENDBRANCH  64  78
BRANCH  65  89
ATOM     89  C   UNL A   1      44.290  33.817  27.633  1.00  0.00     0.064 A 
ATOM     90  C   UNL A   1      43.770  34.697  26.673  1.00  0.00     0.173 A 
ATOM     91  C   UNL A   1      43.730  33.851  28.918  1.00  0.00     0.173 A 
ATOM     92  F   UNL A   1      44.285  34.715  25.434  1.00  0.00    -0.203 F 
ATOM     93  C   UNL A   1      42.746  35.586  26.992  1.00  0.00     0.198 A 
ATOM     94  C   UNL A   1      42.684  34.718  29.227  1.00  0.00     0.198 A 
ATOM     95  F   UNL A   1      44.186  33.025  29.873  1.00  0.00    -0.203 F 
ATOM     96  F   UNL A   1      42.299  36.446  26.067  1.00  0.00    -0.200 F 
ATOM     97  C   UNL A   1      42.199  35.591  28.266  1.00  0.00     0.200 A 
ATOM     98  F   UNL A   1      42.148  34.706  30.455  1.00  0.00    -0.200 F 
ATOM     99  F   UNL A   1      41.210  36.441  28.569  1.00  0.00    -0.200 F 
ENDBRANCH  65  89
BRANCH  77 100
ATOM    100  C   UNL A   1      51.189  34.501  26.840  1.00  0.00     0.064 A 
ATOM    101  C   UNL A   1      51.410  35.347  25.744  1.00  0.00     0.173 A 
ATOM    102  C   UNL A   1      51.808  34.825  28.057  1.00  0.00     0.173 A 
ATOM    103  F   UNL A   1      50.854  35.070  24.555  1.00  0.00    -0.203 F 
ATOM    104  C   UNL A   1      52.229  36.466  25.858  1.00  0.00     0.198 A 
ATOM    105  C   UNL A   1      52.600  35.963  28.177  1.00  0.00     0.198 A 
ATOM    106  F   UNL A   1      51.624  34.051  29.137  1.00  0.00    -0.203 F 
ATOM    107  F   UNL A   1      52.459  37.238  24.788  1.00  0.00    -0.200 F 
ATOM    108  C   UNL A   1      52.815  36.779  27.076  1.00  0.00     0.200 A 
ATOM    109  F   UNL A   1      53.151  36.273  29.358  1.00  0.00    -0.200 F 
ATOM    110  F   UNL A   1      53.590  37.867  27.188  1.00  0.00    -0.200 F 
ENDBRANCH  77 100
ENDBRANCH  51  52
ENDBRANCH  43  46
ENDBRANCH  41  42
ENDBRANCH  40  41
ENDBRANCH   1  40
TORSDOF 13
ENDMDL
MODEL 2
REMARK VINA RESULT:     -10.7      0.365      6.647
REMARK SMILES COC(=O)[C@H]1CC[C@]2(C)[C@H](CC[C@]3(C)[C@H]2CC=C2[C@H]4CC(C)(C)CC[C@]4(C(=O)NCCCCNC(=O)c4ccc(-c5c6nc(c(-c7c(F)c(F)c(F)c(F)c7F)c7ccc([nH]7)c(-c7c(F)c(F)c(F)c(F)c7F)c7nc(c(-c8c(F)c(F)c(F)c(F)c8F)c8ccc5[nH]8)C=C7)C=C6)cc4)CC[C@@]23C)C1(C)C
REMARK SMILES IDX 31 1 30 2 29 3 27 4 28 5 26 7 5 8 6 9 104 10 7 11 10 12
REMARK SMILES IDX 105 13 106 14 8 15 11 16 15 17 9 18 12 19 16 20 13 21 17 22
REMARK SMILES IDX 102 23 14 24 18 25 101 26 103 27 19 28 100 29 20 30 21 31
REMARK SMILES IDX 25 32 24 33 22 34 23 35 3 36 4 37 2 38 1 39 32 40 33 41
REMARK SMILES IDX 34 42 35 43 36 45 37 46 38 47 99 48 39 49 98 50 40 51 41 52
REMARK SMILES IDX 42 53 92 54 43 55 97 56 91 57 93 58 44 59 96 60 90 61 89 62
REMARK SMILES IDX 45 64 77 65 57 66 76 67 58 68 61 69 75 70 94 71 59 72 60 73
REMARK SMILES IDX 74 75 95 76 62 77 46 78 47 79 55 80 48 81 49 82 53 83 56 84
REMARK SMILES IDX 50 85 51 86 54 87 52 88 78 89 79 90 87 91 80 92 81 93 85 94
REMARK SMILES IDX 88 95 82 96 83 97 86 98 84 99 63 100 64 101 72 102 65 103
REMARK SMILES IDX 66 104 70 105 73 106 67 107 68 108 71 109 69 110
REMARK H PARENT 29 6 34 44 93 63 61 74
REMARK Flexibility Score: inf
ROOT
ATOM      1  C   UNL A   1      40.665  27.589  26.841  1.00  0.00     0.023 C 
ENDROOT
BRANCH   1   2
ATOM      2  C   UNL A   1      40.024  28.963  26.681  1.00  0.00     0.116 C 
BRANCH   2   3
ATOM      3  N   UNL A   1      39.682  29.604  27.916  1.00  0.00    -0.356 N 
ATOM      4  C   UNL A   1      38.359  29.697  28.238  1.00  0.00     0.226 C 
ATOM      5  O   UNL A   1      37.507  29.719  27.352  1.00  0.00    -0.274 OA
ATOM      6  H   UNL A   1      40.376  29.966  28.512  1.00  0.00     0.163 HD
BRANCH   4   7
ATOM      7  C   UNL A   1      38.025  29.705  29.729  1.00  0.00     0.056 C 
ATOM      8  C   UNL A   1      39.734  33.851  36.250  1.00  0.00     0.105 C 
ATOM      9  C   UNL A   1      41.274  33.553  36.194  1.00  0.00     0.016 C 
ATOM     10  C   UNL A   1      38.874  33.402  34.994  1.00  0.00    -0.019 C 
ATOM     11  C   UNL A   1      41.751  32.297  35.403  1.00  0.00     0.008 C 
ATOM     12  C   UNL A   1      39.522  32.031  34.534  1.00  0.00     0.002 C 
ATOM     13  C   UNL A   1      38.744  34.576  33.972  1.00  0.00     0.012 C 
ATOM     14  C   UNL A   1      37.365  33.191  35.349  1.00  0.00     0.012 C 
ATOM     15  C   UNL A   1      41.003  32.130  34.032  1.00  0.00    -0.026 C 
ATOM     16  C   UNL A   1      38.610  31.028  33.866  1.00  0.00     0.005 C 
ATOM     17  C   UNL A   1      41.572  30.859  33.201  1.00  0.00     0.006 C 
ATOM     18  C   UNL A   1      41.397  33.423  33.276  1.00  0.00     0.012 C 
ATOM     19  C   UNL A   1      39.220  29.652  33.652  1.00  0.00     0.008 C 
ATOM     20  C   UNL A   1      42.276  31.249  31.815  1.00  0.00     0.032 C 
ATOM     21  C   UNL A   1      40.638  29.527  33.037  1.00  0.00    -0.020 C 
ATOM     22  C   UNL A   1      41.345  31.202  30.639  1.00  0.00    -0.027 C 
ATOM     23  C   UNL A   1      40.592  29.060  31.482  1.00  0.00    -0.006 C 
ATOM     24  C   UNL A   1      41.306  28.398  33.890  1.00  0.00     0.012 C 
ATOM     25  C   UNL A   1      40.329  30.330  30.666  1.00  0.00    -0.064 C 
ATOM     26  C   UNL A   1      39.604  27.954  30.975  1.00  0.00     0.013 C 
ATOM     27  C   UNL A   1      41.979  28.377  31.103  1.00  0.00     0.017 C 
ATOM     28  C   UNL A   1      38.853  30.738  30.472  1.00  0.00     0.031 C 
ATOM     29  C   UNL A   1      38.221  28.313  30.403  1.00  0.00     0.018 C 
ATOM     30  C   UNL A   1      38.483  32.201  30.123  1.00  0.00     0.015 C 
ATOM     31  C   UNL A   1      36.942  32.532  30.148  1.00  0.00    -0.035 C 
ATOM     32  C   UNL A   1      36.506  30.026  29.848  1.00  0.00     0.018 C 
ATOM     33  C   UNL A   1      36.108  31.450  29.449  1.00  0.00     0.007 C 
ATOM     34  C   UNL A   1      36.724  33.877  29.425  1.00  0.00     0.011 C 
ATOM     35  C   UNL A   1      36.365  32.700  31.568  1.00  0.00     0.011 C 
BRANCH   8  36
ATOM     36  C   UNL A   1      39.190  33.203  37.522  1.00  0.00     0.309 C 
ATOM     37  O   UNL A   1      39.199  32.002  37.758  1.00  0.00    -0.252 OA
BRANCH  36  38
ATOM     38  O   UNL A   1      38.577  34.140  38.300  1.00  0.00    -0.469 OA
ATOM     39  C   UNL A   1      38.066  33.622  39.530  1.00  0.00     0.282 C 
ENDBRANCH  36  38
ENDBRANCH   8  36
ENDBRANCH   4   7
ENDBRANCH   2   3
ENDBRANCH   1   2
BRANCH   1  40
ATOM     40  C   UNL A   1      39.710  26.479  27.272  1.00  0.00     0.023 C 
BRANCH  40  41
ATOM     41  C   UNL A   1      40.303  25.500  28.280  1.00  0.00     0.116 C 
BRANCH  41  42
ATOM     42  N   UNL A   1      40.678  24.230  27.659  1.00  0.00    -0.352 N 
ATOM     43  C   UNL A   1      41.742  23.925  26.870  1.00  0.00     0.251 C 
ATOM     44  H   UNL A   1      40.067  23.480  27.842  1.00  0.00     0.163 HD
ATOM     45  O   UNL A   1      41.746  22.895  26.184  1.00  0.00    -0.269 OA
BRANCH  43  46
ATOM     46  C   UNL A   1      42.885  24.833  26.850  1.00  0.00     0.039 A 
ATOM     47  C   UNL A   1      43.234  25.468  25.660  1.00  0.00     0.014 A 
ATOM     48  C   UNL A   1      43.578  25.075  28.039  1.00  0.00     0.014 A 
ATOM     49  C   UNL A   1      44.253  26.412  25.677  1.00  0.00     0.010 A 
ATOM     50  C   UNL A   1      44.537  26.070  28.071  1.00  0.00     0.010 A 
ATOM     51  C   UNL A   1      44.878  26.746  26.890  1.00  0.00    -0.014 A 
BRANCH  51  52
ATOM     52  C   UNL A   1      45.882  27.826  26.957  1.00  0.00     0.031 A 
ATOM     53  C   UNL A   1      45.436  29.239  27.177  1.00  0.00     0.074 A 
ATOM     54  C   UNL A   1      47.172  27.529  26.726  1.00  0.00     0.049 A 
ATOM     55  N   UNL A   1      46.145  30.337  27.166  1.00  0.00    -0.248 NA
ATOM     56  C   UNL A   1      43.998  29.451  27.411  1.00  0.00     0.031 C 
ATOM     57  C   UNL A   1      47.696  26.190  26.450  1.00  0.00     0.029 A 
ATOM     58  N   UNL A   1      48.277  28.338  26.665  1.00  0.00    -0.354 N 
ATOM     59  C   UNL A   1      45.241  31.367  27.379  1.00  0.00     0.074 A 
ATOM     60  C   UNL A   1      43.925  30.772  27.463  1.00  0.00     0.031 C 
ATOM     61  C   UNL A   1      49.022  26.266  26.263  1.00  0.00     0.029 A 
ATOM     62  C   UNL A   1      49.432  27.663  26.355  1.00  0.00     0.049 A 
ATOM     63  H   UNL A   1      48.246  29.308  26.826  1.00  0.00     0.167 HD
ATOM     64  C   UNL A   1      45.496  32.689  27.511  1.00  0.00     0.037 A 
ATOM     65  C   UNL A   1      50.677  28.128  26.144  1.00  0.00     0.037 A 
ATOM     66  C   UNL A   1      46.815  33.259  27.439  1.00  0.00     0.049 A 
ATOM     67  C   UNL A   1      50.927  29.606  26.267  1.00  0.00     0.074 A 
ATOM     68  C   UNL A   1      47.197  34.573  27.637  1.00  0.00     0.029 A 
ATOM     69  N   UNL A   1      47.966  32.547  27.128  1.00  0.00    -0.354 N 
ATOM     70  N   UNL A   1      50.082  30.566  26.559  1.00  0.00    -0.248 NA
ATOM     71  C   UNL A   1      52.301  30.067  26.027  1.00  0.00     0.031 C 
ATOM     72  C   UNL A   1      48.569  34.668  27.380  1.00  0.00     0.029 A 
ATOM     73  C   UNL A   1      49.053  33.405  27.083  1.00  0.00     0.049 A 
ATOM     74  H   UNL A   1      48.004  31.577  26.965  1.00  0.00     0.167 HD
ATOM     75  C   UNL A   1      50.821  31.740  26.552  1.00  0.00     0.074 A 
ATOM     76  C   UNL A   1      52.189  31.369  26.252  1.00  0.00     0.031 C 
ATOM     77  C   UNL A   1      50.404  33.012  26.770  1.00  0.00     0.037 A 
BRANCH  64  78
ATOM     78  C   UNL A   1      44.329  33.606  27.735  1.00  0.00     0.064 A 
ATOM     79  C   UNL A   1      43.724  33.741  28.994  1.00  0.00     0.173 A 
ATOM     80  C   UNL A   1      43.830  34.387  26.682  1.00  0.00     0.173 A 
ATOM     81  F   UNL A   1      44.154  33.008  30.032  1.00  0.00    -0.203 F 
ATOM     82  C   UNL A   1      42.645  34.600  29.183  1.00  0.00     0.198 A 
ATOM     83  C   UNL A   1      42.772  35.270  26.882  1.00  0.00     0.198 A 
ATOM     84  F   UNL A   1      44.372  34.299  25.458  1.00  0.00    -0.203 F 
ATOM     85  F   UNL A   1      42.050  34.672  30.382  1.00  0.00    -0.200 F 
ATOM     86  C   UNL A   1      42.176  35.369  28.129  1.00  0.00     0.200 A 
ATOM     87  F   UNL A   1      42.329  36.022  25.866  1.00  0.00    -0.200 F 
ATOM     88  F   UNL A   1      41.143  36.203  28.315  1.00  0.00    -0.200 F 
ENDBRANCH  64  78
BRANCH  65  89
ATOM     89  C   UNL A   1      51.768  27.185  25.790  1.00  0.00     0.064 A 
ATOM     90  C   UNL A   1      52.060  26.888  24.452  1.00  0.00     0.173 A 
ATOM     91  C   UNL A   1      52.549  26.568  26.779  1.00  0.00     0.173 A 
ATOM     92  F   UNL A   1      51.330  27.438  23.470  1.00  0.00    -0.203 F 
ATOM     93  C   UNL A   1      53.078  25.997  24.118  1.00  0.00     0.198 A 
ATOM     94  C   UNL A   1      53.588  25.703  26.443  1.00  0.00     0.198 A 
ATOM     95  F   UNL A   1      52.316  26.823  28.076  1.00  0.00    -0.203 F 
ATOM     96  F   UNL A   1      53.306  25.698  22.832  1.00  0.00    -0.200 F 
ATOM     97  C   UNL A   1      53.846  25.411  25.113  1.00  0.00     0.200 A 
ATOM     98  F   UNL A   1      54.337  25.153  27.409  1.00  0.00    -0.200 F 
ATOM     99  F   UNL A   1      54.829  24.560  24.791  1.00  0.00    -0.200 F 
ENDBRANCH  65  89
BRANCH  77 100
ATOM    100  C   UNL A   1      51.439  34.096  26.690  1.00  0.00     0.064 A 
ATOM    101  C   UNL A   1      51.636  34.834  25.514  1.00  0.00     0.173 A 
ATOM    102  C   UNL A   1      52.199  34.441  27.818  1.00  0.00     0.173 A 
ATOM    103  F   UNL A   1      50.947  34.531  24.403  1.00  0.00    -0.203 F 
ATOM    104  C   UNL A   1      52.567  35.868  25.465  1.00  0.00     0.198 A 
ATOM    105  C   UNL A   1      53.104  35.497  27.776  1.00  0.00     0.198 A 
ATOM    106  F   UNL A   1      52.044  33.770  28.970  1.00  0.00    -0.203 F 
ATOM    107  F   UNL A   1      52.768  36.532  24.320  1.00  0.00    -0.200 F 
ATOM    108  C   UNL A   1      53.292  36.205  26.599  1.00  0.00     0.200 A 
ATOM    109  F   UNL A   1      53.791  35.833  28.877  1.00  0.00    -0.200 F 
ATOM    110  F   UNL A   1      54.175  37.212  26.555  1.00  0.00    -0.200 F 
ENDBRANCH  77 100
ENDBRANCH  51  52
ENDBRANCH  43  46
ENDBRANCH  41  42
ENDBRANCH  40  41
ENDBRANCH   1  40
TORSDOF 13
ENDMDL
MODEL 3
REMARK VINA RESULT:     -10.7      1.545      2.299
REMARK SMILES COC(=O)[C@H]1CC[C@]2(C)[C@H](CC[C@]3(C)[C@H]2CC=C2[C@H]4CC(C)(C)CC[C@]4(C(=O)NCCCCNC(=O)c4ccc(-c5c6nc(c(-c7c(F)c(F)c(F)c(F)c7F)c7ccc([nH]7)c(-c7c(F)c(F)c(F)c(F)c7F)c7nc(c(-c8c(F)c(F)c(F)c(F)c8F)c8ccc5[nH]8)C=C7)C=C6)cc4)CC[C@@]23C)C1(C)C
REMARK SMILES IDX 31 1 30 2 29 3 27 4 28 5 26 7 5 8 6 9 104 10 7 11 10 12
REMARK SMILES IDX 105 13 106 14 8 15 11 16 15 17 9 18 12 19 16 20 13 21 17 22
REMARK SMILES IDX 102 23 14 24 18 25 101 26 103 27 19 28 100 29 20 30 21 31
REMARK SMILES IDX 25 32 24 33 22 34 23 35 3 36 4 37 2 38 1 39 32 40 33 41
REMARK SMILES IDX 34 42 35 43 36 45 37 46 38 47 99 48 39 49 98 50 40 51 41 52
REMARK SMILES IDX 42 53 92 54 43 55 97 56 91 57 93 58 44 59 96 60 90 61 89 62
REMARK SMILES IDX 45 64 77 65 57 66 76 67 58 68 61 69 75 70 94 71 59 72 60 73
REMARK SMILES IDX 74 75 95 76 62 77 46 78 47 79 55 80 48 81 49 82 53 83 56 84
REMARK SMILES IDX 50 85 51 86 54 87 52 88 78 89 79 90 87 91 80 92 81 93 85 94
REMARK SMILES IDX 88 95 82 96 83 97 86 98 84 99 63 100 64 101 72 102 65 103
REMARK SMILES IDX 66 104 70 105 73 106 67 107 68 108 71 109 69 110
REMARK H PARENT 29 6 34 44 93 63 61 74
REMARK Flexibility Score: inf
ROOT
ATOM      1  C   UNL A   1      40.729  25.693  26.026  1.00  0.00     0.023 C 
ENDROOT
BRANCH   1   2
ATOM      2  C   UNL A   1      41.728  26.817  26.277  1.00  0.00     0.116 C 
BRANCH   2   3
ATOM      3  N   UNL A   1      41.746  27.303  27.625  1.00  0.00    -0.356 N 
ATOM      4  C   UNL A   1      41.038  28.437  27.901  1.00  0.00     0.226 C 
ATOM      5  O   UNL A   1      40.833  29.268  27.020  1.00  0.00    -0.274 OA
ATOM      6  H   UNL A   1      42.252  26.837  28.328  1.00  0.00     0.163 HD
BRANCH   4   7
ATOM      7  C   UNL A   1      40.482  28.557  29.319  1.00  0.00     0.056 C 
ATOM      8  C   UNL A   1      37.524  34.069  34.168  1.00  0.00     0.105 C 
ATOM      9  C   UNL A   1      38.827  34.944  34.181  1.00  0.00     0.016 C 
ATOM     10  C   UNL A   1      37.482  32.866  33.134  1.00  0.00    -0.019 C 
ATOM     11  C   UNL A   1      40.178  34.255  33.819  1.00  0.00     0.008 C 
ATOM     12  C   UNL A   1      38.962  32.299  33.118  1.00  0.00     0.002 C 
ATOM     13  C   UNL A   1      36.814  33.317  31.796  1.00  0.00     0.012 C 
ATOM     14  C   UNL A   1      36.481  31.743  33.564  1.00  0.00     0.012 C 
ATOM     15  C   UNL A   1      40.049  33.293  32.584  1.00  0.00    -0.026 C 
ATOM     16  C   UNL A   1      39.133  30.828  32.817  1.00  0.00     0.005 C 
ATOM     17  C   UNL A   1      41.485  32.650  32.186  1.00  0.00     0.006 C 
ATOM     18  C   UNL A   1      39.616  34.256  31.451  1.00  0.00     0.012 C 
ATOM     19  C   UNL A   1      40.537  30.290  33.037  1.00  0.00     0.008 C 
ATOM     20  C   UNL A   1      42.012  33.081  30.735  1.00  0.00     0.032 C 
ATOM     21  C   UNL A   1      41.756  31.063  32.467  1.00  0.00    -0.020 C 
ATOM     22  C   UNL A   1      41.632  32.115  29.651  1.00  0.00    -0.027 C 
ATOM     23  C   UNL A   1      42.365  30.352  31.139  1.00  0.00    -0.006 C 
ATOM     24  C   UNL A   1      42.810  30.981  33.620  1.00  0.00     0.012 C 
ATOM     25  C   UNL A   1      41.494  30.822  29.970  1.00  0.00    -0.064 C 
ATOM     26  C   UNL A   1      42.518  28.796  31.026  1.00  0.00     0.013 C 
ATOM     27  C   UNL A   1      43.887  30.786  30.970  1.00  0.00     0.017 C 
ATOM     28  C   UNL A   1      40.215  30.007  29.684  1.00  0.00     0.031 C 
ATOM     29  C   UNL A   1      41.418  27.925  30.394  1.00  0.00     0.018 C 
ATOM     30  C   UNL A   1      39.040  30.641  28.898  1.00  0.00     0.015 C 
ATOM     31  C   UNL A   1      37.721  29.780  28.845  1.00  0.00    -0.035 C 
ATOM     32  C   UNL A   1      39.165  27.727  29.359  1.00  0.00     0.018 C 
ATOM     33  C   UNL A   1      38.008  28.303  28.539  1.00  0.00     0.007 C 
ATOM     34  C   UNL A   1      36.813  30.354  27.740  1.00  0.00     0.011 C 
ATOM     35  C   UNL A   1      36.900  29.819  30.150  1.00  0.00     0.011 C 
BRANCH   8  36
ATOM     36  C   UNL A   1      37.308  33.551  35.590  1.00  0.00     0.309 C 
ATOM     37  O   UNL A   1      36.284  33.702  36.244  1.00  0.00    -0.252 OA
BRANCH  36  38
ATOM     38  O   UNL A   1      38.463  33.010  36.072  1.00  0.00    -0.469 OA
ATOM     39  C   UNL A   1      38.262  31.831  36.854  1.00  0.00     0.282 C 
ENDBRANCH  36  38
ENDBRANCH   8  36
ENDBRANCH   4   7
ENDBRANCH   2   3
ENDBRANCH   1   2
BRANCH   1  40
ATOM     40  C   UNL A   1      40.614  24.670  27.153  1.00  0.00     0.023 C 
BRANCH  40  41
ATOM     41  C   UNL A   1      41.507  23.446  26.981  1.00  0.00     0.116 C 
BRANCH  41  42
ATOM     42  N   UNL A   1      42.043  22.971  28.256  1.00  0.00    -0.352 N 
ATOM     43  C   UNL A   1      43.203  23.291  28.888  1.00  0.00     0.251 C 
ATOM     44  H   UNL A   1      41.477  22.320  28.730  1.00  0.00     0.163 HD
ATOM     45  O   UNL A   1      43.645  22.579  29.797  1.00  0.00    -0.269 OA
BRANCH  43  46
ATOM     46  C   UNL A   1      43.916  24.497  28.479  1.00  0.00     0.039 A 
ATOM     47  C   UNL A   1      44.174  25.492  29.420  1.00  0.00     0.014 A 
ATOM     48  C   UNL A   1      44.360  24.607  27.159  1.00  0.00     0.014 A 
ATOM     49  C   UNL A   1      44.947  26.585  29.047  1.00  0.00     0.010 A 
ATOM     50  C   UNL A   1      45.194  25.654  26.811  1.00  0.00     0.010 A 
ATOM     51  C   UNL A   1      45.494  26.647  27.755  1.00  0.00    -0.014 A 
BRANCH  51  52
ATOM     52  C   UNL A   1      46.412  27.736  27.369  1.00  0.00     0.031 A 
ATOM     53  C   UNL A   1      47.870  27.446  27.183  1.00  0.00     0.074 A 
ATOM     54  C   UNL A   1      45.934  28.990  27.282  1.00  0.00     0.049 A 
ATOM     55  N   UNL A   1      48.851  28.276  26.946  1.00  0.00    -0.248 NA
ATOM     56  C   UNL A   1      48.286  26.040  27.310  1.00  0.00     0.031 C 
ATOM     57  C   UNL A   1      44.538  29.379  27.496  1.00  0.00     0.029 A 
ATOM     58  N   UNL A   1      46.571  30.172  27.010  1.00  0.00    -0.354 N 
ATOM     59  C   UNL A   1      49.998  27.497  26.907  1.00  0.00     0.074 A 
ATOM     60  C   UNL A   1      49.602  26.136  27.198  1.00  0.00     0.031 C 
ATOM     61  C   UNL A   1      44.423  30.706  27.335  1.00  0.00     0.029 A 
ATOM     62  C   UNL A   1      45.742  31.264  27.056  1.00  0.00     0.049 A 
ATOM     63  H   UNL A   1      47.532  30.232  26.802  1.00  0.00     0.167 HD
ATOM     64  C   UNL A   1      51.264  27.887  26.634  1.00  0.00     0.037 A 
ATOM     65  C   UNL A   1      46.022  32.572  26.914  1.00  0.00     0.037 A 
ATOM     66  C   UNL A   1      51.635  29.243  26.333  1.00  0.00     0.049 A 
ATOM     67  C   UNL A   1      47.444  32.982  26.642  1.00  0.00     0.074 A 
ATOM     68  C   UNL A   1      52.873  29.737  25.964  1.00  0.00     0.029 A 
ATOM     69  N   UNL A   1      50.769  30.328  26.384  1.00  0.00    -0.354 N 
ATOM     70  N   UNL A   1      48.510  32.228  26.516  1.00  0.00    -0.248 NA
ATOM     71  C   UNL A   1      47.702  34.419  26.495  1.00  0.00     0.031 C 
ATOM     72  C   UNL A   1      52.771  31.128  25.857  1.00  0.00     0.029 A 
ATOM     73  C   UNL A   1      51.457  31.495  26.098  1.00  0.00     0.049 A 
ATOM     74  H   UNL A   1      49.808  30.274  26.591  1.00  0.00     0.167 HD
ATOM     75  C   UNL A   1      49.563  33.096  26.262  1.00  0.00     0.074 A 
ATOM     76  C   UNL A   1      49.001  34.431  26.227  1.00  0.00     0.031 C 
ATOM     77  C   UNL A   1      50.877  32.815  26.081  1.00  0.00     0.037 A 
BRANCH  64  78
ATOM     78  C   UNL A   1      52.337  26.838  26.659  1.00  0.00     0.064 A 
ATOM     79  C   UNL A   1      53.232  26.720  27.734  1.00  0.00     0.173 A 
ATOM     80  C   UNL A   1      52.453  25.916  25.609  1.00  0.00     0.173 A 
ATOM     81  F   UNL A   1      53.175  27.583  28.760  1.00  0.00    -0.203 F 
ATOM     82  C   UNL A   1      54.219  25.738  27.742  1.00  0.00     0.198 A 
ATOM     83  C   UNL A   1      53.419  24.915  25.635  1.00  0.00     0.198 A 
ATOM     84  F   UNL A   1      51.622  25.982  24.557  1.00  0.00    -0.203 F 
ATOM     85  F   UNL A   1      55.095  25.678  28.755  1.00  0.00    -0.200 F 
ATOM     86  C   UNL A   1      54.306  24.831  26.696  1.00  0.00     0.200 A 
ATOM     87  F   UNL A   1      53.493  24.031  24.630  1.00  0.00    -0.200 F 
ATOM     88  F   UNL A   1      55.250  23.881  26.709  1.00  0.00    -0.200 F 
ENDBRANCH  64  78
BRANCH  65  89
ATOM     89  C   UNL A   1      44.937  33.579  27.036  1.00  0.00     0.064 A 
ATOM     90  C   UNL A   1      44.725  34.271  28.236  1.00  0.00     0.173 A 
ATOM     91  C   UNL A   1      44.096  33.879  25.954  1.00  0.00     0.173 A 
ATOM     92  F   UNL A   1      45.492  34.006  29.305  1.00  0.00    -0.203 F 
ATOM     93  C   UNL A   1      43.702  35.210  28.355  1.00  0.00     0.198 A 
ATOM     94  C   UNL A   1      43.094  34.841  26.064  1.00  0.00     0.198 A 
ATOM     95  F   UNL A   1      44.260  33.250  24.780  1.00  0.00    -0.203 F 
ATOM     96  F   UNL A   1      43.495  35.824  29.527  1.00  0.00    -0.200 F 
ATOM     97  C   UNL A   1      42.893  35.499  27.267  1.00  0.00     0.200 A 
ATOM     98  F   UNL A   1      42.326  35.129  25.004  1.00  0.00    -0.200 F 
ATOM     99  F   UNL A   1      41.914  36.408  27.380  1.00  0.00    -0.200 F 
ENDBRANCH  65  89
BRANCH  77 100
ATOM    100  C   UNL A   1      51.798  33.973  25.828  1.00  0.00     0.064 A 
ATOM    101  C   UNL A   1      52.134  34.368  24.525  1.00  0.00     0.173 A 
ATOM    102  C   UNL A   1      52.300  34.731  26.896  1.00  0.00     0.173 A 
ATOM    103  F   UNL A   1      51.693  33.665  23.471  1.00  0.00    -0.203 F 
ATOM    104  C   UNL A   1      52.953  35.471  24.301  1.00  0.00     0.198 A 
ATOM    105  C   UNL A   1      53.091  35.854  26.668  1.00  0.00     0.198 A 
ATOM    106  F   UNL A   1      52.003  34.398  28.161  1.00  0.00    -0.203 F 
ATOM    107  F   UNL A   1      53.295  35.806  23.051  1.00  0.00    -0.200 F 
ATOM    108  C   UNL A   1      53.422  36.219  25.372  1.00  0.00     0.200 A 
ATOM    109  F   UNL A   1      53.528  36.584  27.702  1.00  0.00    -0.200 F 
ATOM    110  F   UNL A   1      54.195  37.291  25.154  1.00  0.00    -0.200 F 
ENDBRANCH  77 100
ENDBRANCH  51  52
ENDBRANCH  43  46
ENDBRANCH  41  42
ENDBRANCH  40  41
ENDBRANCH   1  40
TORSDOF 13
ENDMDL
