MODEL 1
REMARK VINA RESULT:     -12.2      0.000      0.000
REMARK SMILES O=C(CCCC(=O)Nc1ccc(C(=O)N2CCOCC2)cc1)NCCCCNC(=O)c1ccc(-c2c3nc(c(-c4c(F)c(F)c(F)c(F)c4F)c4ccc([nH]4)c(-c4c(F)c(F)c(F)c(F)c4F)c4nc(c(-c5c(F)c(F)c(F)c(F)c5F)c5ccc2[nH]5)C=C4)C=C3)cc1
REMARK SMILES IDX 24 1 23 2 1 3 2 4 3 6 4 7 5 8 6 9 7 10 8 11 9 13 10 14 22 15
REMARK SMILES IDX 11 16 21 17 12 18 13 19 14 20 15 21 16 22 20 23 17 24 19 25
REMARK SMILES IDX 18 26 25 27 26 28 27 29 28 30 29 31 30 33 31 34 32 35 93 36
REMARK SMILES IDX 33 37 92 38 34 39 35 40 36 41 86 42 37 43 91 44 85 45 87 46
REMARK SMILES IDX 38 47 90 48 84 49 83 50 39 52 71 53 51 54 70 55 52 56 55 57
REMARK SMILES IDX 69 58 88 59 53 60 54 61 68 63 89 64 56 65 40 66 41 67 49 68
REMARK SMILES IDX 42 69 43 70 47 71 50 72 44 73 45 74 48 75 46 76 72 77 73 78
REMARK SMILES IDX 81 79 74 80 75 81 79 82 82 83 76 84 77 85 80 86 78 87 57 88
REMARK SMILES IDX 58 89 66 90 59 91 60 92 64 93 67 94 61 95 62 96 65 97 63 98
REMARK H PARENT 23 5 8 12 28 32 87 51 55 62
REMARK Flexibility Score: inf
ROOT
ATOM      1  C   UNL A   1      31.903  29.710  27.098  1.00  0.00     0.116 C 
ENDROOT
BRANCH   1   2
ATOM      2  N   UNL A   1      32.197  28.385  26.587  1.00  0.00    -0.356 N 
ATOM      3  O   UNL A   1      34.448  28.720  26.579  1.00  0.00    -0.275 OA
ATOM      4  C   UNL A   1      33.491  27.972  26.387  1.00  0.00     0.220 C 
ATOM      5  H   UNL A   1      31.455  27.771  26.379  1.00  0.00     0.163 HD
BRANCH   4   6
ATOM      6  C   UNL A   1      33.699  26.585  25.791  1.00  0.00     0.100 C 
BRANCH   6   7
ATOM      7  C   UNL A   1      33.656  26.335  24.277  1.00  0.00     0.020 C 
BRANCH   7   8
ATOM      8  C   UNL A   1      32.362  26.455  23.477  1.00  0.00     0.101 C 
BRANCH   8   9
ATOM      9  C   UNL A   1      30.980  26.139  24.080  1.00  0.00     0.224 C 
ATOM     10  O   UNL A   1      30.242  27.064  24.428  1.00  0.00    -0.275 OA
ATOM     11  N   UNL A   1      30.434  24.885  23.976  1.00  0.00    -0.326 N 
ATOM     12  H   UNL A   1      29.481  24.863  23.734  1.00  0.00     0.169 HD
BRANCH  11  13
ATOM     13  C   UNL A   1      31.027  23.636  24.162  1.00  0.00     0.041 A 
ATOM     14  C   UNL A   1      31.752  23.055  23.127  1.00  0.00     0.027 A 
ATOM     15  C   UNL A   1      30.920  22.963  25.367  1.00  0.00     0.027 A 
ATOM     16  C   UNL A   1      32.590  21.962  23.403  1.00  0.00     0.016 A 
ATOM     17  C   UNL A   1      31.751  21.869  25.640  1.00  0.00     0.016 A 
ATOM     18  C   UNL A   1      32.680  21.426  24.700  1.00  0.00     0.040 A 
BRANCH  18  19
ATOM     19  C   UNL A   1      33.926  20.646  25.036  1.00  0.00     0.254 C 
ATOM     20  O   UNL A   1      33.947  19.453  24.729  1.00  0.00    -0.269 OA
ATOM     21  N   UNL A   1      35.085  21.296  25.443  1.00  0.00    -0.334 N 
ATOM     22  C   UNL A   1      35.211  22.275  26.520  1.00  0.00     0.148 C 
ATOM     23  C   UNL A   1      36.384  20.771  25.002  1.00  0.00     0.148 C 
ATOM     24  C   UNL A   1      36.142  23.406  26.072  1.00  0.00     0.181 C 
ATOM     25  C   UNL A   1      37.350  21.921  24.672  1.00  0.00     0.181 C 
ATOM     26  O   UNL A   1      37.437  22.875  25.748  1.00  0.00    -0.378 OA
ENDBRANCH  18  19
ENDBRANCH  11  13
ENDBRANCH   8   9
ENDBRANCH   7   8
ENDBRANCH   6   7
ENDBRANCH   4   6
ENDBRANCH   1   2
BRANCH   1  27
ATOM     27  C   UNL A   1      31.455  30.712  26.035  1.00  0.00     0.023 C 
BRANCH  27  28
ATOM     28  C   UNL A   1      31.303  32.162  26.500  1.00  0.00     0.023 C 
BRANCH  28  29
ATOM     29  C   UNL A   1      32.500  32.732  27.250  1.00  0.00     0.116 C 
BRANCH  29  30
ATOM     30  N   UNL A   1      32.313  34.123  27.627  1.00  0.00    -0.352 N 
ATOM     31  C   UNL A   1      32.951  34.881  28.579  1.00  0.00     0.251 C 
ATOM     32  H   UNL A   1      31.617  34.599  27.118  1.00  0.00     0.163 HD
ATOM     33  O   UNL A   1      32.529  36.000  28.846  1.00  0.00    -0.269 OA
BRANCH  31  34
ATOM     34  C   UNL A   1      34.126  34.350  29.307  1.00  0.00     0.039 A 
ATOM     35  C   UNL A   1      33.917  33.682  30.518  1.00  0.00     0.014 A 
ATOM     36  C   UNL A   1      35.427  34.527  28.828  1.00  0.00     0.014 A 
ATOM     37  C   UNL A   1      35.001  33.136  31.210  1.00  0.00     0.010 A 
ATOM     38  C   UNL A   1      36.497  33.911  29.474  1.00  0.00     0.010 A 
ATOM     39  C   UNL A   1      36.296  33.212  30.674  1.00  0.00    -0.014 A 
BRANCH  39  40
ATOM     40  C   UNL A   1      37.448  32.558  31.346  1.00  0.00     0.031 A 
ATOM     41  C   UNL A   1      38.164  31.410  30.688  1.00  0.00     0.074 A 
ATOM     42  C   UNL A   1      37.812  32.956  32.581  1.00  0.00     0.049 A 
ATOM     43  N   UNL A   1      39.145  30.674  31.147  1.00  0.00    -0.248 NA
ATOM     44  C   UNL A   1      37.701  31.022  29.347  1.00  0.00     0.031 C 
ATOM     45  C   UNL A   1      37.172  34.029  33.344  1.00  0.00     0.029 A 
ATOM     46  N   UNL A   1      38.802  32.501  33.416  1.00  0.00    -0.354 N 
ATOM     47  C   UNL A   1      39.399  29.726  30.164  1.00  0.00     0.074 A 
ATOM     48  C   UNL A   1      38.441  29.950  29.102  1.00  0.00     0.031 C 
ATOM     49  C   UNL A   1      37.804  34.170  34.520  1.00  0.00     0.029 A 
ATOM     50  C   UNL A   1      38.861  33.169  34.615  1.00  0.00     0.049 A 
ATOM     51  H   UNL A   1      39.411  31.765  33.179  1.00  0.00     0.167 HD
ATOM     52  C   UNL A   1      40.357  28.768  30.141  1.00  0.00     0.037 A 
ATOM     53  C   UNL A   1      39.672  32.991  35.676  1.00  0.00     0.037 A 
ATOM     54  C   UNL A   1      41.327  28.567  31.187  1.00  0.00     0.049 A 
ATOM     55  C   UNL A   1      40.723  31.915  35.627  1.00  0.00     0.074 A 
ATOM     56  C   UNL A   1      42.382  27.672  31.221  1.00  0.00     0.029 A 
ATOM     57  N   UNL A   1      41.357  29.266  32.385  1.00  0.00    -0.354 N 
ATOM     58  N   UNL A   1      40.997  31.070  34.664  1.00  0.00    -0.248 NA
ATOM     59  C   UNL A   1      41.581  31.775  36.812  1.00  0.00     0.031 C 
ATOM     60  C   UNL A   1      43.012  27.786  32.464  1.00  0.00     0.029 A 
ATOM     61  C   UNL A   1      42.394  28.799  33.178  1.00  0.00     0.049 A 
ATOM     62  H   UNL A   1      40.734  29.986  32.634  1.00  0.00     0.167 HD
ATOM     63  C   UNL A   1      42.075  30.317  35.112  1.00  0.00     0.074 A 
ATOM     64  C   UNL A   1      42.412  30.816  36.429  1.00  0.00     0.031 C 
ATOM     65  C   UNL A   1      42.724  29.305  34.486  1.00  0.00     0.037 A 
BRANCH  52  66
ATOM     66  C   UNL A   1      40.405  27.854  28.951  1.00  0.00     0.064 A 
ATOM     67  C   UNL A   1      41.206  28.134  27.834  1.00  0.00     0.173 A 
ATOM     68  C   UNL A   1      39.685  26.648  28.953  1.00  0.00     0.173 A 
ATOM     69  F   UNL A   1      41.908  29.276  27.775  1.00  0.00    -0.203 F 
ATOM     70  C   UNL A   1      41.265  27.256  26.755  1.00  0.00     0.198 A 
ATOM     71  C   UNL A   1      39.771  25.758  27.887  1.00  0.00     0.198 A 
ATOM     72  F   UNL A   1      38.908  26.327  29.999  1.00  0.00    -0.203 F 
ATOM     73  F   UNL A   1      42.002  27.566  25.680  1.00  0.00    -0.200 F 
ATOM     74  C   UNL A   1      40.555  26.064  26.787  1.00  0.00     0.200 A 
ATOM     75  F   UNL A   1      39.097  24.600  27.927  1.00  0.00    -0.200 F 
ATOM     76  F   UNL A   1      40.625  25.213  25.753  1.00  0.00    -0.200 F 
ENDBRANCH  52  66
BRANCH  53  77
ATOM     77  C   UNL A   1      39.540  33.877  36.862  1.00  0.00     0.064 A 
ATOM     78  C   UNL A   1      40.188  35.119  36.905  1.00  0.00     0.173 A 
ATOM     79  C   UNL A   1      38.757  33.511  37.966  1.00  0.00     0.173 A 
ATOM     80  F   UNL A   1      40.966  35.505  35.882  1.00  0.00    -0.203 F 
ATOM     81  C   UNL A   1      40.069  35.956  38.012  1.00  0.00     0.198 A 
ATOM     82  C   UNL A   1      38.615  34.361  39.061  1.00  0.00     0.198 A 
ATOM     83  F   UNL A   1      38.112  32.335  37.972  1.00  0.00    -0.203 F 
ATOM     84  F   UNL A   1      40.731  37.121  38.044  1.00  0.00    -0.200 F 
ATOM     85  C   UNL A   1      39.277  35.580  39.086  1.00  0.00     0.200 A 
ATOM     86  F   UNL A   1      37.834  34.001  40.088  1.00  0.00    -0.200 F 
ATOM     87  F   UNL A   1      39.152  36.389  40.146  1.00  0.00    -0.200 F 
ENDBRANCH  53  77
BRANCH  65  88
ATOM     88  C   UNL A   1      43.895  28.688  35.198  1.00  0.00     0.064 A 
ATOM     89  C   UNL A   1      43.749  27.573  36.035  1.00  0.00     0.173 A 
ATOM     90  C   UNL A   1      45.189  29.197  35.003  1.00  0.00     0.173 A 
ATOM     91  F   UNL A   1      42.532  27.057  36.266  1.00  0.00    -0.203 F 
ATOM     92  C   UNL A   1      44.850  27.005  36.670  1.00  0.00     0.198 A 
ATOM     93  C   UNL A   1      46.292  28.605  35.612  1.00  0.00     0.198 A 
ATOM     94  F   UNL A   1      45.387  30.258  34.206  1.00  0.00    -0.203 F 
ATOM     95  F   UNL A   1      44.679  25.970  37.504  1.00  0.00    -0.200 F 
ATOM     96  C   UNL A   1      46.121  27.515  36.451  1.00  0.00     0.200 A 
ATOM     97  F   UNL A   1      47.521  29.088  35.386  1.00  0.00    -0.200 F 
ATOM     98  F   UNL A   1      47.181  26.961  37.056  1.00  0.00    -0.200 F 
ENDBRANCH  65  88
ENDBRANCH  39  40
ENDBRANCH  31  34
ENDBRANCH  29  30
ENDBRANCH  28  29
ENDBRANCH  27  28
ENDBRANCH   1  27
TORSDOF 16
ENDMDL
MODEL 2
REMARK VINA RESULT:     -12.1      0.189      1.917
REMARK SMILES O=C(CCCC(=O)Nc1ccc(C(=O)N2CCOCC2)cc1)NCCCCNC(=O)c1ccc(-c2c3nc(c(-c4c(F)c(F)c(F)c(F)c4F)c4ccc([nH]4)c(-c4c(F)c(F)c(F)c(F)c4F)c4nc(c(-c5c(F)c(F)c(F)c(F)c5F)c5ccc2[nH]5)C=C4)C=C3)cc1
REMARK SMILES IDX 24 1 23 2 1 3 2 4 3 6 4 7 5 8 6 9 7 10 8 11 9 13 10 14 22 15
REMARK SMILES IDX 11 16 21 17 12 18 13 19 14 20 15 21 16 22 20 23 17 24 19 25
REMARK SMILES IDX 18 26 25 27 26 28 27 29 28 30 29 31 30 33 31 34 32 35 93 36
REMARK SMILES IDX 33 37 92 38 34 39 35 40 36 41 86 42 37 43 91 44 85 45 87 46
REMARK SMILES IDX 38 47 90 48 84 49 83 50 39 52 71 53 51 54 70 55 52 56 55 57
REMARK SMILES IDX 69 58 88 59 53 60 54 61 68 63 89 64 56 65 40 66 41 67 49 68
REMARK SMILES IDX 42 69 43 70 47 71 50 72 44 73 45 74 48 75 46 76 72 77 73 78
REMARK SMILES IDX 81 79 74 80 75 81 79 82 82 83 76 84 77 85 80 86 78 87 57 88
REMARK SMILES IDX 58 89 66 90 59 91 60 92 64 93 67 94 61 95 62 96 65 97 63 98
REMARK H PARENT 23 5 8 12 28 32 87 51 55 62
REMARK Flexibility Score: inf
ROOT
ATOM      1  C   UNL A   1      32.151  29.823  27.233  1.00  0.00     0.116 C 
ENDROOT
BRANCH   1   2
ATOM      2  N   UNL A   1      32.333  28.440  26.838  1.00  0.00    -0.356 N 
ATOM      3  O   UNL A   1      34.558  28.690  26.430  1.00  0.00    -0.275 OA
ATOM      4  C   UNL A   1      33.569  27.961  26.481  1.00  0.00     0.220 C 
ATOM      5  H   UNL A   1      31.556  27.835  26.824  1.00  0.00     0.163 HD
BRANCH   4   6
ATOM      6  C   UNL A   1      33.651  26.509  26.024  1.00  0.00     0.100 C 
BRANCH   6   7
ATOM      7  C   UNL A   1      33.662  26.123  24.538  1.00  0.00     0.020 C 
BRANCH   7   8
ATOM      8  C   UNL A   1      32.538  26.532  23.592  1.00  0.00     0.101 C 
BRANCH   8   9
ATOM      9  C   UNL A   1      31.058  26.208  23.869  1.00  0.00     0.224 C 
ATOM     10  O   UNL A   1      30.258  27.127  24.056  1.00  0.00    -0.275 OA
ATOM     11  N   UNL A   1      30.553  24.955  23.631  1.00  0.00    -0.326 N 
ATOM     12  H   UNL A   1      29.677  24.936  23.184  1.00  0.00     0.169 HD
BRANCH  11  13
ATOM     13  C   UNL A   1      31.095  23.703  23.928  1.00  0.00     0.041 A 
ATOM     14  C   UNL A   1      31.772  22.993  22.943  1.00  0.00     0.027 A 
ATOM     15  C   UNL A   1      30.983  23.155  25.194  1.00  0.00     0.027 A 
ATOM     16  C   UNL A   1      32.566  21.895  23.310  1.00  0.00     0.016 A 
ATOM     17  C   UNL A   1      31.770  22.056  25.558  1.00  0.00     0.016 A 
ATOM     18  C   UNL A   1      32.659  21.482  24.652  1.00  0.00     0.040 A 
BRANCH  18  19
ATOM     19  C   UNL A   1      33.876  20.682  25.041  1.00  0.00     0.254 C 
ATOM     20  O   UNL A   1      33.855  19.472  24.814  1.00  0.00    -0.269 OA
ATOM     21  N   UNL A   1      35.058  21.316  25.407  1.00  0.00    -0.334 N 
ATOM     22  C   UNL A   1      35.219  22.360  26.418  1.00  0.00     0.148 C 
ATOM     23  C   UNL A   1      36.337  20.717  25.006  1.00  0.00     0.148 C 
ATOM     24  C   UNL A   1      36.190  23.424  25.898  1.00  0.00     0.181 C 
ATOM     25  C   UNL A   1      37.344  21.808  24.603  1.00  0.00     0.181 C 
ATOM     26  O   UNL A   1      37.465  22.827  25.614  1.00  0.00    -0.378 OA
ENDBRANCH  18  19
ENDBRANCH  11  13
ENDBRANCH   8   9
ENDBRANCH   7   8
ENDBRANCH   6   7
ENDBRANCH   4   6
ENDBRANCH   1   2
BRANCH   1  27
ATOM     27  C   UNL A   1      31.462  30.695  26.182  1.00  0.00     0.023 C 
BRANCH  27  28
ATOM     28  C   UNL A   1      31.365  32.188  26.507  1.00  0.00     0.023 C 
BRANCH  28  29
ATOM     29  C   UNL A   1      32.561  32.769  27.250  1.00  0.00     0.116 C 
BRANCH  29  30
ATOM     30  N   UNL A   1      32.363  34.159  27.626  1.00  0.00    -0.352 N 
ATOM     31  C   UNL A   1      32.982  34.917  28.590  1.00  0.00     0.251 C 
ATOM     32  H   UNL A   1      31.674  34.634  27.106  1.00  0.00     0.163 HD
ATOM     33  O   UNL A   1      32.551  36.035  28.852  1.00  0.00    -0.269 OA
BRANCH  31  34
ATOM     34  C   UNL A   1      34.145  34.389  29.338  1.00  0.00     0.039 A 
ATOM     35  C   UNL A   1      33.913  33.671  30.517  1.00  0.00     0.014 A 
ATOM     36  C   UNL A   1      35.456  34.614  28.910  1.00  0.00     0.014 A 
ATOM     37  C   UNL A   1      34.988  33.127  31.225  1.00  0.00     0.010 A 
ATOM     38  C   UNL A   1      36.520  34.002  29.570  1.00  0.00     0.010 A 
ATOM     39  C   UNL A   1      36.297  33.255  30.736  1.00  0.00    -0.014 A 
BRANCH  39  40
ATOM     40  C   UNL A   1      37.443  32.604  31.423  1.00  0.00     0.031 A 
ATOM     41  C   UNL A   1      38.159  31.446  30.783  1.00  0.00     0.074 A 
ATOM     42  C   UNL A   1      37.801  33.016  32.656  1.00  0.00     0.049 A 
ATOM     43  N   UNL A   1      39.134  30.712  31.257  1.00  0.00    -0.248 NA
ATOM     44  C   UNL A   1      37.701  31.044  29.444  1.00  0.00     0.031 C 
ATOM     45  C   UNL A   1      37.161  34.100  33.401  1.00  0.00     0.029 A 
ATOM     46  N   UNL A   1      38.784  32.568  33.501  1.00  0.00    -0.354 N 
ATOM     47  C   UNL A   1      39.390  29.751  30.287  1.00  0.00     0.074 A 
ATOM     48  C   UNL A   1      38.439  29.966  29.217  1.00  0.00     0.031 C 
ATOM     49  C   UNL A   1      37.786  34.253  34.579  1.00  0.00     0.029 A 
ATOM     50  C   UNL A   1      38.839  33.250  34.693  1.00  0.00     0.049 A 
ATOM     51  H   UNL A   1      39.392  31.826  33.277  1.00  0.00     0.167 HD
ATOM     52  C   UNL A   1      40.345  28.789  30.281  1.00  0.00     0.037 A 
ATOM     53  C   UNL A   1      39.643  33.082  35.760  1.00  0.00     0.037 A 
ATOM     54  C   UNL A   1      41.307  28.598  31.335  1.00  0.00     0.049 A 
ATOM     55  C   UNL A   1      40.690  32.002  35.731  1.00  0.00     0.074 A 
ATOM     56  C   UNL A   1      42.359  27.700  31.386  1.00  0.00     0.029 A 
ATOM     57  N   UNL A   1      41.333  29.311  32.525  1.00  0.00    -0.354 N 
ATOM     58  N   UNL A   1      40.967  31.144  34.780  1.00  0.00    -0.248 NA
ATOM     59  C   UNL A   1      41.541  31.872  36.922  1.00  0.00     0.031 C 
ATOM     60  C   UNL A   1      42.983  27.826  32.631  1.00  0.00     0.029 A 
ATOM     61  C   UNL A   1      42.364  28.850  33.330  1.00  0.00     0.049 A 
ATOM     62  H   UNL A   1      40.712  30.037  32.762  1.00  0.00     0.167 HD
ATOM     63  C   UNL A   1      42.039  30.392  35.243  1.00  0.00     0.074 A 
ATOM     64  C   UNL A   1      42.371  30.906  36.556  1.00  0.00     0.031 C 
ATOM     65  C   UNL A   1      42.688  29.371  34.633  1.00  0.00     0.037 A 
BRANCH  52  66
ATOM     66  C   UNL A   1      40.396  27.861  29.103  1.00  0.00     0.064 A 
ATOM     67  C   UNL A   1      39.648  26.675  29.061  1.00  0.00     0.173 A 
ATOM     68  C   UNL A   1      41.160  28.192  27.972  1.00  0.00     0.173 A 
ATOM     69  F   UNL A   1      38.908  26.306  30.118  1.00  0.00    -0.203 F 
ATOM     70  C   UNL A   1      39.682  25.844  27.944  1.00  0.00     0.198 A 
ATOM     71  C   UNL A   1      41.166  27.375  26.845  1.00  0.00     0.198 A 
ATOM     72  F   UNL A   1      41.890  29.317  27.955  1.00  0.00    -0.203 F 
ATOM     73  F   UNL A   1      38.993  24.694  27.945  1.00  0.00    -0.200 F 
ATOM     74  C   UNL A   1      40.432  26.200  26.834  1.00  0.00     0.200 A 
ATOM     75  F   UNL A   1      41.880  27.729  25.767  1.00  0.00    -0.200 F 
ATOM     76  F   UNL A   1      40.451  25.406  25.753  1.00  0.00    -0.200 F 
ENDBRANCH  52  66
BRANCH  53  77
ATOM     77  C   UNL A   1      39.507  33.982  36.935  1.00  0.00     0.064 A 
ATOM     78  C   UNL A   1      38.728  33.608  38.039  1.00  0.00     0.173 A 
ATOM     79  C   UNL A   1      40.159  35.222  36.987  1.00  0.00     0.173 A 
ATOM     80  F   UNL A   1      38.068  32.440  38.028  1.00  0.00    -0.203 F 
ATOM     81  C   UNL A   1      38.596  34.445  39.145  1.00  0.00     0.198 A 
ATOM     82  C   UNL A   1      40.050  36.046  38.106  1.00  0.00     0.198 A 
ATOM     83  F   UNL A   1      40.920  35.624  35.959  1.00  0.00    -0.203 F 
ATOM     84  F   UNL A   1      37.814  34.080  40.170  1.00  0.00    -0.200 F 
ATOM     85  C   UNL A   1      39.263  35.660  39.180  1.00  0.00     0.200 A 
ATOM     86  F   UNL A   1      40.711  37.211  38.143  1.00  0.00    -0.200 F 
ATOM     87  F   UNL A   1      39.146  36.460  40.249  1.00  0.00    -0.200 F 
ENDBRANCH  53  77
BRANCH  65  88
ATOM     88  C   UNL A   1      43.853  28.758  35.360  1.00  0.00     0.064 A 
ATOM     89  C   UNL A   1      45.159  29.246  35.209  1.00  0.00     0.173 A 
ATOM     90  C   UNL A   1      43.648  27.697  36.256  1.00  0.00     0.173 A 
ATOM     91  F   UNL A   1      45.410  30.250  34.355  1.00  0.00    -0.203 F 
ATOM     92  C   UNL A   1      46.221  28.677  35.908  1.00  0.00     0.198 A 
ATOM     93  C   UNL A   1      44.707  27.153  36.978  1.00  0.00     0.198 A 
ATOM     94  F   UNL A   1      42.417  27.197  36.445  1.00  0.00    -0.203 F 
ATOM     95  F   UNL A   1      47.467  29.127  35.709  1.00  0.00    -0.200 F 
ATOM     96  C   UNL A   1      45.993  27.638  36.797  1.00  0.00     0.200 A 
ATOM     97  F   UNL A   1      44.482  26.161  37.850  1.00  0.00    -0.200 F 
ATOM     98  F   UNL A   1      47.015  27.099  37.476  1.00  0.00    -0.200 F 
ENDBRANCH  65  88
ENDBRANCH  39  40
ENDBRANCH  31  34
ENDBRANCH  29  30
ENDBRANCH  28  29
ENDBRANCH  27  28
ENDBRANCH   1  27
TORSDOF 16
ENDMDL
MODEL 3
REMARK VINA RESULT:     -12.0      1.969      7.824
REMARK SMILES O=C(CCCC(=O)Nc1ccc(C(=O)N2CCOCC2)cc1)NCCCCNC(=O)c1ccc(-c2c3nc(c(-c4c(F)c(F)c(F)c(F)c4F)c4ccc([nH]4)c(-c4c(F)c(F)c(F)c(F)c4F)c4nc(c(-c5c(F)c(F)c(F)c(F)c5F)c5ccc2[nH]5)C=C4)C=C3)cc1
REMARK SMILES IDX 24 1 23 2 1 3 2 4 3 6 4 7 5 8 6 9 7 10 8 11 9 13 10 14 22 15
REMARK SMILES IDX 11 16 21 17 12 18 13 19 14 20 15 21 16 22 20 23 17 24 19 25
REMARK SMILES IDX 18 26 25 27 26 28 27 29 28 30 29 31 30 33 31 34 32 35 93 36
REMARK SMILES IDX 33 37 92 38 34 39 35 40 36 41 86 42 37 43 91 44 85 45 87 46
REMARK SMILES IDX 38 47 90 48 84 49 83 50 39 52 71 53 51 54 70 55 52 56 55 57
REMARK SMILES IDX 69 58 88 59 53 60 54 61 68 63 89 64 56 65 40 66 41 67 49 68
REMARK SMILES IDX 42 69 43 70 47 71 50 72 44 73 45 74 48 75 46 76 72 77 73 78
REMARK SMILES IDX 81 79 74 80 75 81 79 82 82 83 76 84 77 85 80 86 78 87 57 88
REMARK SMILES IDX 58 89 66 90 59 91 60 92 64 93 67 94 61 95 62 96 65 97 63 98
REMARK H PARENT 23 5 8 12 28 32 87 51 55 62
REMARK Flexibility Score: inf
ROOT
ATOM      1  C   UNL A   1      34.600  32.296  29.265  1.00  0.00     0.116 C 
ENDROOT
BRANCH   1   2
ATOM      2  N   UNL A   1      34.262  31.152  28.441  1.00  0.00    -0.356 N 
ATOM      3  O   UNL A   1      36.397  30.853  27.712  1.00  0.00    -0.275 OA
ATOM      4  C   UNL A   1      35.225  30.482  27.727  1.00  0.00     0.220 C 
ATOM      5  H   UNL A   1      33.326  30.850  28.393  1.00  0.00     0.163 HD
BRANCH   4   6
ATOM      6  C   UNL A   1      34.765  29.329  26.844  1.00  0.00     0.100 C 
BRANCH   6   7
ATOM      7  C   UNL A   1      33.564  28.447  27.214  1.00  0.00     0.020 C 
BRANCH   7   8
ATOM      8  C   UNL A   1      32.138  28.826  26.828  1.00  0.00     0.101 C 
BRANCH   8   9
ATOM      9  C   UNL A   1      31.817  29.984  25.864  1.00  0.00     0.224 C 
ATOM     10  O   UNL A   1      31.355  31.037  26.311  1.00  0.00    -0.275 OA
ATOM     11  N   UNL A   1      32.294  29.985  24.578  1.00  0.00    -0.326 N 
ATOM     12  H   UNL A   1      32.656  30.846  24.268  1.00  0.00     0.169 HD
BRANCH  11  13
ATOM     13  C   UNL A   1      32.341  28.951  23.643  1.00  0.00     0.041 A 
ATOM     14  C   UNL A   1      33.565  28.393  23.293  1.00  0.00     0.027 A 
ATOM     15  C   UNL A   1      31.186  28.456  23.062  1.00  0.00     0.027 A 
ATOM     16  C   UNL A   1      33.591  27.173  22.597  1.00  0.00     0.016 A 
ATOM     17  C   UNL A   1      31.213  27.242  22.363  1.00  0.00     0.016 A 
ATOM     18  C   UNL A   1      32.400  26.526  22.221  1.00  0.00     0.040 A 
BRANCH  18  19
ATOM     19  C   UNL A   1      32.475  25.042  21.968  1.00  0.00     0.254 C 
ATOM     20  O   UNL A   1      33.138  24.665  21.001  1.00  0.00    -0.269 OA
ATOM     21  N   UNL A   1      32.026  24.133  22.920  1.00  0.00    -0.334 N 
ATOM     22  C   UNL A   1      30.720  24.121  23.576  1.00  0.00     0.148 C 
ATOM     23  C   UNL A   1      32.759  22.874  23.099  1.00  0.00     0.148 C 
ATOM     24  C   UNL A   1      30.901  23.792  25.061  1.00  0.00     0.181 C 
ATOM     25  C   UNL A   1      32.827  22.492  24.587  1.00  0.00     0.181 C 
ATOM     26  O   UNL A   1      31.526  22.506  25.205  1.00  0.00    -0.378 OA
ENDBRANCH  18  19
ENDBRANCH  11  13
ENDBRANCH   8   9
ENDBRANCH   7   8
ENDBRANCH   6   7
ENDBRANCH   4   6
ENDBRANCH   1   2
BRANCH   1  27
ATOM     27  C   UNL A   1      34.500  33.643  28.549  1.00  0.00     0.023 C 
BRANCH  27  28
ATOM     28  C   UNL A   1      33.216  34.438  28.790  1.00  0.00     0.023 C 
BRANCH  28  29
ATOM     29  C   UNL A   1      33.415  35.832  29.374  1.00  0.00     0.116 C 
BRANCH  29  30
ATOM     30  N   UNL A   1      32.550  36.089  30.513  1.00  0.00    -0.352 N 
ATOM     31  C   UNL A   1      32.665  35.695  31.824  1.00  0.00     0.251 C 
ATOM     32  H   UNL A   1      31.754  36.633  30.313  1.00  0.00     0.163 HD
ATOM     33  O   UNL A   1      31.735  35.888  32.599  1.00  0.00    -0.269 OA
BRANCH  31  34
ATOM     34  C   UNL A   1      33.888  35.012  32.306  1.00  0.00     0.039 A 
ATOM     35  C   UNL A   1      33.765  33.738  32.869  1.00  0.00     0.014 A 
ATOM     36  C   UNL A   1      35.143  35.622  32.236  1.00  0.00     0.014 A 
ATOM     37  C   UNL A   1      34.904  33.052  33.298  1.00  0.00     0.010 A 
ATOM     38  C   UNL A   1      36.286  34.906  32.586  1.00  0.00     0.010 A 
ATOM     39  C   UNL A   1      36.179  33.615  33.124  1.00  0.00    -0.014 A 
BRANCH  39  40
ATOM     40  C   UNL A   1      37.408  32.864  33.487  1.00  0.00     0.031 A 
ATOM     41  C   UNL A   1      38.128  33.157  34.776  1.00  0.00     0.074 A 
ATOM     42  C   UNL A   1      37.915  31.960  32.626  1.00  0.00     0.049 A 
ATOM     43  N   UNL A   1      39.248  32.653  35.231  1.00  0.00    -0.248 NA
ATOM     44  C   UNL A   1      37.523  34.167  35.657  1.00  0.00     0.031 C 
ATOM     45  C   UNL A   1      37.335  31.615  31.327  1.00  0.00     0.029 A 
ATOM     46  N   UNL A   1      39.036  31.172  32.708  1.00  0.00    -0.354 N 
ATOM     47  C   UNL A   1      39.491  33.299  36.436  1.00  0.00     0.074 A 
ATOM     48  C   UNL A   1      38.427  34.263  36.622  1.00  0.00     0.031 C 
ATOM     49  C   UNL A   1      38.086  30.665  30.748  1.00  0.00     0.029 A 
ATOM     50  C   UNL A   1      39.224  30.366  31.611  1.00  0.00     0.049 A 
ATOM     51  H   UNL A   1      39.648  31.183  33.479  1.00  0.00     0.167 HD
ATOM     52  C   UNL A   1      40.499  33.093  37.318  1.00  0.00     0.037 A 
ATOM     53  C   UNL A   1      40.207  29.490  31.328  1.00  0.00     0.037 A 
ATOM     54  C   UNL A   1      41.539  32.112  37.143  1.00  0.00     0.049 A 
ATOM     55  C   UNL A   1      41.319  29.285  32.321  1.00  0.00     0.074 A 
ATOM     56  C   UNL A   1      42.561  31.777  38.014  1.00  0.00     0.029 A 
ATOM     57  N   UNL A   1      41.695  31.312  36.020  1.00  0.00    -0.354 N 
ATOM     58  N   UNL A   1      41.501  29.853  33.488  1.00  0.00    -0.248 NA
ATOM     59  C   UNL A   1      42.358  28.311  31.958  1.00  0.00     0.031 C 
ATOM     60  C   UNL A   1      43.370  30.821  37.394  1.00  0.00     0.029 A 
ATOM     61  C   UNL A   1      42.814  30.508  36.164  1.00  0.00     0.049 A 
ATOM     62  H   UNL A   1      41.097  31.316  35.237  1.00  0.00     0.167 HD
ATOM     63  C   UNL A   1      42.657  29.288  34.012  1.00  0.00     0.074 A 
ATOM     64  C   UNL A   1      43.124  28.321  33.040  1.00  0.00     0.031 C 
ATOM     65  C   UNL A   1      43.270  29.546  35.192  1.00  0.00     0.037 A 
BRANCH  52  66
ATOM     66  C   UNL A   1      40.537  33.947  38.552  1.00  0.00     0.064 A 
ATOM     67  C   UNL A   1      39.876  33.574  39.731  1.00  0.00     0.173 A 
ATOM     68  C   UNL A   1      41.296  35.128  38.573  1.00  0.00     0.173 A 
ATOM     69  F   UNL A   1      39.129  32.460  39.763  1.00  0.00    -0.203 F 
ATOM     70  C   UNL A   1      39.952  34.362  40.877  1.00  0.00     0.198 A 
ATOM     71  C   UNL A   1      41.396  35.897  39.729  1.00  0.00     0.198 A 
ATOM     72  F   UNL A   1      41.954  35.529  37.475  1.00  0.00    -0.203 F 
ATOM     73  F   UNL A   1      39.275  34.008  41.978  1.00  0.00    -0.200 F 
ATOM     74  C   UNL A   1      40.720  35.517  40.878  1.00  0.00     0.200 A 
ATOM     75  F   UNL A   1      42.152  37.004  39.733  1.00  0.00    -0.200 F 
ATOM     76  F   UNL A   1      40.804  36.267  41.986  1.00  0.00    -0.200 F 
ENDBRANCH  52  66
BRANCH  53  77
ATOM     77  C   UNL A   1      40.164  28.717  30.059  1.00  0.00     0.064 A 
ATOM     78  C   UNL A   1      40.767  29.215  28.895  1.00  0.00     0.173 A 
ATOM     79  C   UNL A   1      39.537  27.465  29.984  1.00  0.00     0.173 A 
ATOM     80  F   UNL A   1      41.361  30.418  28.911  1.00  0.00    -0.203 F 
ATOM     81  C   UNL A   1      40.732  28.497  27.702  1.00  0.00     0.198 A 
ATOM     82  C   UNL A   1      39.528  26.735  28.798  1.00  0.00     0.198 A 
ATOM     83  F   UNL A   1      38.951  26.943  31.071  1.00  0.00    -0.203 F 
ATOM     84  F   UNL A   1      41.282  29.015  26.595  1.00  0.00    -0.200 F 
ATOM     85  C   UNL A   1      40.119  27.255  27.656  1.00  0.00     0.200 A 
ATOM     86  F   UNL A   1      38.950  25.526  28.763  1.00  0.00    -0.200 F 
ATOM     87  F   UNL A   1      40.096  26.558  26.512  1.00  0.00    -0.200 F 
ENDBRANCH  53  77
BRANCH  65  88
ATOM     88  C   UNL A   1      44.499  28.747  35.523  1.00  0.00     0.064 A 
ATOM     89  C   UNL A   1      45.775  29.141  35.096  1.00  0.00     0.173 A 
ATOM     90  C   UNL A   1      44.401  27.595  36.320  1.00  0.00     0.173 A 
ATOM     91  F   UNL A   1      45.923  30.227  34.321  1.00  0.00    -0.203 F 
ATOM     92  C   UNL A   1      46.904  28.397  35.430  1.00  0.00     0.198 A 
ATOM     93  C   UNL A   1      45.534  26.873  36.681  1.00  0.00     0.198 A 
ATOM     94  F   UNL A   1      43.205  27.178  36.763  1.00  0.00    -0.203 F 
ATOM     95  F   UNL A   1      48.107  28.764  34.968  1.00  0.00    -0.200 F 
ATOM     96  C   UNL A   1      46.784  27.270  36.229  1.00  0.00     0.200 A 
ATOM     97  F   UNL A   1      45.419  25.795  37.467  1.00  0.00    -0.200 F 
ATOM     98  F   UNL A   1      47.872  26.561  36.558  1.00  0.00    -0.200 F 
ENDBRANCH  65  88
ENDBRANCH  39  40
ENDBRANCH  31  34
ENDBRANCH  29  30
ENDBRANCH  28  29
ENDBRANCH  27  28
ENDBRANCH   1  27
TORSDOF 16
ENDMDL
