MODEL 1
REMARK VINA RESULT:     -13.7      0.000      0.000
REMARK SMILES C[C@@H](NC(=O)CCCN1C(=O)/C(=C/c2c3ccccc3cc3ccccc23)SC1=S)C(=O)NCCCCNC(=O)c1ccc(-c2c3nc(c(-c4c(F)c(F)c(F)c(F)c4F)c4ccc([nH]4)c(-c4c(F)c(F)c(F)c(F)c4F)c4nc(c(-c5c(F)c(F)c(F)c(F)c5F)c5ccc2[nH]5)C=C4)C=C3)cc1
REMARK SMILES IDX 31 1 32 2 33 3 2 5 1 6 3 7 4 8 5 10 6 11 7 12 8 13 9 14
REMARK SMILES IDX 10 15 29 16 11 17 12 18 28 19 30 20 13 21 14 22 15 23 27 24
REMARK SMILES IDX 16 25 20 26 22 27 26 28 17 29 19 30 21 31 23 32 25 33 18 34
REMARK SMILES IDX 24 35 34 36 35 37 36 38 37 39 38 40 39 41 40 43 41 44 42 45
REMARK SMILES IDX 103 46 43 47 102 48 44 49 45 50 46 51 96 52 47 53 101 54
REMARK SMILES IDX 95 55 97 56 48 57 100 58 94 59 93 60 49 62 81 63 61 64 80 65
REMARK SMILES IDX 62 66 65 67 79 68 98 69 63 70 64 71 78 73 99 74 66 75 50 76
REMARK SMILES IDX 51 77 59 78 52 79 53 80 57 81 60 82 54 83 55 84 58 85 56 86
REMARK SMILES IDX 82 87 83 88 91 89 84 90 85 91 89 92 92 93 86 94 87 95 90 96
REMARK SMILES IDX 88 97 67 98 68 99 76 100 69 101 70 102 74 103 77 104 71 105
REMARK SMILES IDX 72 106 75 107 73 108
REMARK H PARENT 33 4 3 9 38 42 97 61 65 72
REMARK Flexibility Score: inf
ROOT
ATOM      1  C   UNL A   1      43.427  20.866  25.699  1.00  0.00     0.242 C 
ATOM      2  O   UNL A   1      43.803  20.217  24.693  1.00  0.00    -0.273 OA
ATOM      3  N   UNL A   1      44.438  21.728  26.070  1.00  0.00    -0.354 N 
ATOM      4  H   UNL A   1      45.218  21.349  25.605  1.00  0.00     0.163 HD
ENDROOT
BRANCH   1   5
ATOM      5  C   UNL A   1      41.850  20.475  26.149  1.00  0.00     0.168 C 
ATOM      6  C   UNL A   1      40.943  19.210  26.143  1.00  0.00     0.041 C 
BRANCH   5   7
ATOM      7  N   UNL A   1      41.472  21.180  27.338  1.00  0.00    -0.345 N 
ATOM      8  C   UNL A   1      40.504  22.125  27.302  1.00  0.00     0.220 C 
ATOM      9  H   UNL A   1      41.920  20.974  28.190  1.00  0.00     0.164 HD
ATOM     10  O   UNL A   1      40.335  22.883  28.249  1.00  0.00    -0.275 OA
BRANCH   8  11
ATOM     11  C   UNL A   1      39.595  22.063  26.093  1.00  0.00     0.102 C 
BRANCH  11  12
ATOM     12  C   UNL A   1      38.217  22.869  26.089  1.00  0.00     0.032 C 
BRANCH  12  13
ATOM     13  C   UNL A   1      36.614  22.755  25.455  1.00  0.00     0.128 C 
BRANCH  13  14
ATOM     14  N   UNL A   1      35.317  23.667  25.342  1.00  0.00    -0.293 N 
ATOM     15  C   UNL A   1      34.785  24.424  24.285  1.00  0.00     0.266 C 
ATOM     16  C   UNL A   1      34.237  23.448  26.201  1.00  0.00     0.148 C 
ATOM     17  O   UNL A   1      34.836  24.214  23.080  1.00  0.00    -0.268 OA
ATOM     18  C   UNL A   1      33.875  25.512  24.809  1.00  0.00     0.081 C 
ATOM     19  S   UNL A   1      33.070  24.794  26.137  1.00  0.00    -0.054 SA
ATOM     20  S   UNL A   1      33.960  22.141  27.207  1.00  0.00    -0.052 S 
ATOM     21  C   UNL A   1      33.791  26.773  24.318  1.00  0.00     0.030 C 
BRANCH  21  22
ATOM     22  C   UNL A   1      32.963  27.953  24.782  1.00  0.00    -0.009 A 
ATOM     23  C   UNL A   1      31.669  28.216  24.224  1.00  0.00    -0.010 A 
ATOM     24  C   UNL A   1      33.455  28.823  25.825  1.00  0.00    -0.010 A 
ATOM     25  C   UNL A   1      30.930  27.295  23.443  1.00  0.00     0.009 A 
ATOM     26  C   UNL A   1      31.037  29.457  24.487  1.00  0.00    -0.017 A 
ATOM     27  C   UNL A   1      32.771  30.042  26.086  1.00  0.00    -0.017 A 
ATOM     28  C   UNL A   1      34.573  28.560  26.661  1.00  0.00     0.009 A 
ATOM     29  C   UNL A   1      29.701  27.621  22.862  1.00  0.00     0.001 A 
ATOM     30  C   UNL A   1      29.816  29.789  23.877  1.00  0.00     0.009 A 
ATOM     31  C   UNL A   1      31.613  30.361  25.379  1.00  0.00     0.017 A 
ATOM     32  C   UNL A   1      33.227  30.949  27.062  1.00  0.00     0.009 A 
ATOM     33  C   UNL A   1      34.993  29.450  27.663  1.00  0.00     0.001 A 
ATOM     34  C   UNL A   1      29.158  28.881  23.054  1.00  0.00     0.001 A 
ATOM     35  C   UNL A   1      34.332  30.655  27.849  1.00  0.00     0.001 A 
ENDBRANCH  21  22
ENDBRANCH  13  14
ENDBRANCH  12  13
ENDBRANCH  11  12
ENDBRANCH   8  11
ENDBRANCH   5   7
ENDBRANCH   1   5
BRANCH   3  36
ATOM     36  C   UNL A   1      45.050  22.959  26.805  1.00  0.00     0.116 C 
BRANCH  36  37
ATOM     37  C   UNL A   1      44.201  23.932  27.691  1.00  0.00     0.023 C 
BRANCH  37  38
ATOM     38  C   UNL A   1      44.461  25.443  27.670  1.00  0.00     0.023 C 
BRANCH  38  39
ATOM     39  C   UNL A   1      43.361  26.312  27.115  1.00  0.00     0.116 C 
BRANCH  39  40
ATOM     40  N   UNL A   1      42.511  25.703  26.102  1.00  0.00    -0.352 N 
ATOM     41  C   UNL A   1      41.144  25.926  25.960  1.00  0.00     0.251 C 
ATOM     42  H   UNL A   1      42.937  25.085  25.467  1.00  0.00     0.163 HD
ATOM     43  O   UNL A   1      40.474  25.364  25.126  1.00  0.00    -0.269 OA
BRANCH  41  44
ATOM     44  C   UNL A   1      40.539  26.855  26.945  1.00  0.00     0.039 A 
ATOM     45  C   UNL A   1      39.918  26.321  28.076  1.00  0.00     0.014 A 
ATOM     46  C   UNL A   1      40.878  28.206  26.875  1.00  0.00     0.014 A 
ATOM     47  C   UNL A   1      39.733  27.140  29.192  1.00  0.00     0.010 A 
ATOM     48  C   UNL A   1      40.820  28.971  28.030  1.00  0.00     0.010 A 
ATOM     49  C   UNL A   1      40.239  28.450  29.199  1.00  0.00    -0.014 A 
BRANCH  49  50
ATOM     50  C   UNL A   1      40.148  29.310  30.407  1.00  0.00     0.031 A 
ATOM     51  C   UNL A   1      39.086  30.374  30.467  1.00  0.00     0.074 A 
ATOM     52  C   UNL A   1      41.038  29.178  31.411  1.00  0.00     0.049 A 
ATOM     53  N   UNL A   1      38.852  31.260  31.401  1.00  0.00    -0.248 NA
ATOM     54  C   UNL A   1      38.189  30.482  29.304  1.00  0.00     0.031 C 
ATOM     55  C   UNL A   1      42.150  28.225  31.443  1.00  0.00     0.029 A 
ATOM     56  N   UNL A   1      41.148  29.848  32.605  1.00  0.00    -0.354 N 
ATOM     57  C   UNL A   1      37.799  32.030  30.928  1.00  0.00     0.074 A 
ATOM     58  C   UNL A   1      37.493  31.568  29.595  1.00  0.00     0.031 C 
ATOM     59  C   UNL A   1      42.799  28.342  32.613  1.00  0.00     0.029 A 
ATOM     60  C   UNL A   1      42.179  29.405  33.398  1.00  0.00     0.049 A 
ATOM     61  H   UNL A   1      40.542  30.579  32.867  1.00  0.00     0.167 HD
ATOM     62  C   UNL A   1      37.118  33.012  31.563  1.00  0.00     0.037 A 
ATOM     63  C   UNL A   1      42.575  29.814  34.619  1.00  0.00     0.037 A 
ATOM     64  C   UNL A   1      37.407  33.446  32.901  1.00  0.00     0.049 A 
ATOM     65  C   UNL A   1      41.811  30.922  35.298  1.00  0.00     0.074 A 
ATOM     66  C   UNL A   1      36.740  34.387  33.664  1.00  0.00     0.029 A 
ATOM     67  N   UNL A   1      38.457  32.971  33.675  1.00  0.00    -0.354 N 
ATOM     68  N   UNL A   1      40.760  31.584  34.878  1.00  0.00    -0.248 NA
ATOM     69  C   UNL A   1      42.285  31.335  36.627  1.00  0.00     0.031 C 
ATOM     70  C   UNL A   1      37.425  34.529  34.873  1.00  0.00     0.029 A 
ATOM     71  C   UNL A   1      38.475  33.624  34.894  1.00  0.00     0.049 A 
ATOM     72  H   UNL A   1      39.093  32.272  33.397  1.00  0.00     0.167 HD
ATOM     73  C   UNL A   1      40.426  32.463  35.899  1.00  0.00     0.074 A 
ATOM     74  C   UNL A   1      41.376  32.238  36.969  1.00  0.00     0.031 C 
ATOM     75  C   UNL A   1      39.424  33.376  35.950  1.00  0.00     0.037 A 
BRANCH  62  76
ATOM     76  C   UNL A   1      35.999  33.676  30.816  1.00  0.00     0.064 A 
ATOM     77  C   UNL A   1      36.152  34.122  29.493  1.00  0.00     0.173 A 
ATOM     78  C   UNL A   1      34.747  33.851  31.423  1.00  0.00     0.173 A 
ATOM     79  F   UNL A   1      37.334  33.997  28.870  1.00  0.00    -0.203 F 
ATOM     80  C   UNL A   1      35.105  34.746  28.821  1.00  0.00     0.198 A 
ATOM     81  C   UNL A   1      33.690  34.441  30.735  1.00  0.00     0.198 A 
ATOM     82  F   UNL A   1      34.545  33.444  32.686  1.00  0.00    -0.203 F 
ATOM     83  F   UNL A   1      35.296  35.219  27.580  1.00  0.00    -0.200 F 
ATOM     84  C   UNL A   1      33.873  34.897  29.438  1.00  0.00     0.200 A 
ATOM     85  F   UNL A   1      32.497  34.573  31.329  1.00  0.00    -0.200 F 
ATOM     86  F   UNL A   1      32.863  35.489  28.786  1.00  0.00    -0.200 F 
ENDBRANCH  62  76
BRANCH  63  87
ATOM     87  C   UNL A   1      43.732  29.164  35.296  1.00  0.00     0.064 A 
ATOM     88  C   UNL A   1      45.038  29.648  35.119  1.00  0.00     0.173 A 
ATOM     89  C   UNL A   1      43.566  28.033  36.107  1.00  0.00     0.173 A 
ATOM     90  F   UNL A   1      45.257  30.715  34.337  1.00  0.00    -0.203 F 
ATOM     91  C   UNL A   1      46.131  29.009  35.703  1.00  0.00     0.198 A 
ATOM     92  C   UNL A   1      44.656  27.414  36.718  1.00  0.00     0.198 A 
ATOM     93  F   UNL A   1      42.340  27.528  36.315  1.00  0.00    -0.203 F 
ATOM     94  F   UNL A   1      47.372  29.459  35.468  1.00  0.00    -0.200 F 
ATOM     95  C   UNL A   1      45.939  27.895  36.506  1.00  0.00     0.200 A 
ATOM     96  F   UNL A   1      44.464  26.348  37.506  1.00  0.00    -0.200 F 
ATOM     97  F   UNL A   1      46.989  27.281  37.066  1.00  0.00    -0.200 F 
ENDBRANCH  63  87
BRANCH  75  98
ATOM     98  C   UNL A   1      39.270  34.166  37.219  1.00  0.00     0.064 A 
ATOM     99  C   UNL A   1      39.780  35.467  37.347  1.00  0.00     0.173 A 
ATOM    100  C   UNL A   1      38.560  33.629  38.303  1.00  0.00     0.173 A 
ATOM    101  F   UNL A   1      40.477  36.022  36.344  1.00  0.00    -0.203 F 
ATOM    102  C   UNL A   1      39.610  36.188  38.526  1.00  0.00     0.198 A 
ATOM    103  C   UNL A   1      38.357  34.368  39.465  1.00  0.00     0.198 A 
ATOM    104  F   UNL A   1      38.042  32.394  38.229  1.00  0.00    -0.203 F 
ATOM    105  F   UNL A   1      40.153  37.407  38.647  1.00  0.00    -0.200 F 
ATOM    106  C   UNL A   1      38.891  35.642  39.580  1.00  0.00     0.200 A 
ATOM    107  F   UNL A   1      37.645  33.846  40.473  1.00  0.00    -0.200 F 
ATOM    108  F   UNL A   1      38.719  36.342  40.709  1.00  0.00    -0.200 F 
ENDBRANCH  75  98
ENDBRANCH  49  50
ENDBRANCH  41  44
ENDBRANCH  39  40
ENDBRANCH  38  39
ENDBRANCH  37  38
ENDBRANCH  36  37
ENDBRANCH   3  36
TORSDOF 17
ENDMDL
MODEL 2
REMARK VINA RESULT:     -13.7      5.091      8.431
REMARK SMILES C[C@@H](NC(=O)CCCN1C(=O)/C(=C/c2c3ccccc3cc3ccccc23)SC1=S)C(=O)NCCCCNC(=O)c1ccc(-c2c3nc(c(-c4c(F)c(F)c(F)c(F)c4F)c4ccc([nH]4)c(-c4c(F)c(F)c(F)c(F)c4F)c4nc(c(-c5c(F)c(F)c(F)c(F)c5F)c5ccc2[nH]5)C=C4)C=C3)cc1
REMARK SMILES IDX 31 1 32 2 33 3 2 5 1 6 3 7 4 8 5 10 6 11 7 12 8 13 9 14
REMARK SMILES IDX 10 15 29 16 11 17 12 18 28 19 30 20 13 21 14 22 15 23 27 24
REMARK SMILES IDX 16 25 20 26 22 27 26 28 17 29 19 30 21 31 23 32 25 33 18 34
REMARK SMILES IDX 24 35 34 36 35 37 36 38 37 39 38 40 39 41 40 43 41 44 42 45
REMARK SMILES IDX 103 46 43 47 102 48 44 49 45 50 46 51 96 52 47 53 101 54
REMARK SMILES IDX 95 55 97 56 48 57 100 58 94 59 93 60 49 62 81 63 61 64 80 65
REMARK SMILES IDX 62 66 65 67 79 68 98 69 63 70 64 71 78 73 99 74 66 75 50 76
REMARK SMILES IDX 51 77 59 78 52 79 53 80 57 81 60 82 54 83 55 84 58 85 56 86
REMARK SMILES IDX 82 87 83 88 91 89 84 90 85 91 89 92 92 93 86 94 87 95 90 96
REMARK SMILES IDX 88 97 67 98 68 99 76 100 69 101 70 102 74 103 77 104 71 105
REMARK SMILES IDX 72 106 75 107 73 108
REMARK H PARENT 33 4 3 9 38 42 97 61 65 72
REMARK Flexibility Score: inf
ROOT
ATOM      1  C   UNL A   1      38.174  23.109  26.099  1.00  0.00     0.242 C 
ATOM      2  O   UNL A   1      37.727  24.206  26.511  1.00  0.00    -0.273 OA
ATOM      3  N   UNL A   1      39.287  22.780  26.844  1.00  0.00    -0.354 N 
ATOM      4  H   UNL A   1      39.528  23.641  27.254  1.00  0.00     0.163 HD
ENDROOT
BRANCH   1   5
ATOM      5  C   UNL A   1      37.223  22.464  24.865  1.00  0.00     0.168 C 
ATOM      6  C   UNL A   1      36.752  22.893  23.446  1.00  0.00     0.041 C 
BRANCH   5   7
ATOM      7  N   UNL A   1      37.417  21.047  24.764  1.00  0.00    -0.345 N 
ATOM      8  C   UNL A   1      36.366  20.199  24.859  1.00  0.00     0.220 C 
ATOM      9  H   UNL A   1      38.322  20.688  24.624  1.00  0.00     0.164 HD
ATOM     10  O   UNL A   1      36.546  18.996  25.001  1.00  0.00    -0.275 OA
BRANCH   8  11
ATOM     11  C   UNL A   1      35.010  20.833  24.634  1.00  0.00     0.102 C 
BRANCH  11  12
ATOM     12  C   UNL A   1      34.005  21.021  25.861  1.00  0.00     0.032 C 
BRANCH  12  13
ATOM     13  C   UNL A   1      32.771  22.097  26.412  1.00  0.00     0.128 C 
BRANCH  13  14
ATOM     14  N   UNL A   1      32.095  23.460  25.951  1.00  0.00    -0.293 N 
ATOM     15  C   UNL A   1      32.286  24.274  24.823  1.00  0.00     0.266 C 
ATOM     16  C   UNL A   1      30.823  23.797  26.422  1.00  0.00     0.148 C 
ATOM     17  O   UNL A   1      32.602  23.955  23.684  1.00  0.00    -0.268 OA
ATOM     18  C   UNL A   1      31.824  25.687  25.095  1.00  0.00     0.081 C 
ATOM     19  S   UNL A   1      30.430  25.501  26.070  1.00  0.00    -0.054 SA
ATOM     20  S   UNL A   1      29.722  22.828  27.224  1.00  0.00    -0.052 S 
ATOM     21  C   UNL A   1      32.443  26.814  24.669  1.00  0.00     0.030 C 
BRANCH  21  22
ATOM     22  C   UNL A   1      32.108  28.271  24.914  1.00  0.00    -0.009 A 
ATOM     23  C   UNL A   1      32.859  29.059  25.847  1.00  0.00    -0.010 A 
ATOM     24  C   UNL A   1      31.036  28.905  24.181  1.00  0.00    -0.010 A 
ATOM     25  C   UNL A   1      34.109  28.680  26.393  1.00  0.00     0.009 A 
ATOM     26  C   UNL A   1      32.366  30.327  26.242  1.00  0.00    -0.017 A 
ATOM     27  C   UNL A   1      30.595  30.196  24.582  1.00  0.00    -0.017 A 
ATOM     28  C   UNL A   1      30.378  28.360  23.046  1.00  0.00     0.009 A 
ATOM     29  C   UNL A   1      34.772  29.449  27.353  1.00  0.00     0.001 A 
ATOM     30  C   UNL A   1      33.023  31.082  27.229  1.00  0.00     0.009 A 
ATOM     31  C   UNL A   1      31.228  30.856  25.634  1.00  0.00     0.017 A 
ATOM     32  C   UNL A   1      29.529  30.845  23.933  1.00  0.00     0.009 A 
ATOM     33  C   UNL A   1      29.345  29.037  22.376  1.00  0.00     0.001 A 
ATOM     34  C   UNL A   1      34.212  30.637  27.794  1.00  0.00     0.001 A 
ATOM     35  C   UNL A   1      28.906  30.270  22.833  1.00  0.00     0.001 A 
ENDBRANCH  21  22
ENDBRANCH  13  14
ENDBRANCH  12  13
ENDBRANCH  11  12
ENDBRANCH   8  11
ENDBRANCH   5   7
ENDBRANCH   1   5
BRANCH   3  36
ATOM     36  C   UNL A   1      40.381  21.822  27.406  1.00  0.00     0.116 C 
BRANCH  36  37
ATOM     37  C   UNL A   1      41.849  22.283  27.698  1.00  0.00     0.023 C 
BRANCH  37  38
ATOM     38  C   UNL A   1      42.971  22.022  26.686  1.00  0.00     0.023 C 
BRANCH  38  39
ATOM     39  C   UNL A   1      42.955  22.854  25.428  1.00  0.00     0.116 C 
BRANCH  39  40
ATOM     40  N   UNL A   1      44.236  23.035  24.762  1.00  0.00    -0.352 N 
ATOM     41  C   UNL A   1      45.040  24.168  24.859  1.00  0.00     0.251 C 
ATOM     42  H   UNL A   1      44.559  22.297  24.196  1.00  0.00     0.163 HD
ATOM     43  O   UNL A   1      46.078  24.286  24.251  1.00  0.00    -0.269 OA
BRANCH  41  44
ATOM     44  C   UNL A   1      44.509  25.260  25.710  1.00  0.00     0.039 A 
ATOM     45  C   UNL A   1      45.014  25.408  27.003  1.00  0.00     0.014 A 
ATOM     46  C   UNL A   1      43.772  26.275  25.100  1.00  0.00     0.014 A 
ATOM     47  C   UNL A   1      44.864  26.637  27.648  1.00  0.00     0.010 A 
ATOM     48  C   UNL A   1      43.750  27.530  25.688  1.00  0.00     0.010 A 
ATOM     49  C   UNL A   1      44.287  27.724  26.971  1.00  0.00    -0.014 A 
BRANCH  49  50
ATOM     50  C   UNL A   1      44.206  29.070  27.594  1.00  0.00     0.031 A 
ATOM     51  C   UNL A   1      45.382  30.001  27.478  1.00  0.00     0.074 A 
ATOM     52  C   UNL A   1      43.117  29.433  28.302  1.00  0.00     0.049 A 
ATOM     53  N   UNL A   1      45.544  31.200  27.977  1.00  0.00    -0.248 NA
ATOM     54  C   UNL A   1      46.550  29.504  26.731  1.00  0.00     0.031 C 
ATOM     55  C   UNL A   1      41.939  28.597  28.539  1.00  0.00     0.029 A 
ATOM     56  N   UNL A   1      42.823  30.605  28.954  1.00  0.00    -0.354 N 
ATOM     57  C   UNL A   1      46.829  31.583  27.617  1.00  0.00     0.074 A 
ATOM     58  C   UNL A   1      47.434  30.465  26.933  1.00  0.00     0.031 C 
ATOM     59  C   UNL A   1      41.034  29.297  29.242  1.00  0.00     0.029 A 
ATOM     60  C   UNL A   1      41.582  30.616  29.545  1.00  0.00     0.049 A 
ATOM     61  H   UNL A   1      43.444  31.368  28.994  1.00  0.00     0.167 HD
ATOM     62  C   UNL A   1      47.438  32.776  27.804  1.00  0.00     0.037 A 
ATOM     63  C   UNL A   1      40.962  31.582  30.251  1.00  0.00     0.037 A 
ATOM     64  C   UNL A   1      46.818  33.895  28.458  1.00  0.00     0.049 A 
ATOM     65  C   UNL A   1      41.669  32.897  30.461  1.00  0.00     0.074 A 
ATOM     66  C   UNL A   1      47.320  35.169  28.644  1.00  0.00     0.029 A 
ATOM     67  N   UNL A   1      45.558  33.868  29.040  1.00  0.00    -0.354 N 
ATOM     68  N   UNL A   1      42.851  33.280  30.039  1.00  0.00    -0.248 NA
ATOM     69  C   UNL A   1      40.954  33.917  31.240  1.00  0.00     0.031 C 
ATOM     70  C   UNL A   1      46.392  35.895  29.397  1.00  0.00     0.029 A 
ATOM     71  C   UNL A   1      45.281  35.096  29.616  1.00  0.00     0.049 A 
ATOM     72  H   UNL A   1      44.953  33.092  29.042  1.00  0.00     0.167 HD
ATOM     73  C   UNL A   1      43.005  34.591  30.469  1.00  0.00     0.074 A 
ATOM     74  C   UNL A   1      41.788  34.944  31.170  1.00  0.00     0.031 C 
ATOM     75  C   UNL A   1      44.057  35.430  30.299  1.00  0.00     0.037 A 
BRANCH  62  76
ATOM     76  C   UNL A   1      48.841  32.927  27.293  1.00  0.00     0.064 A 
ATOM     77  C   UNL A   1      49.131  33.652  26.126  1.00  0.00     0.173 A 
ATOM     78  C   UNL A   1      49.915  32.356  27.992  1.00  0.00     0.173 A 
ATOM     79  F   UNL A   1      48.140  34.203  25.409  1.00  0.00    -0.203 F 
ATOM     80  C   UNL A   1      50.438  33.771  25.662  1.00  0.00     0.198 A 
ATOM     81  C   UNL A   1      51.225  32.509  27.546  1.00  0.00     0.198 A 
ATOM     82  F   UNL A   1      49.694  31.651  29.113  1.00  0.00    -0.203 F 
ATOM     83  F   UNL A   1      50.682  34.415  24.512  1.00  0.00    -0.200 F 
ATOM     84  C   UNL A   1      51.484  33.207  26.376  1.00  0.00     0.200 A 
ATOM     85  F   UNL A   1      52.234  31.975  28.246  1.00  0.00    -0.200 F 
ATOM     86  F   UNL A   1      52.743  33.331  25.934  1.00  0.00    -0.200 F 
ENDBRANCH  62  76
BRANCH  63  87
ATOM     87  C   UNL A   1      39.591  31.362  30.791  1.00  0.00     0.064 A 
ATOM     88  C   UNL A   1      39.391  30.674  31.997  1.00  0.00     0.173 A 
ATOM     89  C   UNL A   1      38.453  31.808  30.104  1.00  0.00     0.173 A 
ATOM     90  F   UNL A   1      40.444  30.208  32.685  1.00  0.00    -0.203 F 
ATOM     91  C   UNL A   1      38.108  30.414  32.478  1.00  0.00     0.198 A 
ATOM     92  C   UNL A   1      37.171  31.578  30.603  1.00  0.00     0.198 A 
ATOM     93  F   UNL A   1      38.583  32.475  28.948  1.00  0.00    -0.203 F 
ATOM     94  F   UNL A   1      37.948  29.703  33.603  1.00  0.00    -0.200 F 
ATOM     95  C   UNL A   1      36.999  30.871  31.783  1.00  0.00     0.200 A 
ATOM     96  F   UNL A   1      36.103  32.035  29.935  1.00  0.00    -0.200 F 
ATOM     97  F   UNL A   1      35.767  30.621  32.244  1.00  0.00    -0.200 F 
ENDBRANCH  63  87
BRANCH  75  98
ATOM     98  C   UNL A   1      43.924  36.826  30.838  1.00  0.00     0.064 A 
ATOM     99  C   UNL A   1      44.200  37.133  32.179  1.00  0.00     0.173 A 
ATOM    100  C   UNL A   1      43.562  37.881  29.985  1.00  0.00     0.173 A 
ATOM    101  F   UNL A   1      44.539  36.159  33.038  1.00  0.00    -0.203 F 
ATOM    102  C   UNL A   1      44.088  38.437  32.652  1.00  0.00     0.198 A 
ATOM    103  C   UNL A   1      43.490  39.189  30.452  1.00  0.00     0.198 A 
ATOM    104  F   UNL A   1      43.298  37.644  28.691  1.00  0.00    -0.203 F 
ATOM    105  F   UNL A   1      44.301  38.698  33.949  1.00  0.00    -0.200 F 
ATOM    106  C   UNL A   1      43.742  39.465  31.787  1.00  0.00     0.200 A 
ATOM    107  F   UNL A   1      43.177  40.183  29.609  1.00  0.00    -0.200 F 
ATOM    108  F   UNL A   1      43.646  40.722  32.242  1.00  0.00    -0.200 F 
ENDBRANCH  75  98
ENDBRANCH  49  50
ENDBRANCH  41  44
ENDBRANCH  39  40
ENDBRANCH  38  39
ENDBRANCH  37  38
ENDBRANCH  36  37
ENDBRANCH   3  36
TORSDOF 17
ENDMDL
MODEL 3
REMARK VINA RESULT:     -13.6      6.397     10.434
REMARK SMILES C[C@@H](NC(=O)CCCN1C(=O)/C(=C/c2c3ccccc3cc3ccccc23)SC1=S)C(=O)NCCCCNC(=O)c1ccc(-c2c3nc(c(-c4c(F)c(F)c(F)c(F)c4F)c4ccc([nH]4)c(-c4c(F)c(F)c(F)c(F)c4F)c4nc(c(-c5c(F)c(F)c(F)c(F)c5F)c5ccc2[nH]5)C=C4)C=C3)cc1
REMARK SMILES IDX 31 1 32 2 33 3 2 5 1 6 3 7 4 8 5 10 6 11 7 12 8 13 9 14
REMARK SMILES IDX 10 15 29 16 11 17 12 18 28 19 30 20 13 21 14 22 15 23 27 24
REMARK SMILES IDX 16 25 20 26 22 27 26 28 17 29 19 30 21 31 23 32 25 33 18 34
REMARK SMILES IDX 24 35 34 36 35 37 36 38 37 39 38 40 39 41 40 43 41 44 42 45
REMARK SMILES IDX 103 46 43 47 102 48 44 49 45 50 46 51 96 52 47 53 101 54
REMARK SMILES IDX 95 55 97 56 48 57 100 58 94 59 93 60 49 62 81 63 61 64 80 65
REMARK SMILES IDX 62 66 65 67 79 68 98 69 63 70 64 71 78 73 99 74 66 75 50 76
REMARK SMILES IDX 51 77 59 78 52 79 53 80 57 81 60 82 54 83 55 84 58 85 56 86
REMARK SMILES IDX 82 87 83 88 91 89 84 90 85 91 89 92 92 93 86 94 87 95 90 96
REMARK SMILES IDX 88 97 67 98 68 99 76 100 69 101 70 102 74 103 77 104 71 105
REMARK SMILES IDX 72 106 75 107 73 108
REMARK H PARENT 33 4 3 9 38 42 97 61 65 72
REMARK Flexibility Score: inf
ROOT
ATOM      1  C   UNL A   1      42.957  21.649  25.743  1.00  0.00     0.242 C 
ATOM      2  O   UNL A   1      43.418  20.743  25.008  1.00  0.00    -0.273 OA
ATOM      3  N   UNL A   1      43.607  22.829  25.446  1.00  0.00    -0.354 N 
ATOM      4  H   UNL A   1      44.406  22.514  24.966  1.00  0.00     0.163 HD
ENDROOT
BRANCH   1   5
ATOM      5  C   UNL A   1      41.716  21.087  26.736  1.00  0.00     0.168 C 
ATOM      6  C   UNL A   1      41.476  19.879  27.688  1.00  0.00     0.041 C 
BRANCH   5   7
ATOM      7  N   UNL A   1      41.036  22.180  27.367  1.00  0.00    -0.345 N 
ATOM      8  C   UNL A   1      39.906  22.693  26.827  1.00  0.00     0.220 C 
ATOM      9  H   UNL A   1      41.395  22.560  28.200  1.00  0.00     0.164 HD
ATOM     10  O   UNL A   1      39.451  23.758  27.226  1.00  0.00    -0.275 OA
BRANCH   8  11
ATOM     11  C   UNL A   1      39.208  21.793  25.830  1.00  0.00     0.102 C 
BRANCH  11  12
ATOM     12  C   UNL A   1      37.697  22.092  25.407  1.00  0.00     0.032 C 
BRANCH  12  13
ATOM     13  C   UNL A   1      36.175  22.495  26.119  1.00  0.00     0.128 C 
BRANCH  13  14
ATOM     14  N   UNL A   1      34.959  23.478  25.836  1.00  0.00    -0.293 N 
ATOM     15  C   UNL A   1      34.615  24.256  24.719  1.00  0.00     0.266 C 
ATOM     16  C   UNL A   1      33.765  23.327  26.545  1.00  0.00     0.148 C 
ATOM     17  O   UNL A   1      34.813  24.035  23.530  1.00  0.00    -0.268 OA
ATOM     18  C   UNL A   1      33.708  25.398  25.118  1.00  0.00     0.081 C 
ATOM     19  S   UNL A   1      32.695  24.737  26.328  1.00  0.00    -0.054 SA
ATOM     20  S   UNL A   1      33.283  22.046  27.506  1.00  0.00    -0.052 S 
ATOM     21  C   UNL A   1      33.762  26.658  24.621  1.00  0.00     0.030 C 
BRANCH  21  22
ATOM     22  C   UNL A   1      32.949  27.887  24.971  1.00  0.00    -0.009 A 
ATOM     23  C   UNL A   1      31.684  28.142  24.347  1.00  0.00    -0.010 A 
ATOM     24  C   UNL A   1      33.426  28.814  25.971  1.00  0.00    -0.010 A 
ATOM     25  C   UNL A   1      30.951  27.188  23.601  1.00  0.00     0.009 A 
ATOM     26  C   UNL A   1      31.077  29.413  24.501  1.00  0.00    -0.017 A 
ATOM     27  C   UNL A   1      32.765  30.065  26.123  1.00  0.00    -0.017 A 
ATOM     28  C   UNL A   1      34.504  28.581  26.866  1.00  0.00     0.009 A 
ATOM     29  C   UNL A   1      29.753  27.504  22.952  1.00  0.00     0.001 A 
ATOM     30  C   UNL A   1      29.888  29.733  23.822  1.00  0.00     0.009 A 
ATOM     31  C   UNL A   1      31.643  30.362  25.351  1.00  0.00     0.017 A 
ATOM     32  C   UNL A   1      33.209  31.024  27.052  1.00  0.00     0.009 A 
ATOM     33  C   UNL A   1      34.911  29.527  27.821  1.00  0.00     0.001 A 
ATOM     34  C   UNL A   1      29.238  28.787  23.037  1.00  0.00     0.001 A 
ATOM     35  C   UNL A   1      34.276  30.758  27.900  1.00  0.00     0.001 A 
ENDBRANCH  21  22
ENDBRANCH  13  14
ENDBRANCH  12  13
ENDBRANCH  11  12
ENDBRANCH   8  11
ENDBRANCH   5   7
ENDBRANCH   1   5
BRANCH   3  36
ATOM     36  C   UNL A   1      43.798  24.376  25.437  1.00  0.00     0.116 C 
BRANCH  36  37
ATOM     37  C   UNL A   1      42.606  25.382  25.300  1.00  0.00     0.023 C 
BRANCH  37  38
ATOM     38  C   UNL A   1      42.860  26.889  25.168  1.00  0.00     0.023 C 
BRANCH  38  39
ATOM     39  C   UNL A   1      42.368  27.759  26.297  1.00  0.00     0.116 C 
BRANCH  39  40
ATOM     40  N   UNL A   1      40.960  27.630  26.641  1.00  0.00    -0.352 N 
ATOM     41  C   UNL A   1      40.469  27.130  27.844  1.00  0.00     0.251 C 
ATOM     42  H   UNL A   1      40.302  27.918  25.969  1.00  0.00     0.163 HD
ATOM     43  O   UNL A   1      39.287  27.005  28.066  1.00  0.00    -0.269 OA
BRANCH  41  44
ATOM     44  C   UNL A   1      41.493  26.695  28.824  1.00  0.00     0.039 A 
ATOM     45  C   UNL A   1      42.107  25.454  28.647  1.00  0.00     0.014 A 
ATOM     46  C   UNL A   1      42.027  27.650  29.690  1.00  0.00     0.014 A 
ATOM     47  C   UNL A   1      43.333  25.214  29.271  1.00  0.00     0.010 A 
ATOM     48  C   UNL A   1      43.306  27.458  30.190  1.00  0.00     0.010 A 
ATOM     49  C   UNL A   1      43.970  26.236  29.994  1.00  0.00    -0.014 A 
BRANCH  49  50
ATOM     50  C   UNL A   1      45.321  26.043  30.582  1.00  0.00     0.031 A 
ATOM     51  C   UNL A   1      46.531  26.412  29.768  1.00  0.00     0.074 A 
ATOM     52  C   UNL A   1      45.463  25.494  31.805  1.00  0.00     0.049 A 
ATOM     53  N   UNL A   1      47.799  26.289  30.066  1.00  0.00    -0.248 NA
ATOM     54  C   UNL A   1      46.285  26.957  28.423  1.00  0.00     0.031 C 
ATOM     55  C   UNL A   1      44.370  25.039  32.666  1.00  0.00     0.029 A 
ATOM     56  N   UNL A   1      46.592  25.225  32.540  1.00  0.00    -0.354 N 
ATOM     57  C   UNL A   1      48.489  26.725  28.943  1.00  0.00     0.074 A 
ATOM     58  C   UNL A   1      47.509  27.035  27.930  1.00  0.00     0.031 C 
ATOM     59  C   UNL A   1      44.877  24.591  33.826  1.00  0.00     0.029 A 
ATOM     60  C   UNL A   1      46.333  24.685  33.777  1.00  0.00     0.049 A 
ATOM     61  H   UNL A   1      47.502  25.403  32.210  1.00  0.00     0.167 HD
ATOM     62  C   UNL A   1      49.822  26.892  28.782  1.00  0.00     0.037 A 
ATOM     63  C   UNL A   1      47.179  24.309  34.757  1.00  0.00     0.037 A 
ATOM     64  C   UNL A   1      50.790  26.611  29.806  1.00  0.00     0.049 A 
ATOM     65  C   UNL A   1      48.661  24.488  34.546  1.00  0.00     0.074 A 
ATOM     66  C   UNL A   1      52.159  26.804  29.772  1.00  0.00     0.029 A 
ATOM     67  N   UNL A   1      50.490  26.068  31.047  1.00  0.00    -0.354 N 
ATOM     68  N   UNL A   1      49.298  24.985  33.514  1.00  0.00    -0.248 NA
ATOM     69  C   UNL A   1      49.542  24.060  35.642  1.00  0.00     0.031 C 
ATOM     70  C   UNL A   1      52.695  26.317  30.967  1.00  0.00     0.029 A 
ATOM     71  C   UNL A   1      51.653  25.889  31.775  1.00  0.00     0.049 A 
ATOM     72  H   UNL A   1      49.584  25.845  31.363  1.00  0.00     0.167 HD
ATOM     73  C   UNL A   1      50.646  24.963  33.847  1.00  0.00     0.074 A 
ATOM     74  C   UNL A   1      50.733  24.419  35.186  1.00  0.00     0.031 C 
ATOM     75  C   UNL A   1      51.716  25.357  33.113  1.00  0.00     0.037 A 
BRANCH  62  76
ATOM     76  C   UNL A   1      50.303  27.400  27.455  1.00  0.00     0.064 A 
ATOM     77  C   UNL A   1      50.545  26.537  26.373  1.00  0.00     0.173 A 
ATOM     78  C   UNL A   1      50.506  28.774  27.253  1.00  0.00     0.173 A 
ATOM     79  F   UNL A   1      50.385  25.213  26.517  1.00  0.00    -0.203 F 
ATOM     80  C   UNL A   1      51.002  27.027  25.154  1.00  0.00     0.198 A 
ATOM     81  C   UNL A   1      50.927  29.264  26.020  1.00  0.00     0.198 A 
ATOM     82  F   UNL A   1      50.291  29.643  28.253  1.00  0.00    -0.203 F 
ATOM     83  F   UNL A   1      51.285  26.177  24.156  1.00  0.00    -0.200 F 
ATOM     84  C   UNL A   1      51.184  28.390  24.975  1.00  0.00     0.200 A 
ATOM     85  F   UNL A   1      51.088  30.582  25.847  1.00  0.00    -0.200 F 
ATOM     86  F   UNL A   1      51.614  28.861  23.797  1.00  0.00    -0.200 F 
ENDBRANCH  62  76
BRANCH  63  87
ATOM     87  C   UNL A   1      46.655  23.752  36.035  1.00  0.00     0.064 A 
ATOM     88  C   UNL A   1      46.299  24.596  37.099  1.00  0.00     0.173 A 
ATOM     89  C   UNL A   1      46.525  22.370  36.234  1.00  0.00     0.173 A 
ATOM     90  F   UNL A   1      46.424  25.925  36.971  1.00  0.00    -0.203 F 
ATOM     91  C   UNL A   1      45.864  24.078  38.319  1.00  0.00     0.198 A 
ATOM     92  C   UNL A   1      46.057  21.854  37.442  1.00  0.00     0.198 A 
ATOM     93  F   UNL A   1      46.846  21.517  35.251  1.00  0.00    -0.203 F 
ATOM     94  F   UNL A   1      45.589  24.906  39.336  1.00  0.00    -0.200 F 
ATOM     95  C   UNL A   1      45.738  22.708  38.487  1.00  0.00     0.200 A 
ATOM     96  F   UNL A   1      45.921  20.530  37.595  1.00  0.00    -0.200 F 
ATOM     97  F   UNL A   1      45.321  22.210  39.659  1.00  0.00    -0.200 F 
ENDBRANCH  63  87
BRANCH  75  98
ATOM     98  C   UNL A   1      53.071  25.260  33.756  1.00  0.00     0.064 A 
ATOM     99  C   UNL A   1      53.626  26.328  34.478  1.00  0.00     0.173 A 
ATOM    100  C   UNL A   1      53.800  24.063  33.690  1.00  0.00     0.173 A 
ATOM    101  F   UNL A   1      52.975  27.498  34.563  1.00  0.00    -0.203 F 
ATOM    102  C   UNL A   1      54.875  26.210  35.081  1.00  0.00     0.198 A 
ATOM    103  C   UNL A   1      55.029  23.936  34.328  1.00  0.00     0.198 A 
ATOM    104  F   UNL A   1      53.310  23.008  33.022  1.00  0.00    -0.203 F 
ATOM    105  F   UNL A   1      55.411  27.260  35.718  1.00  0.00    -0.200 F 
ATOM    106  C   UNL A   1      55.572  25.011  35.014  1.00  0.00     0.200 A 
ATOM    107  F   UNL A   1      55.690  22.770  34.279  1.00  0.00    -0.200 F 
ATOM    108  F   UNL A   1      56.768  24.896  35.605  1.00  0.00    -0.200 F 
ENDBRANCH  75  98
ENDBRANCH  49  50
ENDBRANCH  41  44
ENDBRANCH  39  40
ENDBRANCH  38  39
ENDBRANCH  37  38
ENDBRANCH  36  37
ENDBRANCH   3  36
TORSDOF 17
ENDMDL
