MODEL 1
REMARK VINA RESULT:     -13.4      0.000      0.000
REMARK SMILES C[C@@H]1[C@H](C(=O)NCCCCNC(=O)c2ccc(-c3c4nc(c(-c5c(F)c(F)c(F)c(F)c5F)c5ccc([nH]5)c(-c5c(F)c(F)c(F)c(F)c5F)c5nc(c(-c6c(F)c(F)c(F)c(F)c6F)c6ccc3[nH]6)C=C5)C=C4)cc2)CCN1S(=O)(=O)c1cc(F)cc(F)c1
REMARK SMILES IDX 8 1 7 2 6 3 4 4 5 5 3 7 1 8 2 9 79 10 77 11 78 12 80 13
REMARK SMILES IDX 81 14 82 15 83 16 84 17 90 18 85 19 88 20 86 21 87 22 89 23
REMARK SMILES IDX 9 24 10 25 11 26 12 27 13 29 14 30 15 31 76 32 16 33 75 34
REMARK SMILES IDX 17 35 18 36 19 37 69 38 20 39 74 40 68 41 70 42 21 43 73 44
REMARK SMILES IDX 67 45 66 46 22 48 54 49 34 50 53 51 35 52 38 53 52 54 71 55
REMARK SMILES IDX 36 56 37 57 51 59 72 60 39 61 23 62 24 63 32 64 25 65 26 66
REMARK SMILES IDX 30 67 33 68 27 69 28 70 31 71 29 72 55 73 56 74 64 75 57 76
REMARK SMILES IDX 58 77 62 78 65 79 59 80 60 81 63 82 61 83 40 84 41 85 49 86
REMARK SMILES IDX 42 87 43 88 47 89 50 90 44 91 45 92 48 93 46 94
REMARK H PARENT 6 6 11 28 70 47 38 58
REMARK Flexibility Score: inf
ROOT
ATOM      1  C   UNL A   1      31.943  30.710  26.848  1.00  0.00     0.023 C 
ENDROOT
BRANCH   1   2
ATOM      2  C   UNL A   1      33.406  30.252  26.786  1.00  0.00     0.116 C 
BRANCH   2   3
ATOM      3  N   UNL A   1      33.760  29.670  25.499  1.00  0.00    -0.356 N 
ATOM      4  C   UNL A   1      33.847  28.404  25.017  1.00  0.00     0.224 C 
ATOM      5  O   UNL A   1      34.222  28.318  23.839  1.00  0.00    -0.275 OA
ATOM      6  H   UNL A   1      33.987  30.351  24.826  1.00  0.00     0.163 HD
BRANCH   4   7
ATOM      7  C   UNL A   1      33.569  27.109  25.783  1.00  0.00     0.098 C 
ATOM      8  C   UNL A   1      31.080  27.327  25.302  1.00  0.00     0.026 C 
ATOM      9  C   UNL A   1      32.127  26.826  26.253  1.00  0.00     0.082 C 
ATOM     10  N   UNL A   1      32.075  25.345  26.541  1.00  0.00    -0.194 NA
ATOM     11  C   UNL A   1      34.044  25.799  25.200  1.00  0.00     0.032 C 
ATOM     12  C   UNL A   1      33.417  24.780  26.142  1.00  0.00     0.104 C 
BRANCH  10  13
ATOM     13  S   UNL A   1      30.803  24.307  26.084  1.00  0.00     0.243 S 
ATOM     14  O   UNL A   1      30.372  23.617  27.283  1.00  0.00    -0.207 OA
ATOM     15  O   UNL A   1      29.867  25.118  25.334  1.00  0.00    -0.207 OA
BRANCH  13  16
ATOM     16  C   UNL A   1      31.348  23.052  24.952  1.00  0.00     0.088 A 
ATOM     17  C   UNL A   1      31.538  21.777  25.505  1.00  0.00     0.061 A 
ATOM     18  C   UNL A   1      31.699  23.284  23.625  1.00  0.00     0.061 A 
ATOM     19  C   UNL A   1      32.162  20.785  24.759  1.00  0.00     0.127 A 
ATOM     20  C   UNL A   1      32.387  22.293  22.925  1.00  0.00     0.127 A 
ATOM     21  F   UNL A   1      32.350  19.575  25.299  1.00  0.00    -0.207 F 
ATOM     22  C   UNL A   1      32.629  21.045  23.481  1.00  0.00     0.078 A 
ATOM     23  F   UNL A   1      32.866  22.571  21.705  1.00  0.00    -0.207 F 
ENDBRANCH  13  16
ENDBRANCH  10  13
ENDBRANCH   4   7
ENDBRANCH   2   3
ENDBRANCH   1   2
BRANCH   1  24
ATOM     24  C   UNL A   1      31.689  32.201  26.865  1.00  0.00     0.023 C 
BRANCH  24  25
ATOM     25  C   UNL A   1      32.810  33.018  27.461  1.00  0.00     0.116 C 
BRANCH  25  26
ATOM     26  N   UNL A   1      32.435  34.375  27.835  1.00  0.00    -0.352 N 
ATOM     27  C   UNL A   1      33.009  35.180  28.798  1.00  0.00     0.251 C 
ATOM     28  H   UNL A   1      31.680  34.768  27.340  1.00  0.00     0.163 HD
ATOM     29  O   UNL A   1      32.563  36.285  29.055  1.00  0.00    -0.269 OA
BRANCH  27  30
ATOM     30  C   UNL A   1      34.153  34.633  29.555  1.00  0.00     0.039 A 
ATOM     31  C   UNL A   1      33.910  33.882  30.705  1.00  0.00     0.014 A 
ATOM     32  C   UNL A   1      35.442  34.749  29.034  1.00  0.00     0.014 A 
ATOM     33  C   UNL A   1      34.958  33.170  31.286  1.00  0.00     0.010 A 
ATOM     34  C   UNL A   1      36.448  33.938  29.531  1.00  0.00     0.010 A 
ATOM     35  C   UNL A   1      36.222  33.156  30.674  1.00  0.00    -0.014 A 
BRANCH  35  36
ATOM     36  C   UNL A   1      37.355  32.382  31.234  1.00  0.00     0.031 A 
ATOM     37  C   UNL A   1      37.850  32.717  32.614  1.00  0.00     0.074 A 
ATOM     38  C   UNL A   1      37.986  31.460  30.484  1.00  0.00     0.049 A 
ATOM     39  N   UNL A   1      38.901  32.271  33.251  1.00  0.00    -0.248 NA
ATOM     40  C   UNL A   1      37.089  33.735  33.358  1.00  0.00     0.031 C 
ATOM     41  C   UNL A   1      37.642  31.099  29.108  1.00  0.00     0.029 A 
ATOM     42  N   UNL A   1      39.063  30.662  30.775  1.00  0.00    -0.354 N 
ATOM     43  C   UNL A   1      38.945  32.984  34.441  1.00  0.00     0.074 A 
ATOM     44  C   UNL A   1      37.863  33.939  34.410  1.00  0.00     0.031 C 
ATOM     45  C   UNL A   1      38.468  30.126  28.688  1.00  0.00     0.029 A 
ATOM     46  C   UNL A   1      39.418  29.818  29.752  1.00  0.00     0.049 A 
ATOM     47  H   UNL A   1      39.536  30.691  31.638  1.00  0.00     0.167 HD
ATOM     48  C   UNL A   1      39.791  32.829  35.486  1.00  0.00     0.037 A 
ATOM     49  C   UNL A   1      40.399  28.897  29.690  1.00  0.00     0.037 A 
ATOM     50  C   UNL A   1      40.818  31.827  35.540  1.00  0.00     0.049 A 
ATOM     51  C   UNL A   1      41.283  28.696  30.890  1.00  0.00     0.074 A 
ATOM     52  C   UNL A   1      41.684  31.530  36.575  1.00  0.00     0.029 A 
ATOM     53  N   UNL A   1      41.102  30.943  34.509  1.00  0.00    -0.354 N 
ATOM     54  N   UNL A   1      41.282  29.334  32.036  1.00  0.00    -0.248 NA
ATOM     55  C   UNL A   1      42.300  27.640  30.794  1.00  0.00     0.031 C 
ATOM     56  C   UNL A   1      42.508  30.477  36.162  1.00  0.00     0.029 A 
ATOM     57  C   UNL A   1      42.131  30.096  34.883  1.00  0.00     0.049 A 
ATOM     58  H   UNL A   1      40.640  30.920  33.639  1.00  0.00     0.167 HD
ATOM     59  C   UNL A   1      42.269  28.739  32.807  1.00  0.00     0.074 A 
ATOM     60  C   UNL A   1      42.845  27.681  32.002  1.00  0.00     0.031 C 
ATOM     61  C   UNL A   1      42.667  29.038  34.068  1.00  0.00     0.037 A 
BRANCH  48  62
ATOM     62  C   UNL A   1      39.614  33.752  36.655  1.00  0.00     0.064 A 
ATOM     63  C   UNL A   1      38.829  33.395  37.763  1.00  0.00     0.173 A 
ATOM     64  C   UNL A   1      40.230  35.013  36.666  1.00  0.00     0.173 A 
ATOM     65  F   UNL A   1      38.201  32.210  37.791  1.00  0.00    -0.203 F 
ATOM     66  C   UNL A   1      38.634  34.281  38.818  1.00  0.00     0.198 A 
ATOM     67  C   UNL A   1      40.059  35.883  37.741  1.00  0.00     0.198 A 
ATOM     68  F   UNL A   1      40.991  35.404  35.634  1.00  0.00    -0.203 F 
ATOM     69  F   UNL A   1      37.826  33.943  39.833  1.00  0.00    -0.200 F 
ATOM     70  C   UNL A   1      39.254  35.520  38.810  1.00  0.00     0.200 A 
ATOM     71  F   UNL A   1      40.666  37.078  37.735  1.00  0.00    -0.200 F 
ATOM     72  F   UNL A   1      39.064  36.373  39.827  1.00  0.00    -0.200 F 
ENDBRANCH  48  62
BRANCH  49  73
ATOM     73  C   UNL A   1      40.555  28.057  28.475  1.00  0.00     0.064 A 
ATOM     74  C   UNL A   1      41.340  28.497  27.399  1.00  0.00     0.173 A 
ATOM     75  C   UNL A   1      39.935  26.805  28.362  1.00  0.00     0.173 A 
ATOM     76  F   UNL A   1      41.939  29.696  27.455  1.00  0.00    -0.203 F 
ATOM     77  C   UNL A   1      41.481  27.727  26.248  1.00  0.00     0.198 A 
ATOM     78  C   UNL A   1      40.096  26.025  27.218  1.00  0.00     0.198 A 
ATOM     79  F   UNL A   1      39.181  26.336  29.366  1.00  0.00    -0.203 F 
ATOM     80  F   UNL A   1      42.204  28.189  25.219  1.00  0.00    -0.200 F 
ATOM     81  C   UNL A   1      40.863  26.488  26.160  1.00  0.00     0.200 A 
ATOM     82  F   UNL A   1      39.508  24.822  27.142  1.00  0.00    -0.200 F 
ATOM     83  F   UNL A   1      41.001  25.746  25.053  1.00  0.00    -0.200 F 
ENDBRANCH  49  73
BRANCH  61  84
ATOM     84  C   UNL A   1      43.740  28.183  34.670  1.00  0.00     0.064 A 
ATOM     85  C   UNL A   1      45.092  28.543  34.595  1.00  0.00     0.173 A 
ATOM     86  C   UNL A   1      43.403  27.018  35.374  1.00  0.00     0.173 A 
ATOM     87  F   UNL A   1      45.463  29.641  33.920  1.00  0.00    -0.203 F 
ATOM     88  C   UNL A   1      46.074  27.753  35.188  1.00  0.00     0.198 A 
ATOM     89  C   UNL A   1      44.383  26.246  35.988  1.00  0.00     0.198 A 
ATOM     90  F   UNL A   1      42.121  26.639  35.479  1.00  0.00    -0.203 F 
ATOM     91  F   UNL A   1      47.364  28.093  35.072  1.00  0.00    -0.200 F 
ATOM     92  C   UNL A   1      45.718  26.610  35.890  1.00  0.00     0.200 A 
ATOM     93  F   UNL A   1      44.037  25.149  36.676  1.00  0.00    -0.200 F 
ATOM     94  F   UNL A   1      46.664  25.857  36.467  1.00  0.00    -0.200 F 
ENDBRANCH  61  84
ENDBRANCH  35  36
ENDBRANCH  27  30
ENDBRANCH  25  26
ENDBRANCH  24  25
ENDBRANCH   1  24
TORSDOF 13
ENDMDL
MODEL 2
REMARK VINA RESULT:     -13.3      1.259      2.012
REMARK SMILES C[C@@H]1[C@H](C(=O)NCCCCNC(=O)c2ccc(-c3c4nc(c(-c5c(F)c(F)c(F)c(F)c5F)c5ccc([nH]5)c(-c5c(F)c(F)c(F)c(F)c5F)c5nc(c(-c6c(F)c(F)c(F)c(F)c6F)c6ccc3[nH]6)C=C5)C=C4)cc2)CCN1S(=O)(=O)c1cc(F)cc(F)c1
REMARK SMILES IDX 8 1 7 2 6 3 4 4 5 5 3 7 1 8 2 9 79 10 77 11 78 12 80 13
REMARK SMILES IDX 81 14 82 15 83 16 84 17 90 18 85 19 88 20 86 21 87 22 89 23
REMARK SMILES IDX 9 24 10 25 11 26 12 27 13 29 14 30 15 31 76 32 16 33 75 34
REMARK SMILES IDX 17 35 18 36 19 37 69 38 20 39 74 40 68 41 70 42 21 43 73 44
REMARK SMILES IDX 67 45 66 46 22 48 54 49 34 50 53 51 35 52 38 53 52 54 71 55
REMARK SMILES IDX 36 56 37 57 51 59 72 60 39 61 23 62 24 63 32 64 25 65 26 66
REMARK SMILES IDX 30 67 33 68 27 69 28 70 31 71 29 72 55 73 56 74 64 75 57 76
REMARK SMILES IDX 58 77 62 78 65 79 59 80 60 81 63 82 61 83 40 84 41 85 49 86
REMARK SMILES IDX 42 87 43 88 47 89 50 90 44 91 45 92 48 93 46 94
REMARK H PARENT 6 6 11 28 70 47 38 58
REMARK Flexibility Score: inf
ROOT
ATOM      1  C   UNL A   1      32.067  30.501  26.873  1.00  0.00     0.023 C 
ENDROOT
BRANCH   1   2
ATOM      2  C   UNL A   1      32.451  29.854  25.536  1.00  0.00     0.116 C 
BRANCH   2   3
ATOM      3  N   UNL A   1      31.367  29.883  24.564  1.00  0.00    -0.356 N 
ATOM      4  C   UNL A   1      30.649  28.936  23.909  1.00  0.00     0.224 C 
ATOM      5  O   UNL A   1      29.804  29.375  23.116  1.00  0.00    -0.275 OA
ATOM      6  H   UNL A   1      31.093  30.798  24.331  1.00  0.00     0.163 HD
BRANCH   4   7
ATOM      7  C   UNL A   1      30.807  27.418  24.027  1.00  0.00     0.098 C 
ATOM      8  C   UNL A   1      32.954  27.509  22.664  1.00  0.00     0.026 C 
ATOM      9  C   UNL A   1      31.750  26.696  23.041  1.00  0.00     0.082 C 
ATOM     10  N   UNL A   1      32.052  25.358  23.672  1.00  0.00    -0.194 NA
ATOM     11  C   UNL A   1      31.136  26.821  25.375  1.00  0.00     0.032 C 
ATOM     12  C   UNL A   1      31.389  25.360  25.028  1.00  0.00     0.104 C 
BRANCH  10  13
ATOM     13  S   UNL A   1      33.594  24.636  23.735  1.00  0.00     0.243 S 
ATOM     14  O   UNL A   1      34.062  24.524  22.368  1.00  0.00    -0.207 OA
ATOM     15  O   UNL A   1      34.357  25.392  24.706  1.00  0.00    -0.207 OA
BRANCH  13  16
ATOM     16  C   UNL A   1      33.524  22.983  24.378  1.00  0.00     0.088 A 
ATOM     17  C   UNL A   1      32.981  22.019  23.515  1.00  0.00     0.061 A 
ATOM     18  C   UNL A   1      33.855  22.628  25.683  1.00  0.00     0.061 A 
ATOM     19  C   UNL A   1      32.686  20.749  23.996  1.00  0.00     0.127 A 
ATOM     20  C   UNL A   1      33.482  21.370  26.156  1.00  0.00     0.127 A 
ATOM     21  F   UNL A   1      32.157  19.838  23.169  1.00  0.00    -0.207 F 
ATOM     22  C   UNL A   1      32.894  20.426  25.326  1.00  0.00     0.078 A 
ATOM     23  F   UNL A   1      33.653  21.086  27.454  1.00  0.00    -0.207 F 
ENDBRANCH  13  16
ENDBRANCH  10  13
ENDBRANCH   4   7
ENDBRANCH   2   3
ENDBRANCH   1   2
BRANCH   1  24
ATOM     24  C   UNL A   1      31.764  31.982  26.859  1.00  0.00     0.023 C 
BRANCH  24  25
ATOM     25  C   UNL A   1      32.911  32.858  27.304  1.00  0.00     0.116 C 
BRANCH  25  26
ATOM     26  N   UNL A   1      32.525  34.209  27.689  1.00  0.00    -0.352 N 
ATOM     27  C   UNL A   1      33.074  34.999  28.678  1.00  0.00     0.251 C 
ATOM     28  H   UNL A   1      31.781  34.608  27.181  1.00  0.00     0.163 HD
ATOM     29  O   UNL A   1      32.620  36.100  28.941  1.00  0.00    -0.269 OA
BRANCH  27  30
ATOM     30  C   UNL A   1      34.199  34.443  29.454  1.00  0.00     0.039 A 
ATOM     31  C   UNL A   1      33.929  33.620  30.548  1.00  0.00     0.014 A 
ATOM     32  C   UNL A   1      35.506  34.625  29.000  1.00  0.00     0.014 A 
ATOM     33  C   UNL A   1      34.973  32.906  31.135  1.00  0.00     0.010 A 
ATOM     34  C   UNL A   1      36.514  33.815  29.496  1.00  0.00     0.010 A 
ATOM     35  C   UNL A   1      36.262  32.962  30.582  1.00  0.00    -0.014 A 
BRANCH  35  36
ATOM     36  C   UNL A   1      37.393  32.190  31.148  1.00  0.00     0.031 A 
ATOM     37  C   UNL A   1      37.868  32.515  32.537  1.00  0.00     0.074 A 
ATOM     38  C   UNL A   1      38.038  31.279  30.397  1.00  0.00     0.049 A 
ATOM     39  N   UNL A   1      38.914  32.069  33.182  1.00  0.00    -0.248 NA
ATOM     40  C   UNL A   1      37.092  33.522  33.281  1.00  0.00     0.031 C 
ATOM     41  C   UNL A   1      37.713  30.929  29.014  1.00  0.00     0.029 A 
ATOM     42  N   UNL A   1      39.117  30.484  30.694  1.00  0.00    -0.354 N 
ATOM     43  C   UNL A   1      38.940  32.771  34.380  1.00  0.00     0.074 A 
ATOM     44  C   UNL A   1      37.852  33.720  34.344  1.00  0.00     0.031 C 
ATOM     45  C   UNL A   1      38.550  29.965  28.595  1.00  0.00     0.029 A 
ATOM     46  C   UNL A   1      39.489  29.652  29.668  1.00  0.00     0.049 A 
ATOM     47  H   UNL A   1      39.579  30.508  31.563  1.00  0.00     0.167 HD
ATOM     48  C   UNL A   1      39.773  32.612  35.433  1.00  0.00     0.037 A 
ATOM     49  C   UNL A   1      40.476  28.738  29.609  1.00  0.00     0.037 A 
ATOM     50  C   UNL A   1      40.806  31.615  35.490  1.00  0.00     0.049 A 
ATOM     51  C   UNL A   1      41.347  28.531  30.818  1.00  0.00     0.074 A 
ATOM     52  C   UNL A   1      41.661  31.314  36.533  1.00  0.00     0.029 A 
ATOM     53  N   UNL A   1      41.108  30.742  34.455  1.00  0.00    -0.354 N 
ATOM     54  N   UNL A   1      41.328  29.158  31.970  1.00  0.00    -0.248 NA
ATOM     55  C   UNL A   1      42.371  27.482  30.724  1.00  0.00     0.031 C 
ATOM     56  C   UNL A   1      42.496  30.269  36.121  1.00  0.00     0.029 A 
ATOM     57  C   UNL A   1      42.137  29.899  34.834  1.00  0.00     0.049 A 
ATOM     58  H   UNL A   1      40.656  30.725  33.579  1.00  0.00     0.167 HD
ATOM     59  C   UNL A   1      42.309  28.561  32.747  1.00  0.00     0.074 A 
ATOM     60  C   UNL A   1      42.901  27.514  31.939  1.00  0.00     0.031 C 
ATOM     61  C   UNL A   1      42.690  28.851  34.016  1.00  0.00     0.037 A 
BRANCH  48  62
ATOM     62  C   UNL A   1      39.577  33.522  36.609  1.00  0.00     0.064 A 
ATOM     63  C   UNL A   1      38.762  33.161  37.693  1.00  0.00     0.173 A 
ATOM     64  C   UNL A   1      40.205  34.777  36.650  1.00  0.00     0.173 A 
ATOM     65  F   UNL A   1      38.122  31.981  37.691  1.00  0.00    -0.203 F 
ATOM     66  C   UNL A   1      38.550  34.035  38.754  1.00  0.00     0.198 A 
ATOM     67  C   UNL A   1      40.016  35.636  37.731  1.00  0.00     0.198 A 
ATOM     68  F   UNL A   1      40.994  35.173  35.642  1.00  0.00    -0.203 F 
ATOM     69  F   UNL A   1      37.713  33.693  39.744  1.00  0.00    -0.200 F 
ATOM     70  C   UNL A   1      39.181  35.268  38.776  1.00  0.00     0.200 A 
ATOM     71  F   UNL A   1      40.634  36.825  37.754  1.00  0.00    -0.200 F 
ATOM     72  F   UNL A   1      38.974  36.111  39.797  1.00  0.00    -0.200 F 
ENDBRANCH  48  62
BRANCH  49  73
ATOM     73  C   UNL A   1      40.652  27.910  28.389  1.00  0.00     0.064 A 
ATOM     74  C   UNL A   1      40.029  26.658  28.280  1.00  0.00     0.173 A 
ATOM     75  C   UNL A   1      41.435  28.346  27.311  1.00  0.00     0.173 A 
ATOM     76  F   UNL A   1      39.284  26.192  29.293  1.00  0.00    -0.203 F 
ATOM     77  C   UNL A   1      40.200  25.864  27.148  1.00  0.00     0.198 A 
ATOM     78  C   UNL A   1      41.586  27.560  26.169  1.00  0.00     0.198 A 
ATOM     79  F   UNL A   1      42.046  29.538  27.364  1.00  0.00    -0.203 F 
ATOM     80  F   UNL A   1      39.626  24.655  27.087  1.00  0.00    -0.200 F 
ATOM     81  C   UNL A   1      40.975  26.318  26.091  1.00  0.00     0.200 A 
ATOM     82  F   UNL A   1      42.326  28.007  25.144  1.00  0.00    -0.200 F 
ATOM     83  F   UNL A   1      41.137  25.555  25.001  1.00  0.00    -0.200 F 
ENDBRANCH  49  73
BRANCH  61  84
ATOM     84  C   UNL A   1      43.761  27.997  34.623  1.00  0.00     0.064 A 
ATOM     85  C   UNL A   1      45.111  28.367  34.571  1.00  0.00     0.173 A 
ATOM     86  C   UNL A   1      43.422  26.821  35.309  1.00  0.00     0.173 A 
ATOM     87  F   UNL A   1      45.483  29.476  33.915  1.00  0.00    -0.203 F 
ATOM     88  C   UNL A   1      46.090  27.578  35.169  1.00  0.00     0.198 A 
ATOM     89  C   UNL A   1      44.399  26.049  35.927  1.00  0.00     0.198 A 
ATOM     90  F   UNL A   1      42.142  26.432  35.391  1.00  0.00    -0.203 F 
ATOM     91  F   UNL A   1      47.380  27.928  35.075  1.00  0.00    -0.200 F 
ATOM     92  C   UNL A   1      45.733  26.424  35.852  1.00  0.00     0.200 A 
ATOM     93  F   UNL A   1      44.051  24.942  36.597  1.00  0.00    -0.200 F 
ATOM     94  F   UNL A   1      46.676  25.671  36.434  1.00  0.00    -0.200 F 
ENDBRANCH  61  84
ENDBRANCH  35  36
ENDBRANCH  27  30
ENDBRANCH  25  26
ENDBRANCH  24  25
ENDBRANCH   1  24
TORSDOF 13
ENDMDL
MODEL 3
REMARK VINA RESULT:     -13.2      1.253      2.231
REMARK SMILES C[C@@H]1[C@H](C(=O)NCCCCNC(=O)c2ccc(-c3c4nc(c(-c5c(F)c(F)c(F)c(F)c5F)c5ccc([nH]5)c(-c5c(F)c(F)c(F)c(F)c5F)c5nc(c(-c6c(F)c(F)c(F)c(F)c6F)c6ccc3[nH]6)C=C5)C=C4)cc2)CCN1S(=O)(=O)c1cc(F)cc(F)c1
REMARK SMILES IDX 8 1 7 2 6 3 4 4 5 5 3 7 1 8 2 9 79 10 77 11 78 12 80 13
REMARK SMILES IDX 81 14 82 15 83 16 84 17 90 18 85 19 88 20 86 21 87 22 89 23
REMARK SMILES IDX 9 24 10 25 11 26 12 27 13 29 14 30 15 31 76 32 16 33 75 34
REMARK SMILES IDX 17 35 18 36 19 37 69 38 20 39 74 40 68 41 70 42 21 43 73 44
REMARK SMILES IDX 67 45 66 46 22 48 54 49 34 50 53 51 35 52 38 53 52 54 71 55
REMARK SMILES IDX 36 56 37 57 51 59 72 60 39 61 23 62 24 63 32 64 25 65 26 66
REMARK SMILES IDX 30 67 33 68 27 69 28 70 31 71 29 72 55 73 56 74 64 75 57 76
REMARK SMILES IDX 58 77 62 78 65 79 59 80 60 81 63 82 61 83 40 84 41 85 49 86
REMARK SMILES IDX 42 87 43 88 47 89 50 90 44 91 45 92 48 93 46 94
REMARK H PARENT 6 6 11 28 70 47 38 58
REMARK Flexibility Score: inf
ROOT
ATOM      1  C   UNL A   1      32.105  30.428  26.847  1.00  0.00     0.023 C 
ENDROOT
BRANCH   1   2
ATOM      2  C   UNL A   1      32.388  29.804  25.474  1.00  0.00     0.116 C 
BRANCH   2   3
ATOM      3  N   UNL A   1      31.331  30.065  24.508  1.00  0.00    -0.356 N 
ATOM      4  C   UNL A   1      30.522  29.285  23.746  1.00  0.00     0.224 C 
ATOM      5  O   UNL A   1      29.745  29.904  23.005  1.00  0.00    -0.275 OA
ATOM      6  H   UNL A   1      31.164  31.026  24.380  1.00  0.00     0.163 HD
BRANCH   4   7
ATOM      7  C   UNL A   1      30.508  27.756  23.691  1.00  0.00     0.098 C 
ATOM      8  C   UNL A   1      32.738  27.753  22.466  1.00  0.00     0.026 C 
ATOM      9  C   UNL A   1      31.431  27.046  22.679  1.00  0.00     0.082 C 
ATOM     10  N   UNL A   1      31.544  25.620  23.161  1.00  0.00    -0.194 NA
ATOM     11  C   UNL A   1      30.679  26.977  24.975  1.00  0.00     0.032 C 
ATOM     12  C   UNL A   1      30.797  25.545  24.470  1.00  0.00     0.104 C 
BRANCH  10  13
ATOM     13  S   UNL A   1      32.992  24.723  23.220  1.00  0.00     0.243 S 
ATOM     14  O   UNL A   1      33.509  24.670  21.867  1.00  0.00    -0.207 OA
ATOM     15  O   UNL A   1      33.787  25.305  24.282  1.00  0.00    -0.207 OA
BRANCH  13  16
ATOM     16  C   UNL A   1      32.709  23.042  23.715  1.00  0.00     0.088 A 
ATOM     17  C   UNL A   1      33.114  22.716  25.018  1.00  0.00     0.061 A 
ATOM     18  C   UNL A   1      32.236  22.040  22.872  1.00  0.00     0.061 A 
ATOM     19  C   UNL A   1      33.135  21.387  25.423  1.00  0.00     0.127 A 
ATOM     20  C   UNL A   1      32.335  20.710  23.281  1.00  0.00     0.127 A 
ATOM     21  F   UNL A   1      33.534  21.083  26.664  1.00  0.00    -0.207 F 
ATOM     22  C   UNL A   1      32.786  20.371  24.549  1.00  0.00     0.078 A 
ATOM     23  F   UNL A   1      32.031  19.737  22.412  1.00  0.00    -0.207 F 
ENDBRANCH  13  16
ENDBRANCH  10  13
ENDBRANCH   4   7
ENDBRANCH   2   3
ENDBRANCH   1   2
BRANCH   1  24
ATOM     24  C   UNL A   1      31.754  31.899  26.876  1.00  0.00     0.023 C 
BRANCH  24  25
ATOM     25  C   UNL A   1      32.890  32.802  27.296  1.00  0.00     0.116 C 
BRANCH  25  26
ATOM     26  N   UNL A   1      32.483  34.153  27.662  1.00  0.00    -0.352 N 
ATOM     27  C   UNL A   1      33.024  34.968  28.634  1.00  0.00     0.251 C 
ATOM     28  H   UNL A   1      31.729  34.531  27.152  1.00  0.00     0.163 HD
ATOM     29  O   UNL A   1      32.553  36.065  28.882  1.00  0.00    -0.269 OA
BRANCH  27  30
ATOM     30  C   UNL A   1      34.164  34.443  29.412  1.00  0.00     0.039 A 
ATOM     31  C   UNL A   1      33.915  33.646  30.529  1.00  0.00     0.014 A 
ATOM     32  C   UNL A   1      35.464  34.628  28.938  1.00  0.00     0.014 A 
ATOM     33  C   UNL A   1      34.972  32.958  31.123  1.00  0.00     0.010 A 
ATOM     34  C   UNL A   1      36.485  33.842  29.444  1.00  0.00     0.010 A 
ATOM     35  C   UNL A   1      36.255  33.014  30.554  1.00  0.00    -0.014 A 
BRANCH  35  36
ATOM     36  C   UNL A   1      37.400  32.268  31.127  1.00  0.00     0.031 A 
ATOM     37  C   UNL A   1      37.878  32.624  32.508  1.00  0.00     0.074 A 
ATOM     38  C   UNL A   1      38.055  31.354  30.388  1.00  0.00     0.049 A 
ATOM     39  N   UNL A   1      38.934  32.205  33.155  1.00  0.00    -0.248 NA
ATOM     40  C   UNL A   1      37.090  33.632  33.239  1.00  0.00     0.031 C 
ATOM     41  C   UNL A   1      37.728  30.976  29.013  1.00  0.00     0.029 A 
ATOM     42  N   UNL A   1      39.146  30.581  30.693  1.00  0.00    -0.354 N 
ATOM     43  C   UNL A   1      38.955  32.928  34.340  1.00  0.00     0.074 A 
ATOM     44  C   UNL A   1      37.853  33.860  34.294  1.00  0.00     0.031 C 
ATOM     45  C   UNL A   1      38.576  30.017  28.606  1.00  0.00     0.029 A 
ATOM     46  C   UNL A   1      39.526  29.737  29.679  1.00  0.00     0.049 A 
ATOM     47  H   UNL A   1      39.613  30.627  31.559  1.00  0.00     0.167 HD
ATOM     48  C   UNL A   1      39.796  32.799  35.391  1.00  0.00     0.037 A 
ATOM     49  C   UNL A   1      40.526  28.837  29.631  1.00  0.00     0.037 A 
ATOM     50  C   UNL A   1      40.844  31.819  35.460  1.00  0.00     0.049 A 
ATOM     51  C   UNL A   1      41.406  28.663  30.838  1.00  0.00     0.074 A 
ATOM     52  C   UNL A   1      41.708  31.548  36.503  1.00  0.00     0.029 A 
ATOM     53  N   UNL A   1      41.153  30.933  34.438  1.00  0.00    -0.354 N 
ATOM     54  N   UNL A   1      41.384  29.310  31.979  1.00  0.00    -0.248 NA
ATOM     55  C   UNL A   1      42.446  27.628  30.757  1.00  0.00     0.031 C 
ATOM     56  C   UNL A   1      42.557  30.509  36.104  1.00  0.00     0.029 A 
ATOM     57  C   UNL A   1      42.197  30.111  34.826  1.00  0.00     0.049 A 
ATOM     58  H   UNL A   1      40.697  30.894  33.565  1.00  0.00     0.167 HD
ATOM     59  C   UNL A   1      42.377  28.741  32.761  1.00  0.00     0.074 A 
ATOM     60  C   UNL A   1      42.981  27.689  31.968  1.00  0.00     0.031 C 
ATOM     61  C   UNL A   1      42.761  29.058  34.022  1.00  0.00     0.037 A 
BRANCH  48  62
ATOM     62  C   UNL A   1      39.593  33.727  36.553  1.00  0.00     0.064 A 
ATOM     63  C   UNL A   1      40.193  34.994  36.596  1.00  0.00     0.173 A 
ATOM     64  C   UNL A   1      38.795  33.341  37.640  1.00  0.00     0.173 A 
ATOM     65  F   UNL A   1      40.983  35.402  35.591  1.00  0.00    -0.203 F 
ATOM     66  C   UNL A   1      40.036  35.825  37.702  1.00  0.00     0.198 A 
ATOM     67  C   UNL A   1      38.613  34.189  38.730  1.00  0.00     0.198 A 
ATOM     68  F   UNL A   1      38.197  32.141  37.650  1.00  0.00    -0.203 F 
ATOM     69  F   UNL A   1      40.675  37.002  37.749  1.00  0.00    -0.200 F 
ATOM     70  C   UNL A   1      39.242  35.425  38.764  1.00  0.00     0.200 A 
ATOM     71  F   UNL A   1      37.838  33.805  39.753  1.00  0.00    -0.200 F 
ATOM     72  F   UNL A   1      39.093  36.225  39.830  1.00  0.00    -0.200 F 
ENDBRANCH  48  62
BRANCH  49  73
ATOM     73  C   UNL A   1      40.708  27.990  28.423  1.00  0.00     0.064 A 
ATOM     74  C   UNL A   1      40.093  26.733  28.335  1.00  0.00     0.173 A 
ATOM     75  C   UNL A   1      41.489  28.414  27.340  1.00  0.00     0.173 A 
ATOM     76  F   UNL A   1      39.350  26.278  29.354  1.00  0.00    -0.203 F 
ATOM     77  C   UNL A   1      40.270  25.922  27.215  1.00  0.00     0.198 A 
ATOM     78  C   UNL A   1      41.646  27.611  26.211  1.00  0.00     0.198 A 
ATOM     79  F   UNL A   1      42.092  29.611  27.373  1.00  0.00    -0.203 F 
ATOM     80  F   UNL A   1      39.703  24.709  27.174  1.00  0.00    -0.200 F 
ATOM     81  C   UNL A   1      41.042  26.364  26.152  1.00  0.00     0.200 A 
ATOM     82  F   UNL A   1      42.383  28.046  25.179  1.00  0.00    -0.200 F 
ATOM     83  F   UNL A   1      41.209  25.585  25.074  1.00  0.00    -0.200 F 
ENDBRANCH  49  73
BRANCH  61  84
ATOM     84  C   UNL A   1      43.847  28.230  34.638  1.00  0.00     0.064 A 
ATOM     85  C   UNL A   1      45.192  28.616  34.567  1.00  0.00     0.173 A 
ATOM     86  C   UNL A   1      43.529  27.065  35.352  1.00  0.00     0.173 A 
ATOM     87  F   UNL A   1      45.545  29.715  33.884  1.00  0.00    -0.203 F 
ATOM     88  C   UNL A   1      46.186  27.852  35.173  1.00  0.00     0.198 A 
ATOM     89  C   UNL A   1      44.521  26.318  35.978  1.00  0.00     0.198 A 
ATOM     90  F   UNL A   1      42.254  26.661  35.453  1.00  0.00    -0.203 F 
ATOM     91  F   UNL A   1      47.470  28.216  35.060  1.00  0.00    -0.200 F 
ATOM     92  C   UNL A   1      45.849  26.708  35.884  1.00  0.00     0.200 A 
ATOM     93  F   UNL A   1      44.193  25.221  36.674  1.00  0.00    -0.200 F 
ATOM     94  F   UNL A   1      46.807  25.979  36.473  1.00  0.00    -0.200 F 
ENDBRANCH  61  84
ENDBRANCH  35  36
ENDBRANCH  27  30
ENDBRANCH  25  26
ENDBRANCH  24  25
ENDBRANCH   1  24
TORSDOF 13
ENDMDL
