MODEL 1
REMARK VINA RESULT:     -11.8      0.000      0.000
REMARK SMILES Cc1nc(NCc2ccc(Cl)cc2Cl)sc1C(=O)NCCCCNC(=O)c1ccc(-c2c3nc(c(-c4c(F)c(F)c(F)c(F)c4F)c4ccc([nH]4)c(-c4c(F)c(F)c(F)c(F)c4F)c4nc(c(-c5c(F)c(F)c(F)c(F)c5F)c5ccc2[nH]5)C=C4)C=C3)cc1
REMARK SMILES IDX 21 1 20 2 19 3 17 4 18 5 16 7 1 8 2 9 3 10 4 11 15 12 5 13
REMARK SMILES IDX 6 15 7 16 8 17 13 18 9 19 12 20 14 21 10 22 11 23 22 24
REMARK SMILES IDX 23 25 24 26 25 27 26 29 27 30 28 31 89 32 29 33 88 34 30 35
REMARK SMILES IDX 31 36 32 37 82 38 33 39 87 40 81 41 83 42 34 43 86 44 80 45
REMARK SMILES IDX 79 46 35 48 67 49 47 50 66 51 48 52 51 53 65 54 84 55 49 56
REMARK SMILES IDX 50 57 64 59 85 60 52 61 36 62 37 63 45 64 38 65 39 66 43 67
REMARK SMILES IDX 46 68 40 69 41 70 44 71 42 72 68 73 69 74 77 75 70 76 71 77
REMARK SMILES IDX 75 78 78 79 72 80 73 81 76 82 74 83 53 84 54 85 62 86 55 87
REMARK SMILES IDX 56 88 60 89 63 90 57 91 58 92 61 93 59 94
REMARK H PARENT 19 6 5 14 24 28 83 47 51 58
REMARK Flexibility Score: inf
ROOT
ATOM      1  C   UNL A   1      31.516  27.854  25.989  1.00  0.00     0.023 C 
ENDROOT
BRANCH   1   2
ATOM      2  C   UNL A   1      31.463  29.109  25.118  1.00  0.00     0.116 C 
BRANCH   2   3
ATOM      3  N   UNL A   1      30.664  28.871  23.945  1.00  0.00    -0.351 N 
ATOM      4  C   UNL A   1      30.822  28.077  22.839  1.00  0.00     0.263 C 
ATOM      5  O   UNL A   1      29.878  28.191  22.046  1.00  0.00    -0.268 OA
ATOM      6  H   UNL A   1      29.827  29.389  23.935  1.00  0.00     0.163 HD
BRANCH   4   7
ATOM      7  C   UNL A   1      31.937  27.164  22.601  1.00  0.00     0.117 A 
ATOM      8  C   UNL A   1      34.243  28.342  22.081  1.00  0.00     0.068 C 
ATOM      9  C   UNL A   1      33.301  27.222  22.311  1.00  0.00     0.063 A 
ATOM     10  N   UNL A   1      33.921  25.988  22.167  1.00  0.00    -0.225 NA
ATOM     11  C   UNL A   1      33.089  24.998  22.321  1.00  0.00     0.183 A 
ATOM     12  S   UNL A   1      31.485  25.470  22.630  1.00  0.00    -0.092 S 
BRANCH  11  13
ATOM     13  N   UNL A   1      33.444  23.700  22.272  1.00  0.00    -0.357 N 
ATOM     14  H   UNL A   1      33.672  23.288  21.408  1.00  0.00     0.163 HD
BRANCH  13  15
ATOM     15  C   UNL A   1      33.491  22.915  23.476  1.00  0.00     0.152 C 
BRANCH  15  16
ATOM     16  C   UNL A   1      34.773  23.003  24.287  1.00  0.00    -0.010 A 
ATOM     17  C   UNL A   1      35.727  22.000  23.995  1.00  0.00     0.008 A 
ATOM     18  C   UNL A   1      35.143  23.998  25.211  1.00  0.00     0.047 A 
ATOM     19  C   UNL A   1      36.980  21.971  24.611  1.00  0.00     0.021 A 
ATOM     20  C   UNL A   1      36.401  23.962  25.833  1.00  0.00     0.041 A 
ATOM     21  Cl  UNL A   1      34.147  25.331  25.674  1.00  0.00    -0.084 Cl
ATOM     22  C   UNL A   1      37.309  22.955  25.532  1.00  0.00     0.042 A 
ATOM     23  Cl  UNL A   1      38.849  22.932  26.296  1.00  0.00    -0.084 Cl
ENDBRANCH  15  16
ENDBRANCH  13  15
ENDBRANCH  11  13
ENDBRANCH   4   7
ENDBRANCH   2   3
ENDBRANCH   1   2
BRANCH   1  24
ATOM     24  C   UNL A   1      32.175  28.047  27.353  1.00  0.00     0.023 C 
BRANCH  24  25
ATOM     25  C   UNL A   1      33.551  28.699  27.305  1.00  0.00     0.116 C 
BRANCH  25  26
ATOM     26  N   UNL A   1      33.542  30.116  27.642  1.00  0.00    -0.352 N 
ATOM     27  C   UNL A   1      34.561  30.872  28.176  1.00  0.00     0.251 C 
ATOM     28  H   UNL A   1      32.700  30.594  27.466  1.00  0.00     0.163 HD
ATOM     29  O   UNL A   1      34.384  32.043  28.472  1.00  0.00    -0.269 OA
BRANCH  27  30
ATOM     30  C   UNL A   1      35.860  30.221  28.438  1.00  0.00     0.039 A 
ATOM     31  C   UNL A   1      36.849  30.284  27.455  1.00  0.00     0.014 A 
ATOM     32  C   UNL A   1      36.118  29.624  29.673  1.00  0.00     0.014 A 
ATOM     33  C   UNL A   1      38.132  29.821  27.745  1.00  0.00     0.010 A 
ATOM     34  C   UNL A   1      37.414  29.234  29.987  1.00  0.00     0.010 A 
ATOM     35  C   UNL A   1      38.433  29.335  29.028  1.00  0.00    -0.014 A 
BRANCH  35  36
ATOM     36  C   UNL A   1      39.812  28.938  29.393  1.00  0.00     0.031 A 
ATOM     37  C   UNL A   1      40.659  29.852  30.229  1.00  0.00     0.074 A 
ATOM     38  C   UNL A   1      40.325  27.793  28.902  1.00  0.00     0.049 A 
ATOM     39  N   UNL A   1      41.912  29.724  30.586  1.00  0.00    -0.248 NA
ATOM     40  C   UNL A   1      40.024  31.094  30.698  1.00  0.00     0.031 C 
ATOM     41  C   UNL A   1      39.618  26.854  28.029  1.00  0.00     0.029 A 
ATOM     42  N   UNL A   1      41.566  27.231  29.058  1.00  0.00    -0.354 N 
ATOM     43  C   UNL A   1      42.216  30.873  31.302  1.00  0.00     0.074 A 
ATOM     44  C   UNL A   1      41.037  31.710  31.287  1.00  0.00     0.031 C 
ATOM     45  C   UNL A   1      40.429  25.823  27.745  1.00  0.00     0.029 A 
ATOM     46  C   UNL A   1      41.720  26.042  28.388  1.00  0.00     0.049 A 
ATOM     47  H   UNL A   1      42.279  27.641  29.599  1.00  0.00     0.167 HD
ATOM     48  C   UNL A   1      43.369  31.188  31.938  1.00  0.00     0.037 A 
ATOM     49  C   UNL A   1      42.787  25.225  28.303  1.00  0.00     0.037 A 
ATOM     50  C   UNL A   1      44.526  30.334  31.982  1.00  0.00     0.049 A 
ATOM     51  C   UNL A   1      44.049  25.589  29.034  1.00  0.00     0.074 A 
ATOM     52  C   UNL A   1      45.715  30.526  32.663  1.00  0.00     0.029 A 
ATOM     53  N   UNL A   1      44.635  29.123  31.316  1.00  0.00    -0.354 N 
ATOM     54  N   UNL A   1      44.301  26.642  29.772  1.00  0.00    -0.248 NA
ATOM     55  C   UNL A   1      45.172  24.648  28.925  1.00  0.00     0.031 C 
ATOM     56  C   UNL A   1      46.558  29.446  32.381  1.00  0.00     0.029 A 
ATOM     57  C   UNL A   1      45.880  28.564  31.556  1.00  0.00     0.049 A 
ATOM     58  H   UNL A   1      43.933  28.720  30.757  1.00  0.00     0.167 HD
ATOM     59  C   UNL A   1      45.601  26.482  30.232  1.00  0.00     0.074 A 
ATOM     60  C   UNL A   1      46.079  25.221  29.703  1.00  0.00     0.031 C 
ATOM     61  C   UNL A   1      46.334  27.306  31.021  1.00  0.00     0.037 A 
BRANCH  48  62
ATOM     62  C   UNL A   1      43.427  32.508  32.647  1.00  0.00     0.064 A 
ATOM     63  C   UNL A   1      43.041  32.637  33.990  1.00  0.00     0.173 A 
ATOM     64  C   UNL A   1      43.897  33.652  31.986  1.00  0.00     0.173 A 
ATOM     65  F   UNL A   1      42.571  31.575  34.661  1.00  0.00    -0.203 F 
ATOM     66  C   UNL A   1      43.096  33.869  34.636  1.00  0.00     0.198 A 
ATOM     67  C   UNL A   1      43.976  34.877  32.643  1.00  0.00     0.198 A 
ATOM     68  F   UNL A   1      44.281  33.583  30.702  1.00  0.00    -0.203 F 
ATOM     69  F   UNL A   1      42.674  33.977  35.903  1.00  0.00    -0.200 F 
ATOM     70  C   UNL A   1      43.569  34.986  33.964  1.00  0.00     0.200 A 
ATOM     71  F   UNL A   1      44.443  35.954  31.996  1.00  0.00    -0.200 F 
ATOM     72  F   UNL A   1      43.624  36.170  34.588  1.00  0.00    -0.200 F 
ENDBRANCH  48  62
BRANCH  49  73
ATOM     73  C   UNL A   1      42.696  23.966  27.520  1.00  0.00     0.064 A 
ATOM     74  C   UNL A   1      42.306  22.768  28.133  1.00  0.00     0.173 A 
ATOM     75  C   UNL A   1      42.995  23.932  26.151  1.00  0.00     0.173 A 
ATOM     76  F   UNL A   1      42.029  22.749  29.446  1.00  0.00    -0.203 F 
ATOM     77  C   UNL A   1      42.237  21.579  27.412  1.00  0.00     0.198 A 
ATOM     78  C   UNL A   1      42.902  22.747  25.424  1.00  0.00     0.198 A 
ATOM     79  F   UNL A   1      43.367  25.054  25.517  1.00  0.00    -0.203 F 
ATOM     80  F   UNL A   1      41.900  20.440  28.031  1.00  0.00    -0.200 F 
ATOM     81  C   UNL A   1      42.530  21.571  26.056  1.00  0.00     0.200 A 
ATOM     82  F   UNL A   1      43.175  22.745  24.112  1.00  0.00    -0.200 F 
ATOM     83  F   UNL A   1      42.460  20.427  25.361  1.00  0.00    -0.200 F 
ENDBRANCH  49  73
BRANCH  61  84
ATOM     84  C   UNL A   1      47.720  26.859  31.375  1.00  0.00     0.064 A 
ATOM     85  C   UNL A   1      48.831  27.250  30.614  1.00  0.00     0.173 A 
ATOM     86  C   UNL A   1      47.944  26.068  32.512  1.00  0.00     0.173 A 
ATOM     87  F   UNL A   1      48.665  27.992  29.509  1.00  0.00    -0.203 F 
ATOM     88  C   UNL A   1      50.116  26.847  30.968  1.00  0.00     0.198 A 
ATOM     89  C   UNL A   1      49.232  25.690  32.877  1.00  0.00     0.198 A 
ATOM     90  F   UNL A   1      46.913  25.674  33.275  1.00  0.00    -0.203 F 
ATOM     91  F   UNL A   1      51.160  27.198  30.204  1.00  0.00    -0.200 F 
ATOM     92  C   UNL A   1      50.317  26.075  32.102  1.00  0.00     0.200 A 
ATOM     93  F   UNL A   1      49.426  24.952  33.979  1.00  0.00    -0.200 F 
ATOM     94  F   UNL A   1      51.554  25.695  32.446  1.00  0.00    -0.200 F 
ENDBRANCH  61  84
ENDBRANCH  35  36
ENDBRANCH  27  30
ENDBRANCH  25  26
ENDBRANCH  24  25
ENDBRANCH   1  24
TORSDOF 14
ENDMDL
MODEL 2
REMARK VINA RESULT:     -11.8      3.465      8.618
REMARK SMILES Cc1nc(NCc2ccc(Cl)cc2Cl)sc1C(=O)NCCCCNC(=O)c1ccc(-c2c3nc(c(-c4c(F)c(F)c(F)c(F)c4F)c4ccc([nH]4)c(-c4c(F)c(F)c(F)c(F)c4F)c4nc(c(-c5c(F)c(F)c(F)c(F)c5F)c5ccc2[nH]5)C=C4)C=C3)cc1
REMARK SMILES IDX 21 1 20 2 19 3 17 4 18 5 16 7 1 8 2 9 3 10 4 11 15 12 5 13
REMARK SMILES IDX 6 15 7 16 8 17 13 18 9 19 12 20 14 21 10 22 11 23 22 24
REMARK SMILES IDX 23 25 24 26 25 27 26 29 27 30 28 31 89 32 29 33 88 34 30 35
REMARK SMILES IDX 31 36 32 37 82 38 33 39 87 40 81 41 83 42 34 43 86 44 80 45
REMARK SMILES IDX 79 46 35 48 67 49 47 50 66 51 48 52 51 53 65 54 84 55 49 56
REMARK SMILES IDX 50 57 64 59 85 60 52 61 36 62 37 63 45 64 38 65 39 66 43 67
REMARK SMILES IDX 46 68 40 69 41 70 44 71 42 72 68 73 69 74 77 75 70 76 71 77
REMARK SMILES IDX 75 78 78 79 72 80 73 81 76 82 74 83 53 84 54 85 62 86 55 87
REMARK SMILES IDX 56 88 60 89 63 90 57 91 58 92 61 93 59 94
REMARK H PARENT 19 6 5 14 24 28 83 47 51 58
REMARK Flexibility Score: inf
ROOT
ATOM      1  C   UNL A   1      35.820  21.631  24.820  1.00  0.00     0.023 C 
ENDROOT
BRANCH   1   2
ATOM      2  C   UNL A   1      35.058  21.277  26.097  1.00  0.00     0.116 C 
BRANCH   2   3
ATOM      3  N   UNL A   1      33.992  20.354  25.804  1.00  0.00    -0.351 N 
ATOM      4  C   UNL A   1      32.731  20.500  25.289  1.00  0.00     0.263 C 
ATOM      5  O   UNL A   1      32.130  19.419  25.218  1.00  0.00    -0.268 OA
ATOM      6  H   UNL A   1      34.218  19.420  26.020  1.00  0.00     0.163 HD
BRANCH   4   7
ATOM      7  C   UNL A   1      32.140  21.755  24.833  1.00  0.00     0.117 A 
ATOM      8  C   UNL A   1      32.735  22.423  22.347  1.00  0.00     0.068 C 
ATOM      9  C   UNL A   1      32.103  22.545  23.683  1.00  0.00     0.063 A 
ATOM     10  N   UNL A   1      31.358  23.710  23.797  1.00  0.00    -0.225 NA
ATOM     11  C   UNL A   1      30.838  23.848  24.984  1.00  0.00     0.183 A 
ATOM     12  S   UNL A   1      31.223  22.596  26.068  1.00  0.00    -0.092 S 
BRANCH  11  13
ATOM     13  N   UNL A   1      30.039  24.870  25.343  1.00  0.00    -0.357 N 
ATOM     14  H   UNL A   1      29.298  24.715  25.971  1.00  0.00     0.163 HD
BRANCH  13  15
ATOM     15  C   UNL A   1      30.265  26.188  24.812  1.00  0.00     0.152 C 
BRANCH  15  16
ATOM     16  C   UNL A   1      31.444  26.953  25.389  1.00  0.00    -0.010 A 
ATOM     17  C   UNL A   1      31.229  27.481  26.685  1.00  0.00     0.008 A 
ATOM     18  C   UNL A   1      32.724  27.117  24.829  1.00  0.00     0.047 A 
ATOM     19  C   UNL A   1      32.230  28.161  27.380  1.00  0.00     0.021 A 
ATOM     20  C   UNL A   1      33.727  27.807  25.529  1.00  0.00     0.041 A 
ATOM     21  Cl  UNL A   1      33.208  26.513  23.285  1.00  0.00    -0.084 Cl
ATOM     22  C   UNL A   1      33.477  28.323  26.794  1.00  0.00     0.042 A 
ATOM     23  Cl  UNL A   1      34.719  29.157  27.641  1.00  0.00    -0.084 Cl
ENDBRANCH  15  16
ENDBRANCH  13  15
ENDBRANCH  11  13
ENDBRANCH   4   7
ENDBRANCH   2   3
ENDBRANCH   1   2
BRANCH   1  24
ATOM     24  C   UNL A   1      35.965  23.128  24.556  1.00  0.00     0.023 C 
BRANCH  24  25
ATOM     25  C   UNL A   1      37.142  23.786  25.267  1.00  0.00     0.116 C 
BRANCH  25  26
ATOM     26  N   UNL A   1      38.258  22.884  25.512  1.00  0.00    -0.352 N 
ATOM     27  C   UNL A   1      39.409  23.127  26.228  1.00  0.00     0.251 C 
ATOM     28  H   UNL A   1      38.181  21.987  25.117  1.00  0.00     0.163 HD
ATOM     29  O   UNL A   1      40.296  22.291  26.291  1.00  0.00    -0.269 OA
BRANCH  27  30
ATOM     30  C   UNL A   1      39.575  24.446  26.871  1.00  0.00     0.039 A 
ATOM     31  C   UNL A   1      39.117  24.613  28.179  1.00  0.00     0.014 A 
ATOM     32  C   UNL A   1      40.246  25.477  26.212  1.00  0.00     0.014 A 
ATOM     33  C   UNL A   1      39.409  25.795  28.860  1.00  0.00     0.010 A 
ATOM     34  C   UNL A   1      40.602  26.621  26.916  1.00  0.00     0.010 A 
ATOM     35  C   UNL A   1      40.193  26.786  28.248  1.00  0.00    -0.014 A 
BRANCH  35  36
ATOM     36  C   UNL A   1      40.606  28.002  28.986  1.00  0.00     0.031 A 
ATOM     37  C   UNL A   1      41.999  28.108  29.535  1.00  0.00     0.074 A 
ATOM     38  C   UNL A   1      39.702  28.969  29.232  1.00  0.00     0.049 A 
ATOM     39  N   UNL A   1      42.528  29.048  30.275  1.00  0.00    -0.248 NA
ATOM     40  C   UNL A   1      42.910  26.990  29.240  1.00  0.00     0.031 C 
ATOM     41  C   UNL A   1      38.302  28.948  28.804  1.00  0.00     0.029 A 
ATOM     42  N   UNL A   1      39.823  30.153  29.915  1.00  0.00    -0.354 N 
ATOM     43  C   UNL A   1      43.822  28.627  30.547  1.00  0.00     0.074 A 
ATOM     44  C   UNL A   1      43.984  27.325  29.939  1.00  0.00     0.031 C 
ATOM     45  C   UNL A   1      37.700  30.076  29.214  1.00  0.00     0.029 A 
ATOM     46  C   UNL A   1      38.661  30.883  29.959  1.00  0.00     0.049 A 
ATOM     47  H   UNL A   1      40.663  30.450  30.332  1.00  0.00     0.167 HD
ATOM     48  C   UNL A   1      44.795  29.281  31.224  1.00  0.00     0.037 A 
ATOM     49  C   UNL A   1      38.403  32.070  30.540  1.00  0.00     0.037 A 
ATOM     50  C   UNL A   1      44.641  30.592  31.794  1.00  0.00     0.049 A 
ATOM     51  C   UNL A   1      39.507  32.784  31.269  1.00  0.00     0.074 A 
ATOM     52  C   UNL A   1      45.588  31.374  32.431  1.00  0.00     0.029 A 
ATOM     53  N   UNL A   1      43.457  31.315  31.794  1.00  0.00    -0.354 N 
ATOM     54  N   UNL A   1      40.749  32.412  31.456  1.00  0.00    -0.248 NA
ATOM     55  C   UNL A   1      39.174  34.087  31.863  1.00  0.00     0.031 C 
ATOM     56  C   UNL A   1      44.969  32.557  32.848  1.00  0.00     0.029 A 
ATOM     57  C   UNL A   1      43.646  32.529  32.437  1.00  0.00     0.049 A 
ATOM     58  H   UNL A   1      42.610  31.012  31.397  1.00  0.00     0.167 HD
ATOM     59  C   UNL A   1      41.352  33.439  32.168  1.00  0.00     0.074 A 
ATOM     60  C   UNL A   1      40.343  34.459  32.365  1.00  0.00     0.031 C 
ATOM     61  C   UNL A   1      42.627  33.529  32.620  1.00  0.00     0.037 A 
BRANCH  48  62
ATOM     62  C   UNL A   1      46.117  28.589  31.370  1.00  0.00     0.064 A 
ATOM     63  C   UNL A   1      46.399  27.768  32.473  1.00  0.00     0.173 A 
ATOM     64  C   UNL A   1      47.107  28.728  30.386  1.00  0.00     0.173 A 
ATOM     65  F   UNL A   1      45.490  27.615  33.449  1.00  0.00    -0.203 F 
ATOM     66  C   UNL A   1      47.631  27.135  32.600  1.00  0.00     0.198 A 
ATOM     67  C   UNL A   1      48.329  28.071  30.502  1.00  0.00     0.198 A 
ATOM     68  F   UNL A   1      46.889  29.500  29.311  1.00  0.00    -0.203 F 
ATOM     69  F   UNL A   1      47.894  26.397  33.686  1.00  0.00    -0.200 F 
ATOM     70  C   UNL A   1      48.593  27.282  31.611  1.00  0.00     0.200 A 
ATOM     71  F   UNL A   1      49.255  28.206  29.542  1.00  0.00    -0.200 F 
ATOM     72  F   UNL A   1      49.778  26.669  31.732  1.00  0.00    -0.200 F 
ENDBRANCH  48  62
BRANCH  49  73
ATOM     73  C   UNL A   1      37.049  32.672  30.429  1.00  0.00     0.064 A 
ATOM     74  C   UNL A   1      36.706  33.462  29.324  1.00  0.00     0.173 A 
ATOM     75  C   UNL A   1      36.076  32.472  31.418  1.00  0.00     0.173 A 
ATOM     76  F   UNL A   1      37.612  33.696  28.362  1.00  0.00    -0.203 F 
ATOM     77  C   UNL A   1      35.446  34.046  29.220  1.00  0.00     0.198 A 
ATOM     78  C   UNL A   1      34.807  33.037  31.301  1.00  0.00     0.198 A 
ATOM     79  F   UNL A   1      36.354  31.719  32.492  1.00  0.00    -0.203 F 
ATOM     80  F   UNL A   1      35.157  34.830  28.173  1.00  0.00    -0.200 F 
ATOM     81  C   UNL A   1      34.496  33.829  30.207  1.00  0.00     0.200 A 
ATOM     82  F   UNL A   1      33.888  32.815  32.251  1.00  0.00    -0.200 F 
ATOM     83  F   UNL A   1      33.282  34.389  30.106  1.00  0.00    -0.200 F 
ENDBRANCH  49  73
BRANCH  61  84
ATOM     84  C   UNL A   1      43.006  34.781  33.352  1.00  0.00     0.064 A 
ATOM     85  C   UNL A   1      43.389  35.942  32.666  1.00  0.00     0.173 A 
ATOM     86  C   UNL A   1      42.942  34.833  34.753  1.00  0.00     0.173 A 
ATOM     87  F   UNL A   1      43.481  35.936  31.328  1.00  0.00    -0.203 F 
ATOM     88  C   UNL A   1      43.715  37.106  33.358  1.00  0.00     0.198 A 
ATOM     89  C   UNL A   1      43.243  36.005  35.439  1.00  0.00     0.198 A 
ATOM     90  F   UNL A   1      42.575  33.750  35.453  1.00  0.00    -0.203 F 
ATOM     91  F   UNL A   1      44.119  38.192  32.684  1.00  0.00    -0.200 F 
ATOM     92  C   UNL A   1      43.635  37.139  34.742  1.00  0.00     0.200 A 
ATOM     93  F   UNL A   1      43.155  36.039  36.776  1.00  0.00    -0.200 F 
ATOM     94  F   UNL A   1      43.941  38.261  35.406  1.00  0.00    -0.200 F 
ENDBRANCH  61  84
ENDBRANCH  35  36
ENDBRANCH  27  30
ENDBRANCH  25  26
ENDBRANCH  24  25
ENDBRANCH   1  24
TORSDOF 14
ENDMDL
MODEL 3
REMARK VINA RESULT:     -11.7      3.204      4.651
REMARK SMILES Cc1nc(NCc2ccc(Cl)cc2Cl)sc1C(=O)NCCCCNC(=O)c1ccc(-c2c3nc(c(-c4c(F)c(F)c(F)c(F)c4F)c4ccc([nH]4)c(-c4c(F)c(F)c(F)c(F)c4F)c4nc(c(-c5c(F)c(F)c(F)c(F)c5F)c5ccc2[nH]5)C=C4)C=C3)cc1
REMARK SMILES IDX 21 1 20 2 19 3 17 4 18 5 16 7 1 8 2 9 3 10 4 11 15 12 5 13
REMARK SMILES IDX 6 15 7 16 8 17 13 18 9 19 12 20 14 21 10 22 11 23 22 24
REMARK SMILES IDX 23 25 24 26 25 27 26 29 27 30 28 31 89 32 29 33 88 34 30 35
REMARK SMILES IDX 31 36 32 37 82 38 33 39 87 40 81 41 83 42 34 43 86 44 80 45
REMARK SMILES IDX 79 46 35 48 67 49 47 50 66 51 48 52 51 53 65 54 84 55 49 56
REMARK SMILES IDX 50 57 64 59 85 60 52 61 36 62 37 63 45 64 38 65 39 66 43 67
REMARK SMILES IDX 46 68 40 69 41 70 44 71 42 72 68 73 69 74 77 75 70 76 71 77
REMARK SMILES IDX 75 78 78 79 72 80 73 81 76 82 74 83 53 84 54 85 62 86 55 87
REMARK SMILES IDX 56 88 60 89 63 90 57 91 58 92 61 93 59 94
REMARK H PARENT 19 6 5 14 24 28 83 47 51 58
REMARK Flexibility Score: inf
ROOT
ATOM      1  C   UNL A   1      31.889  30.250  26.508  1.00  0.00     0.023 C 
ENDROOT
BRANCH   1   2
ATOM      2  C   UNL A   1      32.297  29.734  25.128  1.00  0.00     0.116 C 
BRANCH   2   3
ATOM      3  N   UNL A   1      31.132  29.381  24.361  1.00  0.00    -0.351 N 
ATOM      4  C   UNL A   1      30.894  28.460  23.375  1.00  0.00     0.263 C 
ATOM      5  O   UNL A   1      29.724  28.504  22.970  1.00  0.00    -0.268 OA
ATOM      6  H   UNL A   1      30.338  29.914  24.595  1.00  0.00     0.163 HD
BRANCH   4   7
ATOM      7  C   UNL A   1      31.864  27.499  22.857  1.00  0.00     0.117 A 
ATOM      8  C   UNL A   1      34.218  28.525  22.236  1.00  0.00     0.068 C 
ATOM      9  C   UNL A   1      33.185  27.475  22.407  1.00  0.00     0.063 A 
ATOM     10  N   UNL A   1      33.641  26.231  21.994  1.00  0.00    -0.225 NA
ATOM     11  C   UNL A   1      32.723  25.312  22.098  1.00  0.00     0.183 A 
ATOM     12  S   UNL A   1      31.228  25.875  22.679  1.00  0.00    -0.092 S 
BRANCH  11  13
ATOM     13  N   UNL A   1      32.920  24.013  21.803  1.00  0.00    -0.357 N 
ATOM     14  H   UNL A   1      33.200  23.755  20.895  1.00  0.00     0.163 HD
BRANCH  13  15
ATOM     15  C   UNL A   1      32.724  23.003  22.807  1.00  0.00     0.152 C 
BRANCH  15  16
ATOM     16  C   UNL A   1      33.980  22.445  23.454  1.00  0.00    -0.010 A 
ATOM     17  C   UNL A   1      35.181  23.080  23.058  1.00  0.00     0.008 A 
ATOM     18  C   UNL A   1      34.072  21.449  24.444  1.00  0.00     0.047 A 
ATOM     19  C   UNL A   1      36.417  22.725  23.601  1.00  0.00     0.021 A 
ATOM     20  C   UNL A   1      35.318  21.090  24.983  1.00  0.00     0.041 A 
ATOM     21  Cl  UNL A   1      32.728  20.584  25.098  1.00  0.00    -0.084 Cl
ATOM     22  C   UNL A   1      36.479  21.726  24.561  1.00  0.00     0.042 A 
ATOM     23  Cl  UNL A   1      37.995  21.281  25.239  1.00  0.00    -0.084 Cl
ENDBRANCH  15  16
ENDBRANCH  13  15
ENDBRANCH  11  13
ENDBRANCH   4   7
ENDBRANCH   2   3
ENDBRANCH   1   2
BRANCH   1  24
ATOM     24  C   UNL A   1      31.661  31.757  26.587  1.00  0.00     0.023 C 
BRANCH  24  25
ATOM     25  C   UNL A   1      32.787  32.534  27.259  1.00  0.00     0.116 C 
BRANCH  25  26
ATOM     26  N   UNL A   1      32.440  33.911  27.580  1.00  0.00    -0.352 N 
ATOM     27  C   UNL A   1      33.034  34.749  28.498  1.00  0.00     0.251 C 
ATOM     28  H   UNL A   1      31.686  34.293  27.076  1.00  0.00     0.163 HD
ATOM     29  O   UNL A   1      32.587  35.864  28.709  1.00  0.00    -0.269 OA
BRANCH  27  30
ATOM     30  C   UNL A   1      34.190  34.246  29.267  1.00  0.00     0.039 A 
ATOM     31  C   UNL A   1      33.951  33.464  30.398  1.00  0.00     0.014 A 
ATOM     32  C   UNL A   1      35.493  34.483  28.824  1.00  0.00     0.014 A 
ATOM     33  C   UNL A   1      35.023  32.846  31.041  1.00  0.00     0.010 A 
ATOM     34  C   UNL A   1      36.550  33.806  29.418  1.00  0.00     0.010 A 
ATOM     35  C   UNL A   1      36.323  32.976  30.527  1.00  0.00    -0.014 A 
BRANCH  35  36
ATOM     36  C   UNL A   1      37.462  32.244  31.128  1.00  0.00     0.031 A 
ATOM     37  C   UNL A   1      37.955  32.616  32.495  1.00  0.00     0.074 A 
ATOM     38  C   UNL A   1      38.100  31.302  30.406  1.00  0.00     0.049 A 
ATOM     39  N   UNL A   1      38.983  32.154  33.159  1.00  0.00    -0.248 NA
ATOM     40  C   UNL A   1      37.212  33.675  33.198  1.00  0.00     0.031 C 
ATOM     41  C   UNL A   1      37.751  30.899  29.043  1.00  0.00     0.029 A 
ATOM     42  N   UNL A   1      39.186  30.523  30.715  1.00  0.00    -0.354 N 
ATOM     43  C   UNL A   1      39.020  32.875  34.343  1.00  0.00     0.074 A 
ATOM     44  C   UNL A   1      37.946  33.841  34.288  1.00  0.00     0.031 C 
ATOM     45  C   UNL A   1      38.592  29.932  28.642  1.00  0.00     0.029 A 
ATOM     46  C   UNL A   1      39.557  29.670  29.705  1.00  0.00     0.049 A 
ATOM     47  H   UNL A   1      39.655  30.571  31.580  1.00  0.00     0.167 HD
ATOM     48  C   UNL A   1      39.861  32.727  35.394  1.00  0.00     0.037 A 
ATOM     49  C   UNL A   1      40.565  28.779  29.646  1.00  0.00     0.037 A 
ATOM     50  C   UNL A   1      40.904  31.739  35.460  1.00  0.00     0.049 A 
ATOM     51  C   UNL A   1      41.472  28.621  30.835  1.00  0.00     0.074 A 
ATOM     52  C   UNL A   1      41.760  31.455  36.510  1.00  0.00     0.029 A 
ATOM     53  N   UNL A   1      41.232  30.871  34.429  1.00  0.00    -0.354 N 
ATOM     54  N   UNL A   1      41.451  29.256  31.981  1.00  0.00    -0.248 NA
ATOM     55  C   UNL A   1      42.540  27.617  30.723  1.00  0.00     0.031 C 
ATOM     56  C   UNL A   1      42.629  30.437  36.101  1.00  0.00     0.029 A 
ATOM     57  C   UNL A   1      42.290  30.062  34.812  1.00  0.00     0.049 A 
ATOM     58  H   UNL A   1      40.780  30.835  33.556  1.00  0.00     0.167 HD
ATOM     59  C   UNL A   1      42.485  28.717  32.734  1.00  0.00     0.074 A 
ATOM     60  C   UNL A   1      43.104  27.691  31.921  1.00  0.00     0.031 C 
ATOM     61  C   UNL A   1      42.887  29.045  33.986  1.00  0.00     0.037 A 
BRANCH  48  62
ATOM     62  C   UNL A   1      39.675  33.649  36.562  1.00  0.00     0.064 A 
ATOM     63  C   UNL A   1      38.832  33.315  37.633  1.00  0.00     0.173 A 
ATOM     64  C   UNL A   1      40.365  34.868  36.625  1.00  0.00     0.173 A 
ATOM     65  F   UNL A   1      38.138  32.167  37.613  1.00  0.00    -0.203 F 
ATOM     66  C   UNL A   1      38.664  34.181  38.709  1.00  0.00     0.198 A 
ATOM     67  C   UNL A   1      40.216  35.719  37.716  1.00  0.00     0.198 A 
ATOM     68  F   UNL A   1      41.185  35.234  35.628  1.00  0.00    -0.203 F 
ATOM     69  F   UNL A   1      37.815  33.864  39.696  1.00  0.00    -0.200 F 
ATOM     70  C   UNL A   1      39.361  35.380  38.753  1.00  0.00     0.200 A 
ATOM     71  F   UNL A   1      40.898  36.873  37.762  1.00  0.00    -0.200 F 
ATOM     72  F   UNL A   1      39.201  36.211  39.791  1.00  0.00    -0.200 F 
ENDBRANCH  48  62
BRANCH  49  73
ATOM     73  C   UNL A   1      40.749  27.946  28.431  1.00  0.00     0.064 A 
ATOM     74  C   UNL A   1      41.536  28.401  27.364  1.00  0.00     0.173 A 
ATOM     75  C   UNL A   1      40.147  26.687  28.308  1.00  0.00     0.173 A 
ATOM     76  F   UNL A   1      42.116  29.609  27.429  1.00  0.00    -0.203 F 
ATOM     77  C   UNL A   1      41.699  27.635  26.212  1.00  0.00     0.198 A 
ATOM     78  C   UNL A   1      40.330  25.910  27.166  1.00  0.00     0.198 A 
ATOM     79  F   UNL A   1      39.389  26.205  29.305  1.00  0.00    -0.203 F 
ATOM     80  F   UNL A   1      42.423  28.111  25.190  1.00  0.00    -0.200 F 
ATOM     81  C   UNL A   1      41.100  26.389  26.116  1.00  0.00     0.200 A 
ATOM     82  F   UNL A   1      39.759  24.701  27.081  1.00  0.00    -0.200 F 
ATOM     83  F   UNL A   1      41.259  25.650  25.009  1.00  0.00    -0.200 F 
ENDBRANCH  49  73
BRANCH  61  84
ATOM     84  C   UNL A   1      44.036  28.270  34.560  1.00  0.00     0.064 A 
ATOM     85  C   UNL A   1      45.356  28.727  34.443  1.00  0.00     0.173 A 
ATOM     86  C   UNL A   1      43.809  27.082  35.271  1.00  0.00     0.173 A 
ATOM     87  F   UNL A   1      45.624  29.849  33.758  1.00  0.00    -0.203 F 
ATOM     88  C   UNL A   1      46.412  28.010  35.001  1.00  0.00     0.198 A 
ATOM     89  C   UNL A   1      44.863  26.383  35.849  1.00  0.00     0.198 A 
ATOM     90  F   UNL A   1      42.562  26.608  35.414  1.00  0.00    -0.203 F 
ATOM     91  F   UNL A   1      47.671  28.443  34.842  1.00  0.00    -0.200 F 
ATOM     92  C   UNL A   1      46.164  26.844  35.709  1.00  0.00     0.200 A 
ATOM     93  F   UNL A   1      44.622  25.261  36.542  1.00  0.00    -0.200 F 
ATOM     94  F   UNL A   1      47.180  26.160  36.252  1.00  0.00    -0.200 F 
ENDBRANCH  61  84
ENDBRANCH  35  36
ENDBRANCH  27  30
ENDBRANCH  25  26
ENDBRANCH  24  25
ENDBRANCH   1  24
TORSDOF 14
ENDMDL
