MODEL 1
REMARK VINA RESULT:     -11.5      0.000      0.000
REMARK SMILES Nc1nc(N)nc(N/C=C/C(=O)NCCCCNC(=O)c2ccc(-c3c4nc(c(-c5c(F)c(F)c(F)c(F)c5F)c5ccc([nH]5)c(-c5c(F)c(F)c(F)c(F)c5F)c5nc(c(-c6c(F)c(F)c(F)c(F)c6F)c6ccc3[nH]6)C=C5)C=C4)cc2)n1
REMARK SMILES IDX 15 1 14 2 13 3 11 4 12 5 10 7 9 8 8 9 7 11 2 12 3 13 84 14
REMARK SMILES IDX 4 15 6 16 1 17 5 20 16 23 17 24 18 25 19 26 20 28 21 29
REMARK SMILES IDX 22 30 83 31 23 32 82 33 24 34 25 35 26 36 76 37 27 38 81 39
REMARK SMILES IDX 75 40 77 41 28 42 80 43 74 44 73 45 29 47 61 48 41 49 60 50
REMARK SMILES IDX 42 51 45 52 59 53 78 54 43 55 44 56 58 58 79 59 46 60 30 61
REMARK SMILES IDX 31 62 39 63 32 64 33 65 37 66 40 67 34 68 35 69 38 70 36 71
REMARK SMILES IDX 62 72 63 73 71 74 64 75 65 76 69 77 72 78 66 79 67 80 70 81
REMARK SMILES IDX 68 82 47 83 48 84 56 85 49 86 50 87 54 88 57 89 51 90 52 91
REMARK SMILES IDX 55 92 53 93
REMARK H PARENT 13 6 8 10 1 18 1 19 5 21 5 22 18 27 77 46 45 57
REMARK Flexibility Score: inf
ROOT
ATOM      1  C   UNL A   1      31.777  30.482  26.792  1.00  0.00     0.023 C 
ENDROOT
BRANCH   1   2
ATOM      2  C   UNL A   1      33.065  30.076  26.070  1.00  0.00     0.116 C 
BRANCH   2   3
ATOM      3  N   UNL A   1      33.390  28.684  26.327  1.00  0.00    -0.353 N 
ATOM      4  C   UNL A   1      32.929  27.534  25.762  1.00  0.00     0.245 C 
ATOM      5  O   UNL A   1      33.429  26.462  26.100  1.00  0.00    -0.270 OA
ATOM      6  H   UNL A   1      34.062  28.548  27.034  1.00  0.00     0.163 HD
BRANCH   4   7
ATOM      7  C   UNL A   1      31.909  27.538  24.687  1.00  0.00     0.089 C 
ATOM      8  C   UNL A   1      32.092  28.009  23.450  1.00  0.00     0.091 C 
BRANCH   8   9
ATOM      9  N   UNL A   1      31.216  28.004  22.399  1.00  0.00    -0.330 N 
ATOM     10  H   UNL A   1      31.433  27.425  21.633  1.00  0.00     0.169 HD
BRANCH   9  11
ATOM     11  C   UNL A   1      30.039  28.753  22.322  1.00  0.00     0.233 A 
ATOM     12  C   UNL A   1      27.838  28.901  22.691  1.00  0.00     0.226 A 
ATOM     13  N   UNL A   1      27.747  30.066  22.076  1.00  0.00    -0.177 NA
ATOM     14  N   UNL A   1      28.948  28.193  22.826  1.00  0.00    -0.177 NA
ATOM     15  C   UNL A   1      28.884  30.534  21.593  1.00  0.00     0.226 A 
ATOM     16  N   UNL A   1      30.054  29.932  21.703  1.00  0.00    -0.177 NA
BRANCH  12  17
ATOM     17  N   UNL A   1      26.694  28.388  23.232  1.00  0.00    -0.368 N 
ATOM     18  H   UNL A   1      25.816  28.709  22.922  1.00  0.00     0.159 HD
ATOM     19  H   UNL A   1      26.746  27.698  23.933  1.00  0.00     0.159 HD
ENDBRANCH  12  17
BRANCH  15  20
ATOM     20  N   UNL A   1      28.844  31.716  20.909  1.00  0.00    -0.368 N 
ATOM     21  H   UNL A   1      27.991  32.044  20.543  1.00  0.00     0.159 HD
ATOM     22  H   UNL A   1      29.667  32.241  20.785  1.00  0.00     0.159 HD
ENDBRANCH  15  20
ENDBRANCH   9  11
ENDBRANCH   8   9
ENDBRANCH   4   7
ENDBRANCH   2   3
ENDBRANCH   1   2
BRANCH   1  23
ATOM     23  C   UNL A   1      31.546  31.995  26.864  1.00  0.00     0.023 C 
BRANCH  23  24
ATOM     24  C   UNL A   1      32.794  32.825  27.150  1.00  0.00     0.116 C 
BRANCH  24  25
ATOM     25  N   UNL A   1      32.497  34.175  27.603  1.00  0.00    -0.352 N 
ATOM     26  C   UNL A   1      33.093  34.893  28.613  1.00  0.00     0.251 C 
ATOM     27  H   UNL A   1      31.773  34.636  27.121  1.00  0.00     0.163 HD
ATOM     28  O   UNL A   1      32.657  35.990  28.935  1.00  0.00    -0.269 OA
BRANCH  26  29
ATOM     29  C   UNL A   1      34.241  34.308  29.337  1.00  0.00     0.039 A 
ATOM     30  C   UNL A   1      33.989  33.453  30.413  1.00  0.00     0.014 A 
ATOM     31  C   UNL A   1      35.553  34.576  28.938  1.00  0.00     0.014 A 
ATOM     32  C   UNL A   1      35.055  32.809  31.047  1.00  0.00     0.010 A 
ATOM     33  C   UNL A   1      36.607  33.884  29.526  1.00  0.00     0.010 A 
ATOM     34  C   UNL A   1      36.368  32.991  30.582  1.00  0.00    -0.014 A 
BRANCH  34  35
ATOM     35  C   UNL A   1      37.504  32.248  31.180  1.00  0.00     0.031 A 
ATOM     36  C   UNL A   1      37.998  32.601  32.553  1.00  0.00     0.074 A 
ATOM     37  C   UNL A   1      38.139  31.308  30.453  1.00  0.00     0.049 A 
ATOM     38  N   UNL A   1      39.018  32.118  33.217  1.00  0.00    -0.248 NA
ATOM     39  C   UNL A   1      37.265  33.659  33.265  1.00  0.00     0.031 C 
ATOM     40  C   UNL A   1      37.787  30.914  29.089  1.00  0.00     0.029 A 
ATOM     41  N   UNL A   1      39.222  30.522  30.759  1.00  0.00    -0.354 N 
ATOM     42  C   UNL A   1      39.059  32.823  34.412  1.00  0.00     0.074 A 
ATOM     43  C   UNL A   1      37.994  33.802  34.362  1.00  0.00     0.031 C 
ATOM     44  C   UNL A   1      38.623  29.945  28.682  1.00  0.00     0.029 A 
ATOM     45  C   UNL A   1      39.589  29.674  29.742  1.00  0.00     0.049 A 
ATOM     46  H   UNL A   1      39.690  30.562  31.623  1.00  0.00     0.167 HD
ATOM     47  C   UNL A   1      39.895  32.654  35.464  1.00  0.00     0.037 A 
ATOM     48  C   UNL A   1      40.595  28.783  29.673  1.00  0.00     0.037 A 
ATOM     49  C   UNL A   1      40.935  31.660  35.520  1.00  0.00     0.049 A 
ATOM     50  C   UNL A   1      41.508  28.611  30.856  1.00  0.00     0.074 A 
ATOM     51  C   UNL A   1      41.788  31.362  36.568  1.00  0.00     0.029 A 
ATOM     52  N   UNL A   1      41.266  30.806  34.478  1.00  0.00    -0.354 N 
ATOM     53  N   UNL A   1      41.490  29.231  32.010  1.00  0.00    -0.248 NA
ATOM     54  C   UNL A   1      42.577  27.611  30.727  1.00  0.00     0.031 C 
ATOM     55  C   UNL A   1      42.664  30.356  36.145  1.00  0.00     0.029 A 
ATOM     56  C   UNL A   1      42.326  29.994  34.851  1.00  0.00     0.049 A 
ATOM     57  H   UNL A   1      40.814  30.780  33.603  1.00  0.00     0.167 HD
ATOM     58  C   UNL A   1      42.524  28.680  32.754  1.00  0.00     0.074 A 
ATOM     59  C   UNL A   1      43.142  27.666  31.925  1.00  0.00     0.031 C 
ATOM     60  C   UNL A   1      42.927  28.987  34.013  1.00  0.00     0.037 A 
BRANCH  47  61
ATOM     61  C   UNL A   1      39.713  33.567  36.642  1.00  0.00     0.064 A 
ATOM     62  C   UNL A   1      40.412  34.779  36.748  1.00  0.00     0.173 A 
ATOM     63  C   UNL A   1      38.816  33.235  37.669  1.00  0.00     0.173 A 
ATOM     64  F   UNL A   1      41.291  35.137  35.799  1.00  0.00    -0.203 F 
ATOM     65  C   UNL A   1      40.248  35.607  37.854  1.00  0.00     0.198 A 
ATOM     66  C   UNL A   1      38.631  34.081  38.759  1.00  0.00     0.198 A 
ATOM     67  F   UNL A   1      38.117  32.091  37.614  1.00  0.00    -0.203 F 
ATOM     68  F   UNL A   1      40.969  36.732  37.961  1.00  0.00    -0.200 F 
ATOM     69  C   UNL A   1      39.353  35.261  38.856  1.00  0.00     0.200 A 
ATOM     70  F   UNL A   1      37.757  33.751  39.720  1.00  0.00    -0.200 F 
ATOM     71  F   UNL A   1      39.195  36.060  39.921  1.00  0.00    -0.200 F 
ENDBRANCH  47  61
BRANCH  48  72
ATOM     72  C   UNL A   1      40.768  27.957  28.450  1.00  0.00     0.064 A 
ATOM     73  C   UNL A   1      41.558  28.413  27.386  1.00  0.00     0.173 A 
ATOM     74  C   UNL A   1      40.162  26.699  28.324  1.00  0.00     0.173 A 
ATOM     75  F   UNL A   1      42.141  29.618  27.453  1.00  0.00    -0.203 F 
ATOM     76  C   UNL A   1      41.724  27.647  26.234  1.00  0.00     0.198 A 
ATOM     77  C   UNL A   1      40.349  25.923  27.182  1.00  0.00     0.198 A 
ATOM     78  F   UNL A   1      39.400  26.218  29.317  1.00  0.00    -0.203 F 
ATOM     79  F   UNL A   1      42.454  28.122  25.216  1.00  0.00    -0.200 F 
ATOM     80  C   UNL A   1      41.125  26.400  26.135  1.00  0.00     0.200 A 
ATOM     81  F   UNL A   1      39.780  24.714  27.096  1.00  0.00    -0.200 F 
ATOM     82  F   UNL A   1      41.291  25.660  25.031  1.00  0.00    -0.200 F 
ENDBRANCH  48  72
BRANCH  60  83
ATOM     83  C   UNL A   1      44.068  28.196  34.581  1.00  0.00     0.064 A 
ATOM     84  C   UNL A   1      45.393  28.644  34.483  1.00  0.00     0.173 A 
ATOM     85  C   UNL A   1      43.827  26.996  35.268  1.00  0.00     0.173 A 
ATOM     86  F   UNL A   1      45.676  29.777  33.821  1.00  0.00    -0.203 F 
ATOM     87  C   UNL A   1      46.439  27.906  35.031  1.00  0.00     0.198 A 
ATOM     88  C   UNL A   1      44.873  26.277  35.840  1.00  0.00     0.198 A 
ATOM     89  F   UNL A   1      42.577  26.528  35.395  1.00  0.00    -0.203 F 
ATOM     90  F   UNL A   1      47.703  28.330  34.887  1.00  0.00    -0.200 F 
ATOM     91  C   UNL A   1      46.177  26.728  35.715  1.00  0.00     0.200 A 
ATOM     92  F   UNL A   1      44.617  25.145  36.510  1.00  0.00    -0.200 F 
ATOM     93  F   UNL A   1      47.185  26.024  36.249  1.00  0.00    -0.200 F 
ENDBRANCH  60  83
ENDBRANCH  34  35
ENDBRANCH  26  29
ENDBRANCH  24  25
ENDBRANCH  23  24
ENDBRANCH   1  23
TORSDOF 15
ENDMDL
MODEL 2
REMARK VINA RESULT:     -11.5      4.098      7.391
REMARK SMILES Nc1nc(N)nc(N/C=C/C(=O)NCCCCNC(=O)c2ccc(-c3c4nc(c(-c5c(F)c(F)c(F)c(F)c5F)c5ccc([nH]5)c(-c5c(F)c(F)c(F)c(F)c5F)c5nc(c(-c6c(F)c(F)c(F)c(F)c6F)c6ccc3[nH]6)C=C5)C=C4)cc2)n1
REMARK SMILES IDX 15 1 14 2 13 3 11 4 12 5 10 7 9 8 8 9 7 11 2 12 3 13 84 14
REMARK SMILES IDX 4 15 6 16 1 17 5 20 16 23 17 24 18 25 19 26 20 28 21 29
REMARK SMILES IDX 22 30 83 31 23 32 82 33 24 34 25 35 26 36 76 37 27 38 81 39
REMARK SMILES IDX 75 40 77 41 28 42 80 43 74 44 73 45 29 47 61 48 41 49 60 50
REMARK SMILES IDX 42 51 45 52 59 53 78 54 43 55 44 56 58 58 79 59 46 60 30 61
REMARK SMILES IDX 31 62 39 63 32 64 33 65 37 66 40 67 34 68 35 69 38 70 36 71
REMARK SMILES IDX 62 72 63 73 71 74 64 75 65 76 69 77 72 78 66 79 67 80 70 81
REMARK SMILES IDX 68 82 47 83 48 84 56 85 49 86 50 87 54 88 57 89 51 90 52 91
REMARK SMILES IDX 55 92 53 93
REMARK H PARENT 13 6 8 10 1 18 1 19 5 21 5 22 18 27 77 46 45 57
REMARK Flexibility Score: inf
ROOT
ATOM      1  C   UNL A   1      34.593  35.173  28.300  1.00  0.00     0.023 C 
ENDROOT
BRANCH   1   2
ATOM      2  C   UNL A   1      33.186  35.106  28.899  1.00  0.00     0.116 C 
BRANCH   2   3
ATOM      3  N   UNL A   1      32.893  36.297  29.678  1.00  0.00    -0.353 N 
ATOM      4  C   UNL A   1      33.095  36.583  30.993  1.00  0.00     0.245 C 
ATOM      5  O   UNL A   1      32.834  37.712  31.405  1.00  0.00    -0.270 OA
ATOM      6  H   UNL A   1      32.475  37.025  29.164  1.00  0.00     0.163 HD
BRANCH   4   7
ATOM      7  C   UNL A   1      33.706  35.608  31.927  1.00  0.00     0.089 C 
ATOM      8  C   UNL A   1      34.121  35.881  33.167  1.00  0.00     0.091 C 
BRANCH   8   9
ATOM      9  N   UNL A   1      34.649  35.027  34.095  1.00  0.00    -0.330 N 
ATOM     10  H   UNL A   1      34.195  34.968  34.966  1.00  0.00     0.169 HD
BRANCH   9  11
ATOM     11  C   UNL A   1      35.783  34.231  33.911  1.00  0.00     0.233 A 
ATOM     12  C   UNL A   1      38.000  34.088  33.658  1.00  0.00     0.226 A 
ATOM     13  N   UNL A   1      37.956  32.789  33.422  1.00  0.00    -0.177 NA
ATOM     14  N   UNL A   1      36.950  34.859  33.887  1.00  0.00    -0.177 NA
ATOM     15  C   UNL A   1      36.747  32.257  33.451  1.00  0.00     0.226 A 
ATOM     16  N   UNL A   1      35.636  32.922  33.707  1.00  0.00    -0.177 NA
BRANCH  12  17
ATOM     17  N   UNL A   1      39.231  34.680  33.666  1.00  0.00    -0.368 N 
ATOM     18  H   UNL A   1      39.446  35.379  33.006  1.00  0.00     0.159 HD
ATOM     19  H   UNL A   1      39.904  34.409  34.332  1.00  0.00     0.159 HD
ENDBRANCH  12  17
BRANCH  15  20
ATOM     20  N   UNL A   1      36.635  30.924  33.173  1.00  0.00    -0.368 N 
ATOM     21  H   UNL A   1      36.689  30.609  32.242  1.00  0.00     0.159 HD
ATOM     22  H   UNL A   1      36.502  30.278  33.904  1.00  0.00     0.159 HD
ENDBRANCH  15  20
ENDBRANCH   9  11
ENDBRANCH   8   9
ENDBRANCH   4   7
ENDBRANCH   2   3
ENDBRANCH   1   2
BRANCH   1  23
ATOM     23  C   UNL A   1      35.336  33.833  28.288  1.00  0.00     0.023 C 
BRANCH  23  24
ATOM     24  C   UNL A   1      34.737  32.755  29.186  1.00  0.00     0.116 C 
BRANCH  24  25
ATOM     25  N   UNL A   1      33.948  31.772  28.460  1.00  0.00    -0.352 N 
ATOM     26  C   UNL A   1      34.327  30.530  28.009  1.00  0.00     0.251 C 
ATOM     27  H   UNL A   1      33.019  32.032  28.267  1.00  0.00     0.163 HD
ATOM     28  O   UNL A   1      33.565  29.861  27.324  1.00  0.00    -0.269 OA
BRANCH  26  29
ATOM     29  C   UNL A   1      35.680  30.027  28.324  1.00  0.00     0.039 A 
ATOM     30  C   UNL A   1      36.686  30.165  27.364  1.00  0.00     0.014 A 
ATOM     31  C   UNL A   1      35.961  29.453  29.566  1.00  0.00     0.014 A 
ATOM     32  C   UNL A   1      37.995  29.790  27.678  1.00  0.00     0.010 A 
ATOM     33  C   UNL A   1      37.275  29.141  29.900  1.00  0.00     0.010 A 
ATOM     34  C   UNL A   1      38.305  29.311  28.962  1.00  0.00    -0.014 A 
BRANCH  34  35
ATOM     35  C   UNL A   1      39.702  28.992  29.346  1.00  0.00     0.031 A 
ATOM     36  C   UNL A   1      40.490  29.951  30.190  1.00  0.00     0.074 A 
ATOM     37  C   UNL A   1      40.283  27.875  28.868  1.00  0.00     0.049 A 
ATOM     38  N   UNL A   1      41.741  29.886  30.570  1.00  0.00    -0.248 NA
ATOM     39  C   UNL A   1      39.787  31.160  30.645  1.00  0.00     0.031 C 
ATOM     40  C   UNL A   1      39.638  26.893  27.996  1.00  0.00     0.029 A 
ATOM     41  N   UNL A   1      41.553  27.385  29.041  1.00  0.00    -0.354 N 
ATOM     42  C   UNL A   1      41.978  31.049  31.290  1.00  0.00     0.074 A 
ATOM     43  C   UNL A   1      40.758  31.826  31.252  1.00  0.00     0.031 C 
ATOM     44  C   UNL A   1      40.508  25.906  27.727  1.00  0.00     0.029 A 
ATOM     45  C   UNL A   1      41.780  26.202  28.379  1.00  0.00     0.049 A 
ATOM     46  H   UNL A   1      42.236  27.836  29.586  1.00  0.00     0.167 HD
ATOM     47  C   UNL A   1      43.104  31.423  31.943  1.00  0.00     0.037 A 
ATOM     48  C   UNL A   1      42.891  25.446  28.304  1.00  0.00     0.037 A 
ATOM     49  C   UNL A   1      44.306  30.634  32.001  1.00  0.00     0.049 A 
ATOM     50  C   UNL A   1      44.128  25.882  29.040  1.00  0.00     0.074 A 
ATOM     51  C   UNL A   1      45.476  30.892  32.694  1.00  0.00     0.029 A 
ATOM     52  N   UNL A   1      44.494  29.432  31.334  1.00  0.00    -0.354 N 
ATOM     53  N   UNL A   1      44.317  26.946  29.781  1.00  0.00    -0.248 NA
ATOM     54  C   UNL A   1      45.304  25.006  28.935  1.00  0.00     0.031 C 
ATOM     55  C   UNL A   1      46.386  29.867  32.412  1.00  0.00     0.029 A 
ATOM     56  C   UNL A   1      45.768  28.947  31.581  1.00  0.00     0.049 A 
ATOM     57  H   UNL A   1      43.820  28.989  30.768  1.00  0.00     0.167 HD
ATOM     58  C   UNL A   1      45.621  26.857  30.250  1.00  0.00     0.074 A 
ATOM     59  C   UNL A   1      46.172  25.627  29.721  1.00  0.00     0.031 C 
ATOM     60  C   UNL A   1      46.300  27.718  31.049  1.00  0.00     0.037 A 
BRANCH  47  61
ATOM     61  C   UNL A   1      43.083  32.748  32.648  1.00  0.00     0.064 A 
ATOM     62  C   UNL A   1      43.367  33.946  31.973  1.00  0.00     0.173 A 
ATOM     63  C   UNL A   1      42.759  32.825  34.011  1.00  0.00     0.173 A 
ATOM     64  F   UNL A   1      43.695  33.926  30.672  1.00  0.00    -0.203 F 
ATOM     65  C   UNL A   1      43.362  35.165  32.643  1.00  0.00     0.198 A 
ATOM     66  C   UNL A   1      42.724  34.051  34.671  1.00  0.00     0.198 A 
ATOM     67  F   UNL A   1      42.473  31.712  34.703  1.00  0.00    -0.203 F 
ATOM     68  F   UNL A   1      43.692  36.289  31.991  1.00  0.00    -0.200 F 
ATOM     69  C   UNL A   1      43.035  35.218  33.990  1.00  0.00     0.200 A 
ATOM     70  F   UNL A   1      42.396  34.101  35.969  1.00  0.00    -0.200 F 
ATOM     71  F   UNL A   1      43.029  36.394  34.634  1.00  0.00    -0.200 F 
ENDBRANCH  47  61
BRANCH  48  72
ATOM     72  C   UNL A   1      42.871  24.178  27.530  1.00  0.00     0.064 A 
ATOM     73  C   UNL A   1      42.524  22.969  28.147  1.00  0.00     0.173 A 
ATOM     74  C   UNL A   1      43.183  24.150  26.163  1.00  0.00     0.173 A 
ATOM     75  F   UNL A   1      42.236  22.945  29.457  1.00  0.00    -0.203 F 
ATOM     76  C   UNL A   1      42.505  21.775  27.431  1.00  0.00     0.198 A 
ATOM     77  C   UNL A   1      43.140  22.959  25.441  1.00  0.00     0.198 A 
ATOM     78  F   UNL A   1      43.517  25.282  25.527  1.00  0.00    -0.203 F 
ATOM     79  F   UNL A   1      42.206  20.627  28.053  1.00  0.00    -0.200 F 
ATOM     80  C   UNL A   1      42.807  21.771  26.077  1.00  0.00     0.200 A 
ATOM     81  F   UNL A   1      43.418  22.962  24.131  1.00  0.00    -0.200 F 
ATOM     82  F   UNL A   1      42.781  20.624  25.385  1.00  0.00    -0.200 F 
ENDBRANCH  48  72
BRANCH  60  83
ATOM     83  C   UNL A   1      47.704  27.344  31.424  1.00  0.00     0.064 A 
ATOM     84  C   UNL A   1      47.973  26.502  32.513  1.00  0.00     0.173 A 
ATOM     85  C   UNL A   1      48.789  27.800  30.661  1.00  0.00     0.173 A 
ATOM     86  F   UNL A   1      46.970  26.053  33.284  1.00  0.00    -0.203 F 
ATOM     87  C   UNL A   1      49.280  26.150  32.838  1.00  0.00     0.198 A 
ATOM     88  C   UNL A   1      50.092  27.423  30.971  1.00  0.00     0.198 A 
ATOM     89  F   UNL A   1      48.584  28.603  29.606  1.00  0.00    -0.203 F 
ATOM     90  F   UNL A   1      49.519  25.381  33.910  1.00  0.00    -0.200 F 
ATOM     91  C   UNL A   1      50.337  26.604  32.063  1.00  0.00     0.200 A 
ATOM     92  F   UNL A   1      51.111  27.854  30.214  1.00  0.00    -0.200 F 
ATOM     93  F   UNL A   1      51.595  26.258  32.373  1.00  0.00    -0.200 F 
ENDBRANCH  60  83
ENDBRANCH  34  35
ENDBRANCH  26  29
ENDBRANCH  24  25
ENDBRANCH  23  24
ENDBRANCH   1  23
TORSDOF 15
ENDMDL
MODEL 3
REMARK VINA RESULT:     -11.5      6.814     10.753
REMARK SMILES Nc1nc(N)nc(N/C=C/C(=O)NCCCCNC(=O)c2ccc(-c3c4nc(c(-c5c(F)c(F)c(F)c(F)c5F)c5ccc([nH]5)c(-c5c(F)c(F)c(F)c(F)c5F)c5nc(c(-c6c(F)c(F)c(F)c(F)c6F)c6ccc3[nH]6)C=C5)C=C4)cc2)n1
REMARK SMILES IDX 15 1 14 2 13 3 11 4 12 5 10 7 9 8 8 9 7 11 2 12 3 13 84 14
REMARK SMILES IDX 4 15 6 16 1 17 5 20 16 23 17 24 18 25 19 26 20 28 21 29
REMARK SMILES IDX 22 30 83 31 23 32 82 33 24 34 25 35 26 36 76 37 27 38 81 39
REMARK SMILES IDX 75 40 77 41 28 42 80 43 74 44 73 45 29 47 61 48 41 49 60 50
REMARK SMILES IDX 42 51 45 52 59 53 78 54 43 55 44 56 58 58 79 59 46 60 30 61
REMARK SMILES IDX 31 62 39 63 32 64 33 65 37 66 40 67 34 68 35 69 38 70 36 71
REMARK SMILES IDX 62 72 63 73 71 74 64 75 65 76 69 77 72 78 66 79 67 80 70 81
REMARK SMILES IDX 68 82 47 83 48 84 56 85 49 86 50 87 54 88 57 89 51 90 52 91
REMARK SMILES IDX 55 92 53 93
REMARK H PARENT 13 6 8 10 1 18 1 19 5 21 5 22 18 27 77 46 45 57
REMARK Flexibility Score: inf
ROOT
ATOM      1  C   UNL A   1      37.114  21.109  24.625  1.00  0.00     0.023 C 
ENDROOT
BRANCH   1   2
ATOM      2  C   UNL A   1      36.989  22.138  25.751  1.00  0.00     0.116 C 
BRANCH   2   3
ATOM      3  N   UNL A   1      35.789  22.941  25.595  1.00  0.00    -0.353 N 
ATOM      4  C   UNL A   1      34.486  22.674  25.884  1.00  0.00     0.245 C 
ATOM      5  O   UNL A   1      33.648  23.563  25.735  1.00  0.00    -0.270 OA
ATOM      6  H   UNL A   1      35.945  23.834  25.211  1.00  0.00     0.163 HD
BRANCH   4   7
ATOM      7  C   UNL A   1      34.055  21.378  26.460  1.00  0.00     0.089 C 
ATOM      8  C   UNL A   1      33.290  20.474  25.843  1.00  0.00     0.091 C 
BRANCH   8   9
ATOM      9  N   UNL A   1      32.893  19.245  26.293  1.00  0.00    -0.330 N 
ATOM     10  H   UNL A   1      32.512  19.198  27.199  1.00  0.00     0.169 HD
BRANCH   9  11
ATOM     11  C   UNL A   1      32.984  18.051  25.574  1.00  0.00     0.233 A 
ATOM     12  C   UNL A   1      32.632  15.844  25.478  1.00  0.00     0.226 A 
ATOM     13  N   UNL A   1      33.254  15.729  24.319  1.00  0.00    -0.177 NA
ATOM     14  N   UNL A   1      32.485  16.969  26.158  1.00  0.00    -0.177 NA
ATOM     15  C   UNL A   1      33.732  16.857  23.826  1.00  0.00     0.226 A 
ATOM     16  N   UNL A   1      33.609  18.041  24.398  1.00  0.00    -0.177 NA
BRANCH  12  17
ATOM     17  N   UNL A   1      32.097  14.708  26.016  1.00  0.00    -0.368 N 
ATOM     18  H   UNL A   1      32.610  14.187  26.677  1.00  0.00     0.159 HD
ATOM     19  H   UNL A   1      31.199  14.409  25.744  1.00  0.00     0.159 HD
ENDBRANCH  12  17
BRANCH  15  20
ATOM     20  N   UNL A   1      34.422  16.793  22.649  1.00  0.00    -0.368 N 
ATOM     21  H   UNL A   1      34.808  17.610  22.259  1.00  0.00     0.159 HD
ATOM     22  H   UNL A   1      34.534  15.929  22.191  1.00  0.00     0.159 HD
ENDBRANCH  15  20
ENDBRANCH   9  11
ENDBRANCH   8   9
ENDBRANCH   4   7
ENDBRANCH   2   3
ENDBRANCH   1   2
BRANCH   1  23
ATOM     23  C   UNL A   1      38.025  19.922  24.955  1.00  0.00     0.023 C 
BRANCH  23  24
ATOM     24  C   UNL A   1      39.269  20.270  25.767  1.00  0.00     0.116 C 
BRANCH  24  25
ATOM     25  N   UNL A   1      40.219  19.173  25.867  1.00  0.00    -0.352 N 
ATOM     26  C   UNL A   1      41.568  19.225  26.125  1.00  0.00     0.251 C 
ATOM     27  H   UNL A   1      39.844  18.273  25.731  1.00  0.00     0.163 HD
ATOM     28  O   UNL A   1      42.248  18.209  26.079  1.00  0.00    -0.269 OA
BRANCH  26  29
ATOM     29  C   UNL A   1      42.199  20.529  26.419  1.00  0.00     0.039 A 
ATOM     30  C   UNL A   1      42.532  21.367  25.352  1.00  0.00     0.014 A 
ATOM     31  C   UNL A   1      42.431  20.933  27.736  1.00  0.00     0.014 A 
ATOM     32  C   UNL A   1      43.034  22.645  25.609  1.00  0.00     0.010 A 
ATOM     33  C   UNL A   1      42.869  22.229  27.992  1.00  0.00     0.010 A 
ATOM     34  C   UNL A   1      43.171  23.098  26.933  1.00  0.00    -0.014 A 
BRANCH  34  35
ATOM     35  C   UNL A   1      43.616  24.482  27.229  1.00  0.00     0.031 A 
ATOM     36  C   UNL A   1      42.637  25.496  27.743  1.00  0.00     0.074 A 
ATOM     37  C   UNL A   1      44.885  24.842  26.959  1.00  0.00     0.049 A 
ATOM     38  N   UNL A   1      42.816  26.769  27.993  1.00  0.00    -0.248 NA
ATOM     39  C   UNL A   1      41.265  25.025  27.983  1.00  0.00     0.031 C 
ATOM     40  C   UNL A   1      45.915  23.962  26.406  1.00  0.00     0.029 A 
ATOM     41  N   UNL A   1      45.521  26.050  27.102  1.00  0.00    -0.354 N 
ATOM     42  C   UNL A   1      41.580  27.251  28.400  1.00  0.00     0.074 A 
ATOM     43  C   UNL A   1      40.647  26.148  28.316  1.00  0.00     0.031 C 
ATOM     44  C   UNL A   1      47.060  24.651  26.278  1.00  0.00     0.029 A 
ATOM     45  C   UNL A   1      46.837  26.029  26.706  1.00  0.00     0.049 A 
ATOM     46  H   UNL A   1      45.078  26.855  27.455  1.00  0.00     0.167 HD
ATOM     47  C   UNL A   1      41.257  28.496  28.827  1.00  0.00     0.037 A 
ATOM     48  C   UNL A   1      47.756  27.011  26.688  1.00  0.00     0.037 A 
ATOM     49  C   UNL A   1      42.195  29.582  28.935  1.00  0.00     0.049 A 
ATOM     50  C   UNL A   1      47.375  28.384  27.170  1.00  0.00     0.074 A 
ATOM     51  C   UNL A   1      41.984  30.860  29.423  1.00  0.00     0.029 A 
ATOM     52  N   UNL A   1      43.524  29.519  28.542  1.00  0.00    -0.354 N 
ATOM     53  N   UNL A   1      46.222  28.810  27.624  1.00  0.00    -0.248 NA
ATOM     54  C   UNL A   1      48.426  29.411  27.141  1.00  0.00     0.031 C 
ATOM     55  C   UNL A   1      43.174  31.582  29.287  1.00  0.00     0.029 A 
ATOM     56  C   UNL A   1      44.140  30.742  28.757  1.00  0.00     0.049 A 
ATOM     57  H   UNL A   1      43.966  28.722  28.168  1.00  0.00     0.167 HD
ATOM     58  C   UNL A   1      46.413  30.143  27.960  1.00  0.00     0.074 A 
ATOM     59  C   UNL A   1      47.798  30.453  27.669  1.00  0.00     0.031 C 
ATOM     60  C   UNL A   1      45.522  31.032  28.465  1.00  0.00     0.037 A 
BRANCH  47  61
ATOM     61  C   UNL A   1      39.827  28.744  29.210  1.00  0.00     0.064 A 
ATOM     62  C   UNL A   1      38.895  29.247  28.290  1.00  0.00     0.173 A 
ATOM     63  C   UNL A   1      39.378  28.459  30.508  1.00  0.00     0.173 A 
ATOM     64  F   UNL A   1      39.277  29.548  27.039  1.00  0.00    -0.203 F 
ATOM     65  C   UNL A   1      37.577  29.490  28.663  1.00  0.00     0.198 A 
ATOM     66  C   UNL A   1      38.050  28.673  30.870  1.00  0.00     0.198 A 
ATOM     67  F   UNL A   1      40.225  27.970  31.427  1.00  0.00    -0.203 F 
ATOM     68  F   UNL A   1      36.720  30.024  27.783  1.00  0.00    -0.200 F 
ATOM     69  C   UNL A   1      37.154  29.197  29.951  1.00  0.00     0.200 A 
ATOM     70  F   UNL A   1      37.640  28.379  32.112  1.00  0.00    -0.200 F 
ATOM     71  F   UNL A   1      35.883  29.430  30.310  1.00  0.00    -0.200 F 
ENDBRANCH  47  61
BRANCH  48  72
ATOM     72  C   UNL A   1      49.139  26.721  26.229  1.00  0.00     0.064 A 
ATOM     73  C   UNL A   1      49.515  26.958  24.900  1.00  0.00     0.173 A 
ATOM     74  C   UNL A   1      50.111  26.217  27.105  1.00  0.00     0.173 A 
ATOM     75  F   UNL A   1      48.615  27.421  24.021  1.00  0.00    -0.203 F 
ATOM     76  C   UNL A   1      50.809  26.686  24.460  1.00  0.00     0.198 A 
ATOM     77  C   UNL A   1      51.411  25.969  26.670  1.00  0.00     0.198 A 
ATOM     78  F   UNL A   1      49.800  25.979  28.388  1.00  0.00    -0.203 F 
ATOM     79  F   UNL A   1      51.132  26.886  23.175  1.00  0.00    -0.200 F 
ATOM     80  C   UNL A   1      51.757  26.198  25.346  1.00  0.00     0.200 A 
ATOM     81  F   UNL A   1      52.328  25.511  27.532  1.00  0.00    -0.200 F 
ATOM     82  F   UNL A   1      53.004  25.944  24.925  1.00  0.00    -0.200 F 
ENDBRANCH  48  72
BRANCH  60  83
ATOM     83  C   UNL A   1      46.023  32.414  28.764  1.00  0.00     0.064 A 
ATOM     84  C   UNL A   1      45.996  33.430  27.799  1.00  0.00     0.173 A 
ATOM     85  C   UNL A   1      46.500  32.734  30.045  1.00  0.00     0.173 A 
ATOM     86  F   UNL A   1      45.565  33.169  26.555  1.00  0.00    -0.203 F 
ATOM     87  C   UNL A   1      46.449  34.713  28.098  1.00  0.00     0.198 A 
ATOM     88  C   UNL A   1      46.925  34.024  30.349  1.00  0.00     0.198 A 
ATOM     89  F   UNL A   1      46.541  31.798  31.005  1.00  0.00    -0.203 F 
ATOM     90  F   UNL A   1      46.456  35.658  27.148  1.00  0.00    -0.200 F 
ATOM     91  C   UNL A   1      46.905  35.010  29.374  1.00  0.00     0.200 A 
ATOM     92  F   UNL A   1      47.355  34.312  31.585  1.00  0.00    -0.200 F 
ATOM     93  F   UNL A   1      47.335  36.247  29.663  1.00  0.00    -0.200 F 
ENDBRANCH  60  83
ENDBRANCH  34  35
ENDBRANCH  26  29
ENDBRANCH  24  25
ENDBRANCH  23  24
ENDBRANCH   1  23
TORSDOF 15
ENDMDL
