MODEL 1
REMARK VINA RESULT:     -13.7      0.000      0.000
REMARK SMILES CCc1ccc(-c2cc(Cl)cc3c2O[C@H](C(F)(F)F)C(C(=O)NCCCCNC(=O)c2ccc(-c4c5nc(c(-c6c(F)c(F)c(F)c(F)c6F)c6ccc([nH]6)c(-c6c(F)c(F)c(F)c(F)c6F)c6nc(c(-c7c(F)c(F)c(F)c(F)c7F)c7ccc4[nH]7)C=C6)C=C5)cc2)=C3)cc1
REMARK SMILES IDX 25 1 24 2 23 3 21 4 22 5 20 7 7 8 8 9 13 10 9 11 12 12 14 13
REMARK SMILES IDX 10 14 11 15 94 16 15 17 6 18 3 19 4 20 96 21 5 22 95 23 2 24
REMARK SMILES IDX 1 25 16 26 17 27 18 28 19 29 26 30 27 31 28 32 29 33 30 35
REMARK SMILES IDX 31 36 32 37 93 38 33 39 92 40 34 41 35 42 36 43 86 44 37 45
REMARK SMILES IDX 91 46 85 47 87 48 38 49 90 50 84 51 83 52 39 54 71 55 51 56
REMARK SMILES IDX 70 57 52 58 55 59 69 60 88 61 53 62 54 63 68 65 89 66 56 67
REMARK SMILES IDX 40 68 41 69 49 70 42 71 43 72 47 73 50 74 44 75 45 76 48 77
REMARK SMILES IDX 46 78 72 79 73 80 81 81 74 82 75 83 79 84 82 85 76 86 77 87
REMARK SMILES IDX 80 88 78 89 57 90 58 91 66 92 59 93 60 94 64 95 67 96 61 97
REMARK SMILES IDX 62 98 65 99 63 100
REMARK H PARENT 23 6 28 34 87 53 55 64
REMARK Flexibility Score: inf
ROOT
ATOM      1  C   UNL A   1      31.429  30.684  26.329  1.00  0.00     0.023 C 
ENDROOT
BRANCH   1   2
ATOM      2  C   UNL A   1      32.712  30.113  25.708  1.00  0.00     0.116 C 
BRANCH   2   3
ATOM      3  N   UNL A   1      33.011  28.832  26.310  1.00  0.00    -0.352 N 
ATOM      4  C   UNL A   1      32.453  27.621  26.095  1.00  0.00     0.251 C 
ATOM      5  O   UNL A   1      32.441  26.828  27.031  1.00  0.00    -0.270 OA
ATOM      6  H   UNL A   1      33.733  28.845  26.979  1.00  0.00     0.163 HD
BRANCH   4   7
ATOM      7  C   UNL A   1      32.007  27.261  24.715  1.00  0.00     0.067 C 
ATOM      8  C   UNL A   1      32.906  23.279  24.704  1.00  0.00     0.026 A 
ATOM      9  C   UNL A   1      34.183  23.159  25.312  1.00  0.00     0.033 A 
ATOM     10  C   UNL A   1      32.509  24.582  24.348  1.00  0.00     0.135 A 
ATOM     11  C   UNL A   1      35.089  24.217  25.364  1.00  0.00     0.042 A 
ATOM     12  C   UNL A   1      33.484  25.608  24.289  1.00  0.00     0.019 A 
ATOM     13  O   UNL A   1      31.190  24.940  24.101  1.00  0.00    -0.475 OA
ATOM     14  Cl  UNL A   1      36.612  24.001  26.128  1.00  0.00    -0.084 Cl
ATOM     15  C   UNL A   1      34.775  25.425  24.773  1.00  0.00     0.032 A 
ATOM     16  C   UNL A   1      33.037  26.964  23.898  1.00  0.00     0.025 C 
ATOM     17  C   UNL A   1      30.829  26.291  24.639  1.00  0.00     0.314 C 
BRANCH   8  18
ATOM     18  C   UNL A   1      32.303  21.987  24.271  1.00  0.00    -0.015 A 
ATOM     19  C   UNL A   1      32.352  19.328  23.206  1.00  0.00    -0.048 A 
ATOM     20  C   UNL A   1      32.373  19.545  24.586  1.00  0.00     0.004 A 
ATOM     21  C   UNL A   1      32.153  20.444  22.378  1.00  0.00     0.004 A 
ATOM     22  C   UNL A   1      32.332  20.852  25.109  1.00  0.00     0.009 A 
ATOM     23  C   UNL A   1      32.123  21.749  22.899  1.00  0.00     0.009 A 
BRANCH  19  24
ATOM     24  C   UNL A   1      32.525  17.966  22.563  1.00  0.00     0.032 C 
ATOM     25  C   UNL A   1      33.660  17.082  23.075  1.00  0.00     0.009 C 
ENDBRANCH  19  24
ENDBRANCH   8  18
BRANCH  17  26
ATOM     26  C   UNL A   1      29.709  26.956  23.805  1.00  0.00     0.429 C 
ATOM     27  F   UNL A   1      28.502  26.378  23.990  1.00  0.00    -0.167 F 
ATOM     28  F   UNL A   1      29.587  28.271  24.109  1.00  0.00    -0.167 F 
ATOM     29  F   UNL A   1      29.959  26.903  22.469  1.00  0.00    -0.167 F 
ENDBRANCH  17  26
ENDBRANCH   4   7
ENDBRANCH   2   3
ENDBRANCH   1   2
BRANCH   1  30
ATOM     30  C   UNL A   1      31.404  32.210  26.499  1.00  0.00     0.023 C 
BRANCH  30  31
ATOM     31  C   UNL A   1      32.532  32.778  27.351  1.00  0.00     0.116 C 
BRANCH  31  32
ATOM     32  N   UNL A   1      32.344  34.194  27.625  1.00  0.00    -0.352 N 
ATOM     33  C   UNL A   1      32.957  34.986  28.562  1.00  0.00     0.251 C 
ATOM     34  H   UNL A   1      31.682  34.650  27.055  1.00  0.00     0.163 HD
ATOM     35  O   UNL A   1      32.528  36.116  28.791  1.00  0.00    -0.269 OA
BRANCH  33  36
ATOM     36  C   UNL A   1      34.120  34.474  29.318  1.00  0.00     0.039 A 
ATOM     37  C   UNL A   1      33.907  33.874  30.561  1.00  0.00     0.014 A 
ATOM     38  C   UNL A   1      35.415  34.585  28.803  1.00  0.00     0.014 A 
ATOM     39  C   UNL A   1      34.985  33.323  31.257  1.00  0.00     0.010 A 
ATOM     40  C   UNL A   1      36.475  33.968  29.461  1.00  0.00     0.010 A 
ATOM     41  C   UNL A   1      36.273  33.330  30.694  1.00  0.00    -0.014 A 
BRANCH  41  42
ATOM     42  C   UNL A   1      37.414  32.667  31.378  1.00  0.00     0.031 A 
ATOM     43  C   UNL A   1      38.109  31.499  30.734  1.00  0.00     0.074 A 
ATOM     44  C   UNL A   1      37.782  33.074  32.608  1.00  0.00     0.049 A 
ATOM     45  N   UNL A   1      39.077  30.750  31.201  1.00  0.00    -0.248 NA
ATOM     46  C   UNL A   1      37.637  31.103  29.399  1.00  0.00     0.031 C 
ATOM     47  C   UNL A   1      37.157  34.164  33.359  1.00  0.00     0.029 A 
ATOM     48  N   UNL A   1      38.764  32.613  33.449  1.00  0.00    -0.354 N 
ATOM     49  C   UNL A   1      39.318  29.792  30.225  1.00  0.00     0.074 A 
ATOM     50  C   UNL A   1      38.359  30.017  29.166  1.00  0.00     0.031 C 
ATOM     51  C   UNL A   1      37.784  34.303  34.538  1.00  0.00     0.029 A 
ATOM     52  C   UNL A   1      38.826  33.286  34.646  1.00  0.00     0.049 A 
ATOM     53  H   UNL A   1      39.368  31.871  33.217  1.00  0.00     0.167 HD
ATOM     54  C   UNL A   1      40.269  28.827  30.205  1.00  0.00     0.037 A 
ATOM     55  C   UNL A   1      39.624  33.097  35.714  1.00  0.00     0.037 A 
ATOM     56  C   UNL A   1      41.233  28.617  31.254  1.00  0.00     0.049 A 
ATOM     57  C   UNL A   1      40.659  32.005  35.673  1.00  0.00     0.074 A 
ATOM     58  C   UNL A   1      42.273  27.705  31.300  1.00  0.00     0.029 A 
ATOM     59  N   UNL A   1      41.270  29.326  32.446  1.00  0.00    -0.354 N 
ATOM     60  N   UNL A   1      40.927  31.154  34.713  1.00  0.00    -0.248 NA
ATOM     61  C   UNL A   1      41.508  31.854  36.863  1.00  0.00     0.031 C 
ATOM     62  C   UNL A   1      42.903  27.822  32.543  1.00  0.00     0.029 A 
ATOM     63  C   UNL A   1      42.297  28.851  33.247  1.00  0.00     0.049 A 
ATOM     64  H   UNL A   1      40.657  30.057  32.688  1.00  0.00     0.167 HD
ATOM     65  C   UNL A   1      41.992  30.387  35.169  1.00  0.00     0.074 A 
ATOM     66  C   UNL A   1      42.332  30.886  36.484  1.00  0.00     0.031 C 
ATOM     67  C   UNL A   1      42.630  29.362  34.552  1.00  0.00     0.037 A 
BRANCH  54  68
ATOM     68  C   UNL A   1      40.314  27.920  29.007  1.00  0.00     0.064 A 
ATOM     69  C   UNL A   1      41.064  28.243  27.866  1.00  0.00     0.173 A 
ATOM     70  C   UNL A   1      39.632  26.694  29.015  1.00  0.00     0.173 A 
ATOM     71  F   UNL A   1      41.729  29.406  27.800  1.00  0.00    -0.203 F 
ATOM     72  C   UNL A   1      41.102  27.388  26.766  1.00  0.00     0.198 A 
ATOM     73  C   UNL A   1      39.700  25.827  27.929  1.00  0.00     0.198 A 
ATOM     74  F   UNL A   1      38.905  26.331  30.084  1.00  0.00    -0.203 F 
ATOM     75  F   UNL A   1      41.782  27.744  25.667  1.00  0.00    -0.200 F 
ATOM     76  C   UNL A   1      40.427  26.178  26.802  1.00  0.00     0.200 A 
ATOM     77  F   UNL A   1      39.059  24.650  27.971  1.00  0.00    -0.200 F 
ATOM     78  F   UNL A   1      40.472  25.353  25.746  1.00  0.00    -0.200 F 
ENDBRANCH  54  68
BRANCH  55  79
ATOM     79  C   UNL A   1      39.489  33.973  36.909  1.00  0.00     0.064 A 
ATOM     80  C   UNL A   1      40.123  35.223  36.963  1.00  0.00     0.173 A 
ATOM     81  C   UNL A   1      38.735  33.577  38.023  1.00  0.00     0.173 A 
ATOM     82  F   UNL A   1      40.873  35.637  35.931  1.00  0.00    -0.203 F 
ATOM     83  C   UNL A   1      40.030  36.030  38.094  1.00  0.00     0.198 A 
ATOM     84  C   UNL A   1      38.615  34.400  39.141  1.00  0.00     0.198 A 
ATOM     85  F   UNL A   1      38.103  32.395  38.021  1.00  0.00    -0.203 F 
ATOM     86  F   UNL A   1      40.690  37.195  38.139  1.00  0.00    -0.200 F 
ATOM     87  C   UNL A   1      39.271  35.622  39.180  1.00  0.00     0.200 A 
ATOM     88  F   UNL A   1      37.868  34.009  40.182  1.00  0.00    -0.200 F 
ATOM     89  F   UNL A   1      39.178  36.400  40.267  1.00  0.00    -0.200 F 
ENDBRANCH  55  79
BRANCH  67  90
ATOM     90  C   UNL A   1      43.789  28.735  35.276  1.00  0.00     0.064 A 
ATOM     91  C   UNL A   1      45.106  29.178  35.087  1.00  0.00     0.173 A 
ATOM     92  C   UNL A   1      43.570  27.702  36.200  1.00  0.00     0.173 A 
ATOM     93  F   UNL A   1      45.372  30.152  34.204  1.00  0.00    -0.203 F 
ATOM     94  C   UNL A   1      46.165  28.590  35.775  1.00  0.00     0.198 A 
ATOM     95  C   UNL A   1      44.626  27.140  36.912  1.00  0.00     0.198 A 
ATOM     96  F   UNL A   1      42.329  27.246  36.425  1.00  0.00    -0.203 F 
ATOM     97  F   UNL A   1      47.421  28.992  35.540  1.00  0.00    -0.200 F 
ATOM     98  C   UNL A   1      45.922  27.578  36.693  1.00  0.00     0.200 A 
ATOM     99  F   UNL A   1      44.388  26.175  37.812  1.00  0.00    -0.200 F 
ATOM    100  F   UNL A   1      46.942  27.021  37.362  1.00  0.00    -0.200 F 
ENDBRANCH  67  90
ENDBRANCH  41  42
ENDBRANCH  33  36
ENDBRANCH  31  32
ENDBRANCH  30  31
ENDBRANCH   1  30
TORSDOF 14
ENDMDL
MODEL 2
REMARK VINA RESULT:     -13.7      0.192      1.544
REMARK SMILES CCc1ccc(-c2cc(Cl)cc3c2O[C@H](C(F)(F)F)C(C(=O)NCCCCNC(=O)c2ccc(-c4c5nc(c(-c6c(F)c(F)c(F)c(F)c6F)c6ccc([nH]6)c(-c6c(F)c(F)c(F)c(F)c6F)c6nc(c(-c7c(F)c(F)c(F)c(F)c7F)c7ccc4[nH]7)C=C6)C=C5)cc2)=C3)cc1
REMARK SMILES IDX 25 1 24 2 23 3 21 4 22 5 20 7 7 8 8 9 13 10 9 11 12 12 14 13
REMARK SMILES IDX 10 14 11 15 94 16 15 17 6 18 3 19 4 20 96 21 5 22 95 23 2 24
REMARK SMILES IDX 1 25 16 26 17 27 18 28 19 29 26 30 27 31 28 32 29 33 30 35
REMARK SMILES IDX 31 36 32 37 93 38 33 39 92 40 34 41 35 42 36 43 86 44 37 45
REMARK SMILES IDX 91 46 85 47 87 48 38 49 90 50 84 51 83 52 39 54 71 55 51 56
REMARK SMILES IDX 70 57 52 58 55 59 69 60 88 61 53 62 54 63 68 65 89 66 56 67
REMARK SMILES IDX 40 68 41 69 49 70 42 71 43 72 47 73 50 74 44 75 45 76 48 77
REMARK SMILES IDX 46 78 72 79 73 80 81 81 74 82 75 83 79 84 82 85 76 86 77 87
REMARK SMILES IDX 80 88 78 89 57 90 58 91 66 92 59 93 60 94 64 95 67 96 61 97
REMARK SMILES IDX 62 98 65 99 63 100
REMARK H PARENT 23 6 28 34 87 53 55 64
REMARK Flexibility Score: inf
ROOT
ATOM      1  C   UNL A   1      31.451  30.699  26.327  1.00  0.00     0.023 C 
ENDROOT
BRANCH   1   2
ATOM      2  C   UNL A   1      32.784  30.137  25.813  1.00  0.00     0.116 C 
BRANCH   2   3
ATOM      3  N   UNL A   1      33.024  28.843  26.411  1.00  0.00    -0.352 N 
ATOM      4  C   UNL A   1      32.438  27.650  26.166  1.00  0.00     0.251 C 
ATOM      5  O   UNL A   1      32.372  26.850  27.093  1.00  0.00    -0.270 OA
ATOM      6  H   UNL A   1      33.725  28.828  27.103  1.00  0.00     0.163 HD
BRANCH   4   7
ATOM      7  C   UNL A   1      32.026  27.317  24.769  1.00  0.00     0.067 C 
ATOM      8  C   UNL A   1      32.880  23.325  24.722  1.00  0.00     0.026 A 
ATOM      9  C   UNL A   1      34.139  23.181  25.362  1.00  0.00     0.033 A 
ATOM     10  C   UNL A   1      32.508  24.638  24.375  1.00  0.00     0.135 A 
ATOM     11  C   UNL A   1      35.054  24.227  25.455  1.00  0.00     0.042 A 
ATOM     12  C   UNL A   1      33.496  25.653  24.359  1.00  0.00     0.019 A 
ATOM     13  O   UNL A   1      31.201  25.015  24.098  1.00  0.00    -0.475 OA
ATOM     14  Cl  UNL A   1      36.553  23.983  26.258  1.00  0.00    -0.084 Cl
ATOM     15  C   UNL A   1      34.771  25.448  24.875  1.00  0.00     0.032 A 
ATOM     16  C   UNL A   1      33.075  27.020  23.976  1.00  0.00     0.025 C 
ATOM     17  C   UNL A   1      30.840  26.361  24.646  1.00  0.00     0.314 C 
BRANCH   8  18
ATOM     18  C   UNL A   1      32.276  22.046  24.252  1.00  0.00    -0.015 A 
ATOM     19  C   UNL A   1      32.315  19.431  23.085  1.00  0.00    -0.048 A 
ATOM     20  C   UNL A   1      32.366  19.595  24.471  1.00  0.00     0.004 A 
ATOM     21  C   UNL A   1      32.092  20.577  22.305  1.00  0.00     0.004 A 
ATOM     22  C   UNL A   1      32.329  20.880  25.046  1.00  0.00     0.009 A 
ATOM     23  C   UNL A   1      32.066  21.861  22.877  1.00  0.00     0.009 A 
BRANCH  19  24
ATOM     24  C   UNL A   1      32.481  18.096  22.386  1.00  0.00     0.032 C 
ATOM     25  C   UNL A   1      33.337  17.037  23.079  1.00  0.00     0.009 C 
ENDBRANCH  19  24
ENDBRANCH   8  18
BRANCH  17  26
ATOM     26  C   UNL A   1      29.751  27.052  23.792  1.00  0.00     0.429 C 
ATOM     27  F   UNL A   1      28.524  26.514  23.969  1.00  0.00    -0.167 F 
ATOM     28  F   UNL A   1      29.667  28.374  24.080  1.00  0.00    -0.167 F 
ATOM     29  F   UNL A   1      30.014  26.977  22.459  1.00  0.00    -0.167 F 
ENDBRANCH  17  26
ENDBRANCH   4   7
ENDBRANCH   2   3
ENDBRANCH   1   2
BRANCH   1  30
ATOM     30  C   UNL A   1      31.406  32.224  26.507  1.00  0.00     0.023 C 
BRANCH  30  31
ATOM     31  C   UNL A   1      32.557  32.807  27.316  1.00  0.00     0.116 C 
BRANCH  31  32
ATOM     32  N   UNL A   1      32.345  34.213  27.625  1.00  0.00    -0.352 N 
ATOM     33  C   UNL A   1      32.953  34.994  28.574  1.00  0.00     0.251 C 
ATOM     34  H   UNL A   1      31.668  34.668  27.074  1.00  0.00     0.163 HD
ATOM     35  O   UNL A   1      32.504  36.109  28.835  1.00  0.00    -0.269 OA
BRANCH  33  36
ATOM     36  C   UNL A   1      34.133  34.487  29.306  1.00  0.00     0.039 A 
ATOM     37  C   UNL A   1      33.955  33.930  30.574  1.00  0.00     0.014 A 
ATOM     38  C   UNL A   1      35.411  34.561  28.743  1.00  0.00     0.014 A 
ATOM     39  C   UNL A   1      35.048  33.383  31.249  1.00  0.00     0.010 A 
ATOM     40  C   UNL A   1      36.485  33.947  29.384  1.00  0.00     0.010 A 
ATOM     41  C   UNL A   1      36.316  33.352  30.643  1.00  0.00    -0.014 A 
BRANCH  41  42
ATOM     42  C   UNL A   1      37.470  32.692  31.307  1.00  0.00     0.031 A 
ATOM     43  C   UNL A   1      38.177  31.545  30.638  1.00  0.00     0.074 A 
ATOM     44  C   UNL A   1      37.840  33.082  32.543  1.00  0.00     0.049 A 
ATOM     45  N   UNL A   1      39.157  30.801  31.086  1.00  0.00    -0.248 NA
ATOM     46  C   UNL A   1      37.702  31.167  29.299  1.00  0.00     0.031 C 
ATOM     47  C   UNL A   1      37.205  34.150  33.316  1.00  0.00     0.029 A 
ATOM     48  N   UNL A   1      38.834  32.620  33.369  1.00  0.00    -0.354 N 
ATOM     49  C   UNL A   1      39.406  29.864  30.091  1.00  0.00     0.074 A 
ATOM     50  C   UNL A   1      38.436  30.096  29.043  1.00  0.00     0.031 C 
ATOM     51  C   UNL A   1      37.838  34.276  34.494  1.00  0.00     0.029 A 
ATOM     52  C   UNL A   1      38.894  33.272  34.577  1.00  0.00     0.049 A 
ATOM     53  H   UNL A   1      39.446  31.890  33.120  1.00  0.00     0.167 HD
ATOM     54  C   UNL A   1      40.369  28.914  30.048  1.00  0.00     0.037 A 
ATOM     55  C   UNL A   1      39.702  33.075  35.637  1.00  0.00     0.037 A 
ATOM     56  C   UNL A   1      41.343  28.698  31.087  1.00  0.00     0.049 A 
ATOM     57  C   UNL A   1      40.752  31.998  35.569  1.00  0.00     0.074 A 
ATOM     58  C   UNL A   1      42.395  27.799  31.110  1.00  0.00     0.029 A 
ATOM     59  N   UNL A   1      41.378  29.385  32.291  1.00  0.00    -0.354 N 
ATOM     60  N   UNL A   1      41.025  31.168  34.593  1.00  0.00    -0.248 NA
ATOM     61  C   UNL A   1      41.610  31.837  36.752  1.00  0.00     0.031 C 
ATOM     62  C   UNL A   1      43.031  27.902  32.352  1.00  0.00     0.029 A 
ATOM     63  C   UNL A   1      42.416  28.910  33.077  1.00  0.00     0.049 A 
ATOM     64  H   UNL A   1      40.757  30.104  32.550  1.00  0.00     0.167 HD
ATOM     65  C   UNL A   1      42.102  30.408  35.029  1.00  0.00     0.074 A 
ATOM     66  C   UNL A   1      42.444  30.888  36.351  1.00  0.00     0.031 C 
ATOM     67  C   UNL A   1      42.751  29.403  34.390  1.00  0.00     0.037 A 
BRANCH  54  68
ATOM     68  C   UNL A   1      40.419  28.028  28.834  1.00  0.00     0.064 A 
ATOM     69  C   UNL A   1      41.152  28.385  27.691  1.00  0.00     0.173 A 
ATOM     70  C   UNL A   1      39.759  26.791  28.826  1.00  0.00     0.173 A 
ATOM     71  F   UNL A   1      41.794  29.562  27.640  1.00  0.00    -0.203 F 
ATOM     72  C   UNL A   1      41.194  27.551  26.576  1.00  0.00     0.198 A 
ATOM     73  C   UNL A   1      39.832  25.944  27.724  1.00  0.00     0.198 A 
ATOM     74  F   UNL A   1      39.049  26.396  29.895  1.00  0.00    -0.203 F 
ATOM     75  F   UNL A   1      41.856  27.938  25.477  1.00  0.00    -0.200 F 
ATOM     76  C   UNL A   1      40.541  26.328  26.597  1.00  0.00     0.200 A 
ATOM     77  F   UNL A   1      39.213  24.755  27.751  1.00  0.00    -0.200 F 
ATOM     78  F   UNL A   1      40.591  25.523  25.526  1.00  0.00    -0.200 F 
ENDBRANCH  54  68
BRANCH  55  79
ATOM     79  C   UNL A   1      39.562  33.927  36.848  1.00  0.00     0.064 A 
ATOM     80  C   UNL A   1      38.788  33.507  37.939  1.00  0.00     0.173 A 
ATOM     81  C   UNL A   1      40.189  35.178  36.938  1.00  0.00     0.173 A 
ATOM     82  F   UNL A   1      38.151  32.327  37.894  1.00  0.00    -0.203 F 
ATOM     83  C   UNL A   1      38.625  34.317  39.061  1.00  0.00     0.198 A 
ATOM     84  C   UNL A   1      40.051  35.973  38.074  1.00  0.00     0.198 A 
ATOM     85  F   UNL A   1      40.946  35.625  35.925  1.00  0.00    -0.203 F 
ATOM     86  F   UNL A   1      37.835  33.914  40.066  1.00  0.00    -0.200 F 
ATOM     87  C   UNL A   1      39.261  35.547  39.131  1.00  0.00     0.200 A 
ATOM     88  F   UNL A   1      40.682  37.153  38.144  1.00  0.00    -0.200 F 
ATOM     89  F   UNL A   1      39.107  36.324  40.211  1.00  0.00    -0.200 F 
ENDBRANCH  55  79
BRANCH  67  90
ATOM     90  C   UNL A   1      43.922  28.778  35.094  1.00  0.00     0.064 A 
ATOM     91  C   UNL A   1      43.776  27.654  35.920  1.00  0.00     0.173 A 
ATOM     92  C   UNL A   1      45.215  29.291  34.907  1.00  0.00     0.173 A 
ATOM     93  F   UNL A   1      42.560  27.134  36.144  1.00  0.00    -0.203 F 
ATOM     94  C   UNL A   1      44.876  27.084  36.555  1.00  0.00     0.198 A 
ATOM     95  C   UNL A   1      46.318  28.698  35.516  1.00  0.00     0.198 A 
ATOM     96  F   UNL A   1      45.413  30.360  34.121  1.00  0.00    -0.203 F 
ATOM     97  F   UNL A   1      44.706  26.043  37.382  1.00  0.00    -0.200 F 
ATOM     98  C   UNL A   1      46.147  27.601  36.346  1.00  0.00     0.200 A 
ATOM     99  F   UNL A   1      47.547  29.188  35.299  1.00  0.00    -0.200 F 
ATOM    100  F   UNL A   1      47.205  27.045  36.951  1.00  0.00    -0.200 F 
ENDBRANCH  67  90
ENDBRANCH  41  42
ENDBRANCH  33  36
ENDBRANCH  31  32
ENDBRANCH  30  31
ENDBRANCH   1  30
TORSDOF 14
ENDMDL
MODEL 3
REMARK VINA RESULT:     -13.5      0.678      6.982
REMARK SMILES CCc1ccc(-c2cc(Cl)cc3c2O[C@H](C(F)(F)F)C(C(=O)NCCCCNC(=O)c2ccc(-c4c5nc(c(-c6c(F)c(F)c(F)c(F)c6F)c6ccc([nH]6)c(-c6c(F)c(F)c(F)c(F)c6F)c6nc(c(-c7c(F)c(F)c(F)c(F)c7F)c7ccc4[nH]7)C=C6)C=C5)cc2)=C3)cc1
REMARK SMILES IDX 25 1 24 2 23 3 21 4 22 5 20 7 7 8 8 9 13 10 9 11 12 12 14 13
REMARK SMILES IDX 10 14 11 15 94 16 15 17 6 18 3 19 4 20 96 21 5 22 95 23 2 24
REMARK SMILES IDX 1 25 16 26 17 27 18 28 19 29 26 30 27 31 28 32 29 33 30 35
REMARK SMILES IDX 31 36 32 37 93 38 33 39 92 40 34 41 35 42 36 43 86 44 37 45
REMARK SMILES IDX 91 46 85 47 87 48 38 49 90 50 84 51 83 52 39 54 71 55 51 56
REMARK SMILES IDX 70 57 52 58 55 59 69 60 88 61 53 62 54 63 68 65 89 66 56 67
REMARK SMILES IDX 40 68 41 69 49 70 42 71 43 72 47 73 50 74 44 75 45 76 48 77
REMARK SMILES IDX 46 78 72 79 73 80 81 81 74 82 75 83 79 84 82 85 76 86 77 87
REMARK SMILES IDX 80 88 78 89 57 90 58 91 66 92 59 93 60 94 64 95 67 96 61 97
REMARK SMILES IDX 62 98 65 99 63 100
REMARK H PARENT 23 6 28 34 87 53 55 64
REMARK Flexibility Score: inf
ROOT
ATOM      1  C   UNL A   1      31.443  30.629  26.155  1.00  0.00     0.023 C 
ENDROOT
BRANCH   1   2
ATOM      2  C   UNL A   1      32.834  30.082  25.807  1.00  0.00     0.116 C 
BRANCH   2   3
ATOM      3  N   UNL A   1      33.019  28.795  26.440  1.00  0.00    -0.352 N 
ATOM      4  C   UNL A   1      32.410  27.614  26.200  1.00  0.00     0.251 C 
ATOM      5  O   UNL A   1      32.290  26.836  27.140  1.00  0.00    -0.270 OA
ATOM      6  H   UNL A   1      33.695  28.777  27.156  1.00  0.00     0.163 HD
BRANCH   4   7
ATOM      7  C   UNL A   1      32.036  27.261  24.796  1.00  0.00     0.067 C 
ATOM      8  C   UNL A   1      32.894  23.270  24.825  1.00  0.00     0.026 A 
ATOM      9  C   UNL A   1      34.135  23.136  25.502  1.00  0.00     0.033 A 
ATOM     10  C   UNL A   1      32.531  24.578  24.451  1.00  0.00     0.135 A 
ATOM     11  C   UNL A   1      35.046  24.185  25.607  1.00  0.00     0.042 A 
ATOM     12  C   UNL A   1      33.518  25.594  24.449  1.00  0.00     0.019 A 
ATOM     13  O   UNL A   1      31.231  24.950  24.133  1.00  0.00    -0.475 OA
ATOM     14  Cl  UNL A   1      36.523  23.952  26.454  1.00  0.00    -0.084 Cl
ATOM     15  C   UNL A   1      34.779  25.397  25.002  1.00  0.00     0.032 A 
ATOM     16  C   UNL A   1      33.107  26.955  24.036  1.00  0.00     0.025 C 
ATOM     17  C   UNL A   1      30.855  26.303  24.653  1.00  0.00     0.314 C 
BRANCH   8  18
ATOM     18  C   UNL A   1      32.303  21.985  24.356  1.00  0.00    -0.015 A 
ATOM     19  C   UNL A   1      32.374  19.363  23.207  1.00  0.00    -0.048 A 
ATOM     20  C   UNL A   1      32.405  19.536  24.593  1.00  0.00     0.004 A 
ATOM     21  C   UNL A   1      32.155  20.501  22.417  1.00  0.00     0.004 A 
ATOM     22  C   UNL A   1      32.353  20.825  25.158  1.00  0.00     0.009 A 
ATOM     23  C   UNL A   1      32.114  21.789  22.979  1.00  0.00     0.009 A 
BRANCH  19  24
ATOM     24  C   UNL A   1      32.558  18.024  22.519  1.00  0.00     0.032 C 
ATOM     25  C   UNL A   1      33.580  17.058  23.115  1.00  0.00     0.009 C 
ENDBRANCH  19  24
ENDBRANCH   8  18
BRANCH  17  26
ATOM     26  C   UNL A   1      29.789  26.982  23.760  1.00  0.00     0.429 C 
ATOM     27  F   UNL A   1      28.562  26.433  23.896  1.00  0.00    -0.167 F 
ATOM     28  F   UNL A   1      29.684  28.303  24.041  1.00  0.00    -0.167 F 
ATOM     29  F   UNL A   1      30.099  26.905  22.437  1.00  0.00    -0.167 F 
ENDBRANCH  17  26
ENDBRANCH   4   7
ENDBRANCH   2   3
ENDBRANCH   1   2
BRANCH   1  30
ATOM     30  C   UNL A   1      31.392  32.125  26.505  1.00  0.00     0.023 C 
BRANCH  30  31
ATOM     31  C   UNL A   1      32.631  32.659  27.212  1.00  0.00     0.116 C 
BRANCH  31  32
ATOM     32  N   UNL A   1      32.464  34.043  27.625  1.00  0.00    -0.352 N 
ATOM     33  C   UNL A   1      33.092  34.730  28.633  1.00  0.00     0.251 C 
ATOM     34  H   UNL A   1      31.806  34.562  27.107  1.00  0.00     0.163 HD
ATOM     35  O   UNL A   1      32.680  35.837  28.975  1.00  0.00    -0.269 OA
BRANCH  33  36
ATOM     36  C   UNL A   1      34.250  34.129  29.330  1.00  0.00     0.039 A 
ATOM     37  C   UNL A   1      34.031  33.397  30.499  1.00  0.00     0.014 A 
ATOM     38  C   UNL A   1      35.546  34.288  28.830  1.00  0.00     0.014 A 
ATOM     39  C   UNL A   1      35.104  32.766  31.130  1.00  0.00     0.010 A 
ATOM     40  C   UNL A   1      36.602  33.594  29.417  1.00  0.00     0.010 A 
ATOM     41  C   UNL A   1      36.393  32.825  30.573  1.00  0.00    -0.014 A 
BRANCH  41  42
ATOM     42  C   UNL A   1      37.529  32.083  31.179  1.00  0.00     0.031 A 
ATOM     43  C   UNL A   1      38.016  32.437  32.558  1.00  0.00     0.074 A 
ATOM     44  C   UNL A   1      38.164  31.135  30.463  1.00  0.00     0.049 A 
ATOM     45  N   UNL A   1      39.031  31.950  33.228  1.00  0.00    -0.248 NA
ATOM     46  C   UNL A   1      37.282  33.495  33.267  1.00  0.00     0.031 C 
ATOM     47  C   UNL A   1      37.816  30.733  29.100  1.00  0.00     0.029 A 
ATOM     48  N   UNL A   1      39.240  30.343  30.779  1.00  0.00    -0.354 N 
ATOM     49  C   UNL A   1      39.063  32.650  34.427  1.00  0.00     0.074 A 
ATOM     50  C   UNL A   1      38.003  33.634  34.369  1.00  0.00     0.031 C 
ATOM     51  C   UNL A   1      38.648  29.756  28.704  1.00  0.00     0.029 A 
ATOM     52  C   UNL A   1      39.613  29.492  29.767  1.00  0.00     0.049 A 
ATOM     53  H   UNL A   1      39.701  30.381  31.648  1.00  0.00     0.167 HD
ATOM     54  C   UNL A   1      39.886  32.473  35.487  1.00  0.00     0.037 A 
ATOM     55  C   UNL A   1      40.626  28.606  29.699  1.00  0.00     0.037 A 
ATOM     56  C   UNL A   1      40.929  31.481  35.547  1.00  0.00     0.049 A 
ATOM     57  C   UNL A   1      41.538  28.443  30.885  1.00  0.00     0.074 A 
ATOM     58  C   UNL A   1      41.778  31.184  36.598  1.00  0.00     0.029 A 
ATOM     59  N   UNL A   1      41.270  30.630  34.506  1.00  0.00    -0.354 N 
ATOM     60  N   UNL A   1      41.511  29.058  32.042  1.00  0.00    -0.248 NA
ATOM     61  C   UNL A   1      42.619  27.455  30.757  1.00  0.00     0.031 C 
ATOM     62  C   UNL A   1      42.670  30.194  36.175  1.00  0.00     0.029 A 
ATOM     63  C   UNL A   1      42.336  29.828  34.881  1.00  0.00     0.049 A 
ATOM     64  H   UNL A   1      40.822  30.601  33.629  1.00  0.00     0.167 HD
ATOM     65  C   UNL A   1      42.548  28.513  32.788  1.00  0.00     0.074 A 
ATOM     66  C   UNL A   1      43.173  27.505  31.960  1.00  0.00     0.031 C 
ATOM     67  C   UNL A   1      42.945  28.821  34.048  1.00  0.00     0.037 A 
BRANCH  54  68
ATOM     68  C   UNL A   1      39.695  33.373  36.676  1.00  0.00     0.064 A 
ATOM     69  C   UNL A   1      40.354  34.608  36.778  1.00  0.00     0.173 A 
ATOM     70  C   UNL A   1      38.812  33.017  37.706  1.00  0.00     0.173 A 
ATOM     71  F   UNL A   1      41.217  34.995  35.826  1.00  0.00    -0.203 F 
ATOM     72  C   UNL A   1      40.162  35.436  37.882  1.00  0.00     0.198 A 
ATOM     73  C   UNL A   1      38.595  33.862  38.791  1.00  0.00     0.198 A 
ATOM     74  F   UNL A   1      38.150  31.851  37.656  1.00  0.00    -0.203 F 
ATOM     75  F   UNL A   1      40.844  36.585  37.982  1.00  0.00    -0.200 F 
ATOM     76  C   UNL A   1      39.277  35.065  38.883  1.00  0.00     0.200 A 
ATOM     77  F   UNL A   1      37.728  33.509  39.750  1.00  0.00    -0.200 F 
ATOM     78  F   UNL A   1      39.086  35.867  39.940  1.00  0.00    -0.200 F 
ENDBRANCH  54  68
BRANCH  55  79
ATOM     79  C   UNL A   1      40.822  27.792  28.470  1.00  0.00     0.064 A 
ATOM     80  C   UNL A   1      41.634  28.252  27.422  1.00  0.00     0.173 A 
ATOM     81  C   UNL A   1      40.199  26.546  28.311  1.00  0.00     0.173 A 
ATOM     82  F   UNL A   1      42.236  29.447  27.518  1.00  0.00    -0.203 F 
ATOM     83  C   UNL A   1      41.792  27.510  26.254  1.00  0.00     0.198 A 
ATOM     84  C   UNL A   1      40.384  25.790  27.155  1.00  0.00     0.198 A 
ATOM     85  F   UNL A   1      39.417  26.057  29.285  1.00  0.00    -0.203 F 
ATOM     86  F   UNL A   1      42.529  27.998  25.248  1.00  0.00    -0.200 F 
ATOM     87  C   UNL A   1      41.173  26.276  26.123  1.00  0.00     0.200 A 
ATOM     88  F   UNL A   1      39.797  24.591  27.040  1.00  0.00    -0.200 F 
ATOM     89  F   UNL A   1      41.328  25.561  25.001  1.00  0.00    -0.200 F 
ENDBRANCH  55  79
BRANCH  67  90
ATOM     90  C   UNL A   1      44.086  28.031  34.625  1.00  0.00     0.064 A 
ATOM     91  C   UNL A   1      45.414  28.470  34.527  1.00  0.00     0.173 A 
ATOM     92  C   UNL A   1      43.839  26.837  35.319  1.00  0.00     0.173 A 
ATOM     93  F   UNL A   1      45.705  29.598  33.861  1.00  0.00    -0.203 F 
ATOM     94  C   UNL A   1      46.456  27.729  35.078  1.00  0.00     0.198 A 
ATOM     95  C   UNL A   1      44.880  26.116  35.899  1.00  0.00     0.198 A 
ATOM     96  F   UNL A   1      42.587  26.374  35.450  1.00  0.00    -0.203 F 
ATOM     97  F   UNL A   1      47.723  28.140  34.926  1.00  0.00    -0.200 F 
ATOM     98  C   UNL A   1      46.187  26.557  35.771  1.00  0.00     0.200 A 
ATOM     99  F   UNL A   1      44.616  24.993  36.583  1.00  0.00    -0.200 F 
ATOM    100  F   UNL A   1      47.191  25.851  36.309  1.00  0.00    -0.200 F 
ENDBRANCH  67  90
ENDBRANCH  41  42
ENDBRANCH  33  36
ENDBRANCH  31  32
ENDBRANCH  30  31
ENDBRANCH   1  30
TORSDOF 14
ENDMDL
