MODEL 1
REMARK VINA RESULT:     -13.6      0.000      0.000
REMARK SMILES COc1ccc(NC(=O)N[C@@H]2C=C[C@H](C(=O)NCCCCNC(=O)c3ccc(-c4c5nc(c(-c6c(F)c(F)c(F)c(F)c6F)c6ccc([nH]6)c(-c6c(F)c(F)c(F)c(F)c6F)c6nc(c(-c7c(F)c(F)c(F)c(F)c7F)c7ccc4[nH]7)C=C6)C=C5)cc3)C2)c(C)c1
REMARK SMILES IDX 19 1 18 2 17 3 15 4 16 5 14 7 11 8 12 9 88 10 13 11 10 12
REMARK SMILES IDX 7 13 8 14 9 16 6 18 3 19 4 20 91 21 5 22 89 23 90 24 2 25
REMARK SMILES IDX 1 26 20 27 21 28 22 29 23 30 24 32 25 33 26 34 87 35 27 36
REMARK SMILES IDX 86 37 28 38 29 39 30 40 80 41 31 42 85 43 79 44 81 45 32 46
REMARK SMILES IDX 84 47 78 48 77 49 33 51 65 52 45 53 64 54 46 55 49 56 63 57
REMARK SMILES IDX 82 58 47 59 48 60 62 62 83 63 50 64 34 65 35 66 43 67 36 68
REMARK SMILES IDX 37 69 41 70 44 71 38 72 39 73 42 74 40 75 66 76 67 77 75 78
REMARK SMILES IDX 68 79 69 80 73 81 76 82 70 83 71 84 74 85 72 86 51 87 52 88
REMARK SMILES IDX 60 89 53 90 54 91 58 92 61 93 55 94 56 95 59 96 57 97
REMARK H PARENT 17 6 7 15 10 17 22 31 81 50 49 61
REMARK Flexibility Score: inf
ROOT
ATOM      1  C   UNL A   1      36.821  22.574  23.992  1.00  0.00     0.023 C 
ENDROOT
BRANCH   1   2
ATOM      2  C   UNL A   1      35.367  22.090  23.999  1.00  0.00     0.116 C 
BRANCH   2   3
ATOM      3  N   UNL A   1      34.924  21.624  25.295  1.00  0.00    -0.356 N 
ATOM      4  C   UNL A   1      33.983  22.039  26.170  1.00  0.00     0.227 C 
ATOM      5  O   UNL A   1      33.834  21.294  27.153  1.00  0.00    -0.274 OA
ATOM      6  H   UNL A   1      35.415  20.830  25.607  1.00  0.00     0.163 HD
BRANCH   4   7
ATOM      7  C   UNL A   1      33.121  23.308  26.071  1.00  0.00     0.103 C 
ATOM      8  C   UNL A   1      32.700  24.994  24.292  1.00  0.00     0.107 C 
ATOM      9  C   UNL A   1      33.877  25.350  25.136  1.00  0.00    -0.006 C 
ATOM     10  C   UNL A   1      32.206  23.667  24.895  1.00  0.00     0.047 C 
ATOM     11  C   UNL A   1      34.071  24.475  26.124  1.00  0.00    -0.016 C 
BRANCH   8  12
ATOM     12  N   UNL A   1      33.114  24.941  22.902  1.00  0.00    -0.332 N 
ATOM     13  N   UNL A   1      32.545  27.035  21.892  1.00  0.00    -0.308 N 
ATOM     14  C   UNL A   1      33.021  25.773  21.846  1.00  0.00     0.319 C 
ATOM     15  H   UNL A   1      32.259  27.378  21.016  1.00  0.00     0.171 HD
ATOM     16  O   UNL A   1      33.280  25.294  20.737  1.00  0.00    -0.248 OA
ATOM     17  H   UNL A   1      33.572  24.098  22.678  1.00  0.00     0.165 HD
BRANCH  13  18
ATOM     18  C   UNL A   1      32.376  27.955  22.935  1.00  0.00     0.046 A 
ATOM     19  C   UNL A   1      32.155  29.371  25.336  1.00  0.00     0.119 A 
ATOM     20  C   UNL A   1      33.378  29.302  24.683  1.00  0.00     0.048 A 
ATOM     21  C   UNL A   1      31.012  28.912  24.680  1.00  0.00     0.052 A 
ATOM     22  C   UNL A   1      33.472  28.627  23.468  1.00  0.00     0.030 A 
ATOM     23  C   UNL A   1      31.099  28.221  23.456  1.00  0.00    -0.024 A 
ATOM     24  C   UNL A   1      29.816  27.870  22.754  1.00  0.00     0.047 C 
BRANCH  19  25
ATOM     25  O   UNL A   1      31.964  29.899  26.581  1.00  0.00    -0.497 OA
ATOM     26  C   UNL A   1      33.100  30.562  27.136  1.00  0.00     0.278 C 
ENDBRANCH  19  25
ENDBRANCH  13  18
ENDBRANCH   8  12
ENDBRANCH   4   7
ENDBRANCH   2   3
ENDBRANCH   1   2
BRANCH   1  27
ATOM     27  C   UNL A   1      37.776  21.848  24.941  1.00  0.00     0.023 C 
BRANCH  27  28
ATOM     28  C   UNL A   1      38.217  22.682  26.131  1.00  0.00     0.116 C 
BRANCH  28  29
ATOM     29  N   UNL A   1      39.647  22.685  26.404  1.00  0.00    -0.352 N 
ATOM     30  C   UNL A   1      40.506  23.758  26.621  1.00  0.00     0.251 C 
ATOM     31  H   UNL A   1      40.069  21.795  26.438  1.00  0.00     0.163 HD
ATOM     32  O   UNL A   1      41.703  23.578  26.703  1.00  0.00    -0.269 OA
BRANCH  30  33
ATOM     33  C   UNL A   1      39.936  25.104  26.912  1.00  0.00     0.039 A 
ATOM     34  C   UNL A   1      40.427  26.193  26.178  1.00  0.00     0.014 A 
ATOM     35  C   UNL A   1      39.151  25.326  28.034  1.00  0.00     0.014 A 
ATOM     36  C   UNL A   1      40.376  27.469  26.734  1.00  0.00     0.010 A 
ATOM     37  C   UNL A   1      39.229  26.553  28.655  1.00  0.00     0.010 A 
ATOM     38  C   UNL A   1      39.902  27.609  28.036  1.00  0.00    -0.014 A 
BRANCH  38  39
ATOM     39  C   UNL A   1      40.171  28.765  28.881  1.00  0.00     0.031 A 
ATOM     40  C   UNL A   1      39.140  29.806  29.076  1.00  0.00     0.074 A 
ATOM     41  C   UNL A   1      41.309  28.790  29.613  1.00  0.00     0.049 A 
ATOM     42  N   UNL A   1      39.391  30.993  29.513  1.00  0.00    -0.248 NA
ATOM     43  C   UNL A   1      37.727  29.599  28.768  1.00  0.00     0.031 C 
ATOM     44  C   UNL A   1      41.608  29.645  30.760  1.00  0.00     0.029 A 
ATOM     45  N   UNL A   1      42.523  28.130  29.351  1.00  0.00    -0.354 N 
ATOM     46  C   UNL A   1      38.190  31.604  29.786  1.00  0.00     0.074 A 
ATOM     47  C   UNL A   1      37.180  30.710  29.269  1.00  0.00     0.031 C 
ATOM     48  C   UNL A   1      42.939  29.702  30.928  1.00  0.00     0.029 A 
ATOM     49  C   UNL A   1      43.539  29.007  29.803  1.00  0.00     0.049 A 
ATOM     50  H   UNL A   1      42.643  27.244  28.939  1.00  0.00     0.167 HD
ATOM     51  C   UNL A   1      38.173  32.747  30.525  1.00  0.00     0.037 A 
ATOM     52  C   UNL A   1      44.443  29.557  28.942  1.00  0.00     0.037 A 
ATOM     53  C   UNL A   1      39.521  33.177  30.868  1.00  0.00     0.049 A 
ATOM     54  C   UNL A   1      44.413  31.068  28.911  1.00  0.00     0.074 A 
ATOM     55  C   UNL A   1      40.311  32.971  31.987  1.00  0.00     0.029 A 
ATOM     56  N   UNL A   1      40.368  33.626  29.862  1.00  0.00    -0.354 N 
ATOM     57  N   UNL A   1      43.402  31.780  29.325  1.00  0.00    -0.248 NA
ATOM     58  C   UNL A   1      45.500  31.892  28.389  1.00  0.00     0.031 C 
ATOM     59  C   UNL A   1      41.654  33.246  31.632  1.00  0.00     0.029 A 
ATOM     60  C   UNL A   1      41.675  33.644  30.307  1.00  0.00     0.049 A 
ATOM     61  H   UNL A   1      40.077  33.893  28.960  1.00  0.00     0.167 HD
ATOM     62  C   UNL A   1      43.665  33.110  29.122  1.00  0.00     0.074 A 
ATOM     63  C   UNL A   1      44.997  33.130  28.548  1.00  0.00     0.031 C 
ATOM     64  C   UNL A   1      42.755  34.078  29.436  1.00  0.00     0.037 A 
BRANCH  51  65
ATOM     65  C   UNL A   1      36.923  33.306  31.147  1.00  0.00     0.064 A 
ATOM     66  C   UNL A   1      36.647  33.121  32.519  1.00  0.00     0.173 A 
ATOM     67  C   UNL A   1      35.937  34.004  30.426  1.00  0.00     0.173 A 
ATOM     68  F   UNL A   1      37.527  32.528  33.336  1.00  0.00    -0.203 F 
ATOM     69  C   UNL A   1      35.442  33.522  33.099  1.00  0.00     0.198 A 
ATOM     70  C   UNL A   1      34.710  34.357  30.994  1.00  0.00     0.198 A 
ATOM     71  F   UNL A   1      36.152  34.386  29.159  1.00  0.00    -0.203 F 
ATOM     72  F   UNL A   1      35.234  33.316  34.408  1.00  0.00    -0.200 F 
ATOM     73  C   UNL A   1      34.460  34.110  32.330  1.00  0.00     0.200 A 
ATOM     74  F   UNL A   1      33.766  34.934  30.236  1.00  0.00    -0.200 F 
ATOM     75  F   UNL A   1      33.285  34.451  32.877  1.00  0.00    -0.200 F 
ENDBRANCH  51  65
BRANCH  52  76
ATOM     76  C   UNL A   1      44.741  28.677  27.781  1.00  0.00     0.064 A 
ATOM     77  C   UNL A   1      45.535  27.535  28.008  1.00  0.00     0.173 A 
ATOM     78  C   UNL A   1      43.953  28.702  26.625  1.00  0.00     0.173 A 
ATOM     79  F   UNL A   1      46.307  27.463  29.103  1.00  0.00    -0.203 F 
ATOM     80  C   UNL A   1      45.438  26.413  27.189  1.00  0.00     0.198 A 
ATOM     81  C   UNL A   1      43.873  27.579  25.796  1.00  0.00     0.198 A 
ATOM     82  F   UNL A   1      43.163  29.753  26.364  1.00  0.00    -0.203 F 
ATOM     83  F   UNL A   1      46.107  25.295  27.507  1.00  0.00    -0.200 F 
ATOM     84  C   UNL A   1      44.582  26.425  26.101  1.00  0.00     0.200 A 
ATOM     85  F   UNL A   1      43.023  27.578  24.760  1.00  0.00    -0.200 F 
ATOM     86  F   UNL A   1      44.404  25.313  25.373  1.00  0.00    -0.200 F 
ENDBRANCH  52  76
BRANCH  64  87
ATOM     87  C   UNL A   1      42.823  35.534  29.044  1.00  0.00     0.064 A 
ATOM     88  C   UNL A   1      42.151  36.079  27.939  1.00  0.00     0.173 A 
ATOM     89  C   UNL A   1      43.458  36.473  29.895  1.00  0.00     0.173 A 
ATOM     90  F   UNL A   1      41.417  35.311  27.122  1.00  0.00    -0.203 F 
ATOM     91  C   UNL A   1      42.159  37.451  27.673  1.00  0.00     0.198 A 
ATOM     92  C   UNL A   1      43.414  37.846  29.659  1.00  0.00     0.198 A 
ATOM     93  F   UNL A   1      44.116  36.088  30.999  1.00  0.00    -0.203 F 
ATOM     94  F   UNL A   1      41.533  37.918  26.583  1.00  0.00    -0.200 F 
ATOM     95  C   UNL A   1      42.777  38.335  28.539  1.00  0.00     0.200 A 
ATOM     96  F   UNL A   1      43.972  38.691  30.537  1.00  0.00    -0.200 F 
ATOM     97  F   UNL A   1      42.739  39.653  28.306  1.00  0.00    -0.200 F 
ENDBRANCH  64  87
ENDBRANCH  38  39
ENDBRANCH  30  33
ENDBRANCH  28  29
ENDBRANCH  27  28
ENDBRANCH   1  27
TORSDOF 14
ENDMDL
MODEL 2
REMARK VINA RESULT:     -13.5      3.680     10.250
REMARK SMILES COc1ccc(NC(=O)N[C@@H]2C=C[C@H](C(=O)NCCCCNC(=O)c3ccc(-c4c5nc(c(-c6c(F)c(F)c(F)c(F)c6F)c6ccc([nH]6)c(-c6c(F)c(F)c(F)c(F)c6F)c6nc(c(-c7c(F)c(F)c(F)c(F)c7F)c7ccc4[nH]7)C=C6)C=C5)cc3)C2)c(C)c1
REMARK SMILES IDX 19 1 18 2 17 3 15 4 16 5 14 7 11 8 12 9 88 10 13 11 10 12
REMARK SMILES IDX 7 13 8 14 9 16 6 18 3 19 4 20 91 21 5 22 89 23 90 24 2 25
REMARK SMILES IDX 1 26 20 27 21 28 22 29 23 30 24 32 25 33 26 34 87 35 27 36
REMARK SMILES IDX 86 37 28 38 29 39 30 40 80 41 31 42 85 43 79 44 81 45 32 46
REMARK SMILES IDX 84 47 78 48 77 49 33 51 65 52 45 53 64 54 46 55 49 56 63 57
REMARK SMILES IDX 82 58 47 59 48 60 62 62 83 63 50 64 34 65 35 66 43 67 36 68
REMARK SMILES IDX 37 69 41 70 44 71 38 72 39 73 42 74 40 75 66 76 67 77 75 78
REMARK SMILES IDX 68 79 69 80 73 81 76 82 70 83 71 84 74 85 72 86 51 87 52 88
REMARK SMILES IDX 60 89 53 90 54 91 58 92 61 93 55 94 56 95 59 96 57 97
REMARK H PARENT 17 6 7 15 10 17 22 31 81 50 49 61
REMARK Flexibility Score: inf
ROOT
ATOM      1  C   UNL A   1      32.049  30.295  25.877  1.00  0.00     0.023 C 
ENDROOT
BRANCH   1   2
ATOM      2  C   UNL A   1      31.826  28.898  25.288  1.00  0.00     0.116 C 
BRANCH   2   3
ATOM      3  N   UNL A   1      32.615  28.644  24.102  1.00  0.00    -0.356 N 
ATOM      4  C   UNL A   1      33.008  27.523  23.460  1.00  0.00     0.227 C 
ATOM      5  O   UNL A   1      33.606  27.730  22.390  1.00  0.00    -0.274 OA
ATOM      6  H   UNL A   1      32.932  29.468  23.667  1.00  0.00     0.163 HD
BRANCH   4   7
ATOM      7  C   UNL A   1      32.804  26.071  23.920  1.00  0.00     0.103 C 
ATOM      8  C   UNL A   1      34.319  24.266  24.712  1.00  0.00     0.107 C 
ATOM      9  C   UNL A   1      34.169  24.261  23.228  1.00  0.00    -0.006 C 
ATOM     10  C   UNL A   1      33.435  25.440  25.165  1.00  0.00     0.047 C 
ATOM     11  C   UNL A   1      33.314  25.194  22.806  1.00  0.00    -0.016 C 
BRANCH   8  12
ATOM     12  N   UNL A   1      35.729  24.370  25.043  1.00  0.00    -0.332 N 
ATOM     13  N   UNL A   1      36.330  22.420  26.293  1.00  0.00    -0.308 N 
ATOM     14  C   UNL A   1      36.600  23.626  25.752  1.00  0.00     0.319 C 
ATOM     15  H   UNL A   1      36.945  22.168  27.018  1.00  0.00     0.171 HD
ATOM     16  O   UNL A   1      37.685  24.150  26.024  1.00  0.00    -0.248 OA
ATOM     17  H   UNL A   1      36.146  25.175  24.659  1.00  0.00     0.165 HD
BRANCH  13  18
ATOM     18  C   UNL A   1      35.350  21.452  26.031  1.00  0.00     0.046 A 
ATOM     19  C   UNL A   1      33.266  19.843  25.091  1.00  0.00     0.119 A 
ATOM     20  C   UNL A   1      34.558  19.644  24.626  1.00  0.00     0.048 A 
ATOM     21  C   UNL A   1      33.063  20.700  26.174  1.00  0.00     0.052 A 
ATOM     22  C   UNL A   1      35.598  20.424  25.126  1.00  0.00     0.030 A 
ATOM     23  C   UNL A   1      34.106  21.498  26.680  1.00  0.00    -0.024 A 
ATOM     24  C   UNL A   1      33.837  22.301  27.924  1.00  0.00     0.047 C 
BRANCH  19  25
ATOM     25  O   UNL A   1      32.153  19.225  24.594  1.00  0.00    -0.497 OA
ATOM     26  C   UNL A   1      32.407  18.241  23.592  1.00  0.00     0.278 C 
ENDBRANCH  19  25
ENDBRANCH  13  18
ENDBRANCH   8  12
ENDBRANCH   4   7
ENDBRANCH   2   3
ENDBRANCH   1   2
BRANCH   1  27
ATOM     27  C   UNL A   1      32.700  30.345  27.261  1.00  0.00     0.023 C 
BRANCH  27  28
ATOM     28  C   UNL A   1      34.218  30.369  27.229  1.00  0.00     0.116 C 
BRANCH  28  29
ATOM     29  N   UNL A   1      34.855  31.264  28.184  1.00  0.00    -0.352 N 
ATOM     30  C   UNL A   1      35.930  31.031  29.037  1.00  0.00     0.251 C 
ATOM     31  H   UNL A   1      34.467  32.168  28.235  1.00  0.00     0.163 HD
ATOM     32  O   UNL A   1      36.245  31.859  29.866  1.00  0.00    -0.269 OA
BRANCH  30  33
ATOM     33  C   UNL A   1      36.788  29.832  28.821  1.00  0.00     0.039 A 
ATOM     34  C   UNL A   1      36.994  28.972  29.910  1.00  0.00     0.014 A 
ATOM     35  C   UNL A   1      37.568  29.700  27.681  1.00  0.00     0.014 A 
ATOM     36  C   UNL A   1      38.153  28.201  29.960  1.00  0.00     0.010 A 
ATOM     37  C   UNL A   1      38.783  29.060  27.789  1.00  0.00     0.010 A 
ATOM     38  C   UNL A   1      39.106  28.365  28.958  1.00  0.00    -0.014 A 
BRANCH  38  39
ATOM     39  C   UNL A   1      40.501  27.967  29.087  1.00  0.00     0.031 A 
ATOM     40  C   UNL A   1      40.970  26.686  28.516  1.00  0.00     0.074 A 
ATOM     41  C   UNL A   1      41.392  28.854  29.587  1.00  0.00     0.049 A 
ATOM     42  N   UNL A   1      42.068  26.105  28.860  1.00  0.00    -0.248 NA
ATOM     43  C   UNL A   1      40.217  25.935  27.514  1.00  0.00     0.031 C 
ATOM     44  C   UNL A   1      42.849  28.806  29.480  1.00  0.00     0.029 A 
ATOM     45  N   UNL A   1      41.147  29.930  30.460  1.00  0.00    -0.354 N 
ATOM     46  C   UNL A   1      42.296  25.078  27.976  1.00  0.00     0.074 A 
ATOM     47  C   UNL A   1      41.096  24.986  27.178  1.00  0.00     0.031 C 
ATOM     48  C   UNL A   1      43.384  29.572  30.444  1.00  0.00     0.029 A 
ATOM     49  C   UNL A   1      42.291  30.013  31.291  1.00  0.00     0.049 A 
ATOM     50  H   UNL A   1      40.349  30.504  30.489  1.00  0.00     0.167 HD
ATOM     51  C   UNL A   1      43.523  24.489  27.935  1.00  0.00     0.037 A 
ATOM     52  C   UNL A   1      42.214  29.797  32.636  1.00  0.00     0.037 A 
ATOM     53  C   UNL A   1      44.415  25.051  28.939  1.00  0.00     0.049 A 
ATOM     54  C   UNL A   1      43.068  28.647  33.118  1.00  0.00     0.074 A 
ATOM     55  C   UNL A   1      45.367  26.057  28.886  1.00  0.00     0.029 A 
ATOM     56  N   UNL A   1      44.152  24.825  30.284  1.00  0.00    -0.354 N 
ATOM     57  N   UNL A   1      43.515  27.702  32.339  1.00  0.00    -0.248 NA
ATOM     58  C   UNL A   1      43.459  28.453  34.512  1.00  0.00     0.031 C 
ATOM     59  C   UNL A   1      45.635  26.476  30.212  1.00  0.00     0.029 A 
ATOM     60  C   UNL A   1      44.868  25.708  31.069  1.00  0.00     0.049 A 
ATOM     61  H   UNL A   1      43.541  24.134  30.629  1.00  0.00     0.167 HD
ATOM     62  C   UNL A   1      44.214  26.787  33.083  1.00  0.00     0.074 A 
ATOM     63  C   UNL A   1      44.165  27.309  34.435  1.00  0.00     0.031 C 
ATOM     64  C   UNL A   1      44.765  25.673  32.518  1.00  0.00     0.037 A 
BRANCH  51  65
ATOM     65  C   UNL A   1      43.972  23.600  26.807  1.00  0.00     0.064 A 
ATOM     66  C   UNL A   1      43.506  22.273  26.698  1.00  0.00     0.173 A 
ATOM     67  C   UNL A   1      44.894  23.995  25.821  1.00  0.00     0.173 A 
ATOM     68  F   UNL A   1      42.578  21.784  27.532  1.00  0.00    -0.203 F 
ATOM     69  C   UNL A   1      43.993  21.387  25.734  1.00  0.00     0.198 A 
ATOM     70  C   UNL A   1      45.421  23.094  24.892  1.00  0.00     0.198 A 
ATOM     71  F   UNL A   1      45.285  25.273  25.718  1.00  0.00    -0.203 F 
ATOM     72  F   UNL A   1      43.515  20.135  25.681  1.00  0.00    -0.200 F 
ATOM     73  C   UNL A   1      44.975  21.788  24.853  1.00  0.00     0.200 A 
ATOM     74  F   UNL A   1      46.371  23.500  24.036  1.00  0.00    -0.200 F 
ATOM     75  F   UNL A   1      45.478  20.923  23.960  1.00  0.00    -0.200 F 
ENDBRANCH  51  65
BRANCH  52  76
ATOM     76  C   UNL A   1      40.899  30.193  33.208  1.00  0.00     0.064 A 
ATOM     77  C   UNL A   1      40.616  31.569  33.314  1.00  0.00     0.173 A 
ATOM     78  C   UNL A   1      39.820  29.303  33.244  1.00  0.00     0.173 A 
ATOM     79  F   UNL A   1      41.617  32.464  33.283  1.00  0.00    -0.203 F 
ATOM     80  C   UNL A   1      39.305  32.040  33.314  1.00  0.00     0.198 A 
ATOM     81  C   UNL A   1      38.507  29.780  33.263  1.00  0.00     0.198 A 
ATOM     82  F   UNL A   1      40.025  27.983  33.131  1.00  0.00    -0.203 F 
ATOM     83  F   UNL A   1      39.070  33.360  33.282  1.00  0.00    -0.200 F 
ATOM     84  C   UNL A   1      38.251  31.145  33.257  1.00  0.00     0.200 A 
ATOM     85  F   UNL A   1      37.485  28.916  33.178  1.00  0.00    -0.200 F 
ATOM     86  F   UNL A   1      36.992  31.593  33.149  1.00  0.00    -0.200 F 
ENDBRANCH  52  76
BRANCH  64  87
ATOM     87  C   UNL A   1      45.339  24.486  33.252  1.00  0.00     0.064 A 
ATOM     88  C   UNL A   1      46.586  24.493  33.896  1.00  0.00     0.173 A 
ATOM     89  C   UNL A   1      44.548  23.329  33.467  1.00  0.00     0.173 A 
ATOM     90  F   UNL A   1      47.380  25.571  33.866  1.00  0.00    -0.203 F 
ATOM     91  C   UNL A   1      47.033  23.404  34.651  1.00  0.00     0.198 A 
ATOM     92  C   UNL A   1      44.973  22.271  34.269  1.00  0.00     0.198 A 
ATOM     93  F   UNL A   1      43.326  23.204  32.929  1.00  0.00    -0.203 F 
ATOM     94  F   UNL A   1      48.249  23.444  35.216  1.00  0.00    -0.200 F 
ATOM     95  C   UNL A   1      46.222  22.301  34.850  1.00  0.00     0.200 A 
ATOM     96  F   UNL A   1      44.152  21.235  34.494  1.00  0.00    -0.200 F 
ATOM     97  F   UNL A   1      46.636  21.283  35.615  1.00  0.00    -0.200 F 
ENDBRANCH  64  87
ENDBRANCH  38  39
ENDBRANCH  30  33
ENDBRANCH  28  29
ENDBRANCH  27  28
ENDBRANCH   1  27
TORSDOF 14
ENDMDL
MODEL 3
REMARK VINA RESULT:     -13.5      3.306      9.739
REMARK SMILES COc1ccc(NC(=O)N[C@@H]2C=C[C@H](C(=O)NCCCCNC(=O)c3ccc(-c4c5nc(c(-c6c(F)c(F)c(F)c(F)c6F)c6ccc([nH]6)c(-c6c(F)c(F)c(F)c(F)c6F)c6nc(c(-c7c(F)c(F)c(F)c(F)c7F)c7ccc4[nH]7)C=C6)C=C5)cc3)C2)c(C)c1
REMARK SMILES IDX 19 1 18 2 17 3 15 4 16 5 14 7 11 8 12 9 88 10 13 11 10 12
REMARK SMILES IDX 7 13 8 14 9 16 6 18 3 19 4 20 91 21 5 22 89 23 90 24 2 25
REMARK SMILES IDX 1 26 20 27 21 28 22 29 23 30 24 32 25 33 26 34 87 35 27 36
REMARK SMILES IDX 86 37 28 38 29 39 30 40 80 41 31 42 85 43 79 44 81 45 32 46
REMARK SMILES IDX 84 47 78 48 77 49 33 51 65 52 45 53 64 54 46 55 49 56 63 57
REMARK SMILES IDX 82 58 47 59 48 60 62 62 83 63 50 64 34 65 35 66 43 67 36 68
REMARK SMILES IDX 37 69 41 70 44 71 38 72 39 73 42 74 40 75 66 76 67 77 75 78
REMARK SMILES IDX 68 79 69 80 73 81 76 82 70 83 71 84 74 85 72 86 51 87 52 88
REMARK SMILES IDX 60 89 53 90 54 91 58 92 61 93 55 94 56 95 59 96 57 97
REMARK H PARENT 17 6 7 15 10 17 22 31 81 50 49 61
REMARK Flexibility Score: inf
ROOT
ATOM      1  C   UNL A   1      31.870  28.997  27.254  1.00  0.00     0.023 C 
ENDROOT
BRANCH   1   2
ATOM      2  C   UNL A   1      31.403  28.163  26.056  1.00  0.00     0.116 C 
BRANCH   2   3
ATOM      3  N   UNL A   1      31.822  28.706  24.781  1.00  0.00    -0.356 N 
ATOM      4  C   UNL A   1      32.329  28.165  23.653  1.00  0.00     0.227 C 
ATOM      5  O   UNL A   1      32.468  28.971  22.718  1.00  0.00    -0.274 OA
ATOM      6  H   UNL A   1      31.712  29.682  24.724  1.00  0.00     0.163 HD
BRANCH   4   7
ATOM      7  C   UNL A   1      32.747  26.703  23.433  1.00  0.00     0.103 C 
ATOM      8  C   UNL A   1      32.319  24.569  24.635  1.00  0.00     0.107 C 
ATOM      9  C   UNL A   1      33.524  25.276  25.158  1.00  0.00    -0.006 C 
ATOM     10  C   UNL A   1      31.811  25.492  23.514  1.00  0.00     0.047 C 
ATOM     11  C   UNL A   1      33.786  26.393  24.478  1.00  0.00    -0.016 C 
BRANCH   8  12
ATOM     12  N   UNL A   1      31.395  24.335  25.730  1.00  0.00    -0.332 N 
ATOM     13  N   UNL A   1      31.920  22.204  26.684  1.00  0.00    -0.308 N 
ATOM     14  C   UNL A   1      31.171  23.322  26.590  1.00  0.00     0.319 C 
ATOM     15  H   UNL A   1      31.453  21.455  27.119  1.00  0.00     0.171 HD
ATOM     16  O   UNL A   1      30.129  23.376  27.251  1.00  0.00    -0.248 OA
ATOM     17  H   UNL A   1      30.792  25.098  25.881  1.00  0.00     0.165 HD
BRANCH  13  18
ATOM     18  C   UNL A   1      33.228  21.893  26.289  1.00  0.00     0.046 A 
ATOM     19  C   UNL A   1      35.821  21.754  25.250  1.00  0.00     0.119 A 
ATOM     20  C   UNL A   1      35.604  22.319  26.499  1.00  0.00     0.048 A 
ATOM     21  C   UNL A   1      34.772  21.075  24.626  1.00  0.00     0.052 A 
ATOM     22  C   UNL A   1      34.316  22.351  27.027  1.00  0.00     0.030 A 
ATOM     23  C   UNL A   1      33.465  21.110  25.148  1.00  0.00    -0.024 A 
ATOM     24  C   UNL A   1      32.420  20.254  24.486  1.00  0.00     0.047 C 
BRANCH  19  25
ATOM     25  O   UNL A   1      37.011  21.770  24.581  1.00  0.00    -0.497 OA
ATOM     26  C   UNL A   1      38.153  21.452  25.376  1.00  0.00     0.278 C 
ENDBRANCH  19  25
ENDBRANCH  13  18
ENDBRANCH   8  12
ENDBRANCH   4   7
ENDBRANCH   2   3
ENDBRANCH   1   2
BRANCH   1  27
ATOM     27  C   UNL A   1      32.145  30.476  26.977  1.00  0.00     0.023 C 
BRANCH  27  28
ATOM     28  C   UNL A   1      33.619  30.816  26.841  1.00  0.00     0.116 C 
BRANCH  28  29
ATOM     29  N   UNL A   1      34.146  31.742  27.833  1.00  0.00    -0.352 N 
ATOM     30  C   UNL A   1      35.089  31.528  28.834  1.00  0.00     0.251 C 
ATOM     31  H   UNL A   1      33.780  32.656  27.790  1.00  0.00     0.163 HD
ATOM     32  O   UNL A   1      35.312  32.388  29.660  1.00  0.00    -0.269 OA
BRANCH  30  33
ATOM     33  C   UNL A   1      35.935  30.302  28.791  1.00  0.00     0.039 A 
ATOM     34  C   UNL A   1      36.278  29.703  30.011  1.00  0.00     0.014 A 
ATOM     35  C   UNL A   1      36.580  29.912  27.626  1.00  0.00     0.014 A 
ATOM     36  C   UNL A   1      37.447  28.950  30.097  1.00  0.00     0.010 A 
ATOM     37  C   UNL A   1      37.808  29.299  27.731  1.00  0.00     0.010 A 
ATOM     38  C   UNL A   1      38.275  28.877  28.979  1.00  0.00    -0.014 A 
BRANCH  38  39
ATOM     39  C   UNL A   1      39.682  28.502  29.031  1.00  0.00     0.031 A 
ATOM     40  C   UNL A   1      40.111  27.148  28.622  1.00  0.00     0.074 A 
ATOM     41  C   UNL A   1      40.605  29.456  29.297  1.00  0.00     0.049 A 
ATOM     42  N   UNL A   1      41.246  26.626  28.942  1.00  0.00    -0.248 NA
ATOM     43  C   UNL A   1      39.275  26.251  27.828  1.00  0.00     0.031 C 
ATOM     44  C   UNL A   1      42.044  29.390  29.056  1.00  0.00     0.029 A 
ATOM     45  N   UNL A   1      40.430  30.655  30.012  1.00  0.00    -0.354 N 
ATOM     46  C   UNL A   1      41.401  25.474  28.209  1.00  0.00     0.074 A 
ATOM     47  C   UNL A   1      40.130  25.260  27.558  1.00  0.00     0.031 C 
ATOM     48  C   UNL A   1      42.660  30.296  29.832  1.00  0.00     0.029 A 
ATOM     49  C   UNL A   1      41.648  30.865  30.704  1.00  0.00     0.049 A 
ATOM     50  H   UNL A   1      39.630  31.226  30.030  1.00  0.00     0.167 HD
ATOM     51  C   UNL A   1      42.627  24.884  28.140  1.00  0.00     0.037 A 
ATOM     52  C   UNL A   1      41.705  30.861  32.067  1.00  0.00     0.037 A 
ATOM     53  C   UNL A   1      43.604  25.595  28.952  1.00  0.00     0.049 A 
ATOM     54  C   UNL A   1      42.619  29.799  32.635  1.00  0.00     0.074 A 
ATOM     55  C   UNL A   1      44.531  26.579  28.650  1.00  0.00     0.029 A 
ATOM     56  N   UNL A   1      43.476  25.582  30.335  1.00  0.00    -0.354 N 
ATOM     57  N   UNL A   1      43.002  28.744  31.972  1.00  0.00    -0.248 NA
ATOM     58  C   UNL A   1      43.147  29.824  33.997  1.00  0.00     0.031 C 
ATOM     59  C   UNL A   1      44.922  27.200  29.862  1.00  0.00     0.029 A 
ATOM     60  C   UNL A   1      44.253  26.575  30.899  1.00  0.00     0.049 A 
ATOM     61  H   UNL A   1      42.912  24.953  30.841  1.00  0.00     0.167 HD
ATOM     62  C   UNL A   1      43.782  27.956  32.776  1.00  0.00     0.074 A 
ATOM     63  C   UNL A   1      43.858  28.682  34.029  1.00  0.00     0.031 C 
ATOM     64  C   UNL A   1      44.292  26.766  32.339  1.00  0.00     0.037 A 
BRANCH  51  65
ATOM     65  C   UNL A   1      42.976  23.831  27.125  1.00  0.00     0.064 A 
ATOM     66  C   UNL A   1      42.614  22.481  27.324  1.00  0.00     0.173 A 
ATOM     67  C   UNL A   1      43.703  24.089  25.949  1.00  0.00     0.173 A 
ATOM     68  F   UNL A   1      41.868  22.102  28.369  1.00  0.00    -0.203 F 
ATOM     69  C   UNL A   1      43.026  21.462  26.462  1.00  0.00     0.198 A 
ATOM     70  C   UNL A   1      44.161  23.064  25.116  1.00  0.00     0.198 A 
ATOM     71  F   UNL A   1      43.964  25.347  25.564  1.00  0.00    -0.203 F 
ATOM     72  F   UNL A   1      42.655  20.196  26.703  1.00  0.00    -0.200 F 
ATOM     73  C   UNL A   1      43.827  21.749  25.376  1.00  0.00     0.200 A 
ATOM     74  F   UNL A   1      44.933  23.360  24.060  1.00  0.00    -0.200 F 
ATOM     75  F   UNL A   1      44.263  20.766  24.577  1.00  0.00    -0.200 F 
ENDBRANCH  51  65
BRANCH  52  76
ATOM     76  C   UNL A   1      40.447  31.343  32.697  1.00  0.00     0.064 A 
ATOM     77  C   UNL A   1      40.162  32.721  32.627  1.00  0.00     0.173 A 
ATOM     78  C   UNL A   1      39.385  30.473  32.965  1.00  0.00     0.173 A 
ATOM     79  F   UNL A   1      41.147  33.596  32.371  1.00  0.00    -0.203 F 
ATOM     80  C   UNL A   1      38.853  33.192  32.683  1.00  0.00     0.198 A 
ATOM     81  C   UNL A   1      38.075  30.953  33.039  1.00  0.00     0.198 A 
ATOM     82  F   UNL A   1      39.590  29.150  33.027  1.00  0.00    -0.203 F 
ATOM     83  F   UNL A   1      38.604  34.494  32.480  1.00  0.00    -0.200 F 
ATOM     84  C   UNL A   1      37.807  32.303  32.858  1.00  0.00     0.200 A 
ATOM     85  F   UNL A   1      37.058  30.091  33.179  1.00  0.00    -0.200 F 
ATOM     86  F   UNL A   1      36.540  32.737  32.806  1.00  0.00    -0.200 F 
ENDBRANCH  52  76
BRANCH  64  87
ATOM     87  C   UNL A   1      44.952  25.708  33.188  1.00  0.00     0.064 A 
ATOM     88  C   UNL A   1      46.324  25.417  33.150  1.00  0.00     0.173 A 
ATOM     89  C   UNL A   1      44.218  25.051  34.209  1.00  0.00     0.173 A 
ATOM     90  F   UNL A   1      47.148  26.054  32.308  1.00  0.00    -0.203 F 
ATOM     91  C   UNL A   1      46.909  24.499  34.028  1.00  0.00     0.198 A 
ATOM     92  C   UNL A   1      44.816  24.183  35.120  1.00  0.00     0.198 A 
ATOM     93  F   UNL A   1      42.903  25.258  34.372  1.00  0.00    -0.203 F 
ATOM     94  F   UNL A   1      48.219  24.228  33.926  1.00  0.00    -0.200 F 
ATOM     95  C   UNL A   1      46.160  23.894  35.021  1.00  0.00     0.200 A 
ATOM     96  F   UNL A   1      44.085  23.648  36.108  1.00  0.00    -0.200 F 
ATOM     97  F   UNL A   1      46.736  23.055  35.890  1.00  0.00    -0.200 F 
ENDBRANCH  64  87
ENDBRANCH  38  39
ENDBRANCH  30  33
ENDBRANCH  28  29
ENDBRANCH  27  28
ENDBRANCH   1  27
TORSDOF 14
ENDMDL
