MODEL 1
REMARK VINA RESULT:     -13.3      0.000      0.000
REMARK SMILES Cc1c(NC(=O)C(F)(F)F)cccc1C(=O)NCCCCNC(=O)c1ccc(-c2c3nc(c(-c4c(F)c(F)c(F)c(F)c4F)c4ccc([nH]4)c(-c4c(F)c(F)c(F)c(F)c4F)c4nc(c(-c5c(F)c(F)c(F)c(F)c5F)c5ccc2[nH]5)C=C4)C=C3)cc1
REMARK SMILES IDX 19 1 18 2 17 3 15 4 16 5 14 7 1 8 2 9 3 10 11 11 13 12 12 13
REMARK SMILES IDX 4 14 5 15 6 17 7 18 8 19 9 20 10 21 20 22 21 23 22 24 23 25
REMARK SMILES IDX 24 27 25 28 26 29 87 30 27 31 86 32 28 33 29 34 30 35 80 36
REMARK SMILES IDX 31 37 85 38 79 39 81 40 32 41 84 42 78 43 77 44 33 46 65 47
REMARK SMILES IDX 45 48 64 49 46 50 49 51 63 52 82 53 47 54 48 55 62 57 83 58
REMARK SMILES IDX 50 59 34 60 35 61 43 62 36 63 37 64 41 65 44 66 38 67 39 68
REMARK SMILES IDX 42 69 40 70 66 71 67 72 75 73 68 74 69 75 73 76 76 77 70 78
REMARK SMILES IDX 71 79 74 80 72 81 51 82 52 83 60 84 53 85 54 86 58 87 61 88
REMARK SMILES IDX 55 89 56 90 59 91 57 92
REMARK H PARENT 17 6 4 16 22 26 81 45 49 56
REMARK Flexibility Score: inf
ROOT
ATOM      1  C   UNL A   1      37.295  23.237  25.548  1.00  0.00     0.023 C 
ENDROOT
BRANCH   1   2
ATOM      2  C   UNL A   1      36.470  23.333  24.251  1.00  0.00     0.116 C 
BRANCH   2   3
ATOM      3  N   UNL A   1      35.193  23.973  24.502  1.00  0.00    -0.352 N 
ATOM      4  C   UNL A   1      33.875  23.634  24.350  1.00  0.00     0.251 C 
ATOM      5  O   UNL A   1      33.076  24.536  24.628  1.00  0.00    -0.269 OA
ATOM      6  H   UNL A   1      35.301  24.878  24.876  1.00  0.00     0.163 HD
BRANCH   4   7
ATOM      7  C   UNL A   1      33.313  22.285  23.989  1.00  0.00     0.044 A 
ATOM      8  C   UNL A   1      34.412  20.847  25.783  1.00  0.00     0.047 C 
ATOM      9  C   UNL A   1      33.435  21.047  24.661  1.00  0.00    -0.015 A 
ATOM     10  C   UNL A   1      32.759  19.889  24.168  1.00  0.00     0.045 A 
ATOM     11  C   UNL A   1      32.160  19.931  22.912  1.00  0.00     0.026 A 
ATOM     12  C   UNL A   1      32.679  22.277  22.731  1.00  0.00     0.014 A 
ATOM     13  C   UNL A   1      32.150  21.112  22.181  1.00  0.00     0.003 A 
BRANCH  10  14
ATOM     14  N   UNL A   1      32.686  18.769  25.024  1.00  0.00    -0.318 N 
ATOM     15  C   UNL A   1      33.262  17.526  25.044  1.00  0.00     0.330 C 
ATOM     16  H   UNL A   1      32.079  18.915  25.785  1.00  0.00     0.170 HD
ATOM     17  O   UNL A   1      32.811  16.749  25.900  1.00  0.00    -0.264 OA
BRANCH  15  18
ATOM     18  C   UNL A   1      34.411  17.120  24.113  1.00  0.00     0.471 C 
ATOM     19  F   UNL A   1      34.809  15.832  24.307  1.00  0.00    -0.162 F 
ATOM     20  F   UNL A   1      34.096  17.242  22.794  1.00  0.00    -0.162 F 
ATOM     21  F   UNL A   1      35.525  17.885  24.299  1.00  0.00    -0.162 F 
ENDBRANCH  15  18
ENDBRANCH  10  14
ENDBRANCH   4   7
ENDBRANCH   2   3
ENDBRANCH   1   2
BRANCH   1  22
ATOM     22  C   UNL A   1      38.520  22.328  25.476  1.00  0.00     0.023 C 
BRANCH  22  23
ATOM     23  C   UNL A   1      39.321  22.319  26.764  1.00  0.00     0.116 C 
BRANCH  23  24
ATOM     24  N   UNL A   1      40.725  22.690  26.611  1.00  0.00    -0.352 N 
ATOM     25  C   UNL A   1      41.291  23.949  26.483  1.00  0.00     0.251 C 
ATOM     26  H   UNL A   1      41.361  21.939  26.597  1.00  0.00     0.163 HD
ATOM     27  O   UNL A   1      42.499  24.066  26.292  1.00  0.00    -0.269 OA
BRANCH  25  28
ATOM     28  C   UNL A   1      40.462  25.152  26.743  1.00  0.00     0.039 A 
ATOM     29  C   UNL A   1      40.766  26.316  26.026  1.00  0.00     0.014 A 
ATOM     30  C   UNL A   1      39.654  25.217  27.869  1.00  0.00     0.014 A 
ATOM     31  C   UNL A   1      40.535  27.552  26.619  1.00  0.00     0.010 A 
ATOM     32  C   UNL A   1      39.563  26.425  28.527  1.00  0.00     0.010 A 
ATOM     33  C   UNL A   1      40.081  27.581  27.935  1.00  0.00    -0.014 A 
BRANCH  33  34
ATOM     34  C   UNL A   1      40.260  28.728  28.820  1.00  0.00     0.031 A 
ATOM     35  C   UNL A   1      39.216  29.769  28.913  1.00  0.00     0.074 A 
ATOM     36  C   UNL A   1      41.320  28.747  29.661  1.00  0.00     0.049 A 
ATOM     37  N   UNL A   1      39.399  30.946  29.406  1.00  0.00    -0.248 NA
ATOM     38  C   UNL A   1      37.871  29.576  28.389  1.00  0.00     0.031 C 
ATOM     39  C   UNL A   1      41.507  29.597  30.833  1.00  0.00     0.029 A 
ATOM     40  N   UNL A   1      42.557  28.097  29.504  1.00  0.00    -0.354 N 
ATOM     41  C   UNL A   1      38.166  31.548  29.537  1.00  0.00     0.074 A 
ATOM     42  C   UNL A   1      37.268  30.693  28.803  1.00  0.00     0.031 C 
ATOM     43  C   UNL A   1      42.818  29.663  31.117  1.00  0.00     0.029 A 
ATOM     44  C   UNL A   1      43.521  28.979  30.046  1.00  0.00     0.049 A 
ATOM     45  H   UNL A   1      42.720  27.213  29.101  1.00  0.00     0.167 HD
ATOM     46  C   UNL A   1      38.049  32.623  30.375  1.00  0.00     0.037 A 
ATOM     47  C   UNL A   1      44.482  29.549  29.263  1.00  0.00     0.037 A 
ATOM     48  C   UNL A   1      39.374  33.074  30.817  1.00  0.00     0.049 A 
ATOM     49  C   UNL A   1      44.432  31.059  29.225  1.00  0.00     0.074 A 
ATOM     50  C   UNL A   1      40.085  32.906  31.995  1.00  0.00     0.029 A 
ATOM     51  N   UNL A   1      40.283  33.552  29.876  1.00  0.00    -0.354 N 
ATOM     52  N   UNL A   1      43.396  31.759  29.595  1.00  0.00    -0.248 NA
ATOM     53  C   UNL A   1      45.522  31.894  28.729  1.00  0.00     0.031 C 
ATOM     54  C   UNL A   1      41.444  33.221  31.736  1.00  0.00     0.029 A 
ATOM     55  C   UNL A   1      41.556  33.603  30.411  1.00  0.00     0.049 A 
ATOM     56  H   UNL A   1      40.050  33.817  28.958  1.00  0.00     0.167 HD
ATOM     57  C   UNL A   1      43.636  33.088  29.368  1.00  0.00     0.074 A 
ATOM     58  C   UNL A   1      44.990  33.125  28.847  1.00  0.00     0.031 C 
ATOM     59  C   UNL A   1      42.689  34.042  29.608  1.00  0.00     0.037 A 
BRANCH  46  60
ATOM     60  C   UNL A   1      36.753  33.082  31.033  1.00  0.00     0.064 A 
ATOM     61  C   UNL A   1      35.792  33.807  30.290  1.00  0.00     0.173 A 
ATOM     62  C   UNL A   1      36.427  32.942  32.397  1.00  0.00     0.173 A 
ATOM     63  F   UNL A   1      35.884  33.932  28.960  1.00  0.00    -0.203 F 
ATOM     64  C   UNL A   1      34.689  34.437  30.881  1.00  0.00     0.198 A 
ATOM     65  C   UNL A   1      35.345  33.598  32.996  1.00  0.00     0.198 A 
ATOM     66  F   UNL A   1      37.094  32.120  33.205  1.00  0.00    -0.203 F 
ATOM     67  F   UNL A   1      33.833  35.132  30.119  1.00  0.00    -0.200 F 
ATOM     68  C   UNL A   1      34.485  34.362  32.241  1.00  0.00     0.200 A 
ATOM     69  F   UNL A   1      35.149  33.477  34.317  1.00  0.00    -0.200 F 
ATOM     70  F   UNL A   1      33.453  34.992  32.816  1.00  0.00    -0.200 F 
ENDBRANCH  46  60
BRANCH  47  71
ATOM     71  C   UNL A   1      44.908  28.678  28.135  1.00  0.00     0.064 A 
ATOM     72  C   UNL A   1      45.772  27.602  28.415  1.00  0.00     0.173 A 
ATOM     73  C   UNL A   1      44.206  28.646  26.925  1.00  0.00     0.173 A 
ATOM     74  F   UNL A   1      46.463  27.581  29.567  1.00  0.00    -0.203 F 
ATOM     75  C   UNL A   1      45.839  26.489  27.581  1.00  0.00     0.198 A 
ATOM     76  C   UNL A   1      44.285  27.533  26.085  1.00  0.00     0.198 A 
ATOM     77  F   UNL A   1      43.346  29.626  26.615  1.00  0.00    -0.203 F 
ATOM     78  F   UNL A   1      46.581  25.431  27.937  1.00  0.00    -0.200 F 
ATOM     79  C   UNL A   1      45.072  26.443  26.430  1.00  0.00     0.200 A 
ATOM     80  F   UNL A   1      43.513  27.470  24.990  1.00  0.00    -0.200 F 
ATOM     81  F   UNL A   1      45.055  25.334  25.677  1.00  0.00    -0.200 F 
ENDBRANCH  47  71
BRANCH  59  82
ATOM     82  C   UNL A   1      42.764  35.488  29.184  1.00  0.00     0.064 A 
ATOM     83  C   UNL A   1      42.105  36.010  28.059  1.00  0.00     0.173 A 
ATOM     84  C   UNL A   1      43.400  36.441  30.016  1.00  0.00     0.173 A 
ATOM     85  F   UNL A   1      41.373  35.228  27.255  1.00  0.00    -0.203 F 
ATOM     86  C   UNL A   1      42.129  37.375  27.757  1.00  0.00     0.198 A 
ATOM     87  C   UNL A   1      43.372  37.808  29.744  1.00  0.00     0.198 A 
ATOM     88  F   UNL A   1      44.045  36.074  31.134  1.00  0.00    -0.203 F 
ATOM     89  F   UNL A   1      41.518  37.820  26.650  1.00  0.00    -0.200 F 
ATOM     90  C   UNL A   1      42.750  38.274  28.605  1.00  0.00     0.200 A 
ATOM     91  F   UNL A   1      43.934  38.670  30.603  1.00  0.00    -0.200 F 
ATOM     92  F   UNL A   1      42.727  39.586  28.337  1.00  0.00    -0.200 F 
ENDBRANCH  59  82
ENDBRANCH  33  34
ENDBRANCH  25  28
ENDBRANCH  23  24
ENDBRANCH  22  23
ENDBRANCH   1  22
TORSDOF 13
ENDMDL
MODEL 2
REMARK VINA RESULT:     -13.0      4.020      9.810
REMARK SMILES Cc1c(NC(=O)C(F)(F)F)cccc1C(=O)NCCCCNC(=O)c1ccc(-c2c3nc(c(-c4c(F)c(F)c(F)c(F)c4F)c4ccc([nH]4)c(-c4c(F)c(F)c(F)c(F)c4F)c4nc(c(-c5c(F)c(F)c(F)c(F)c5F)c5ccc2[nH]5)C=C4)C=C3)cc1
REMARK SMILES IDX 19 1 18 2 17 3 15 4 16 5 14 7 1 8 2 9 3 10 11 11 13 12 12 13
REMARK SMILES IDX 4 14 5 15 6 17 7 18 8 19 9 20 10 21 20 22 21 23 22 24 23 25
REMARK SMILES IDX 24 27 25 28 26 29 87 30 27 31 86 32 28 33 29 34 30 35 80 36
REMARK SMILES IDX 31 37 85 38 79 39 81 40 32 41 84 42 78 43 77 44 33 46 65 47
REMARK SMILES IDX 45 48 64 49 46 50 49 51 63 52 82 53 47 54 48 55 62 57 83 58
REMARK SMILES IDX 50 59 34 60 35 61 43 62 36 63 37 64 41 65 44 66 38 67 39 68
REMARK SMILES IDX 42 69 40 70 66 71 67 72 75 73 68 74 69 75 73 76 76 77 70 78
REMARK SMILES IDX 71 79 74 80 72 81 51 82 52 83 60 84 53 85 54 86 58 87 61 88
REMARK SMILES IDX 55 89 56 90 59 91 57 92
REMARK H PARENT 17 6 4 16 22 26 81 45 49 56
REMARK Flexibility Score: inf
ROOT
ATOM      1  C   UNL A   1      31.467  30.015  25.942  1.00  0.00     0.023 C 
ENDROOT
BRANCH   1   2
ATOM      2  C   UNL A   1      32.113  29.555  24.621  1.00  0.00     0.116 C 
BRANCH   2   3
ATOM      3  N   UNL A   1      31.102  29.351  23.601  1.00  0.00    -0.352 N 
ATOM      4  C   UNL A   1      30.676  28.299  22.833  1.00  0.00     0.251 C 
ATOM      5  O   UNL A   1      29.806  28.587  22.004  1.00  0.00    -0.269 OA
ATOM      6  H   UNL A   1      30.596  30.174  23.413  1.00  0.00     0.163 HD
BRANCH   4   7
ATOM      7  C   UNL A   1      31.073  26.853  22.963  1.00  0.00     0.044 A 
ATOM      8  C   UNL A   1      29.996  26.291  25.203  1.00  0.00     0.047 C 
ATOM      9  C   UNL A   1      30.700  25.898  23.937  1.00  0.00    -0.015 A 
ATOM     10  C   UNL A   1      31.150  24.547  23.832  1.00  0.00     0.045 A 
ATOM     11  C   UNL A   1      32.126  24.223  22.893  1.00  0.00     0.026 A 
ATOM     12  C   UNL A   1      32.048  26.469  22.021  1.00  0.00     0.014 A 
ATOM     13  C   UNL A   1      32.599  25.190  22.014  1.00  0.00     0.003 A 
BRANCH  10  14
ATOM     14  N   UNL A   1      30.525  23.590  24.660  1.00  0.00    -0.318 N 
ATOM     15  C   UNL A   1      30.861  22.948  25.822  1.00  0.00     0.330 C 
ATOM     16  H   UNL A   1      29.640  23.321  24.323  1.00  0.00     0.170 HD
ATOM     17  O   UNL A   1      30.092  22.036  26.163  1.00  0.00    -0.264 OA
BRANCH  15  18
ATOM     18  C   UNL A   1      32.072  23.341  26.677  1.00  0.00     0.471 C 
ATOM     19  F   UNL A   1      31.990  24.618  27.142  1.00  0.00    -0.162 F 
ATOM     20  F   UNL A   1      32.241  22.535  27.762  1.00  0.00    -0.162 F 
ATOM     21  F   UNL A   1      33.243  23.273  25.981  1.00  0.00    -0.162 F 
ENDBRANCH  15  18
ENDBRANCH  10  14
ENDBRANCH   4   7
ENDBRANCH   2   3
ENDBRANCH   1   2
BRANCH   1  22
ATOM     22  C   UNL A   1      32.186  31.156  26.658  1.00  0.00     0.023 C 
BRANCH  22  23
ATOM     23  C   UNL A   1      33.268  30.668  27.602  1.00  0.00     0.116 C 
BRANCH  23  24
ATOM     24  N   UNL A   1      34.135  31.717  28.130  1.00  0.00    -0.352 N 
ATOM     25  C   UNL A   1      35.367  31.605  28.757  1.00  0.00     0.251 C 
ATOM     26  H   UNL A   1      33.799  32.636  28.024  1.00  0.00     0.163 HD
ATOM     27  O   UNL A   1      35.927  32.604  29.201  1.00  0.00    -0.269 OA
BRANCH  25  28
ATOM     28  C   UNL A   1      36.078  30.302  28.741  1.00  0.00     0.039 A 
ATOM     29  C   UNL A   1      36.424  29.737  29.975  1.00  0.00     0.014 A 
ATOM     30  C   UNL A   1      36.663  29.836  27.572  1.00  0.00     0.014 A 
ATOM     31  C   UNL A   1      37.570  28.955  30.060  1.00  0.00     0.010 A 
ATOM     32  C   UNL A   1      37.878  29.194  27.672  1.00  0.00     0.010 A 
ATOM     33  C   UNL A   1      38.371  28.827  28.928  1.00  0.00    -0.014 A 
BRANCH  33  34
ATOM     34  C   UNL A   1      39.787  28.477  28.983  1.00  0.00     0.031 A 
ATOM     35  C   UNL A   1      40.232  27.112  28.639  1.00  0.00     0.074 A 
ATOM     36  C   UNL A   1      40.694  29.456  29.206  1.00  0.00     0.049 A 
ATOM     37  N   UNL A   1      41.383  26.619  28.946  1.00  0.00    -0.248 NA
ATOM     38  C   UNL A   1      39.369  26.157  27.957  1.00  0.00     0.031 C 
ATOM     39  C   UNL A   1      42.135  29.400  28.973  1.00  0.00     0.029 A 
ATOM     40  N   UNL A   1      40.501  30.674  29.883  1.00  0.00    -0.354 N 
ATOM     41  C   UNL A   1      41.529  25.427  28.269  1.00  0.00     0.074 A 
ATOM     42  C   UNL A   1      40.215  25.144  27.751  1.00  0.00     0.031 C 
ATOM     43  C   UNL A   1      42.734  30.338  29.723  1.00  0.00     0.029 A 
ATOM     44  C   UNL A   1      41.711  30.921  30.573  1.00  0.00     0.049 A 
ATOM     45  H   UNL A   1      39.693  31.237  29.877  1.00  0.00     0.167 HD
ATOM     46  C   UNL A   1      42.786  24.909  28.121  1.00  0.00     0.037 A 
ATOM     47  C   UNL A   1      41.757  30.946  31.937  1.00  0.00     0.037 A 
ATOM     48  C   UNL A   1      43.747  25.654  28.943  1.00  0.00     0.049 A 
ATOM     49  C   UNL A   1      42.669  29.903  32.542  1.00  0.00     0.074 A 
ATOM     50  C   UNL A   1      44.688  26.626  28.648  1.00  0.00     0.029 A 
ATOM     51  N   UNL A   1      43.607  25.652  30.329  1.00  0.00    -0.354 N 
ATOM     52  N   UNL A   1      43.103  28.857  31.895  1.00  0.00    -0.248 NA
ATOM     53  C   UNL A   1      43.127  29.933  33.928  1.00  0.00     0.031 C 
ATOM     54  C   UNL A   1      45.063  27.259  29.862  1.00  0.00     0.029 A 
ATOM     55  C   UNL A   1      44.369  26.655  30.896  1.00  0.00     0.049 A 
ATOM     56  H   UNL A   1      43.043  25.023  30.833  1.00  0.00     0.167 HD
ATOM     57  C   UNL A   1      43.841  28.071  32.740  1.00  0.00     0.074 A 
ATOM     58  C   UNL A   1      43.848  28.798  33.995  1.00  0.00     0.031 C 
ATOM     59  C   UNL A   1      44.365  26.876  32.336  1.00  0.00     0.037 A 
BRANCH  46  60
ATOM     60  C   UNL A   1      43.209  23.937  27.023  1.00  0.00     0.064 A 
ATOM     61  C   UNL A   1      42.843  22.573  27.098  1.00  0.00     0.173 A 
ATOM     62  C   UNL A   1      44.048  24.241  25.933  1.00  0.00     0.173 A 
ATOM     63  F   UNL A   1      41.957  22.133  28.000  1.00  0.00    -0.203 F 
ATOM     64  C   UNL A   1      43.372  21.596  26.245  1.00  0.00     0.198 A 
ATOM     65  C   UNL A   1      44.604  23.263  25.101  1.00  0.00     0.198 A 
ATOM     66  F   UNL A   1      44.323  25.495  25.577  1.00  0.00    -0.203 F 
ATOM     67  F   UNL A   1      43.002  20.315  26.390  1.00  0.00    -0.200 F 
ATOM     68  C   UNL A   1      44.281  21.936  25.268  1.00  0.00     0.200 A 
ATOM     69  F   UNL A   1      45.458  23.627  24.133  1.00  0.00    -0.200 F 
ATOM     70  F   UNL A   1      44.818  21.001  24.473  1.00  0.00    -0.200 F 
ENDBRANCH  46  60
BRANCH  47  71
ATOM     71  C   UNL A   1      40.500  31.445  32.555  1.00  0.00     0.064 A 
ATOM     72  C   UNL A   1      40.219  32.822  32.469  1.00  0.00     0.173 A 
ATOM     73  C   UNL A   1      39.439  30.586  32.862  1.00  0.00     0.173 A 
ATOM     74  F   UNL A   1      41.200  33.688  32.168  1.00  0.00    -0.203 F 
ATOM     75  C   UNL A   1      38.916  33.304  32.566  1.00  0.00     0.198 A 
ATOM     76  C   UNL A   1      38.135  31.075  32.972  1.00  0.00     0.198 A 
ATOM     77  F   UNL A   1      39.638  29.262  32.930  1.00  0.00    -0.203 F 
ATOM     78  F   UNL A   1      38.667  34.606  32.361  1.00  0.00    -0.200 F 
ATOM     79  C   UNL A   1      37.870  32.425  32.789  1.00  0.00     0.200 A 
ATOM     80  F   UNL A   1      37.117  30.220  33.148  1.00  0.00    -0.200 F 
ATOM     81  F   UNL A   1      36.605  32.868  32.782  1.00  0.00    -0.200 F 
ENDBRANCH  47  71
BRANCH  59  82
ATOM     82  C   UNL A   1      44.988  25.836  33.234  1.00  0.00     0.064 A 
ATOM     83  C   UNL A   1      44.254  24.972  34.061  1.00  0.00     0.173 A 
ATOM     84  C   UNL A   1      46.379  25.578  33.163  1.00  0.00     0.173 A 
ATOM     85  F   UNL A   1      42.917  25.040  34.128  1.00  0.00    -0.203 F 
ATOM     86  C   UNL A   1      44.870  23.962  34.807  1.00  0.00     0.198 A 
ATOM     87  C   UNL A   1      46.981  24.533  33.863  1.00  0.00     0.198 A 
ATOM     88  F   UNL A   1      47.190  26.317  32.390  1.00  0.00    -0.203 F 
ATOM     89  F   UNL A   1      44.129  23.188  35.613  1.00  0.00    -0.200 F 
ATOM     90  C   UNL A   1      46.229  23.735  34.697  1.00  0.00     0.200 A 
ATOM     91  F   UNL A   1      48.291  24.294  33.705  1.00  0.00    -0.200 F 
ATOM     92  F   UNL A   1      46.806  22.735  35.377  1.00  0.00    -0.200 F 
ENDBRANCH  59  82
ENDBRANCH  33  34
ENDBRANCH  25  28
ENDBRANCH  23  24
ENDBRANCH  22  23
ENDBRANCH   1  22
TORSDOF 13
ENDMDL
MODEL 3
REMARK VINA RESULT:     -12.8      2.337      3.316
REMARK SMILES Cc1c(NC(=O)C(F)(F)F)cccc1C(=O)NCCCCNC(=O)c1ccc(-c2c3nc(c(-c4c(F)c(F)c(F)c(F)c4F)c4ccc([nH]4)c(-c4c(F)c(F)c(F)c(F)c4F)c4nc(c(-c5c(F)c(F)c(F)c(F)c5F)c5ccc2[nH]5)C=C4)C=C3)cc1
REMARK SMILES IDX 19 1 18 2 17 3 15 4 16 5 14 7 1 8 2 9 3 10 11 11 13 12 12 13
REMARK SMILES IDX 4 14 5 15 6 17 7 18 8 19 9 20 10 21 20 22 21 23 22 24 23 25
REMARK SMILES IDX 24 27 25 28 26 29 87 30 27 31 86 32 28 33 29 34 30 35 80 36
REMARK SMILES IDX 31 37 85 38 79 39 81 40 32 41 84 42 78 43 77 44 33 46 65 47
REMARK SMILES IDX 45 48 64 49 46 50 49 51 63 52 82 53 47 54 48 55 62 57 83 58
REMARK SMILES IDX 50 59 34 60 35 61 43 62 36 63 37 64 41 65 44 66 38 67 39 68
REMARK SMILES IDX 42 69 40 70 66 71 67 72 75 73 68 74 69 75 73 76 76 77 70 78
REMARK SMILES IDX 71 79 74 80 72 81 51 82 52 83 60 84 53 85 54 86 58 87 61 88
REMARK SMILES IDX 55 89 56 90 59 91 57 92
REMARK H PARENT 17 6 4 16 22 26 81 45 49 56
REMARK Flexibility Score: inf
ROOT
ATOM      1  C   UNL A   1      36.576  21.493  25.696  1.00  0.00     0.023 C 
ENDROOT
BRANCH   1   2
ATOM      2  C   UNL A   1      35.982  20.333  24.875  1.00  0.00     0.116 C 
BRANCH   2   3
ATOM      3  N   UNL A   1      34.550  20.241  25.081  1.00  0.00    -0.352 N 
ATOM      4  C   UNL A   1      33.479  21.085  24.946  1.00  0.00     0.251 C 
ATOM      5  O   UNL A   1      32.399  20.610  25.313  1.00  0.00    -0.269 OA
ATOM      6  H   UNL A   1      34.278  19.349  25.397  1.00  0.00     0.163 HD
BRANCH   4   7
ATOM      7  C   UNL A   1      33.467  22.453  24.318  1.00  0.00     0.044 A 
ATOM      8  C   UNL A   1      33.351  23.905  26.410  1.00  0.00     0.047 C 
ATOM      9  C   UNL A   1      33.524  23.728  24.930  1.00  0.00    -0.015 A 
ATOM     10  C   UNL A   1      33.563  24.910  24.129  1.00  0.00     0.045 A 
ATOM     11  C   UNL A   1      33.328  24.817  22.760  1.00  0.00     0.026 A 
ATOM     12  C   UNL A   1      33.250  22.414  22.927  1.00  0.00     0.014 A 
ATOM     13  C   UNL A   1      33.138  23.575  22.166  1.00  0.00     0.003 A 
BRANCH  10  14
ATOM     14  N   UNL A   1      33.902  26.119  24.776  1.00  0.00    -0.318 N 
ATOM     15  C   UNL A   1      33.199  27.196  25.246  1.00  0.00     0.330 C 
ATOM     16  H   UNL A   1      34.872  26.208  24.925  1.00  0.00     0.170 HD
ATOM     17  O   UNL A   1      33.891  28.156  25.620  1.00  0.00    -0.264 OA
BRANCH  15  18
ATOM     18  C   UNL A   1      31.669  27.218  25.349  1.00  0.00     0.471 C 
ATOM     19  F   UNL A   1      31.064  26.702  24.243  1.00  0.00    -0.162 F 
ATOM     20  F   UNL A   1      31.197  26.522  26.420  1.00  0.00    -0.162 F 
ATOM     21  F   UNL A   1      31.176  28.483  25.485  1.00  0.00    -0.162 F 
ENDBRANCH  15  18
ENDBRANCH  10  14
ENDBRANCH   4   7
ENDBRANCH   2   3
ENDBRANCH   1   2
BRANCH   1  22
ATOM     22  C   UNL A   1      38.099  21.603  25.664  1.00  0.00     0.023 C 
BRANCH  22  23
ATOM     23  C   UNL A   1      38.596  22.991  26.021  1.00  0.00     0.116 C 
BRANCH  23  24
ATOM     24  N   UNL A   1      39.998  23.051  26.423  1.00  0.00    -0.352 N 
ATOM     25  C   UNL A   1      40.739  24.138  26.863  1.00  0.00     0.251 C 
ATOM     26  H   UNL A   1      40.489  22.199  26.376  1.00  0.00     0.163 HD
ATOM     27  O   UNL A   1      41.939  24.014  27.094  1.00  0.00    -0.269 OA
BRANCH  25  28
ATOM     28  C   UNL A   1      40.043  25.402  27.211  1.00  0.00     0.039 A 
ATOM     29  C   UNL A   1      40.330  26.534  26.437  1.00  0.00     0.014 A 
ATOM     30  C   UNL A   1      39.406  25.538  28.437  1.00  0.00     0.014 A 
ATOM     31  C   UNL A   1      40.274  27.789  27.033  1.00  0.00     0.010 A 
ATOM     32  C   UNL A   1      39.497  26.754  29.078  1.00  0.00     0.010 A 
ATOM     33  C   UNL A   1      40.010  27.864  28.398  1.00  0.00    -0.014 A 
BRANCH  33  34
ATOM     34  C   UNL A   1      40.393  29.002  29.228  1.00  0.00     0.031 A 
ATOM     35  C   UNL A   1      39.408  30.052  29.555  1.00  0.00     0.074 A 
ATOM     36  C   UNL A   1      41.613  29.003  29.813  1.00  0.00     0.049 A 
ATOM     37  N   UNL A   1      39.708  31.223  30.002  1.00  0.00    -0.248 NA
ATOM     38  C   UNL A   1      37.978  29.876  29.342  1.00  0.00     0.031 C 
ATOM     39  C   UNL A   1      42.065  29.843  30.919  1.00  0.00     0.029 A 
ATOM     40  N   UNL A   1      42.778  28.344  29.381  1.00  0.00    -0.354 N 
ATOM     41  C   UNL A   1      38.542  31.836  30.407  1.00  0.00     0.074 A 
ATOM     42  C   UNL A   1      37.494  30.995  29.885  1.00  0.00     0.031 C 
ATOM     43  C   UNL A   1      43.407  29.894  30.906  1.00  0.00     0.029 A 
ATOM     44  C   UNL A   1      43.847  29.212  29.702  1.00  0.00     0.049 A 
ATOM     45  H   UNL A   1      42.837  27.461  28.947  1.00  0.00     0.167 HD
ATOM     46  C   UNL A   1      38.626  32.905  31.256  1.00  0.00     0.037 A 
ATOM     47  C   UNL A   1      44.618  29.779  28.728  1.00  0.00     0.037 A 
ATOM     48  C   UNL A   1      40.021  33.340  31.396  1.00  0.00     0.049 A 
ATOM     49  C   UNL A   1      44.577  31.289  28.710  1.00  0.00     0.074 A 
ATOM     50  C   UNL A   1      40.973  33.155  32.385  1.00  0.00     0.029 A 
ATOM     51  N   UNL A   1      40.703  33.816  30.279  1.00  0.00    -0.354 N 
ATOM     52  N   UNL A   1      43.656  31.996  29.305  1.00  0.00    -0.248 NA
ATOM     53  C   UNL A   1      45.539  32.118  27.989  1.00  0.00     0.031 C 
ATOM     54  C   UNL A   1      42.244  33.459  31.834  1.00  0.00     0.029 A 
ATOM     55  C   UNL A   1      42.063  33.851  30.519  1.00  0.00     0.049 A 
ATOM     56  H   UNL A   1      40.276  34.091  29.437  1.00  0.00     0.167 HD
ATOM     57  C   UNL A   1      43.855  33.325  29.037  1.00  0.00     0.074 A 
ATOM     58  C   UNL A   1      45.061  33.353  28.230  1.00  0.00     0.031 C 
ATOM     59  C   UNL A   1      42.995  34.286  29.488  1.00  0.00     0.037 A 
BRANCH  46  60
ATOM     60  C   UNL A   1      37.512  33.371  32.188  1.00  0.00     0.064 A 
ATOM     61  C   UNL A   1      36.422  34.117  31.681  1.00  0.00     0.173 A 
ATOM     62  C   UNL A   1      37.492  33.218  33.588  1.00  0.00     0.173 A 
ATOM     63  F   UNL A   1      36.222  34.259  30.365  1.00  0.00    -0.203 F 
ATOM     64  C   UNL A   1      35.486  34.753  32.507  1.00  0.00     0.198 A 
ATOM     65  C   UNL A   1      36.578  33.879  34.417  1.00  0.00     0.198 A 
ATOM     66  F   UNL A   1      38.308  32.376  34.222  1.00  0.00    -0.203 F 
ATOM     67  F   UNL A   1      34.493  35.468  31.959  1.00  0.00    -0.200 F 
ATOM     68  C   UNL A   1      35.585  34.662  33.877  1.00  0.00     0.200 A 
ATOM     69  F   UNL A   1      36.676  33.743  35.747  1.00  0.00    -0.200 F 
ATOM     70  F   UNL A   1      34.714  35.297  34.672  1.00  0.00    -0.200 F 
ENDBRANCH  46  60
BRANCH  47  71
ATOM     71  C   UNL A   1      44.773  28.913  27.529  1.00  0.00     0.064 A 
ATOM     72  C   UNL A   1      45.660  27.823  27.607  1.00  0.00     0.173 A 
ATOM     73  C   UNL A   1      43.823  28.902  26.502  1.00  0.00     0.173 A 
ATOM     74  F   UNL A   1      46.586  27.781  28.579  1.00  0.00    -0.203 F 
ATOM     75  C   UNL A   1      45.527  26.717  26.771  1.00  0.00     0.198 A 
ATOM     76  C   UNL A   1      43.700  27.796  25.657  1.00  0.00     0.198 A 
ATOM     77  F   UNL A   1      42.932  29.896  26.393  1.00  0.00    -0.203 F 
ATOM     78  F   UNL A   1      46.312  25.645  26.949  1.00  0.00    -0.200 F 
ATOM     79  C   UNL A   1      44.526  26.692  25.815  1.00  0.00     0.200 A 
ATOM     80  F   UNL A   1      42.707  27.754  24.757  1.00  0.00    -0.200 F 
ATOM     81  F   UNL A   1      44.327  25.591  25.077  1.00  0.00    -0.200 F 
ENDBRANCH  47  71
BRANCH  59  82
ATOM     82  C   UNL A   1      42.990  35.734  29.065  1.00  0.00     0.064 A 
ATOM     83  C   UNL A   1      42.275  36.227  27.962  1.00  0.00     0.173 A 
ATOM     84  C   UNL A   1      43.605  36.715  29.881  1.00  0.00     0.173 A 
ATOM     85  F   UNL A   1      41.557  35.412  27.176  1.00  0.00    -0.203 F 
ATOM     86  C   UNL A   1      42.226  37.592  27.663  1.00  0.00     0.198 A 
ATOM     87  C   UNL A   1      43.506  38.079  29.613  1.00  0.00     0.198 A 
ATOM     88  F   UNL A   1      44.299  36.377  30.979  1.00  0.00    -0.203 F 
ATOM     89  F   UNL A   1      41.563  38.010  26.575  1.00  0.00    -0.200 F 
ATOM     90  C   UNL A   1      42.829  38.517  28.495  1.00  0.00     0.200 A 
ATOM     91  F   UNL A   1      44.051  38.965  30.458  1.00  0.00    -0.200 F 
ATOM     92  F   UNL A   1      42.738  39.827  28.231  1.00  0.00    -0.200 F 
ENDBRANCH  59  82
ENDBRANCH  33  34
ENDBRANCH  25  28
ENDBRANCH  23  24
ENDBRANCH  22  23
ENDBRANCH   1  22
TORSDOF 13
ENDMDL
