MODEL 1
REMARK VINA RESULT:     -11.2      0.000      0.000
REMARK SMILES C[C@H]([NH2+]CC1CCCC1)[C@H](C)C(=O)NCCCCNC(=O)c1ccc(-c2c3nc(c(-c4c(F)c(F)c(F)c(F)c4F)c4ccc([nH]4)c(-c4c(F)c(F)c(F)c(F)c4F)c4nc(c(-c5c(F)c(F)c(F)c(F)c5F)c5ccc2[nH]5)C=C4)C=C3)cc1
REMARK SMILES IDX 15 1 14 2 12 3 13 4 10 6 11 7 2 8 1 9 3 10 4 13 5 14 6 15
REMARK SMILES IDX 9 16 7 17 8 18 16 19 17 20 18 21 19 22 20 23 21 25 22 26
REMARK SMILES IDX 23 27 84 28 24 29 83 30 25 31 26 32 27 33 77 34 28 35 82 36
REMARK SMILES IDX 76 37 78 38 29 39 81 40 75 41 74 42 30 44 62 45 42 46 61 47
REMARK SMILES IDX 43 48 46 49 60 50 79 51 44 52 45 53 59 55 80 56 47 57 31 58
REMARK SMILES IDX 32 59 40 60 33 61 34 62 38 63 41 64 35 65 36 66 39 67 37 68
REMARK SMILES IDX 63 69 64 70 72 71 65 72 66 73 70 74 73 75 67 76 68 77 71 78
REMARK SMILES IDX 69 79 48 80 49 81 57 82 50 83 51 84 55 85 58 86 52 87 53 88
REMARK SMILES IDX 56 89 54 90
REMARK H PARENT 14 5 3 11 3 12 19 24 78 43 46 54
REMARK Flexibility Score: inf
ROOT
ATOM      1  C   UNL A   1      33.135  29.942  26.124  1.00  0.00     0.116 C 
ENDROOT
BRANCH   1   2
ATOM      2  N   UNL A   1      33.318  28.506  26.078  1.00  0.00    -0.356 N 
ATOM      3  C   UNL A   1      33.373  27.667  25.007  1.00  0.00     0.228 C 
ATOM      4  O   UNL A   1      33.722  26.502  25.217  1.00  0.00    -0.275 OA
ATOM      5  H   UNL A   1      33.416  28.070  26.955  1.00  0.00     0.163 HD
BRANCH   3   6
ATOM      6  C   UNL A   1      32.993  28.124  23.601  1.00  0.00     0.133 C 
ATOM      7  C   UNL A   1      34.182  28.818  22.928  1.00  0.00     0.024 C 
BRANCH   6   8
ATOM      8  C   UNL A   1      32.114  27.123  22.778  1.00  0.00     0.191 C 
ATOM      9  C   UNL A   1      32.810  25.998  22.002  1.00  0.00     0.076 C 
BRANCH   8  10
ATOM     10  N   UNL A   1      30.975  27.684  22.025  1.00  0.00    -0.343 N 
ATOM     11  H   UNL A   1      30.763  27.041  21.263  1.00  0.00     0.346 HD
ATOM     12  H   UNL A   1      31.282  28.611  21.730  1.00  0.00     0.346 HD
BRANCH  10  13
ATOM     13  C   UNL A   1      29.740  27.910  22.771  1.00  0.00     0.264 C 
BRANCH  13  14
ATOM     14  C   UNL A   1      29.241  29.361  22.725  1.00  0.00     0.044 C 
ATOM     15  C   UNL A   1      27.743  29.525  22.962  1.00  0.00     0.009 C 
ATOM     16  C   UNL A   1      29.856  30.321  23.748  1.00  0.00     0.009 C 
ATOM     17  C   UNL A   1      27.592  31.029  23.141  1.00  0.00     0.001 C 
ATOM     18  C   UNL A   1      28.872  31.489  23.837  1.00  0.00     0.001 C 
ENDBRANCH  13  14
ENDBRANCH  10  13
ENDBRANCH   8  10
ENDBRANCH   6   8
ENDBRANCH   3   6
ENDBRANCH   1   2
BRANCH   1  19
ATOM     19  C   UNL A   1      31.762  30.357  26.634  1.00  0.00     0.023 C 
BRANCH  19  20
ATOM     20  C   UNL A   1      31.556  31.865  26.772  1.00  0.00     0.023 C 
BRANCH  20  21
ATOM     21  C   UNL A   1      32.776  32.660  27.224  1.00  0.00     0.116 C 
BRANCH  21  22
ATOM     22  N   UNL A   1      32.468  34.029  27.607  1.00  0.00    -0.352 N 
ATOM     23  C   UNL A   1      33.062  34.814  28.568  1.00  0.00     0.251 C 
ATOM     24  H   UNL A   1      31.732  34.454  27.109  1.00  0.00     0.163 HD
ATOM     25  O   UNL A   1      32.618  35.924  28.828  1.00  0.00    -0.269 OA
BRANCH  23  26
ATOM     26  C   UNL A   1      34.220  34.284  29.317  1.00  0.00     0.039 A 
ATOM     27  C   UNL A   1      33.985  33.477  30.432  1.00  0.00     0.014 A 
ATOM     28  C   UNL A   1      35.525  34.540  28.888  1.00  0.00     0.014 A 
ATOM     29  C   UNL A   1      35.061  32.855  31.069  1.00  0.00     0.010 A 
ATOM     30  C   UNL A   1      36.586  33.861  29.476  1.00  0.00     0.010 A 
ATOM     31  C   UNL A   1      36.364  33.007  30.568  1.00  0.00    -0.014 A 
BRANCH  31  32
ATOM     32  C   UNL A   1      37.507  32.268  31.162  1.00  0.00     0.031 A 
ATOM     33  C   UNL A   1      38.009  32.634  32.531  1.00  0.00     0.074 A 
ATOM     34  C   UNL A   1      38.140  31.324  30.440  1.00  0.00     0.049 A 
ATOM     35  N   UNL A   1      39.038  32.164  33.188  1.00  0.00    -0.248 NA
ATOM     36  C   UNL A   1      37.275  33.691  33.243  1.00  0.00     0.031 C 
ATOM     37  C   UNL A   1      37.785  30.921  29.078  1.00  0.00     0.029 A 
ATOM     38  N   UNL A   1      39.225  30.541  30.745  1.00  0.00    -0.354 N 
ATOM     39  C   UNL A   1      39.085  32.879  34.377  1.00  0.00     0.074 A 
ATOM     40  C   UNL A   1      38.013  33.848  34.331  1.00  0.00     0.031 C 
ATOM     41  C   UNL A   1      38.622  29.952  28.674  1.00  0.00     0.029 A 
ATOM     42  C   UNL A   1      39.593  29.689  29.732  1.00  0.00     0.049 A 
ATOM     43  H   UNL A   1      39.694  30.585  31.609  1.00  0.00     0.167 HD
ATOM     44  C   UNL A   1      39.931  32.723  35.422  1.00  0.00     0.037 A 
ATOM     45  C   UNL A   1      40.602  28.801  29.664  1.00  0.00     0.037 A 
ATOM     46  C   UNL A   1      40.975  31.734  35.480  1.00  0.00     0.049 A 
ATOM     47  C   UNL A   1      41.517  28.636  30.846  1.00  0.00     0.074 A 
ATOM     48  C   UNL A   1      41.839  31.450  36.524  1.00  0.00     0.029 A 
ATOM     49  N   UNL A   1      41.296  30.866  34.447  1.00  0.00    -0.354 N 
ATOM     50  N   UNL A   1      41.505  29.266  31.996  1.00  0.00    -0.248 NA
ATOM     51  C   UNL A   1      42.581  27.630  30.725  1.00  0.00     0.031 C 
ATOM     52  C   UNL A   1      42.707  30.435  36.109  1.00  0.00     0.029 A 
ATOM     53  C   UNL A   1      42.356  30.056  34.823  1.00  0.00     0.049 A 
ATOM     54  H   UNL A   1      40.838  30.830  33.577  1.00  0.00     0.167 HD
ATOM     55  C   UNL A   1      42.538  28.717  32.744  1.00  0.00     0.074 A 
ATOM     56  C   UNL A   1      43.148  27.692  31.923  1.00  0.00     0.031 C 
ATOM     57  C   UNL A   1      42.945  29.034  33.997  1.00  0.00     0.037 A 
BRANCH  44  58
ATOM     58  C   UNL A   1      39.757  33.641  36.596  1.00  0.00     0.064 A 
ATOM     59  C   UNL A   1      40.432  34.869  36.675  1.00  0.00     0.173 A 
ATOM     60  C   UNL A   1      38.881  33.306  37.640  1.00  0.00     0.173 A 
ATOM     61  F   UNL A   1      41.291  35.230  35.709  1.00  0.00    -0.203 F 
ATOM     62  C   UNL A   1      40.259  35.714  37.768  1.00  0.00     0.198 A 
ATOM     63  C   UNL A   1      38.688  34.167  38.717  1.00  0.00     0.198 A 
ATOM     64  F   UNL A   1      38.208  32.147  37.612  1.00  0.00    -0.203 F 
ATOM     65  F   UNL A   1      40.953  36.858  37.844  1.00  0.00    -0.200 F 
ATOM     66  C   UNL A   1      39.382  35.365  38.784  1.00  0.00     0.200 A 
ATOM     67  F   UNL A   1      37.832  33.835  39.693  1.00  0.00    -0.200 F 
ATOM     68  F   UNL A   1      39.213  36.183  39.833  1.00  0.00    -0.200 F 
ENDBRANCH  44  58
BRANCH  45  69
ATOM     69  C   UNL A   1      40.784  27.975  28.442  1.00  0.00     0.064 A 
ATOM     70  C   UNL A   1      40.175  26.718  28.328  1.00  0.00     0.173 A 
ATOM     71  C   UNL A   1      41.567  28.421  27.368  1.00  0.00     0.173 A 
ATOM     72  F   UNL A   1      39.433  26.240  29.338  1.00  0.00    -0.203 F 
ATOM     73  C   UNL A   1      40.361  25.927  27.196  1.00  0.00     0.198 A 
ATOM     74  C   UNL A   1      41.730  27.641  26.225  1.00  0.00     0.198 A 
ATOM     75  F   UNL A   1      42.166  29.619  27.424  1.00  0.00    -0.203 F 
ATOM     76  F   UNL A   1      39.803  24.710  27.133  1.00  0.00    -0.200 F 
ATOM     77  C   UNL A   1      41.134  26.392  26.143  1.00  0.00     0.200 A 
ATOM     78  F   UNL A   1      42.467  28.099  25.203  1.00  0.00    -0.200 F 
ATOM     79  F   UNL A   1      41.309  25.633  25.053  1.00  0.00    -0.200 F 
ENDBRANCH  45  69
BRANCH  57  80
ATOM     80  C   UNL A   1      44.082  28.242  34.571  1.00  0.00     0.064 A 
ATOM     81  C   UNL A   1      43.867  27.034  35.249  1.00  0.00     0.173 A 
ATOM     82  C   UNL A   1      45.405  28.678  34.406  1.00  0.00     0.173 A 
ATOM     83  F   UNL A   1      42.618  26.583  35.447  1.00  0.00    -0.203 F 
ATOM     84  C   UNL A   1      44.935  26.301  35.760  1.00  0.00     0.198 A 
ATOM     85  C   UNL A   1      46.472  27.929  34.893  1.00  0.00     0.198 A 
ATOM     86  F   UNL A   1      45.663  29.825  33.760  1.00  0.00    -0.203 F 
ATOM     87  F   UNL A   1      44.704  25.172  36.443  1.00  0.00    -0.200 F 
ATOM     88  C   UNL A   1      46.236  26.746  35.575  1.00  0.00     0.200 A 
ATOM     89  F   UNL A   1      47.729  28.353  34.704  1.00  0.00    -0.200 F 
ATOM     90  F   UNL A   1      47.262  26.035  36.062  1.00  0.00    -0.200 F 
ENDBRANCH  57  80
ENDBRANCH  31  32
ENDBRANCH  23  26
ENDBRANCH  21  22
ENDBRANCH  20  21
ENDBRANCH  19  20
ENDBRANCH   1  19
TORSDOF 15
ENDMDL
MODEL 2
REMARK VINA RESULT:     -11.1      0.851      7.667
REMARK SMILES C[C@H]([NH2+]CC1CCCC1)[C@H](C)C(=O)NCCCCNC(=O)c1ccc(-c2c3nc(c(-c4c(F)c(F)c(F)c(F)c4F)c4ccc([nH]4)c(-c4c(F)c(F)c(F)c(F)c4F)c4nc(c(-c5c(F)c(F)c(F)c(F)c5F)c5ccc2[nH]5)C=C4)C=C3)cc1
REMARK SMILES IDX 15 1 14 2 12 3 13 4 10 6 11 7 2 8 1 9 3 10 4 13 5 14 6 15
REMARK SMILES IDX 9 16 7 17 8 18 16 19 17 20 18 21 19 22 20 23 21 25 22 26
REMARK SMILES IDX 23 27 84 28 24 29 83 30 25 31 26 32 27 33 77 34 28 35 82 36
REMARK SMILES IDX 76 37 78 38 29 39 81 40 75 41 74 42 30 44 62 45 42 46 61 47
REMARK SMILES IDX 43 48 46 49 60 50 79 51 44 52 45 53 59 55 80 56 47 57 31 58
REMARK SMILES IDX 32 59 40 60 33 61 34 62 38 63 41 64 35 65 36 66 39 67 37 68
REMARK SMILES IDX 63 69 64 70 72 71 65 72 66 73 70 74 73 75 67 76 68 77 71 78
REMARK SMILES IDX 69 79 48 80 49 81 57 82 50 83 51 84 55 85 58 86 52 87 53 88
REMARK SMILES IDX 56 89 54 90
REMARK H PARENT 14 5 3 11 3 12 19 24 78 43 46 54
REMARK Flexibility Score: inf
ROOT
ATOM      1  C   UNL A   1      33.469  30.059  26.720  1.00  0.00     0.116 C 
ENDROOT
BRANCH   1   2
ATOM      2  N   UNL A   1      33.699  28.637  26.571  1.00  0.00    -0.356 N 
ATOM      3  C   UNL A   1      33.623  27.853  25.460  1.00  0.00     0.228 C 
ATOM      4  O   UNL A   1      34.046  26.697  25.553  1.00  0.00    -0.275 OA
ATOM      5  H   UNL A   1      33.948  28.166  27.398  1.00  0.00     0.163 HD
BRANCH   3   6
ATOM      6  C   UNL A   1      33.014  28.356  24.155  1.00  0.00     0.133 C 
ATOM      7  C   UNL A   1      33.949  28.051  22.979  1.00  0.00     0.024 C 
BRANCH   6   8
ATOM      8  C   UNL A   1      31.472  28.132  23.994  1.00  0.00     0.191 C 
ATOM      9  C   UNL A   1      30.937  26.694  23.972  1.00  0.00     0.076 C 
BRANCH   8  10
ATOM     10  N   UNL A   1      30.759  28.997  23.036  1.00  0.00    -0.343 N 
ATOM     11  H   UNL A   1      31.175  28.848  22.117  1.00  0.00     0.346 HD
ATOM     12  H   UNL A   1      30.861  29.943  23.403  1.00  0.00     0.346 HD
BRANCH  10  13
ATOM     13  C   UNL A   1      29.319  28.790  22.908  1.00  0.00     0.264 C 
BRANCH  13  14
ATOM     14  C   UNL A   1      28.524  30.079  22.663  1.00  0.00     0.044 C 
ATOM     15  C   UNL A   1      28.835  31.213  23.636  1.00  0.00     0.009 C 
ATOM     16  C   UNL A   1      28.713  30.742  21.295  1.00  0.00     0.009 C 
ATOM     17  C   UNL A   1      28.141  32.407  22.996  1.00  0.00     0.001 C 
ATOM     18  C   UNL A   1      28.257  32.189  21.489  1.00  0.00     0.001 C 
ENDBRANCH  13  14
ENDBRANCH  10  13
ENDBRANCH   8  10
ENDBRANCH   6   8
ENDBRANCH   3   6
ENDBRANCH   1   2
BRANCH   1  19
ATOM     19  C   UNL A   1      31.994  30.420  26.837  1.00  0.00     0.023 C 
BRANCH  19  20
ATOM     20  C   UNL A   1      31.698  31.919  26.858  1.00  0.00     0.023 C 
BRANCH  20  21
ATOM     21  C   UNL A   1      32.854  32.815  27.288  1.00  0.00     0.116 C 
BRANCH  21  22
ATOM     22  N   UNL A   1      32.444  34.165  27.641  1.00  0.00    -0.352 N 
ATOM     23  C   UNL A   1      32.964  35.007  28.597  1.00  0.00     0.251 C 
ATOM     24  H   UNL A   1      31.688  34.527  27.124  1.00  0.00     0.163 HD
ATOM     25  O   UNL A   1      32.438  36.087  28.829  1.00  0.00    -0.269 OA
BRANCH  23  26
ATOM     26  C   UNL A   1      34.143  34.574  29.374  1.00  0.00     0.039 A 
ATOM     27  C   UNL A   1      33.947  34.039  30.649  1.00  0.00     0.014 A 
ATOM     28  C   UNL A   1      35.426  34.647  28.825  1.00  0.00     0.014 A 
ATOM     29  C   UNL A   1      35.032  33.498  31.342  1.00  0.00     0.010 A 
ATOM     30  C   UNL A   1      36.490  34.041  29.483  1.00  0.00     0.010 A 
ATOM     31  C   UNL A   1      36.303  33.454  30.745  1.00  0.00    -0.014 A 
BRANCH  31  32
ATOM     32  C   UNL A   1      37.445  32.786  31.417  1.00  0.00     0.031 A 
ATOM     33  C   UNL A   1      38.141  31.632  30.752  1.00  0.00     0.074 A 
ATOM     34  C   UNL A   1      37.804  33.167  32.659  1.00  0.00     0.049 A 
ATOM     35  N   UNL A   1      39.103  30.871  31.207  1.00  0.00    -0.248 NA
ATOM     36  C   UNL A   1      37.672  31.267  29.406  1.00  0.00     0.031 C 
ATOM     37  C   UNL A   1      37.168  34.233  33.434  1.00  0.00     0.029 A 
ATOM     38  N   UNL A   1      38.784  32.690  33.493  1.00  0.00    -0.354 N 
ATOM     39  C   UNL A   1      39.339  29.928  30.216  1.00  0.00     0.074 A 
ATOM     40  C   UNL A   1      38.388  30.180  29.156  1.00  0.00     0.031 C 
ATOM     41  C   UNL A   1      37.786  34.343  34.621  1.00  0.00     0.029 A 
ATOM     42  C   UNL A   1      38.839  33.335  34.704  1.00  0.00     0.049 A 
ATOM     43  H   UNL A   1      39.391  31.956  33.246  1.00  0.00     0.167 HD
ATOM     44  C   UNL A   1      40.280  28.956  30.183  1.00  0.00     0.037 A 
ATOM     45  C   UNL A   1      39.645  33.133  35.764  1.00  0.00     0.037 A 
ATOM     46  C   UNL A   1      41.247  28.729  31.224  1.00  0.00     0.049 A 
ATOM     47  C   UNL A   1      40.694  32.057  35.694  1.00  0.00     0.074 A 
ATOM     48  C   UNL A   1      42.287  27.815  31.253  1.00  0.00     0.029 A 
ATOM     49  N   UNL A   1      41.294  29.426  32.423  1.00  0.00    -0.354 N 
ATOM     50  N   UNL A   1      40.957  31.221  34.720  1.00  0.00    -0.248 NA
ATOM     51  C   UNL A   1      41.564  31.903  36.869  1.00  0.00     0.031 C 
ATOM     52  C   UNL A   1      42.939  27.933  32.485  1.00  0.00     0.029 A 
ATOM     53  C   UNL A   1      42.334  28.951  33.205  1.00  0.00     0.049 A 
ATOM     54  H   UNL A   1      40.679  30.151  32.678  1.00  0.00     0.167 HD
ATOM     55  C   UNL A   1      42.036  30.460  35.150  1.00  0.00     0.074 A 
ATOM     56  C   UNL A   1      42.388  30.945  36.469  1.00  0.00     0.031 C 
ATOM     57  C   UNL A   1      42.677  29.451  34.512  1.00  0.00     0.037 A 
BRANCH  44  58
ATOM     58  C   UNL A   1      40.314  28.066  28.975  1.00  0.00     0.064 A 
ATOM     59  C   UNL A   1      41.067  28.400  27.838  1.00  0.00     0.173 A 
ATOM     60  C   UNL A   1      39.613  26.851  28.965  1.00  0.00     0.173 A 
ATOM     61  F   UNL A   1      41.745  29.557  27.793  1.00  0.00    -0.203 F 
ATOM     62  C   UNL A   1      41.092  27.564  26.725  1.00  0.00     0.198 A 
ATOM     63  C   UNL A   1      39.665  26.004  27.862  1.00  0.00     0.198 A 
ATOM     64  F   UNL A   1      38.883  26.482  30.028  1.00  0.00    -0.203 F 
ATOM     65  F   UNL A   1      41.778  27.928  25.633  1.00  0.00    -0.200 F 
ATOM     66  C   UNL A   1      40.397  26.364  26.740  1.00  0.00     0.200 A 
ATOM     67  F   UNL A   1      39.002  24.839  27.881  1.00  0.00    -0.200 F 
ATOM     68  F   UNL A   1      40.428  25.558  25.670  1.00  0.00    -0.200 F 
ENDBRANCH  44  58
BRANCH  45  69
ATOM     69  C   UNL A   1      39.512  33.987  36.972  1.00  0.00     0.064 A 
ATOM     70  C   UNL A   1      40.155  35.231  37.046  1.00  0.00     0.173 A 
ATOM     71  C   UNL A   1      38.746  33.582  38.074  1.00  0.00     0.173 A 
ATOM     72  F   UNL A   1      40.915  35.652  36.024  1.00  0.00    -0.203 F 
ATOM     73  C   UNL A   1      40.056  36.027  38.185  1.00  0.00     0.198 A 
ATOM     74  C   UNL A   1      38.626  34.391  39.202  1.00  0.00     0.198 A 
ATOM     75  F   UNL A   1      38.107  32.404  38.051  1.00  0.00    -0.203 F 
ATOM     76  F   UNL A   1      40.718  37.191  38.246  1.00  0.00    -0.200 F 
ATOM     77  C   UNL A   1      39.287  35.608  39.260  1.00  0.00     0.200 A 
ATOM     78  F   UNL A   1      37.871  33.990  40.234  1.00  0.00    -0.200 F 
ATOM     79  F   UNL A   1      39.189  36.375  40.354  1.00  0.00    -0.200 F 
ENDBRANCH  45  69
BRANCH  57  80
ATOM     80  C   UNL A   1      43.845  28.825  35.213  1.00  0.00     0.064 A 
ATOM     81  C   UNL A   1      45.150  29.307  35.039  1.00  0.00     0.173 A 
ATOM     82  C   UNL A   1      43.650  27.758  36.102  1.00  0.00     0.173 A 
ATOM     83  F   UNL A   1      45.390  30.316  34.188  1.00  0.00    -0.203 F 
ATOM     84  C   UNL A   1      46.222  28.726  35.713  1.00  0.00     0.198 A 
ATOM     85  C   UNL A   1      44.720  27.198  36.796  1.00  0.00     0.198 A 
ATOM     86  F   UNL A   1      42.419  27.264  36.307  1.00  0.00    -0.203 F 
ATOM     87  F   UNL A   1      47.467  29.173  35.499  1.00  0.00    -0.200 F 
ATOM     88  C   UNL A   1      46.004  27.678  36.595  1.00  0.00     0.200 A 
ATOM     89  F   UNL A   1      44.507  26.193  37.656  1.00  0.00    -0.200 F 
ATOM     90  F   UNL A   1      47.037  27.126  37.247  1.00  0.00    -0.200 F 
ENDBRANCH  57  80
ENDBRANCH  31  32
ENDBRANCH  23  26
ENDBRANCH  21  22
ENDBRANCH  20  21
ENDBRANCH  19  20
ENDBRANCH   1  19
TORSDOF 15
ENDMDL
MODEL 3
REMARK VINA RESULT:     -11.1      6.293     10.527
REMARK SMILES C[C@H]([NH2+]CC1CCCC1)[C@H](C)C(=O)NCCCCNC(=O)c1ccc(-c2c3nc(c(-c4c(F)c(F)c(F)c(F)c4F)c4ccc([nH]4)c(-c4c(F)c(F)c(F)c(F)c4F)c4nc(c(-c5c(F)c(F)c(F)c(F)c5F)c5ccc2[nH]5)C=C4)C=C3)cc1
REMARK SMILES IDX 15 1 14 2 12 3 13 4 10 6 11 7 2 8 1 9 3 10 4 13 5 14 6 15
REMARK SMILES IDX 9 16 7 17 8 18 16 19 17 20 18 21 19 22 20 23 21 25 22 26
REMARK SMILES IDX 23 27 84 28 24 29 83 30 25 31 26 32 27 33 77 34 28 35 82 36
REMARK SMILES IDX 76 37 78 38 29 39 81 40 75 41 74 42 30 44 62 45 42 46 61 47
REMARK SMILES IDX 43 48 46 49 60 50 79 51 44 52 45 53 59 55 80 56 47 57 31 58
REMARK SMILES IDX 32 59 40 60 33 61 34 62 38 63 41 64 35 65 36 66 39 67 37 68
REMARK SMILES IDX 63 69 64 70 72 71 65 72 66 73 70 74 73 75 67 76 68 77 71 78
REMARK SMILES IDX 69 79 48 80 49 81 57 82 50 83 51 84 55 85 58 86 52 87 53 88
REMARK SMILES IDX 56 89 54 90
REMARK H PARENT 14 5 3 11 3 12 19 24 78 43 46 54
REMARK Flexibility Score: inf
ROOT
ATOM      1  C   UNL A   1      37.047  22.220  26.002  1.00  0.00     0.116 C 
ENDROOT
BRANCH   1   2
ATOM      2  N   UNL A   1      36.214  23.384  25.782  1.00  0.00    -0.356 N 
ATOM      3  C   UNL A   1      34.867  23.530  25.909  1.00  0.00     0.228 C 
ATOM      4  O   UNL A   1      34.411  24.675  25.843  1.00  0.00    -0.275 OA
ATOM      5  H   UNL A   1      36.696  24.194  25.496  1.00  0.00     0.163 HD
BRANCH   3   6
ATOM      6  C   UNL A   1      33.938  22.333  26.096  1.00  0.00     0.133 C 
ATOM      7  C   UNL A   1      33.607  22.143  27.581  1.00  0.00     0.024 C 
BRANCH   6   8
ATOM      8  C   UNL A   1      32.805  22.180  25.026  1.00  0.00     0.191 C 
ATOM      9  C   UNL A   1      31.348  22.110  25.502  1.00  0.00     0.076 C 
BRANCH   8  10
ATOM     10  N   UNL A   1      33.058  21.261  23.900  1.00  0.00    -0.343 N 
ATOM     11  H   UNL A   1      34.019  20.931  23.981  1.00  0.00     0.346 HD
ATOM     12  H   UNL A   1      32.861  21.807  23.062  1.00  0.00     0.346 HD
BRANCH  10  13
ATOM     13  C   UNL A   1      32.195  20.086  23.803  1.00  0.00     0.264 C 
BRANCH  13  14
ATOM     14  C   UNL A   1      32.899  18.766  24.144  1.00  0.00     0.044 C 
ATOM     15  C   UNL A   1      32.952  17.760  22.998  1.00  0.00     0.009 C 
ATOM     16  C   UNL A   1      34.365  18.871  24.574  1.00  0.00     0.009 C 
ATOM     17  C   UNL A   1      33.922  16.708  23.517  1.00  0.00     0.001 C 
ATOM     18  C   UNL A   1      34.944  17.473  24.358  1.00  0.00     0.001 C 
ENDBRANCH  13  14
ENDBRANCH  10  13
ENDBRANCH   8  10
ENDBRANCH   6   8
ENDBRANCH   3   6
ENDBRANCH   1   2
BRANCH   1  19
ATOM     19  C   UNL A   1      37.375  21.465  24.721  1.00  0.00     0.023 C 
BRANCH  19  20
ATOM     20  C   UNL A   1      38.228  20.212  24.914  1.00  0.00     0.023 C 
BRANCH  20  21
ATOM     21  C   UNL A   1      39.322  20.313  25.972  1.00  0.00     0.116 C 
BRANCH  21  22
ATOM     22  N   UNL A   1      40.262  19.204  25.944  1.00  0.00    -0.352 N 
ATOM     23  C   UNL A   1      41.630  19.224  26.094  1.00  0.00     0.251 C 
ATOM     24  H   UNL A   1      39.866  18.315  25.796  1.00  0.00     0.163 HD
ATOM     25  O   UNL A   1      42.287  18.202  25.951  1.00  0.00    -0.269 OA
BRANCH  23  26
ATOM     26  C   UNL A   1      42.305  20.505  26.387  1.00  0.00     0.039 A 
ATOM     27  C   UNL A   1      42.653  21.339  25.322  1.00  0.00     0.014 A 
ATOM     28  C   UNL A   1      42.541  20.902  27.705  1.00  0.00     0.014 A 
ATOM     29  C   UNL A   1      43.164  22.612  25.584  1.00  0.00     0.010 A 
ATOM     30  C   UNL A   1      42.978  22.196  27.965  1.00  0.00     0.010 A 
ATOM     31  C   UNL A   1      43.287  23.066  26.907  1.00  0.00    -0.014 A 
BRANCH  31  32
ATOM     32  C   UNL A   1      43.724  24.453  27.206  1.00  0.00     0.031 A 
ATOM     33  C   UNL A   1      42.729  25.468  27.695  1.00  0.00     0.074 A 
ATOM     34  C   UNL A   1      44.998  24.819  26.961  1.00  0.00     0.049 A 
ATOM     35  N   UNL A   1      42.897  26.743  27.935  1.00  0.00    -0.248 NA
ATOM     36  C   UNL A   1      41.355  24.991  27.915  1.00  0.00     0.031 C 
ATOM     37  C   UNL A   1      46.043  23.942  26.430  1.00  0.00     0.029 A 
ATOM     38  N   UNL A   1      45.627  26.029  27.115  1.00  0.00    -0.354 N 
ATOM     39  C   UNL A   1      41.650  27.222  28.313  1.00  0.00     0.074 A 
ATOM     40  C   UNL A   1      40.725  26.114  28.224  1.00  0.00     0.031 C 
ATOM     41  C   UNL A   1      47.187  24.637  26.321  1.00  0.00     0.029 A 
ATOM     42  C   UNL A   1      46.949  26.015  26.743  1.00  0.00     0.049 A 
ATOM     43  H   UNL A   1      45.173  26.831  27.461  1.00  0.00     0.167 HD
ATOM     44  C   UNL A   1      41.314  28.468  28.723  1.00  0.00     0.037 A 
ATOM     45  C   UNL A   1      47.864  27.002  26.738  1.00  0.00     0.037 A 
ATOM     46  C   UNL A   1      42.243  29.559  28.844  1.00  0.00     0.049 A 
ATOM     47  C   UNL A   1      47.468  28.373  27.214  1.00  0.00     0.074 A 
ATOM     48  C   UNL A   1      42.014  30.841  29.317  1.00  0.00     0.029 A 
ATOM     49  N   UNL A   1      43.583  29.498  28.490  1.00  0.00    -0.354 N 
ATOM     50  N   UNL A   1      46.303  28.795  27.641  1.00  0.00    -0.248 NA
ATOM     51  C   UNL A   1      48.516  29.403  27.215  1.00  0.00     0.031 C 
ATOM     52  C   UNL A   1      43.206  31.565  29.214  1.00  0.00     0.029 A 
ATOM     53  C   UNL A   1      44.189  30.722  28.718  1.00  0.00     0.049 A 
ATOM     54  H   UNL A   1      44.035  28.701  28.131  1.00  0.00     0.167 HD
ATOM     55  C   UNL A   1      46.482  30.128  27.986  1.00  0.00     0.074 A 
ATOM     56  C   UNL A   1      47.873  30.441  27.732  1.00  0.00     0.031 C 
ATOM     57  C   UNL A   1      45.577  31.014  28.469  1.00  0.00     0.037 A 
BRANCH  44  58
ATOM     58  C   UNL A   1      39.876  28.715  29.077  1.00  0.00     0.064 A 
ATOM     59  C   UNL A   1      39.390  28.485  30.373  1.00  0.00     0.173 A 
ATOM     60  C   UNL A   1      38.983  29.219  28.120  1.00  0.00     0.173 A 
ATOM     61  F   UNL A   1      40.201  27.992  31.321  1.00  0.00    -0.203 F 
ATOM     62  C   UNL A   1      38.054  28.721  30.689  1.00  0.00     0.198 A 
ATOM     63  C   UNL A   1      37.656  29.482  28.448  1.00  0.00     0.198 A 
ATOM     64  F   UNL A   1      39.398  29.461  26.868  1.00  0.00    -0.203 F 
ATOM     65  F   UNL A   1      37.602  28.447  31.921  1.00  0.00    -0.200 F 
ATOM     66  C   UNL A   1      37.191  29.226  29.729  1.00  0.00     0.200 A 
ATOM     67  F   UNL A   1      36.824  29.980  27.523  1.00  0.00    -0.200 F 
ATOM     68  F   UNL A   1      35.907  29.459  30.038  1.00  0.00    -0.200 F 
ENDBRANCH  44  58
BRANCH  45  69
ATOM     69  C   UNL A   1      49.255  26.724  26.295  1.00  0.00     0.064 A 
ATOM     70  C   UNL A   1      49.648  26.967  24.971  1.00  0.00     0.173 A 
ATOM     71  C   UNL A   1      50.214  26.211  27.178  1.00  0.00     0.173 A 
ATOM     72  F   UNL A   1      48.759  27.439  24.085  1.00  0.00    -0.203 F 
ATOM     73  C   UNL A   1      50.944  26.686  24.542  1.00  0.00     0.198 A 
ATOM     74  C   UNL A   1      51.517  25.956  26.754  1.00  0.00     0.198 A 
ATOM     75  F   UNL A   1      49.890  25.967  28.456  1.00  0.00    -0.203 F 
ATOM     76  F   UNL A   1      51.281  26.885  23.260  1.00  0.00    -0.200 F 
ATOM     77  C   UNL A   1      51.878  26.185  25.435  1.00  0.00     0.200 A 
ATOM     78  F   UNL A   1      52.422  25.485  27.623  1.00  0.00    -0.200 F 
ATOM     79  F   UNL A   1      53.125  25.918  25.024  1.00  0.00    -0.200 F 
ENDBRANCH  45  69
BRANCH  57  80
ATOM     80  C   UNL A   1      46.068  32.395  28.787  1.00  0.00     0.064 A 
ATOM     81  C   UNL A   1      46.010  33.431  27.844  1.00  0.00     0.173 A 
ATOM     82  C   UNL A   1      46.566  32.694  30.064  1.00  0.00     0.173 A 
ATOM     83  F   UNL A   1      45.557  33.191  26.604  1.00  0.00    -0.203 F 
ATOM     84  C   UNL A   1      46.453  34.712  28.162  1.00  0.00     0.198 A 
ATOM     85  C   UNL A   1      46.982  33.982  30.388  1.00  0.00     0.198 A 
ATOM     86  F   UNL A   1      46.637  31.737  31.003  1.00  0.00    -0.203 F 
ATOM     87  F   UNL A   1      46.429  35.677  27.233  1.00  0.00    -0.200 F 
ATOM     88  C   UNL A   1      46.931  34.987  29.434  1.00  0.00     0.200 A 
ATOM     89  F   UNL A   1      47.433  34.250  31.620  1.00  0.00    -0.200 F 
ATOM     90  F   UNL A   1      47.350  36.223  29.740  1.00  0.00    -0.200 F 
ENDBRANCH  57  80
ENDBRANCH  31  32
ENDBRANCH  23  26
ENDBRANCH  21  22
ENDBRANCH  20  21
ENDBRANCH  19  20
ENDBRANCH   1  19
TORSDOF 15
ENDMDL
