MODEL 1
REMARK VINA RESULT:     -12.3      0.000      0.000
REMARK SMILES [NH3+][C@@]1(C(=O)NCCCCNC(=O)c2ccc(-c3c4nc(c(-c5c(F)c(F)c(F)c(F)c5F)c5ccc([nH]5)c(-c5c(F)c(F)c(F)c(F)c5F)c5nc(c(-c6c(F)c(F)c(F)c(F)c6F)c6ccc3[nH]6)C=C5)C=C4)cc2)CCC[C@H]1CCOc1ccccc1
REMARK SMILES IDX 6 1 5 2 3 3 4 4 2 6 76 7 79 8 77 9 78 10 1 11 80 15 81 16
REMARK SMILES IDX 82 17 83 18 84 19 88 20 85 21 87 22 86 23 7 24 8 25 9 26
REMARK SMILES IDX 10 27 11 28 12 30 13 31 14 32 75 33 15 34 74 35 16 36 17 37
REMARK SMILES IDX 18 38 68 39 19 40 73 41 67 42 69 43 20 44 72 45 66 46 65 47
REMARK SMILES IDX 21 49 53 50 33 51 52 52 34 53 37 54 51 55 70 56 35 57 36 58
REMARK SMILES IDX 50 60 71 61 38 62 22 63 23 64 31 65 24 66 25 67 29 68 32 69
REMARK SMILES IDX 26 70 27 71 30 72 28 73 54 74 55 75 63 76 56 77 57 78 61 79
REMARK SMILES IDX 64 80 58 81 59 82 62 83 60 84 39 85 40 86 48 87 41 88 42 89
REMARK SMILES IDX 46 90 49 91 43 92 44 93 47 94 45 95
REMARK H PARENT 5 5 1 12 1 13 1 14 10 29 69 48 37 59
REMARK Flexibility Score: inf
ROOT
ATOM      1  C   UNL A   1      31.661  29.841  25.383  1.00  0.00     0.116 C 
ENDROOT
BRANCH   1   2
ATOM      2  N   UNL A   1      32.879  29.669  24.627  1.00  0.00    -0.351 N 
ATOM      3  C   UNL A   1      33.363  28.607  23.926  1.00  0.00     0.281 C 
ATOM      4  O   UNL A   1      34.454  28.790  23.365  1.00  0.00    -0.268 OA
ATOM      5  H   UNL A   1      33.465  30.461  24.618  1.00  0.00     0.163 HD
BRANCH   3   6
ATOM      6  C   UNL A   1      32.643  27.198  23.831  1.00  0.00     0.176 C 
ATOM      7  C   UNL A   1      33.567  26.077  23.319  1.00  0.00     0.079 C 
ATOM      8  C   UNL A   1      31.417  27.248  22.875  1.00  0.00     0.064 C 
ATOM      9  C   UNL A   1      33.086  25.642  21.947  1.00  0.00     0.008 C 
ATOM     10  C   UNL A   1      31.682  26.196  21.773  1.00  0.00     0.011 C 
BRANCH   6  11
ATOM     11  N   UNL A   1      32.348  26.796  25.229  1.00  0.00    -0.345 N 
ATOM     12  H   UNL A   1      32.350  27.621  25.828  1.00  0.00     0.345 HD
ATOM     13  H   UNL A   1      33.060  26.141  25.551  1.00  0.00     0.345 HD
ATOM     14  H   UNL A   1      31.431  26.350  25.268  1.00  0.00     0.345 HD
ENDBRANCH   6  11
BRANCH   8  15
ATOM     15  C   UNL A   1      29.998  27.008  23.449  1.00  0.00     0.052 C 
BRANCH  15  16
ATOM     16  C   UNL A   1      28.931  28.068  23.150  1.00  0.00     0.230 C 
BRANCH  16  17
ATOM     17  O   UNL A   1      29.302  28.845  22.006  1.00  0.00    -0.494 OA
BRANCH  17  18
ATOM     18  C   UNL A   1      28.962  30.161  22.123  1.00  0.00     0.119 A 
ATOM     19  C   UNL A   1      28.537  30.927  21.038  1.00  0.00     0.046 A 
ATOM     20  C   UNL A   1      29.120  30.741  23.376  1.00  0.00     0.046 A 
ATOM     21  C   UNL A   1      28.188  32.264  21.236  1.00  0.00     0.004 A 
ATOM     22  C   UNL A   1      28.770  32.075  23.572  1.00  0.00     0.004 A 
ATOM     23  C   UNL A   1      28.287  32.832  22.507  1.00  0.00     0.000 A 
ENDBRANCH  17  18
ENDBRANCH  16  17
ENDBRANCH  15  16
ENDBRANCH   8  15
ENDBRANCH   3   6
ENDBRANCH   1   2
BRANCH   1  24
ATOM     24  C   UNL A   1      31.866  30.515  26.733  1.00  0.00     0.023 C 
BRANCH  24  25
ATOM     25  C   UNL A   1      31.642  32.022  26.735  1.00  0.00     0.023 C 
BRANCH  25  26
ATOM     26  C   UNL A   1      32.828  32.832  27.240  1.00  0.00     0.116 C 
BRANCH  26  27
ATOM     27  N   UNL A   1      32.471  34.201  27.586  1.00  0.00    -0.352 N 
ATOM     28  C   UNL A   1      32.969  34.996  28.592  1.00  0.00     0.251 C 
ATOM     29  H   UNL A   1      31.778  34.614  27.021  1.00  0.00     0.163 HD
ATOM     30  O   UNL A   1      32.454  36.068  28.856  1.00  0.00    -0.269 OA
BRANCH  28  31
ATOM     31  C   UNL A   1      34.126  34.508  29.370  1.00  0.00     0.039 A 
ATOM     32  C   UNL A   1      33.906  33.887  30.600  1.00  0.00     0.014 A 
ATOM     33  C   UNL A   1      35.419  34.629  28.853  1.00  0.00     0.014 A 
ATOM     34  C   UNL A   1      34.983  33.322  31.283  1.00  0.00     0.010 A 
ATOM     35  C   UNL A   1      36.474  33.988  29.489  1.00  0.00     0.010 A 
ATOM     36  C   UNL A   1      36.268  33.337  30.714  1.00  0.00    -0.014 A 
BRANCH  36  37
ATOM     37  C   UNL A   1      37.420  32.694  31.391  1.00  0.00     0.031 A 
ATOM     38  C   UNL A   1      38.128  31.546  30.725  1.00  0.00     0.074 A 
ATOM     39  C   UNL A   1      37.779  33.093  32.627  1.00  0.00     0.049 A 
ATOM     40  N   UNL A   1      39.101  30.797  31.178  1.00  0.00    -0.248 NA
ATOM     41  C   UNL A   1      37.657  31.166  29.382  1.00  0.00     0.031 C 
ATOM     42  C   UNL A   1      37.131  34.159  33.395  1.00  0.00     0.029 A 
ATOM     43  N   UNL A   1      38.771  32.642  33.461  1.00  0.00    -0.354 N 
ATOM     44  C   UNL A   1      39.337  29.851  30.190  1.00  0.00     0.074 A 
ATOM     45  C   UNL A   1      38.374  30.080  29.139  1.00  0.00     0.031 C 
ATOM     46  C   UNL A   1      37.761  34.299  34.572  1.00  0.00     0.029 A 
ATOM     47  C   UNL A   1      38.828  33.307  34.661  1.00  0.00     0.049 A 
ATOM     48  H   UNL A   1      39.383  31.908  33.222  1.00  0.00     0.167 HD
ATOM     49  C   UNL A   1      40.293  28.892  30.154  1.00  0.00     0.037 A 
ATOM     50  C   UNL A   1      39.649  33.131  35.714  1.00  0.00     0.037 A 
ATOM     51  C   UNL A   1      41.276  28.698  31.186  1.00  0.00     0.049 A 
ATOM     52  C   UNL A   1      40.705  32.060  35.642  1.00  0.00     0.074 A 
ATOM     53  C   UNL A   1      42.336  27.810  31.211  1.00  0.00     0.029 A 
ATOM     54  N   UNL A   1      41.318  29.409  32.377  1.00  0.00    -0.354 N 
ATOM     55  N   UNL A   1      40.974  31.225  34.667  1.00  0.00    -0.248 NA
ATOM     56  C   UNL A   1      41.577  31.911  36.816  1.00  0.00     0.031 C 
ATOM     57  C   UNL A   1      42.990  27.947  32.439  1.00  0.00     0.029 A 
ATOM     58  C   UNL A   1      42.372  28.959  33.155  1.00  0.00     0.049 A 
ATOM     59  H   UNL A   1      40.693  30.125  32.630  1.00  0.00     0.167 HD
ATOM     60  C   UNL A   1      42.065  30.479  35.093  1.00  0.00     0.074 A 
ATOM     61  C   UNL A   1      42.418  30.970  36.408  1.00  0.00     0.031 C 
ATOM     62  C   UNL A   1      42.717  29.477  34.455  1.00  0.00     0.037 A 
BRANCH  49  63
ATOM     63  C   UNL A   1      40.330  27.984  28.959  1.00  0.00     0.064 A 
ATOM     64  C   UNL A   1      41.083  28.298  27.818  1.00  0.00     0.173 A 
ATOM     65  C   UNL A   1      39.644  26.760  28.977  1.00  0.00     0.173 A 
ATOM     66  F   UNL A   1      41.746  29.461  27.744  1.00  0.00    -0.203 F 
ATOM     67  C   UNL A   1      41.129  27.430  26.729  1.00  0.00     0.198 A 
ATOM     68  C   UNL A   1      39.719  25.881  27.900  1.00  0.00     0.198 A 
ATOM     69  F   UNL A   1      38.912  26.410  30.045  1.00  0.00    -0.203 F 
ATOM     70  F   UNL A   1      41.819  27.771  25.632  1.00  0.00    -0.200 F 
ATOM     71  C   UNL A   1      40.456  26.219  26.775  1.00  0.00     0.200 A 
ATOM     72  F   UNL A   1      39.078  24.705  27.952  1.00  0.00    -0.200 F 
ATOM     73  F   UNL A   1      40.513  25.379  25.733  1.00  0.00    -0.200 F 
ENDBRANCH  49  63
BRANCH  50  74
ATOM     74  C   UNL A   1      39.529  33.999  36.916  1.00  0.00     0.064 A 
ATOM     75  C   UNL A   1      40.194  35.232  36.980  1.00  0.00     0.173 A 
ATOM     76  C   UNL A   1      38.778  33.606  38.033  1.00  0.00     0.173 A 
ATOM     77  F   UNL A   1      40.941  35.644  35.945  1.00  0.00    -0.203 F 
ATOM     78  C   UNL A   1      40.138  36.023  38.127  1.00  0.00     0.198 A 
ATOM     79  C   UNL A   1      38.697  34.413  39.167  1.00  0.00     0.198 A 
ATOM     80  F   UNL A   1      38.117  32.439  38.022  1.00  0.00    -0.203 F 
ATOM     81  F   UNL A   1      40.832  37.169  38.181  1.00  0.00    -0.200 F 
ATOM     82  C   UNL A   1      39.387  35.615  39.218  1.00  0.00     0.200 A 
ATOM     83  F   UNL A   1      37.958  34.021  40.214  1.00  0.00    -0.200 F 
ATOM     84  F   UNL A   1      39.337  36.373  40.321  1.00  0.00    -0.200 F 
ENDBRANCH  50  74
BRANCH  62  85
ATOM     85  C   UNL A   1      43.906  28.878  35.147  1.00  0.00     0.064 A 
ATOM     86  C   UNL A   1      45.198  29.397  34.977  1.00  0.00     0.173 A 
ATOM     87  C   UNL A   1      43.742  27.795  36.024  1.00  0.00     0.173 A 
ATOM     88  F   UNL A   1      45.410  30.422  34.137  1.00  0.00    -0.203 F 
ATOM     89  C   UNL A   1      46.286  28.837  35.641  1.00  0.00     0.198 A 
ATOM     90  C   UNL A   1      44.826  27.260  36.712  1.00  0.00     0.198 A 
ATOM     91  F   UNL A   1      42.525  27.268  36.227  1.00  0.00    -0.203 F 
ATOM     92  F   UNL A   1      47.519  29.316  35.425  1.00  0.00    -0.200 F 
ATOM     93  C   UNL A   1      46.098  27.776  36.513  1.00  0.00     0.200 A 
ATOM     94  F   UNL A   1      44.640  26.245  37.567  1.00  0.00    -0.200 F 
ATOM     95  F   UNL A   1      47.145  27.243  37.159  1.00  0.00    -0.200 F 
ENDBRANCH  62  85
ENDBRANCH  36  37
ENDBRANCH  28  31
ENDBRANCH  26  27
ENDBRANCH  25  26
ENDBRANCH  24  25
ENDBRANCH   1  24
TORSDOF 16
ENDMDL
MODEL 2
REMARK VINA RESULT:     -12.3      6.529     11.920
REMARK SMILES [NH3+][C@@]1(C(=O)NCCCCNC(=O)c2ccc(-c3c4nc(c(-c5c(F)c(F)c(F)c(F)c5F)c5ccc([nH]5)c(-c5c(F)c(F)c(F)c(F)c5F)c5nc(c(-c6c(F)c(F)c(F)c(F)c6F)c6ccc3[nH]6)C=C5)C=C4)cc2)CCC[C@H]1CCOc1ccccc1
REMARK SMILES IDX 6 1 5 2 3 3 4 4 2 6 76 7 79 8 77 9 78 10 1 11 80 15 81 16
REMARK SMILES IDX 82 17 83 18 84 19 88 20 85 21 87 22 86 23 7 24 8 25 9 26
REMARK SMILES IDX 10 27 11 28 12 30 13 31 14 32 75 33 15 34 74 35 16 36 17 37
REMARK SMILES IDX 18 38 68 39 19 40 73 41 67 42 69 43 20 44 72 45 66 46 65 47
REMARK SMILES IDX 21 49 53 50 33 51 52 52 34 53 37 54 51 55 70 56 35 57 36 58
REMARK SMILES IDX 50 60 71 61 38 62 22 63 23 64 31 65 24 66 25 67 29 68 32 69
REMARK SMILES IDX 26 70 27 71 30 72 28 73 54 74 55 75 63 76 56 77 57 78 61 79
REMARK SMILES IDX 64 80 58 81 59 82 62 83 60 84 39 85 40 86 48 87 41 88 42 89
REMARK SMILES IDX 46 90 49 91 43 92 44 93 47 94 45 95
REMARK H PARENT 5 5 1 12 1 13 1 14 10 29 69 48 37 59
REMARK Flexibility Score: inf
ROOT
ATOM      1  C   UNL A   1      35.703  20.843  25.192  1.00  0.00     0.116 C 
ENDROOT
BRANCH   1   2
ATOM      2  N   UNL A   1      35.361  21.431  26.465  1.00  0.00    -0.351 N 
ATOM      3  C   UNL A   1      34.439  22.374  26.804  1.00  0.00     0.281 C 
ATOM      4  O   UNL A   1      34.380  22.655  28.010  1.00  0.00    -0.268 OA
ATOM      5  H   UNL A   1      35.888  21.090  27.223  1.00  0.00     0.163 HD
BRANCH   3   6
ATOM      6  C   UNL A   1      33.504  23.121  25.764  1.00  0.00     0.176 C 
ATOM      7  C   UNL A   1      32.867  24.403  26.333  1.00  0.00     0.079 C 
ATOM      8  C   UNL A   1      32.338  22.208  25.287  1.00  0.00     0.064 C 
ATOM      9  C   UNL A   1      31.372  24.181  26.470  1.00  0.00     0.008 C 
ATOM     10  C   UNL A   1      31.030  22.947  25.652  1.00  0.00     0.011 C 
BRANCH   6  11
ATOM     11  N   UNL A   1      34.402  23.622  24.695  1.00  0.00    -0.345 N 
ATOM     12  H   UNL A   1      34.185  24.599  24.497  1.00  0.00     0.345 HD
ATOM     13  H   UNL A   1      34.267  23.067  23.850  1.00  0.00     0.345 HD
ATOM     14  H   UNL A   1      35.372  23.545  25.002  1.00  0.00     0.345 HD
ENDBRANCH   6  11
BRANCH   8  15
ATOM     15  C   UNL A   1      32.264  21.790  23.797  1.00  0.00     0.052 C 
BRANCH  15  16
ATOM     16  C   UNL A   1      32.475  20.307  23.473  1.00  0.00     0.230 C 
BRANCH  16  17
ATOM     17  O   UNL A   1      32.045  19.488  24.566  1.00  0.00    -0.494 OA
BRANCH  17  18
ATOM     18  C   UNL A   1      32.669  18.274  24.600  1.00  0.00     0.119 A 
ATOM     19  C   UNL A   1      32.650  17.451  25.725  1.00  0.00     0.046 A 
ATOM     20  C   UNL A   1      33.394  17.909  23.471  1.00  0.00     0.046 A 
ATOM     21  C   UNL A   1      33.296  16.215  25.682  1.00  0.00     0.004 A 
ATOM     22  C   UNL A   1      34.036  16.674  23.429  1.00  0.00     0.004 A 
ATOM     23  C   UNL A   1      33.973  15.819  24.527  1.00  0.00     0.000 A 
ENDBRANCH  17  18
ENDBRANCH  16  17
ENDBRANCH  15  16
ENDBRANCH   8  15
ENDBRANCH   3   6
ENDBRANCH   1   2
BRANCH   1  24
ATOM     24  C   UNL A   1      37.140  21.107  24.761  1.00  0.00     0.023 C 
BRANCH  24  25
ATOM     25  C   UNL A   1      38.093  19.936  24.965  1.00  0.00     0.023 C 
BRANCH  25  26
ATOM     26  C   UNL A   1      39.298  20.253  25.839  1.00  0.00     0.116 C 
BRANCH  26  27
ATOM     27  N   UNL A   1      40.242  19.147  25.923  1.00  0.00    -0.352 N 
ATOM     28  C   UNL A   1      41.607  19.186  26.089  1.00  0.00     0.251 C 
ATOM     29  H   UNL A   1      39.848  18.247  25.853  1.00  0.00     0.163 HD
ATOM     30  O   UNL A   1      42.280  18.177  25.981  1.00  0.00    -0.269 OA
BRANCH  28  31
ATOM     31  C   UNL A   1      42.247  20.487  26.373  1.00  0.00     0.039 A 
ATOM     32  C   UNL A   1      42.722  21.257  25.311  1.00  0.00     0.014 A 
ATOM     33  C   UNL A   1      42.329  20.956  27.687  1.00  0.00     0.014 A 
ATOM     34  C   UNL A   1      43.221  22.535  25.563  1.00  0.00     0.010 A 
ATOM     35  C   UNL A   1      42.740  22.260  27.925  1.00  0.00     0.010 A 
ATOM     36  C   UNL A   1      43.199  23.059  26.867  1.00  0.00    -0.014 A 
BRANCH  36  37
ATOM     37  C   UNL A   1      43.669  24.436  27.154  1.00  0.00     0.031 A 
ATOM     38  C   UNL A   1      42.701  25.457  27.684  1.00  0.00     0.074 A 
ATOM     39  C   UNL A   1      44.940  24.782  26.870  1.00  0.00     0.049 A 
ATOM     40  N   UNL A   1      42.888  26.730  27.925  1.00  0.00    -0.248 NA
ATOM     41  C   UNL A   1      41.328  24.994  27.948  1.00  0.00     0.031 C 
ATOM     42  C   UNL A   1      45.955  23.891  26.302  1.00  0.00     0.029 A 
ATOM     43  N   UNL A   1      45.595  25.980  27.012  1.00  0.00    -0.354 N 
ATOM     44  C   UNL A   1      41.657  27.217  28.343  1.00  0.00     0.074 A 
ATOM     45  C   UNL A   1      40.717  26.123  28.270  1.00  0.00     0.031 C 
ATOM     46  C   UNL A   1      47.109  24.565  26.172  1.00  0.00     0.029 A 
ATOM     47  C   UNL A   1      46.907  25.944  26.607  1.00  0.00     0.049 A 
ATOM     48  H   UNL A   1      45.163  26.790  27.369  1.00  0.00     0.167 HD
ATOM     49  C   UNL A   1      41.347  28.463  28.773  1.00  0.00     0.037 A 
ATOM     50  C   UNL A   1      47.838  26.916  26.587  1.00  0.00     0.037 A 
ATOM     51  C   UNL A   1      42.299  29.535  28.883  1.00  0.00     0.049 A 
ATOM     52  C   UNL A   1      47.464  28.291  27.078  1.00  0.00     0.074 A 
ATOM     53  C   UNL A   1      42.107  30.811  29.382  1.00  0.00     0.029 A 
ATOM     54  N   UNL A   1      43.626  29.454  28.487  1.00  0.00    -0.354 N 
ATOM     55  N   UNL A   1      46.318  28.720  27.549  1.00  0.00    -0.248 NA
ATOM     56  C   UNL A   1      48.516  29.316  27.038  1.00  0.00     0.031 C 
ATOM     57  C   UNL A   1      43.305  31.518  29.241  1.00  0.00     0.029 A 
ATOM     58  C   UNL A   1      44.258  30.666  28.706  1.00  0.00     0.049 A 
ATOM     59  H   UNL A   1      44.054  28.653  28.106  1.00  0.00     0.167 HD
ATOM     60  C   UNL A   1      46.521  30.049  27.896  1.00  0.00     0.074 A 
ATOM     61  C   UNL A   1      47.904  30.351  27.594  1.00  0.00     0.031 C 
ATOM     62  C   UNL A   1      45.642  30.940  28.417  1.00  0.00     0.037 A 
BRANCH  49  63
ATOM     63  C   UNL A   1      39.924  28.735  29.167  1.00  0.00     0.064 A 
ATOM     64  C   UNL A   1      38.978  29.199  28.241  1.00  0.00     0.173 A 
ATOM     65  C   UNL A   1      39.490  28.481  30.477  1.00  0.00     0.173 A 
ATOM     66  F   UNL A   1      39.345  29.470  26.979  1.00  0.00    -0.203 F 
ATOM     67  C   UNL A   1      37.655  29.418  28.616  1.00  0.00     0.198 A 
ATOM     68  C   UNL A   1      38.159  28.672  30.840  1.00  0.00     0.198 A 
ATOM     69  F   UNL A   1      40.352  28.033  31.401  1.00  0.00    -0.203 F 
ATOM     70  F   UNL A   1      36.780  29.903  27.725  1.00  0.00    -0.200 F 
ATOM     71  C   UNL A   1      37.245  29.146  29.912  1.00  0.00     0.200 A 
ATOM     72  F   UNL A   1      37.761  28.394  32.090  1.00  0.00    -0.200 F 
ATOM     73  F   UNL A   1      35.968  29.344  30.267  1.00  0.00    -0.200 F 
ENDBRANCH  49  63
BRANCH  50  74
ATOM     74  C   UNL A   1      49.218  26.630  26.113  1.00  0.00     0.064 A 
ATOM     75  C   UNL A   1      50.185  26.114  26.989  1.00  0.00     0.173 A 
ATOM     76  C   UNL A   1      49.609  26.889  24.792  1.00  0.00     0.173 A 
ATOM     77  F   UNL A   1      49.865  25.867  28.268  1.00  0.00    -0.203 F 
ATOM     78  C   UNL A   1      51.497  25.901  26.570  1.00  0.00     0.198 A 
ATOM     79  C   UNL A   1      50.914  26.646  24.366  1.00  0.00     0.198 A 
ATOM     80  F   UNL A   1      48.722  27.377  23.912  1.00  0.00    -0.203 F 
ATOM     81  F   UNL A   1      52.414  25.464  27.445  1.00  0.00    -0.200 F 
ATOM     82  C   UNL A   1      51.859  26.163  25.258  1.00  0.00     0.200 A 
ATOM     83  F   UNL A   1      51.256  26.887  23.093  1.00  0.00    -0.200 F 
ATOM     84  F   UNL A   1      53.122  25.962  24.856  1.00  0.00    -0.200 F 
ENDBRANCH  50  74
BRANCH  62  85
ATOM     85  C   UNL A   1      46.161  32.311  28.739  1.00  0.00     0.064 A 
ATOM     86  C   UNL A   1      46.735  32.609  29.983  1.00  0.00     0.173 A 
ATOM     87  C   UNL A   1      46.119  33.327  27.772  1.00  0.00     0.173 A 
ATOM     88  F   UNL A   1      46.784  31.677  30.946  1.00  0.00    -0.203 F 
ATOM     89  C   UNL A   1      47.225  33.884  30.256  1.00  0.00     0.198 A 
ATOM     90  C   UNL A   1      46.642  34.589  28.037  1.00  0.00     0.198 A 
ATOM     91  F   UNL A   1      45.589  33.089  26.563  1.00  0.00    -0.203 F 
ATOM     92  F   UNL A   1      47.723  34.162  31.469  1.00  0.00    -0.200 F 
ATOM     93  C   UNL A   1      47.186  34.869  29.281  1.00  0.00     0.200 A 
ATOM     94  F   UNL A   1      46.618  35.535  27.088  1.00  0.00    -0.200 F 
ATOM     95  F   UNL A   1      47.667  36.092  29.542  1.00  0.00    -0.200 F 
ENDBRANCH  62  85
ENDBRANCH  36  37
ENDBRANCH  28  31
ENDBRANCH  26  27
ENDBRANCH  25  26
ENDBRANCH  24  25
ENDBRANCH   1  24
TORSDOF 16
ENDMDL
MODEL 3
REMARK VINA RESULT:     -12.2      0.583      7.310
REMARK SMILES [NH3+][C@@]1(C(=O)NCCCCNC(=O)c2ccc(-c3c4nc(c(-c5c(F)c(F)c(F)c(F)c5F)c5ccc([nH]5)c(-c5c(F)c(F)c(F)c(F)c5F)c5nc(c(-c6c(F)c(F)c(F)c(F)c6F)c6ccc3[nH]6)C=C5)C=C4)cc2)CCC[C@H]1CCOc1ccccc1
REMARK SMILES IDX 6 1 5 2 3 3 4 4 2 6 76 7 79 8 77 9 78 10 1 11 80 15 81 16
REMARK SMILES IDX 82 17 83 18 84 19 88 20 85 21 87 22 86 23 7 24 8 25 9 26
REMARK SMILES IDX 10 27 11 28 12 30 13 31 14 32 75 33 15 34 74 35 16 36 17 37
REMARK SMILES IDX 18 38 68 39 19 40 73 41 67 42 69 43 20 44 72 45 66 46 65 47
REMARK SMILES IDX 21 49 53 50 33 51 52 52 34 53 37 54 51 55 70 56 35 57 36 58
REMARK SMILES IDX 50 60 71 61 38 62 22 63 23 64 31 65 24 66 25 67 29 68 32 69
REMARK SMILES IDX 26 70 27 71 30 72 28 73 54 74 55 75 63 76 56 77 57 78 61 79
REMARK SMILES IDX 64 80 58 81 59 82 62 83 60 84 39 85 40 86 48 87 41 88 42 89
REMARK SMILES IDX 46 90 49 91 43 92 44 93 47 94 45 95
REMARK H PARENT 5 5 1 12 1 13 1 14 10 29 69 48 37 59
REMARK Flexibility Score: inf
ROOT
ATOM      1  C   UNL A   1      31.598  29.856  25.368  1.00  0.00     0.116 C 
ENDROOT
BRANCH   1   2
ATOM      2  N   UNL A   1      32.826  29.711  24.623  1.00  0.00    -0.351 N 
ATOM      3  C   UNL A   1      33.334  28.664  23.917  1.00  0.00     0.281 C 
ATOM      4  O   UNL A   1      34.427  28.869  23.368  1.00  0.00    -0.268 OA
ATOM      5  H   UNL A   1      33.399  30.512  24.628  1.00  0.00     0.163 HD
BRANCH   3   6
ATOM      6  C   UNL A   1      32.636  27.244  23.801  1.00  0.00     0.176 C 
ATOM      7  C   UNL A   1      33.573  26.152  23.251  1.00  0.00     0.079 C 
ATOM      8  C   UNL A   1      31.397  27.294  22.863  1.00  0.00     0.064 C 
ATOM      9  C   UNL A   1      33.080  25.739  21.877  1.00  0.00     0.008 C 
ATOM     10  C   UNL A   1      31.664  26.271  21.735  1.00  0.00     0.011 C 
BRANCH   6  11
ATOM     11  N   UNL A   1      32.369  26.807  25.193  1.00  0.00    -0.345 N 
ATOM     12  H   UNL A   1      33.130  27.115  25.799  1.00  0.00     0.345 HD
ATOM     13  H   UNL A   1      32.302  25.790  25.222  1.00  0.00     0.345 HD
ATOM     14  H   UNL A   1      31.491  27.216  25.515  1.00  0.00     0.345 HD
ENDBRANCH   6  11
BRANCH   8  15
ATOM     15  C   UNL A   1      29.991  27.016  23.452  1.00  0.00     0.052 C 
BRANCH  15  16
ATOM     16  C   UNL A   1      28.947  28.133  23.334  1.00  0.00     0.230 C 
BRANCH  16  17
ATOM     17  O   UNL A   1      29.087  28.821  22.086  1.00  0.00    -0.494 OA
BRANCH  17  18
ATOM     18  C   UNL A   1      28.849  30.161  22.187  1.00  0.00     0.119 A 
ATOM     19  C   UNL A   1      28.981  30.859  23.386  1.00  0.00     0.046 A 
ATOM     20  C   UNL A   1      28.399  30.806  21.041  1.00  0.00     0.046 A 
ATOM     21  C   UNL A   1      28.738  32.234  23.410  1.00  0.00     0.004 A 
ATOM     22  C   UNL A   1      28.158  32.178  21.066  1.00  0.00     0.004 A 
ATOM     23  C   UNL A   1      28.345  32.895  22.246  1.00  0.00     0.000 A 
ENDBRANCH  17  18
ENDBRANCH  16  17
ENDBRANCH  15  16
ENDBRANCH   8  15
ENDBRANCH   3   6
ENDBRANCH   1   2
BRANCH   1  24
ATOM     24  C   UNL A   1      31.775  30.542  26.716  1.00  0.00     0.023 C 
BRANCH  24  25
ATOM     25  C   UNL A   1      31.611  32.057  26.687  1.00  0.00     0.023 C 
BRANCH  25  26
ATOM     26  C   UNL A   1      32.840  32.830  27.143  1.00  0.00     0.116 C 
BRANCH  26  27
ATOM     27  N   UNL A   1      32.522  34.172  27.612  1.00  0.00    -0.352 N 
ATOM     28  C   UNL A   1      33.050  34.862  28.679  1.00  0.00     0.251 C 
ATOM     29  H   UNL A   1      31.836  34.650  27.094  1.00  0.00     0.163 HD
ATOM     30  O   UNL A   1      32.567  35.920  29.041  1.00  0.00    -0.269 OA
BRANCH  28  31
ATOM     31  C   UNL A   1      34.202  34.279  29.397  1.00  0.00     0.039 A 
ATOM     32  C   UNL A   1      33.970  33.455  30.499  1.00  0.00     0.014 A 
ATOM     33  C   UNL A   1      35.503  34.516  28.945  1.00  0.00     0.014 A 
ATOM     34  C   UNL A   1      35.047  32.810  31.108  1.00  0.00     0.010 A 
ATOM     35  C   UNL A   1      36.560  33.803  29.494  1.00  0.00     0.010 A 
ATOM     36  C   UNL A   1      36.344  32.951  30.587  1.00  0.00    -0.014 A 
BRANCH  36  37
ATOM     37  C   UNL A   1      37.497  32.232  31.180  1.00  0.00     0.031 A 
ATOM     38  C   UNL A   1      37.985  32.610  32.551  1.00  0.00     0.074 A 
ATOM     39  C   UNL A   1      38.146  31.297  30.458  1.00  0.00     0.049 A 
ATOM     40  N   UNL A   1      39.020  32.163  33.215  1.00  0.00    -0.248 NA
ATOM     41  C   UNL A   1      37.226  33.655  33.259  1.00  0.00     0.031 C 
ATOM     42  C   UNL A   1      37.798  30.885  29.095  1.00  0.00     0.029 A 
ATOM     43  N   UNL A   1      39.241  30.529  30.765  1.00  0.00    -0.354 N 
ATOM     44  C   UNL A   1      39.047  32.887  34.400  1.00  0.00     0.074 A 
ATOM     45  C   UNL A   1      37.963  33.839  34.344  1.00  0.00     0.031 C 
ATOM     46  C   UNL A   1      38.643  29.921  28.698  1.00  0.00     0.029 A 
ATOM     47  C   UNL A   1      39.617  29.675  29.757  1.00  0.00     0.049 A 
ATOM     48  H   UNL A   1      39.713  30.586  31.627  1.00  0.00     0.167 HD
ATOM     49  C   UNL A   1      39.888  32.748  35.452  1.00  0.00     0.037 A 
ATOM     50  C   UNL A   1      40.635  28.796  29.697  1.00  0.00     0.037 A 
ATOM     51  C   UNL A   1      40.938  31.768  35.517  1.00  0.00     0.049 A 
ATOM     52  C   UNL A   1      41.551  28.661  30.885  1.00  0.00     0.074 A 
ATOM     53  C   UNL A   1      41.795  31.491  36.568  1.00  0.00     0.029 A 
ATOM     54  N   UNL A   1      41.273  30.903  34.486  1.00  0.00    -0.354 N 
ATOM     55  N   UNL A   1      41.516  29.293  32.034  1.00  0.00    -0.248 NA
ATOM     56  C   UNL A   1      42.645  27.686  30.771  1.00  0.00     0.031 C 
ATOM     57  C   UNL A   1      42.681  30.492  36.155  1.00  0.00     0.029 A 
ATOM     58  C   UNL A   1      42.341  30.108  34.867  1.00  0.00     0.049 A 
ATOM     59  H   UNL A   1      40.819  30.860  33.614  1.00  0.00     0.167 HD
ATOM     60  C   UNL A   1      42.555  28.766  32.791  1.00  0.00     0.074 A 
ATOM     61  C   UNL A   1      43.193  27.755  31.975  1.00  0.00     0.031 C 
ATOM     62  C   UNL A   1      42.948  29.092  34.046  1.00  0.00     0.037 A 
BRANCH  49  63
ATOM     63  C   UNL A   1      39.704  33.670  36.622  1.00  0.00     0.064 A 
ATOM     64  C   UNL A   1      40.314  34.932  36.670  1.00  0.00     0.173 A 
ATOM     65  C   UNL A   1      38.866  33.306  37.687  1.00  0.00     0.173 A 
ATOM     66  F   UNL A   1      41.136  35.323  35.684  1.00  0.00    -0.203 F 
ATOM     67  C   UNL A   1      40.110  35.787  37.750  1.00  0.00     0.198 A 
ATOM     68  C   UNL A   1      38.639  34.176  38.750  1.00  0.00     0.198 A 
ATOM     69  F   UNL A   1      38.255  32.112  37.690  1.00  0.00    -0.203 F 
ATOM     70  F   UNL A   1      40.739  36.970  37.794  1.00  0.00    -0.200 F 
ATOM     71  C   UNL A   1      39.266  35.413  38.784  1.00  0.00     0.200 A 
ATOM     72  F   UNL A   1      37.812  33.818  39.742  1.00  0.00    -0.200 F 
ATOM     73  F   UNL A   1      39.059  36.242  39.816  1.00  0.00    -0.200 F 
ENDBRANCH  49  63
BRANCH  50  74
ATOM     74  C   UNL A   1      40.835  27.955  28.486  1.00  0.00     0.064 A 
ATOM     75  C   UNL A   1      41.617  28.413  27.416  1.00  0.00     0.173 A 
ATOM     76  C   UNL A   1      40.231  26.696  28.358  1.00  0.00     0.173 A 
ATOM     77  F   UNL A   1      42.201  29.619  27.482  1.00  0.00    -0.203 F 
ATOM     78  C   UNL A   1      41.759  27.660  26.252  1.00  0.00     0.198 A 
ATOM     79  C   UNL A   1      40.400  25.930  27.206  1.00  0.00     0.198 A 
ATOM     80  F   UNL A   1      39.478  26.208  29.355  1.00  0.00    -0.203 F 
ATOM     81  F   UNL A   1      42.463  28.149  25.222  1.00  0.00    -0.200 F 
ATOM     82  C   UNL A   1      41.154  26.417  26.150  1.00  0.00     0.200 A 
ATOM     83  F   UNL A   1      39.824  24.723  27.118  1.00  0.00    -0.200 F 
ATOM     84  F   UNL A   1      41.287  25.694  25.029  1.00  0.00    -0.200 F 
ENDBRANCH  50  74
BRANCH  62  85
ATOM     85  C   UNL A   1      44.090  28.315  34.634  1.00  0.00     0.064 A 
ATOM     86  C   UNL A   1      45.415  28.764  34.540  1.00  0.00     0.173 A 
ATOM     87  C   UNL A   1      43.846  27.125  35.337  1.00  0.00     0.173 A 
ATOM     88  F   UNL A   1      45.701  29.888  33.865  1.00  0.00    -0.203 F 
ATOM     89  C   UNL A   1      46.457  28.036  35.107  1.00  0.00     0.198 A 
ATOM     90  C   UNL A   1      44.887  26.419  35.932  1.00  0.00     0.198 A 
ATOM     91  F   UNL A   1      42.595  26.658  35.463  1.00  0.00    -0.203 F 
ATOM     92  F   UNL A   1      47.721  28.457  34.962  1.00  0.00    -0.200 F 
ATOM     93  C   UNL A   1      46.192  26.870  35.809  1.00  0.00     0.200 A 
ATOM     94  F   UNL A   1      44.627  25.301  36.624  1.00  0.00    -0.200 F 
ATOM     95  F   UNL A   1      47.196  26.176  36.362  1.00  0.00    -0.200 F 
ENDBRANCH  62  85
ENDBRANCH  36  37
ENDBRANCH  28  31
ENDBRANCH  26  27
ENDBRANCH  25  26
ENDBRANCH  24  25
ENDBRANCH   1  24
TORSDOF 16
ENDMDL
