MODEL 1
REMARK VINA RESULT:     -13.7      0.000      0.000
REMARK SMILES Cc1oc2cc(OCC(=O)NCCCCNC(=O)c3ccc(-c4c5nc(c(-c6c(F)c(F)c(F)c(F)c6F)c6ccc([nH]6)c(-c6c(F)c(F)c(F)c(F)c6F)c6nc(c(-c7c(F)c(F)c(F)c(F)c7F)c7ccc4[nH]7)C=C6)C=C5)cc3)ccc2c(=O)c1Oc1ccc(Cl)cc1Cl
REMARK SMILES IDX 12 1 11 2 9 3 10 4 8 6 7 7 6 8 1 9 2 10 3 11 87 12 4 13
REMARK SMILES IDX 85 14 5 15 84 16 86 17 83 18 82 19 88 20 89 21 90 22 95 23
REMARK SMILES IDX 91 24 94 25 96 26 92 27 93 28 13 29 14 30 15 31 16 32 17 33
REMARK SMILES IDX 18 35 19 36 20 37 81 38 21 39 80 40 22 41 23 42 24 43 74 44
REMARK SMILES IDX 25 45 79 46 73 47 75 48 26 49 78 50 72 51 71 52 27 54 59 55
REMARK SMILES IDX 39 56 58 57 40 58 43 59 57 60 76 61 41 62 42 63 56 65 77 66
REMARK SMILES IDX 44 67 28 68 29 69 37 70 30 71 31 72 35 73 38 74 32 75 33 76
REMARK SMILES IDX 36 77 34 78 60 79 61 80 69 81 62 82 63 83 67 84 70 85 64 86
REMARK SMILES IDX 65 87 68 88 66 89 45 90 46 91 54 92 47 93 48 94 52 95 55 96
REMARK SMILES IDX 49 97 50 98 53 99 51 100
REMARK H PARENT 11 5 16 34 75 53 43 64
REMARK Flexibility Score: inf
ROOT
ATOM      1  C   UNL A   1      31.489  29.967  25.025  1.00  0.00     0.116 C 
ENDROOT
BRANCH   1   2
ATOM      2  N   UNL A   1      30.335  30.625  24.447  1.00  0.00    -0.353 N 
ATOM      3  C   UNL A   1      29.771  30.403  23.224  1.00  0.00     0.257 C 
ATOM      4  O   UNL A   1      28.756  31.030  22.916  1.00  0.00    -0.271 OA
ATOM      5  H   UNL A   1      29.908  31.316  25.002  1.00  0.00     0.163 HD
BRANCH   3   6
ATOM      6  C   UNL A   1      30.390  29.361  22.283  1.00  0.00     0.329 C 
BRANCH   6   7
ATOM      7  O   UNL A   1      29.756  28.088  22.266  1.00  0.00    -0.484 OA
BRANCH   7   8
ATOM      8  C   UNL A   1      30.333  27.083  22.993  1.00  0.00     0.123 A 
ATOM      9  C   UNL A   1      34.935  23.314  23.121  1.00  0.00     0.092 C 
ATOM     10  C   UNL A   1      33.731  23.828  23.858  1.00  0.00     0.148 A 
ATOM     11  O   UNL A   1      33.236  24.926  23.173  1.00  0.00    -0.457 OA
ATOM     12  C   UNL A   1      33.170  23.334  24.992  1.00  0.00     0.213 A 
ATOM     13  C   UNL A   1      32.041  25.468  23.535  1.00  0.00     0.142 A 
ATOM     14  C   UNL A   1      31.903  23.984  25.473  1.00  0.00     0.235 A 
ATOM     15  C   UNL A   1      31.551  26.475  22.707  1.00  0.00     0.094 A 
ATOM     16  C   UNL A   1      31.335  25.057  24.648  1.00  0.00     0.069 A 
ATOM     17  O   UNL A   1      31.331  23.625  26.498  1.00  0.00    -0.285 OA
ATOM     18  C   UNL A   1      30.108  25.654  24.949  1.00  0.00     0.020 A 
ATOM     19  C   UNL A   1      29.610  26.664  24.116  1.00  0.00     0.047 A 
BRANCH  12  20
ATOM     20  O   UNL A   1      33.571  22.268  25.792  1.00  0.00    -0.448 OA
BRANCH  20  21
ATOM     21  C   UNL A   1      33.642  20.993  25.300  1.00  0.00     0.146 A 
ATOM     22  C   UNL A   1      32.427  20.369  25.001  1.00  0.00     0.050 A 
ATOM     23  C   UNL A   1      34.850  20.310  25.123  1.00  0.00     0.085 A 
ATOM     24  C   UNL A   1      32.425  19.101  24.420  1.00  0.00     0.024 A 
ATOM     25  C   UNL A   1      34.847  19.043  24.536  1.00  0.00     0.045 A 
ATOM     26  Cl  UNL A   1      36.363  21.004  25.576  1.00  0.00    -0.080 Cl
ATOM     27  C   UNL A   1      33.636  18.455  24.171  1.00  0.00     0.042 A 
ATOM     28  Cl  UNL A   1      33.634  16.921  23.393  1.00  0.00    -0.084 Cl
ENDBRANCH  20  21
ENDBRANCH  12  20
ENDBRANCH   7   8
ENDBRANCH   6   7
ENDBRANCH   3   6
ENDBRANCH   1   2
BRANCH   1  29
ATOM     29  C   UNL A   1      31.795  30.458  26.438  1.00  0.00     0.023 C 
BRANCH  29  30
ATOM     30  C   UNL A   1      31.556  31.951  26.673  1.00  0.00     0.023 C 
BRANCH  30  31
ATOM     31  C   UNL A   1      32.699  32.707  27.341  1.00  0.00     0.116 C 
BRANCH  31  32
ATOM     32  N   UNL A   1      32.370  34.089  27.658  1.00  0.00    -0.352 N 
ATOM     33  C   UNL A   1      32.961  34.940  28.558  1.00  0.00     0.251 C 
ATOM     34  H   UNL A   1      31.613  34.468  27.153  1.00  0.00     0.163 HD
ATOM     35  O   UNL A   1      32.483  36.051  28.764  1.00  0.00    -0.269 OA
BRANCH  33  36
ATOM     36  C   UNL A   1      34.155  34.502  29.312  1.00  0.00     0.039 A 
ATOM     37  C   UNL A   1      33.980  33.950  30.583  1.00  0.00     0.014 A 
ATOM     38  C   UNL A   1      35.436  34.610  28.763  1.00  0.00     0.014 A 
ATOM     39  C   UNL A   1      35.079  33.428  31.270  1.00  0.00     0.010 A 
ATOM     40  C   UNL A   1      36.520  34.032  29.418  1.00  0.00     0.010 A 
ATOM     41  C   UNL A   1      36.349  33.425  30.672  1.00  0.00    -0.014 A 
BRANCH  41  42
ATOM     42  C   UNL A   1      37.508  32.764  31.326  1.00  0.00     0.031 A 
ATOM     43  C   UNL A   1      38.187  31.598  30.666  1.00  0.00     0.074 A 
ATOM     44  C   UNL A   1      37.894  33.162  32.553  1.00  0.00     0.049 A 
ATOM     45  N   UNL A   1      39.146  30.831  31.121  1.00  0.00    -0.248 NA
ATOM     46  C   UNL A   1      37.709  31.229  29.325  1.00  0.00     0.031 C 
ATOM     47  C   UNL A   1      37.285  34.250  33.319  1.00  0.00     0.029 A 
ATOM     48  N   UNL A   1      38.880  32.684  33.382  1.00  0.00    -0.354 N 
ATOM     49  C   UNL A   1      39.372  29.882  30.134  1.00  0.00     0.074 A 
ATOM     50  C   UNL A   1      38.421  30.140  29.074  1.00  0.00     0.031 C 
ATOM     51  C   UNL A   1      37.917  34.368  34.498  1.00  0.00     0.029 A 
ATOM     52  C   UNL A   1      38.948  33.338  34.589  1.00  0.00     0.049 A 
ATOM     53  H   UNL A   1      39.480  31.944  33.134  1.00  0.00     0.167 HD
ATOM     54  C   UNL A   1      40.301  28.896  30.107  1.00  0.00     0.037 A 
ATOM     55  C   UNL A   1      39.741  33.121  35.655  1.00  0.00     0.037 A 
ATOM     56  C   UNL A   1      41.263  28.659  31.152  1.00  0.00     0.049 A 
ATOM     57  C   UNL A   1      40.759  32.013  35.603  1.00  0.00     0.074 A 
ATOM     58  C   UNL A   1      42.290  27.732  31.185  1.00  0.00     0.029 A 
ATOM     59  N   UNL A   1      41.313  29.353  32.352  1.00  0.00    -0.354 N 
ATOM     60  N   UNL A   1      41.011  31.167  34.635  1.00  0.00    -0.248 NA
ATOM     61  C   UNL A   1      41.603  31.833  36.793  1.00  0.00     0.031 C 
ATOM     62  C   UNL A   1      42.932  27.833  32.423  1.00  0.00     0.029 A 
ATOM     63  C   UNL A   1      42.338  28.856  33.143  1.00  0.00     0.049 A 
ATOM     64  H   UNL A   1      40.710  30.090  32.606  1.00  0.00     0.167 HD
ATOM     65  C   UNL A   1      42.056  30.372  35.085  1.00  0.00     0.074 A 
ATOM     66  C   UNL A   1      42.401  30.845  36.409  1.00  0.00     0.031 C 
ATOM     67  C   UNL A   1      42.673  29.342  34.457  1.00  0.00     0.037 A 
BRANCH  54  68
ATOM     68  C   UNL A   1      40.326  27.997  28.907  1.00  0.00     0.064 A 
ATOM     69  C   UNL A   1      41.069  28.321  27.761  1.00  0.00     0.173 A 
ATOM     70  C   UNL A   1      39.635  26.777  28.917  1.00  0.00     0.173 A 
ATOM     71  F   UNL A   1      41.740  29.481  27.697  1.00  0.00    -0.203 F 
ATOM     72  C   UNL A   1      41.097  27.468  26.660  1.00  0.00     0.198 A 
ATOM     73  C   UNL A   1      39.688  25.913  27.825  1.00  0.00     0.198 A 
ATOM     74  F   UNL A   1      38.913  26.416  29.990  1.00  0.00    -0.203 F 
ATOM     75  F   UNL A   1      41.777  27.820  25.561  1.00  0.00    -0.200 F 
ATOM     76  C   UNL A   1      40.413  26.263  26.696  1.00  0.00     0.200 A 
ATOM     77  F   UNL A   1      39.036  24.743  27.867  1.00  0.00    -0.200 F 
ATOM     78  F   UNL A   1      40.447  25.440  25.640  1.00  0.00    -0.200 F 
ENDBRANCH  54  68
BRANCH  55  79
ATOM     79  C   UNL A   1      39.615  33.981  36.860  1.00  0.00     0.064 A 
ATOM     80  C   UNL A   1      38.825  33.584  37.947  1.00  0.00     0.173 A 
ATOM     81  C   UNL A   1      40.275  35.215  36.949  1.00  0.00     0.173 A 
ATOM     82  F   UNL A   1      38.157  32.423  37.899  1.00  0.00    -0.203 F 
ATOM     83  C   UNL A   1      38.684  34.397  39.070  1.00  0.00     0.198 A 
ATOM     84  C   UNL A   1      40.156  36.015  38.083  1.00  0.00     0.198 A 
ATOM     85  F   UNL A   1      41.046  35.640  35.937  1.00  0.00    -0.203 F 
ATOM     86  F   UNL A   1      37.887  34.013  40.076  1.00  0.00    -0.200 F 
ATOM     87  C   UNL A   1      39.354  35.609  39.140  1.00  0.00     0.200 A 
ATOM     88  F   UNL A   1      40.814  37.181  38.152  1.00  0.00    -0.200 F 
ATOM     89  F   UNL A   1      39.221  36.389  40.221  1.00  0.00    -0.200 F 
ENDBRANCH  55  79
BRANCH  67  90
ATOM     90  C   UNL A   1      43.805  28.673  35.180  1.00  0.00     0.064 A 
ATOM     91  C   UNL A   1      45.124  29.136  35.067  1.00  0.00     0.173 A 
ATOM     92  C   UNL A   1      43.560  27.585  36.033  1.00  0.00     0.173 A 
ATOM     93  F   UNL A   1      45.411  30.162  34.253  1.00  0.00    -0.203 F 
ATOM     94  C   UNL A   1      46.159  28.522  35.767  1.00  0.00     0.198 A 
ATOM     95  C   UNL A   1      44.593  26.992  36.753  1.00  0.00     0.198 A 
ATOM     96  F   UNL A   1      42.314  27.109  36.180  1.00  0.00    -0.203 F 
ATOM     97  F   UNL A   1      47.418  28.955  35.614  1.00  0.00    -0.200 F 
ATOM     98  C   UNL A   1      45.892  27.457  36.616  1.00  0.00     0.200 A 
ATOM     99  F   UNL A   1      44.331  25.972  37.581  1.00  0.00    -0.200 F 
ATOM    100  F   UNL A   1      46.888  26.875  37.296  1.00  0.00    -0.200 F 
ENDBRANCH  67  90
ENDBRANCH  41  42
ENDBRANCH  33  36
ENDBRANCH  31  32
ENDBRANCH  30  31
ENDBRANCH  29  30
ENDBRANCH   1  29
TORSDOF 15
ENDMDL
MODEL 2
REMARK VINA RESULT:     -13.0      2.092      7.598
REMARK SMILES Cc1oc2cc(OCC(=O)NCCCCNC(=O)c3ccc(-c4c5nc(c(-c6c(F)c(F)c(F)c(F)c6F)c6ccc([nH]6)c(-c6c(F)c(F)c(F)c(F)c6F)c6nc(c(-c7c(F)c(F)c(F)c(F)c7F)c7ccc4[nH]7)C=C6)C=C5)cc3)ccc2c(=O)c1Oc1ccc(Cl)cc1Cl
REMARK SMILES IDX 12 1 11 2 9 3 10 4 8 6 7 7 6 8 1 9 2 10 3 11 87 12 4 13
REMARK SMILES IDX 85 14 5 15 84 16 86 17 83 18 82 19 88 20 89 21 90 22 95 23
REMARK SMILES IDX 91 24 94 25 96 26 92 27 93 28 13 29 14 30 15 31 16 32 17 33
REMARK SMILES IDX 18 35 19 36 20 37 81 38 21 39 80 40 22 41 23 42 24 43 74 44
REMARK SMILES IDX 25 45 79 46 73 47 75 48 26 49 78 50 72 51 71 52 27 54 59 55
REMARK SMILES IDX 39 56 58 57 40 58 43 59 57 60 76 61 41 62 42 63 56 65 77 66
REMARK SMILES IDX 44 67 28 68 29 69 37 70 30 71 31 72 35 73 38 74 32 75 33 76
REMARK SMILES IDX 36 77 34 78 60 79 61 80 69 81 62 82 63 83 67 84 70 85 64 86
REMARK SMILES IDX 65 87 68 88 66 89 45 90 46 91 54 92 47 93 48 94 52 95 55 96
REMARK SMILES IDX 49 97 50 98 53 99 51 100
REMARK H PARENT 11 5 16 34 75 53 43 64
REMARK Flexibility Score: inf
ROOT
ATOM      1  C   UNL A   1      34.146  34.092  28.076  1.00  0.00     0.116 C 
ENDROOT
BRANCH   1   2
ATOM      2  N   UNL A   1      35.362  33.308  28.013  1.00  0.00    -0.353 N 
ATOM      3  C   UNL A   1      35.480  31.948  27.961  1.00  0.00     0.257 C 
ATOM      4  O   UNL A   1      36.605  31.454  27.864  1.00  0.00    -0.271 OA
ATOM      5  H   UNL A   1      36.205  33.816  28.009  1.00  0.00     0.163 HD
BRANCH   3   6
ATOM      6  C   UNL A   1      34.217  31.078  27.989  1.00  0.00     0.329 C 
BRANCH   6   7
ATOM      7  O   UNL A   1      33.644  30.777  26.722  1.00  0.00    -0.484 OA
BRANCH   7   8
ATOM      8  C   UNL A   1      33.173  29.508  26.526  1.00  0.00     0.123 A 
ATOM      9  C   UNL A   1      33.976  24.553  23.331  1.00  0.00     0.092 C 
ATOM     10  C   UNL A   1      33.211  25.196  24.454  1.00  0.00     0.148 A 
ATOM     11  O   UNL A   1      33.785  26.428  24.723  1.00  0.00    -0.457 OA
ATOM     12  C   UNL A   1      32.128  24.710  25.115  1.00  0.00     0.213 A 
ATOM     13  C   UNL A   1      33.169  27.289  25.578  1.00  0.00     0.142 A 
ATOM     14  C   UNL A   1      31.491  25.604  26.142  1.00  0.00     0.235 A 
ATOM     15  C   UNL A   1      33.737  28.557  25.682  1.00  0.00     0.094 A 
ATOM     16  C   UNL A   1      32.044  26.953  26.305  1.00  0.00     0.069 A 
ATOM     17  O   UNL A   1      30.523  25.249  26.807  1.00  0.00    -0.285 OA
ATOM     18  C   UNL A   1      31.461  27.897  27.155  1.00  0.00     0.020 A 
ATOM     19  C   UNL A   1      32.028  29.174  27.258  1.00  0.00     0.047 A 
BRANCH  12  20
ATOM     20  O   UNL A   1      31.471  23.492  24.971  1.00  0.00    -0.448 OA
BRANCH  20  21
ATOM     21  C   UNL A   1      32.156  22.309  24.950  1.00  0.00     0.146 A 
ATOM     22  C   UNL A   1      32.088  21.566  23.766  1.00  0.00     0.050 A 
ATOM     23  C   UNL A   1      32.872  21.822  26.049  1.00  0.00     0.085 A 
ATOM     24  C   UNL A   1      32.829  20.390  23.645  1.00  0.00     0.024 A 
ATOM     25  C   UNL A   1      33.617  20.648  25.923  1.00  0.00     0.045 A 
ATOM     26  Cl  UNL A   1      32.897  22.655  27.560  1.00  0.00    -0.080 Cl
ATOM     27  C   UNL A   1      33.605  19.950  24.716  1.00  0.00     0.042 A 
ATOM     28  Cl  UNL A   1      34.569  18.536  24.539  1.00  0.00    -0.084 Cl
ENDBRANCH  20  21
ENDBRANCH  12  20
ENDBRANCH   7   8
ENDBRANCH   6   7
ENDBRANCH   3   6
ENDBRANCH   1   2
BRANCH   1  29
ATOM     29  C   UNL A   1      34.420  35.594  28.108  1.00  0.00     0.023 C 
BRANCH  29  30
ATOM     30  C   UNL A   1      33.492  36.405  29.014  1.00  0.00     0.023 C 
BRANCH  30  31
ATOM     31  C   UNL A   1      32.620  35.592  29.966  1.00  0.00     0.116 C 
BRANCH  31  32
ATOM     32  N   UNL A   1      32.330  36.282  31.214  1.00  0.00    -0.352 N 
ATOM     33  C   UNL A   1      32.922  36.139  32.445  1.00  0.00     0.251 C 
ATOM     34  H   UNL A   1      31.605  36.947  31.169  1.00  0.00     0.163 HD
ATOM     35  O   UNL A   1      32.478  36.740  33.418  1.00  0.00    -0.269 OA
BRANCH  33  36
ATOM     36  C   UNL A   1      34.074  35.226  32.607  1.00  0.00     0.039 A 
ATOM     37  C   UNL A   1      35.336  35.658  32.192  1.00  0.00     0.014 A 
ATOM     38  C   UNL A   1      33.918  33.964  33.185  1.00  0.00     0.014 A 
ATOM     39  C   UNL A   1      36.456  34.860  32.434  1.00  0.00     0.010 A 
ATOM     40  C   UNL A   1      35.041  33.198  33.485  1.00  0.00     0.010 A 
ATOM     41  C   UNL A   1      36.322  33.644  33.123  1.00  0.00    -0.014 A 
BRANCH  41  42
ATOM     42  C   UNL A   1      37.511  32.838  33.505  1.00  0.00     0.031 A 
ATOM     43  C   UNL A   1      38.254  33.138  34.775  1.00  0.00     0.074 A 
ATOM     44  C   UNL A   1      37.968  31.891  32.663  1.00  0.00     0.049 A 
ATOM     45  N   UNL A   1      39.365  32.614  35.228  1.00  0.00    -0.248 NA
ATOM     46  C   UNL A   1      37.687  34.184  35.640  1.00  0.00     0.031 C 
ATOM     47  C   UNL A   1      37.362  31.537  31.379  1.00  0.00     0.029 A 
ATOM     48  N   UNL A   1      39.061  31.064  32.754  1.00  0.00    -0.354 N 
ATOM     49  C   UNL A   1      39.638  33.276  36.417  1.00  0.00     0.074 A 
ATOM     50  C   UNL A   1      38.602  34.271  36.594  1.00  0.00     0.031 C 
ATOM     51  C   UNL A   1      38.082  30.558  30.808  1.00  0.00     0.029 A 
ATOM     52  C   UNL A   1      39.221  30.242  31.664  1.00  0.00     0.049 A 
ATOM     53  H   UNL A   1      39.671  31.060  33.527  1.00  0.00     0.167 HD
ATOM     54  C   UNL A   1      40.651  33.060  37.291  1.00  0.00     0.037 A 
ATOM     55  C   UNL A   1      40.186  29.347  31.380  1.00  0.00     0.037 A 
ATOM     56  C   UNL A   1      41.664  32.051  37.124  1.00  0.00     0.049 A 
ATOM     57  C   UNL A   1      41.305  29.134  32.363  1.00  0.00     0.074 A 
ATOM     58  C   UNL A   1      42.689  31.707  37.989  1.00  0.00     0.029 A 
ATOM     59  N   UNL A   1      41.784  31.226  36.016  1.00  0.00    -0.354 N 
ATOM     60  N   UNL A   1      41.514  29.716  33.518  1.00  0.00    -0.248 NA
ATOM     61  C   UNL A   1      42.322  28.135  32.002  1.00  0.00     0.031 C 
ATOM     62  C   UNL A   1      43.456  30.707  37.384  1.00  0.00     0.029 A 
ATOM     63  C   UNL A   1      42.881  30.392  36.163  1.00  0.00     0.049 A 
ATOM     64  H   UNL A   1      41.179  31.232  35.239  1.00  0.00     0.167 HD
ATOM     65  C   UNL A   1      42.666  29.140  34.034  1.00  0.00     0.074 A 
ATOM     66  C   UNL A   1      43.106  28.152  33.072  1.00  0.00     0.031 C 
ATOM     67  C   UNL A   1      43.304  29.409  35.199  1.00  0.00     0.037 A 
BRANCH  54  68
ATOM     68  C   UNL A   1      40.714  33.931  38.510  1.00  0.00     0.064 A 
ATOM     69  C   UNL A   1      40.131  33.538  39.725  1.00  0.00     0.173 A 
ATOM     70  C   UNL A   1      41.402  35.153  38.478  1.00  0.00     0.173 A 
ATOM     71  F   UNL A   1      39.453  32.383  39.807  1.00  0.00    -0.203 F 
ATOM     72  C   UNL A   1      40.213  34.350  40.854  1.00  0.00     0.198 A 
ATOM     73  C   UNL A   1      41.506  35.948  39.617  1.00  0.00     0.198 A 
ATOM     74  F   UNL A   1      41.982  35.573  37.343  1.00  0.00    -0.203 F 
ATOM     75  F   UNL A   1      39.610  33.974  41.990  1.00  0.00    -0.200 F 
ATOM     76  C   UNL A   1      40.905  35.549  40.801  1.00  0.00     0.200 A 
ATOM     77  F   UNL A   1      42.187  37.102  39.566  1.00  0.00    -0.200 F 
ATOM     78  F   UNL A   1      40.989  36.325  41.890  1.00  0.00    -0.200 F 
ENDBRANCH  54  68
BRANCH  55  79
ATOM     79  C   UNL A   1      40.129  28.573  30.113  1.00  0.00     0.064 A 
ATOM     80  C   UNL A   1      39.480  27.333  30.057  1.00  0.00     0.173 A 
ATOM     81  C   UNL A   1      40.725  29.052  28.937  1.00  0.00     0.173 A 
ATOM     82  F   UNL A   1      38.916  26.822  31.161  1.00  0.00    -0.203 F 
ATOM     83  C   UNL A   1      39.445  26.591  28.878  1.00  0.00     0.198 A 
ATOM     84  C   UNL A   1      40.665  28.323  27.752  1.00  0.00     0.198 A 
ATOM     85  F   UNL A   1      41.355  30.236  28.937  1.00  0.00    -0.203 F 
ATOM     86  F   UNL A   1      38.855  25.388  28.863  1.00  0.00    -0.200 F 
ATOM     87  C   UNL A   1      40.032  27.089  27.725  1.00  0.00     0.200 A 
ATOM     88  F   UNL A   1      41.223  28.814  26.636  1.00  0.00    -0.200 F 
ATOM     89  F   UNL A   1      39.994  26.378  26.590  1.00  0.00    -0.200 F 
ENDBRANCH  55  79
BRANCH  67  90
ATOM     90  C   UNL A   1      44.529  28.602  35.516  1.00  0.00     0.064 A 
ATOM     91  C   UNL A   1      45.806  29.018  35.111  1.00  0.00     0.173 A 
ATOM     92  C   UNL A   1      44.429  27.426  36.274  1.00  0.00     0.173 A 
ATOM     93  F   UNL A   1      45.952  30.127  34.371  1.00  0.00    -0.203 F 
ATOM     94  C   UNL A   1      46.936  28.273  35.438  1.00  0.00     0.198 A 
ATOM     95  C   UNL A   1      45.564  26.700  36.624  1.00  0.00     0.198 A 
ATOM     96  F   UNL A   1      43.230  26.990  36.691  1.00  0.00    -0.203 F 
ATOM     97  F   UNL A   1      48.143  28.666  35.006  1.00  0.00    -0.200 F 
ATOM     98  C   UNL A   1      46.816  27.120  36.200  1.00  0.00     0.200 A 
ATOM     99  F   UNL A   1      45.446  25.594  37.370  1.00  0.00    -0.200 F 
ATOM    100  F   UNL A   1      47.906  26.412  36.522  1.00  0.00    -0.200 F 
ENDBRANCH  67  90
ENDBRANCH  41  42
ENDBRANCH  33  36
ENDBRANCH  31  32
ENDBRANCH  30  31
ENDBRANCH  29  30
ENDBRANCH   1  29
TORSDOF 15
ENDMDL
MODEL 3
REMARK VINA RESULT:     -13.0      2.030      7.622
REMARK SMILES Cc1oc2cc(OCC(=O)NCCCCNC(=O)c3ccc(-c4c5nc(c(-c6c(F)c(F)c(F)c(F)c6F)c6ccc([nH]6)c(-c6c(F)c(F)c(F)c(F)c6F)c6nc(c(-c7c(F)c(F)c(F)c(F)c7F)c7ccc4[nH]7)C=C6)C=C5)cc3)ccc2c(=O)c1Oc1ccc(Cl)cc1Cl
REMARK SMILES IDX 12 1 11 2 9 3 10 4 8 6 7 7 6 8 1 9 2 10 3 11 87 12 4 13
REMARK SMILES IDX 85 14 5 15 84 16 86 17 83 18 82 19 88 20 89 21 90 22 95 23
REMARK SMILES IDX 91 24 94 25 96 26 92 27 93 28 13 29 14 30 15 31 16 32 17 33
REMARK SMILES IDX 18 35 19 36 20 37 81 38 21 39 80 40 22 41 23 42 24 43 74 44
REMARK SMILES IDX 25 45 79 46 73 47 75 48 26 49 78 50 72 51 71 52 27 54 59 55
REMARK SMILES IDX 39 56 58 57 40 58 43 59 57 60 76 61 41 62 42 63 56 65 77 66
REMARK SMILES IDX 44 67 28 68 29 69 37 70 30 71 31 72 35 73 38 74 32 75 33 76
REMARK SMILES IDX 36 77 34 78 60 79 61 80 69 81 62 82 63 83 67 84 70 85 64 86
REMARK SMILES IDX 65 87 68 88 66 89 45 90 46 91 54 92 47 93 48 94 52 95 55 96
REMARK SMILES IDX 49 97 50 98 53 99 51 100
REMARK H PARENT 11 5 16 34 75 53 43 64
REMARK Flexibility Score: inf
ROOT
ATOM      1  C   UNL A   1      34.055  33.549  28.211  1.00  0.00     0.116 C 
ENDROOT
BRANCH   1   2
ATOM      2  N   UNL A   1      35.075  32.536  28.037  1.00  0.00    -0.353 N 
ATOM      3  C   UNL A   1      34.900  31.211  27.758  1.00  0.00     0.257 C 
ATOM      4  O   UNL A   1      35.895  30.502  27.597  1.00  0.00    -0.271 OA
ATOM      5  H   UNL A   1      36.007  32.839  28.131  1.00  0.00     0.163 HD
BRANCH   3   6
ATOM      6  C   UNL A   1      33.480  30.648  27.620  1.00  0.00     0.329 C 
BRANCH   6   7
ATOM      7  O   UNL A   1      33.004  30.486  26.289  1.00  0.00    -0.484 OA
BRANCH   7   8
ATOM      8  C   UNL A   1      33.116  29.246  25.724  1.00  0.00     0.123 A 
ATOM      9  C   UNL A   1      32.655  23.422  26.850  1.00  0.00     0.092 C 
ATOM     10  C   UNL A   1      32.887  24.467  25.797  1.00  0.00     0.148 A 
ATOM     11  O   UNL A   1      32.644  25.711  26.356  1.00  0.00    -0.457 OA
ATOM     12  C   UNL A   1      33.282  24.286  24.510  1.00  0.00     0.213 A 
ATOM     13  C   UNL A   1      32.956  26.839  25.661  1.00  0.00     0.142 A 
ATOM     14  C   UNL A   1      33.533  25.518  23.687  1.00  0.00     0.235 A 
ATOM     15  C   UNL A   1      32.814  28.041  26.351  1.00  0.00     0.094 A 
ATOM     16  C   UNL A   1      33.396  26.819  24.352  1.00  0.00     0.069 A 
ATOM     17  O   UNL A   1      33.873  25.461  22.509  1.00  0.00    -0.285 OA
ATOM     18  C   UNL A   1      33.708  28.019  23.708  1.00  0.00     0.020 A 
ATOM     19  C   UNL A   1      33.570  29.229  24.400  1.00  0.00     0.047 A 
BRANCH  12  20
ATOM     20  O   UNL A   1      33.533  23.107  23.814  1.00  0.00    -0.448 OA
BRANCH  20  21
ATOM     21  C   UNL A   1      34.617  22.325  24.102  1.00  0.00     0.146 A 
ATOM     22  C   UNL A   1      35.873  22.853  23.786  1.00  0.00     0.050 A 
ATOM     23  C   UNL A   1      34.508  21.043  24.655  1.00  0.00     0.085 A 
ATOM     24  C   UNL A   1      37.026  22.145  24.127  1.00  0.00     0.024 A 
ATOM     25  C   UNL A   1      35.663  20.340  25.000  1.00  0.00     0.045 A 
ATOM     26  Cl  UNL A   1      32.975  20.313  24.964  1.00  0.00    -0.080 Cl
ATOM     27  C   UNL A   1      36.914  20.904  24.751  1.00  0.00     0.042 A 
ATOM     28  Cl  UNL A   1      38.338  20.065  25.230  1.00  0.00    -0.084 Cl
ENDBRANCH  20  21
ENDBRANCH  12  20
ENDBRANCH   7   8
ENDBRANCH   6   7
ENDBRANCH   3   6
ENDBRANCH   1   2
BRANCH   1  29
ATOM     29  C   UNL A   1      34.644  34.946  28.396  1.00  0.00     0.023 C 
BRANCH  29  30
ATOM     30  C   UNL A   1      33.674  35.992  28.949  1.00  0.00     0.023 C 
BRANCH  30  31
ATOM     31  C   UNL A   1      32.531  35.451  29.801  1.00  0.00     0.116 C 
BRANCH  31  32
ATOM     32  N   UNL A   1      32.299  36.224  31.012  1.00  0.00    -0.352 N 
ATOM     33  C   UNL A   1      32.937  36.151  32.226  1.00  0.00     0.251 C 
ATOM     34  H   UNL A   1      31.580  36.895  30.952  1.00  0.00     0.163 HD
ATOM     35  O   UNL A   1      32.538  36.820  33.175  1.00  0.00    -0.269 OA
BRANCH  33  36
ATOM     36  C   UNL A   1      34.082  35.234  32.403  1.00  0.00     0.039 A 
ATOM     37  C   UNL A   1      35.365  35.695  32.097  1.00  0.00     0.014 A 
ATOM     38  C   UNL A   1      33.900  33.936  32.889  1.00  0.00     0.014 A 
ATOM     39  C   UNL A   1      36.474  34.887  32.359  1.00  0.00     0.010 A 
ATOM     40  C   UNL A   1      35.007  33.156  33.210  1.00  0.00     0.010 A 
ATOM     41  C   UNL A   1      36.305  33.629  32.959  1.00  0.00    -0.014 A 
BRANCH  41  42
ATOM     42  C   UNL A   1      37.473  32.805  33.364  1.00  0.00     0.031 A 
ATOM     43  C   UNL A   1      38.191  33.088  34.652  1.00  0.00     0.074 A 
ATOM     44  C   UNL A   1      37.936  31.855  32.529  1.00  0.00     0.049 A 
ATOM     45  N   UNL A   1      39.284  32.546  35.128  1.00  0.00    -0.248 NA
ATOM     46  C   UNL A   1      37.620  34.138  35.509  1.00  0.00     0.031 C 
ATOM     47  C   UNL A   1      37.355  31.516  31.229  1.00  0.00     0.029 A 
ATOM     48  N   UNL A   1      39.015  31.012  32.640  1.00  0.00    -0.354 N 
ATOM     49  C   UNL A   1      39.539  33.198  36.326  1.00  0.00     0.074 A 
ATOM     50  C   UNL A   1      38.514  34.207  36.485  1.00  0.00     0.031 C 
ATOM     51  C   UNL A   1      38.073  30.529  30.669  1.00  0.00     0.029 A 
ATOM     52  C   UNL A   1      39.188  30.193  31.550  1.00  0.00     0.049 A 
ATOM     53  H   UNL A   1      39.607  30.995  33.426  1.00  0.00     0.167 HD
ATOM     54  C   UNL A   1      40.528  32.963  37.222  1.00  0.00     0.037 A 
ATOM     55  C   UNL A   1      40.146  29.286  31.283  1.00  0.00     0.037 A 
ATOM     56  C   UNL A   1      41.531  31.941  37.074  1.00  0.00     0.049 A 
ATOM     57  C   UNL A   1      41.239  29.052  32.291  1.00  0.00     0.074 A 
ATOM     58  C   UNL A   1      42.531  31.578  37.960  1.00  0.00     0.029 A 
ATOM     59  N   UNL A   1      41.664  31.120  35.964  1.00  0.00    -0.354 N 
ATOM     60  N   UNL A   1      41.430  29.625  33.453  1.00  0.00    -0.248 NA
ATOM     61  C   UNL A   1      42.250  28.041  31.948  1.00  0.00     0.031 C 
ATOM     62  C   UNL A   1      43.297  30.570  37.367  1.00  0.00     0.029 A 
ATOM     63  C   UNL A   1      42.746  30.269  36.132  1.00  0.00     0.049 A 
ATOM     64  H   UNL A   1      41.077  31.138  35.173  1.00  0.00     0.167 HD
ATOM     65  C   UNL A   1      42.562  29.031  33.992  1.00  0.00     0.074 A 
ATOM     66  C   UNL A   1      43.010  28.041  33.036  1.00  0.00     0.031 C 
ATOM     67  C   UNL A   1      43.176  29.285  35.173  1.00  0.00     0.037 A 
BRANCH  54  68
ATOM     68  C   UNL A   1      40.576  33.827  38.447  1.00  0.00     0.064 A 
ATOM     69  C   UNL A   1      41.366  34.986  38.500  1.00  0.00     0.173 A 
ATOM     70  C   UNL A   1      39.789  33.518  39.567  1.00  0.00     0.173 A 
ATOM     71  F   UNL A   1      42.144  35.320  37.459  1.00  0.00    -0.203 F 
ATOM     72  C   UNL A   1      41.387  35.788  39.639  1.00  0.00     0.198 A 
ATOM     73  C   UNL A   1      39.791  34.338  40.693  1.00  0.00     0.198 A 
ATOM     74  F   UNL A   1      39.012  32.425  39.567  1.00  0.00    -0.203 F 
ATOM     75  F   UNL A   1      42.184  36.864  39.682  1.00  0.00    -0.200 F 
ATOM     76  C   UNL A   1      40.595  35.468  40.730  1.00  0.00     0.200 A 
ATOM     77  F   UNL A   1      39.015  34.034  41.743  1.00  0.00    -0.200 F 
ATOM     78  F   UNL A   1      40.610  36.244  41.821  1.00  0.00    -0.200 F 
ENDBRANCH  54  68
BRANCH  55  79
ATOM     79  C   UNL A   1      40.108  28.519  30.011  1.00  0.00     0.064 A 
ATOM     80  C   UNL A   1      39.475  27.271  29.944  1.00  0.00     0.173 A 
ATOM     81  C   UNL A   1      40.705  29.012  28.842  1.00  0.00     0.173 A 
ATOM     82  F   UNL A   1      38.909  26.747  31.041  1.00  0.00    -0.203 F 
ATOM     83  C   UNL A   1      39.456  26.536  28.760  1.00  0.00     0.198 A 
ATOM     84  C   UNL A   1      40.662  28.290  27.652  1.00  0.00     0.198 A 
ATOM     85  F   UNL A   1      41.321  30.204  28.854  1.00  0.00    -0.203 F 
ATOM     86  F   UNL A   1      38.882  25.325  28.734  1.00  0.00    -0.200 F 
ATOM     87  C   UNL A   1      40.044  27.048  27.614  1.00  0.00     0.200 A 
ATOM     88  F   UNL A   1      41.221  28.794  26.543  1.00  0.00    -0.200 F 
ATOM     89  F   UNL A   1      40.023  26.343  26.474  1.00  0.00    -0.200 F 
ENDBRANCH  55  79
BRANCH  67  90
ATOM     90  C   UNL A   1      44.382  28.459  35.513  1.00  0.00     0.064 A 
ATOM     91  C   UNL A   1      44.270  27.250  36.216  1.00  0.00     0.173 A 
ATOM     92  C   UNL A   1      45.659  28.859  35.091  1.00  0.00     0.173 A 
ATOM     93  F   UNL A   1      43.073  26.834  36.655  1.00  0.00    -0.203 F 
ATOM     94  C   UNL A   1      45.396  26.482  36.499  1.00  0.00     0.198 A 
ATOM     95  C   UNL A   1      46.779  28.074  35.351  1.00  0.00     0.198 A 
ATOM     96  F   UNL A   1      45.819  30.005  34.411  1.00  0.00    -0.203 F 
ATOM     97  F   UNL A   1      45.272  25.350  37.207  1.00  0.00    -0.200 F 
ATOM     98  C   UNL A   1      46.648  26.889  36.060  1.00  0.00     0.200 A 
ATOM     99  F   UNL A   1      47.984  28.463  34.915  1.00  0.00    -0.200 F 
ATOM    100  F   UNL A   1      47.728  26.143  36.325  1.00  0.00    -0.200 F 
ENDBRANCH  67  90
ENDBRANCH  41  42
ENDBRANCH  33  36
ENDBRANCH  31  32
ENDBRANCH  30  31
ENDBRANCH  29  30
ENDBRANCH   1  29
TORSDOF 15
ENDMDL
