MODEL 1
REMARK VINA RESULT:     -13.1      0.000      0.000
REMARK SMILES Nc1nc2ccccc2nc1N1CCCC[C@@H]1C(=O)NCCCCNC(=O)c1ccc(-c2c3nc(c(-c4c(F)c(F)c(F)c(F)c4F)c4ccc([nH]4)c(-c4c(F)c(F)c(F)c(F)c4F)c4nc(c(-c5c(F)c(F)c(F)c(F)c5F)c5ccc2[nH]5)C=C4)C=C3)cc1
REMARK SMILES IDX 22 1 21 2 20 3 18 4 19 5 17 7 12 8 13 9 14 10 16 11 15 12
REMARK SMILES IDX 11 13 2 14 3 15 4 16 10 17 5 18 9 19 6 20 8 21 7 22 1 23
REMARK SMILES IDX 23 26 24 27 25 28 26 29 27 31 28 32 29 33 90 34 30 35 89 36
REMARK SMILES IDX 31 37 32 38 33 39 83 40 34 41 88 42 82 43 84 44 35 45 87 46
REMARK SMILES IDX 81 47 80 48 36 50 68 51 48 52 67 53 49 54 52 55 66 56 85 57
REMARK SMILES IDX 50 58 51 59 65 61 86 62 53 63 37 64 38 65 46 66 39 67 40 68
REMARK SMILES IDX 44 69 47 70 41 71 42 72 45 73 43 74 69 75 70 76 78 77 71 78
REMARK SMILES IDX 72 79 76 80 79 81 73 82 74 83 77 84 75 85 54 86 55 87 63 88
REMARK SMILES IDX 56 89 57 90 61 91 64 92 58 93 59 94 62 95 60 96
REMARK H PARENT 20 6 1 24 1 25 25 30 84 49 52 60
REMARK Flexibility Score: inf
ROOT
ATOM      1  C   UNL A   1      32.196  30.436  25.920  1.00  0.00     0.023 C 
ENDROOT
BRANCH   1   2
ATOM      2  C   UNL A   1      33.157  29.415  26.519  1.00  0.00     0.116 C 
BRANCH   2   3
ATOM      3  N   UNL A   1      32.464  28.235  27.005  1.00  0.00    -0.354 N 
ATOM      4  C   UNL A   1      32.446  26.965  26.499  1.00  0.00     0.242 C 
ATOM      5  O   UNL A   1      31.731  26.137  27.076  1.00  0.00    -0.273 OA
ATOM      6  H   UNL A   1      31.929  28.369  27.821  1.00  0.00     0.163 HD
BRANCH   4   7
ATOM      7  C   UNL A   1      33.199  26.588  25.197  1.00  0.00     0.173 C 
ATOM      8  N   UNL A   1      32.347  26.428  23.998  1.00  0.00    -0.342 N 
ATOM      9  C   UNL A   1      32.910  25.814  22.806  1.00  0.00     0.119 C 
ATOM     10  C   UNL A   1      33.553  24.480  23.161  1.00  0.00     0.022 C 
ATOM     11  C   UNL A   1      34.002  25.302  25.488  1.00  0.00     0.035 C 
ATOM     12  C   UNL A   1      34.608  24.664  24.244  1.00  0.00     0.004 C 
BRANCH   8  13
ATOM     13  C   UNL A   1      31.137  27.077  23.836  1.00  0.00     0.172 A 
ATOM     14  C   UNL A   1      29.877  26.517  24.155  1.00  0.00     0.167 A 
ATOM     15  N   UNL A   1      28.717  27.107  23.795  1.00  0.00    -0.226 NA
ATOM     16  C   UNL A   1      28.808  28.270  23.126  1.00  0.00     0.091 A 
ATOM     17  N   UNL A   1      31.209  28.296  23.248  1.00  0.00    -0.225 NA
ATOM     18  C   UNL A   1      27.654  28.888  22.657  1.00  0.00     0.031 A 
ATOM     19  C   UNL A   1      30.058  28.873  22.866  1.00  0.00     0.091 A 
ATOM     20  C   UNL A   1      27.711  30.078  21.928  1.00  0.00     0.002 A 
ATOM     21  C   UNL A   1      30.104  30.064  22.153  1.00  0.00     0.031 A 
ATOM     22  C   UNL A   1      28.942  30.669  21.674  1.00  0.00     0.002 A 
BRANCH  14  23
ATOM     23  N   UNL A   1      29.741  25.310  24.820  1.00  0.00    -0.381 N 
ATOM     24  H   UNL A   1      28.845  24.940  24.993  1.00  0.00     0.158 HD
ATOM     25  H   UNL A   1      30.542  24.821  25.121  1.00  0.00     0.158 HD
ENDBRANCH  14  23
ENDBRANCH   8  13
ENDBRANCH   4   7
ENDBRANCH   2   3
ENDBRANCH   1   2
BRANCH   1  26
ATOM     26  C   UNL A   1      31.793  31.563  26.867  1.00  0.00     0.023 C 
BRANCH  26  27
ATOM     27  C   UNL A   1      32.931  32.466  27.327  1.00  0.00     0.116 C 
BRANCH  27  28
ATOM     28  N   UNL A   1      32.512  33.830  27.625  1.00  0.00    -0.352 N 
ATOM     29  C   UNL A   1      33.042  34.702  28.548  1.00  0.00     0.251 C 
ATOM     30  H   UNL A   1      31.752  34.170  27.099  1.00  0.00     0.163 HD
ATOM     31  O   UNL A   1      32.531  35.799  28.751  1.00  0.00    -0.269 OA
BRANCH  29  32
ATOM     32  C   UNL A   1      34.220  34.274  29.331  1.00  0.00     0.039 A 
ATOM     33  C   UNL A   1      35.506  34.517  28.847  1.00  0.00     0.014 A 
ATOM     34  C   UNL A   1      34.028  33.544  30.507  1.00  0.00     0.014 A 
ATOM     35  C   UNL A   1      36.589  33.880  29.440  1.00  0.00     0.010 A 
ATOM     36  C   UNL A   1      35.130  32.969  31.146  1.00  0.00     0.010 A 
ATOM     37  C   UNL A   1      36.411  33.086  30.585  1.00  0.00    -0.014 A 
BRANCH  37  38
ATOM     38  C   UNL A   1      37.578  32.366  31.159  1.00  0.00     0.031 A 
ATOM     39  C   UNL A   1      38.050  32.659  32.558  1.00  0.00     0.074 A 
ATOM     40  C   UNL A   1      38.174  31.401  30.435  1.00  0.00     0.049 A 
ATOM     41  N   UNL A   1      39.043  32.120  33.223  1.00  0.00    -0.248 NA
ATOM     42  C   UNL A   1      37.324  33.694  33.311  1.00  0.00     0.031 C 
ATOM     43  C   UNL A   1      37.802  31.024  29.070  1.00  0.00     0.029 A 
ATOM     44  N   UNL A   1      39.201  30.546  30.749  1.00  0.00    -0.354 N 
ATOM     45  C   UNL A   1      39.074  32.764  34.453  1.00  0.00     0.074 A 
ATOM     46  C   UNL A   1      38.014  33.747  34.444  1.00  0.00     0.031 C 
ATOM     47  C   UNL A   1      38.558  29.987  28.680  1.00  0.00     0.029 A 
ATOM     48  C   UNL A   1      39.503  29.661  29.744  1.00  0.00     0.049 A 
ATOM     49  H   UNL A   1      39.674  30.566  31.611  1.00  0.00     0.167 HD
ATOM     50  C   UNL A   1      39.907  32.543  35.498  1.00  0.00     0.037 A 
ATOM     51  C   UNL A   1      40.446  28.703  29.678  1.00  0.00     0.037 A 
ATOM     52  C   UNL A   1      40.930  31.530  35.526  1.00  0.00     0.049 A 
ATOM     53  C   UNL A   1      41.356  28.485  30.853  1.00  0.00     0.074 A 
ATOM     54  C   UNL A   1      41.788  31.203  36.562  1.00  0.00     0.029 A 
ATOM     55  N   UNL A   1      41.226  30.677  34.475  1.00  0.00    -0.354 N 
ATOM     56  N   UNL A   1      41.365  29.094  32.014  1.00  0.00    -0.248 NA
ATOM     57  C   UNL A   1      42.392  27.453  30.708  1.00  0.00     0.031 C 
ATOM     58  C   UNL A   1      42.629  30.175  36.126  1.00  0.00     0.029 A 
ATOM     59  C   UNL A   1      42.268  29.836  34.832  1.00  0.00     0.049 A 
ATOM     60  H   UNL A   1      40.765  30.668  33.606  1.00  0.00     0.167 HD
ATOM     61  C   UNL A   1      42.401  28.521  32.736  1.00  0.00     0.074 A 
ATOM     62  C   UNL A   1      42.983  27.496  31.894  1.00  0.00     0.031 C 
ATOM     63  C   UNL A   1      42.837  28.824  33.981  1.00  0.00     0.037 A 
BRANCH  50  64
ATOM     64  C   UNL A   1      39.761  33.405  36.716  1.00  0.00     0.064 A 
ATOM     65  C   UNL A   1      40.433  34.630  36.831  1.00  0.00     0.173 A 
ATOM     66  C   UNL A   1      38.851  33.054  37.725  1.00  0.00     0.173 A 
ATOM     67  F   UNL A   1      41.317  35.005  35.895  1.00  0.00    -0.203 F 
ATOM     68  C   UNL A   1      40.199  35.473  37.915  1.00  0.00     0.198 A 
ATOM     69  C   UNL A   1      38.606  33.909  38.797  1.00  0.00     0.198 A 
ATOM     70  F   UNL A   1      38.179  31.895  37.656  1.00  0.00    -0.203 F 
ATOM     71  F   UNL A   1      40.860  36.635  38.012  1.00  0.00    -0.200 F 
ATOM     72  C   UNL A   1      39.279  35.117  38.889  1.00  0.00     0.200 A 
ATOM     73  F   UNL A   1      37.707  33.569  39.731  1.00  0.00    -0.200 F 
ATOM     74  F   UNL A   1      39.038  35.943  39.918  1.00  0.00    -0.200 F 
ENDBRANCH  50  64
BRANCH  51  75
ATOM     75  C   UNL A   1      40.578  27.889  28.445  1.00  0.00     0.064 A 
ATOM     76  C   UNL A   1      41.358  28.330  27.368  1.00  0.00     0.173 A 
ATOM     77  C   UNL A   1      39.944  26.643  28.327  1.00  0.00     0.173 A 
ATOM     78  F   UNL A   1      41.966  29.524  27.427  1.00  0.00    -0.203 F 
ATOM     79  C   UNL A   1      41.492  27.559  26.216  1.00  0.00     0.198 A 
ATOM     80  C   UNL A   1      40.101  25.861  27.186  1.00  0.00     0.198 A 
ATOM     81  F   UNL A   1      39.190  26.176  29.333  1.00  0.00    -0.203 F 
ATOM     82  F   UNL A   1      42.216  28.018  25.186  1.00  0.00    -0.200 F 
ATOM     83  C   UNL A   1      40.870  26.323  26.128  1.00  0.00     0.200 A 
ATOM     84  F   UNL A   1      39.512  24.660  27.113  1.00  0.00    -0.200 F 
ATOM     85  F   UNL A   1      41.009  25.577  25.024  1.00  0.00    -0.200 F 
ENDBRANCH  51  75
BRANCH  63  86
ATOM     86  C   UNL A   1      43.999  28.044  34.514  1.00  0.00     0.064 A 
ATOM     87  C   UNL A   1      45.311  28.519  34.384  1.00  0.00     0.173 A 
ATOM     88  C   UNL A   1      43.795  26.847  35.216  1.00  0.00     0.173 A 
ATOM     89  F   UNL A   1      45.556  29.653  33.710  1.00  0.00    -0.203 F 
ATOM     90  C   UNL A   1      46.382  27.816  34.930  1.00  0.00     0.198 A 
ATOM     91  C   UNL A   1      44.865  26.159  35.779  1.00  0.00     0.198 A 
ATOM     92  F   UNL A   1      42.556  26.357  35.371  1.00  0.00    -0.203 F 
ATOM     93  F   UNL A   1      47.632  28.272  34.770  1.00  0.00    -0.200 F 
ATOM     94  C   UNL A   1      46.157  26.641  35.633  1.00  0.00     0.200 A 
ATOM     95  F   UNL A   1      44.646  25.030  36.469  1.00  0.00    -0.200 F 
ATOM     96  F   UNL A   1      47.188  25.972  36.168  1.00  0.00    -0.200 F 
ENDBRANCH  63  86
ENDBRANCH  37  38
ENDBRANCH  29  32
ENDBRANCH  27  28
ENDBRANCH  26  27
ENDBRANCH   1  26
TORSDOF 13
ENDMDL
MODEL 2
REMARK VINA RESULT:     -13.0      0.630      7.200
REMARK SMILES Nc1nc2ccccc2nc1N1CCCC[C@@H]1C(=O)NCCCCNC(=O)c1ccc(-c2c3nc(c(-c4c(F)c(F)c(F)c(F)c4F)c4ccc([nH]4)c(-c4c(F)c(F)c(F)c(F)c4F)c4nc(c(-c5c(F)c(F)c(F)c(F)c5F)c5ccc2[nH]5)C=C4)C=C3)cc1
REMARK SMILES IDX 22 1 21 2 20 3 18 4 19 5 17 7 12 8 13 9 14 10 16 11 15 12
REMARK SMILES IDX 11 13 2 14 3 15 4 16 10 17 5 18 9 19 6 20 8 21 7 22 1 23
REMARK SMILES IDX 23 26 24 27 25 28 26 29 27 31 28 32 29 33 90 34 30 35 89 36
REMARK SMILES IDX 31 37 32 38 33 39 83 40 34 41 88 42 82 43 84 44 35 45 87 46
REMARK SMILES IDX 81 47 80 48 36 50 68 51 48 52 67 53 49 54 52 55 66 56 85 57
REMARK SMILES IDX 50 58 51 59 65 61 86 62 53 63 37 64 38 65 46 66 39 67 40 68
REMARK SMILES IDX 44 69 47 70 41 71 42 72 45 73 43 74 69 75 70 76 78 77 71 78
REMARK SMILES IDX 72 79 76 80 79 81 73 82 74 83 77 84 75 85 54 86 55 87 63 88
REMARK SMILES IDX 56 89 57 90 61 91 64 92 58 93 59 94 62 95 60 96
REMARK H PARENT 20 6 1 24 1 25 25 30 84 49 52 60
REMARK Flexibility Score: inf
ROOT
ATOM      1  C   UNL A   1      32.130  30.625  26.237  1.00  0.00     0.023 C 
ENDROOT
BRANCH   1   2
ATOM      2  C   UNL A   1      32.782  29.615  27.175  1.00  0.00     0.116 C 
BRANCH   2   3
ATOM      3  N   UNL A   1      31.946  28.447  27.385  1.00  0.00    -0.354 N 
ATOM      4  C   UNL A   1      31.917  27.261  26.705  1.00  0.00     0.242 C 
ATOM      5  O   UNL A   1      31.068  26.432  27.052  1.00  0.00    -0.273 OA
ATOM      6  H   UNL A   1      31.304  28.520  28.129  1.00  0.00     0.163 HD
BRANCH   4   7
ATOM      7  C   UNL A   1      32.830  26.995  25.480  1.00  0.00     0.173 C 
ATOM      8  N   UNL A   1      32.129  26.885  24.182  1.00  0.00    -0.342 N 
ATOM      9  C   UNL A   1      32.849  26.369  23.028  1.00  0.00     0.119 C 
ATOM     10  C   UNL A   1      33.499  25.036  23.375  1.00  0.00     0.022 C 
ATOM     11  C   UNL A   1      33.643  25.719  25.785  1.00  0.00     0.035 C 
ATOM     12  C   UNL A   1      34.414  25.183  24.584  1.00  0.00     0.004 C 
BRANCH   8  13
ATOM     13  C   UNL A   1      30.921  27.505  23.918  1.00  0.00     0.172 A 
ATOM     14  C   UNL A   1      29.662  26.859  23.959  1.00  0.00     0.167 A 
ATOM     15  N   UNL A   1      28.537  27.449  23.501  1.00  0.00    -0.226 NA
ATOM     16  C   UNL A   1      28.659  28.696  23.013  1.00  0.00     0.091 A 
ATOM     17  N   UNL A   1      31.009  28.795  23.513  1.00  0.00    -0.225 NA
ATOM     18  C   UNL A   1      27.555  29.329  22.454  1.00  0.00     0.031 A 
ATOM     19  C   UNL A   1      29.897  29.375  23.034  1.00  0.00     0.091 A 
ATOM     20  C   UNL A   1      27.651  30.610  21.905  1.00  0.00     0.002 A 
ATOM     21  C   UNL A   1      29.980  30.655  22.499  1.00  0.00     0.031 A 
ATOM     22  C   UNL A   1      28.870  31.276  21.927  1.00  0.00     0.002 A 
BRANCH  14  23
ATOM     23  N   UNL A   1      29.498  25.567  24.430  1.00  0.00    -0.381 N 
ATOM     24  H   UNL A   1      29.950  25.283  25.257  1.00  0.00     0.158 HD
ATOM     25  H   UNL A   1      28.929  24.931  23.937  1.00  0.00     0.158 HD
ENDBRANCH  14  23
ENDBRANCH   8  13
ENDBRANCH   4   7
ENDBRANCH   2   3
ENDBRANCH   1   2
BRANCH   1  26
ATOM     26  C   UNL A   1      31.713  31.934  26.903  1.00  0.00     0.023 C 
BRANCH  26  27
ATOM     27  C   UNL A   1      32.859  32.828  27.358  1.00  0.00     0.116 C 
BRANCH  27  28
ATOM     28  N   UNL A   1      32.457  34.202  27.630  1.00  0.00    -0.352 N 
ATOM     29  C   UNL A   1      32.968  35.071  28.567  1.00  0.00     0.251 C 
ATOM     30  H   UNL A   1      31.724  34.554  27.073  1.00  0.00     0.163 HD
ATOM     31  O   UNL A   1      32.472  36.179  28.743  1.00  0.00    -0.269 OA
BRANCH  29  32
ATOM     32  C   UNL A   1      34.105  34.626  29.398  1.00  0.00     0.039 A 
ATOM     33  C   UNL A   1      35.402  34.664  28.884  1.00  0.00     0.014 A 
ATOM     34  C   UNL A   1      33.856  34.081  30.660  1.00  0.00     0.014 A 
ATOM     35  C   UNL A   1      36.421  33.998  29.554  1.00  0.00     0.010 A 
ATOM     36  C   UNL A   1      34.900  33.480  31.368  1.00  0.00     0.010 A 
ATOM     37  C   UNL A   1      36.178  33.384  30.795  1.00  0.00    -0.014 A 
BRANCH  37  38
ATOM     38  C   UNL A   1      37.270  32.626  31.457  1.00  0.00     0.031 A 
ATOM     39  C   UNL A   1      37.985  31.515  30.734  1.00  0.00     0.074 A 
ATOM     40  C   UNL A   1      37.658  32.982  32.696  1.00  0.00     0.049 A 
ATOM     41  N   UNL A   1      38.968  30.756  31.155  1.00  0.00    -0.248 NA
ATOM     42  C   UNL A   1      37.541  31.208  29.365  1.00  0.00     0.031 C 
ATOM     43  C   UNL A   1      37.045  34.044  33.495  1.00  0.00     0.029 A 
ATOM     44  N   UNL A   1      38.672  32.509  33.491  1.00  0.00    -0.354 N 
ATOM     45  C   UNL A   1      39.239  29.873  30.118  1.00  0.00     0.074 A 
ATOM     46  C   UNL A   1      38.311  30.173  29.051  1.00  0.00     0.031 C 
ATOM     47  C   UNL A   1      37.720  34.172  34.646  1.00  0.00     0.029 A 
ATOM     48  C   UNL A   1      38.777  33.167  34.692  1.00  0.00     0.049 A 
ATOM     49  H   UNL A   1      39.264  31.771  33.226  1.00  0.00     0.167 HD
ATOM     50  C   UNL A   1      40.187  28.908  30.061  1.00  0.00     0.037 A 
ATOM     51  C   UNL A   1      39.622  32.975  35.721  1.00  0.00     0.037 A 
ATOM     52  C   UNL A   1      41.145  28.642  31.103  1.00  0.00     0.049 A 
ATOM     53  C   UNL A   1      40.660  31.894  35.629  1.00  0.00     0.074 A 
ATOM     54  C   UNL A   1      42.173  27.715  31.110  1.00  0.00     0.029 A 
ATOM     55  N   UNL A   1      41.197  29.309  32.317  1.00  0.00    -0.354 N 
ATOM     56  N   UNL A   1      40.912  31.075  34.637  1.00  0.00    -0.248 NA
ATOM     57  C   UNL A   1      41.527  31.703  36.800  1.00  0.00     0.031 C 
ATOM     58  C   UNL A   1      42.826  27.795  32.344  1.00  0.00     0.029 A 
ATOM     59  C   UNL A   1      42.229  28.799  33.088  1.00  0.00     0.049 A 
ATOM     60  H   UNL A   1      40.593  30.036  32.590  1.00  0.00     0.167 HD
ATOM     61  C   UNL A   1      41.963  30.275  35.062  1.00  0.00     0.074 A 
ATOM     62  C   UNL A   1      42.322  30.724  36.390  1.00  0.00     0.031 C 
ATOM     63  C   UNL A   1      42.570  29.254  34.411  1.00  0.00     0.037 A 
BRANCH  50  64
ATOM     64  C   UNL A   1      40.255  28.051  28.832  1.00  0.00     0.064 A 
ATOM     65  C   UNL A   1      41.018  28.426  27.718  1.00  0.00     0.173 A 
ATOM     66  C   UNL A   1      39.640  26.790  28.816  1.00  0.00     0.173 A 
ATOM     67  F   UNL A   1      41.619  29.624  27.685  1.00  0.00    -0.203 F 
ATOM     68  C   UNL A   1      41.164  27.568  26.631  1.00  0.00     0.198 A 
ATOM     69  C   UNL A   1      39.803  25.927  27.736  1.00  0.00     0.198 A 
ATOM     70  F   UNL A   1      38.904  26.383  29.862  1.00  0.00    -0.203 F 
ATOM     71  F   UNL A   1      41.889  27.950  25.570  1.00  0.00    -0.200 F 
ATOM     72  C   UNL A   1      40.566  26.316  26.646  1.00  0.00     0.200 A 
ATOM     73  F   UNL A   1      39.235  24.713  27.757  1.00  0.00    -0.200 F 
ATOM     74  F   UNL A   1      40.728  25.483  25.608  1.00  0.00    -0.200 F 
ENDBRANCH  50  64
BRANCH  51  75
ATOM     75  C   UNL A   1      39.506  33.824  36.933  1.00  0.00     0.064 A 
ATOM     76  C   UNL A   1      40.140  35.071  37.005  1.00  0.00     0.173 A 
ATOM     77  C   UNL A   1      38.741  33.414  38.035  1.00  0.00     0.173 A 
ATOM     78  F   UNL A   1      40.898  35.496  35.984  1.00  0.00    -0.203 F 
ATOM     79  C   UNL A   1      40.020  35.873  38.138  1.00  0.00     0.198 A 
ATOM     80  C   UNL A   1      38.599  34.228  39.155  1.00  0.00     0.198 A 
ATOM     81  F   UNL A   1      38.112  32.229  38.011  1.00  0.00    -0.203 F 
ATOM     82  F   UNL A   1      40.663  37.047  38.196  1.00  0.00    -0.200 F 
ATOM     83  C   UNL A   1      39.244  35.454  39.208  1.00  0.00     0.200 A 
ATOM     84  F   UNL A   1      37.835  33.826  40.180  1.00  0.00    -0.200 F 
ATOM     85  F   UNL A   1      39.120  36.230  40.292  1.00  0.00    -0.200 F 
ENDBRANCH  51  75
BRANCH  63  86
ATOM     86  C   UNL A   1      43.682  28.548  35.122  1.00  0.00     0.064 A 
ATOM     87  C   UNL A   1      45.006  28.997  35.024  1.00  0.00     0.173 A 
ATOM     88  C   UNL A   1      43.415  27.454  35.958  1.00  0.00     0.173 A 
ATOM     89  F   UNL A   1      45.310  30.032  34.226  1.00  0.00    -0.203 F 
ATOM     90  C   UNL A   1      46.027  28.370  35.731  1.00  0.00     0.198 A 
ATOM     91  C   UNL A   1      44.435  26.843  36.681  1.00  0.00     0.198 A 
ATOM     92  F   UNL A   1      42.162  26.992  36.089  1.00  0.00    -0.203 F 
ATOM     93  F   UNL A   1      47.290  28.797  35.602  1.00  0.00    -0.200 F 
ATOM     94  C   UNL A   1      45.739  27.298  36.565  1.00  0.00     0.200 A 
ATOM     95  F   UNL A   1      44.154  25.815  37.496  1.00  0.00    -0.200 F 
ATOM     96  F   UNL A   1      46.722  26.702  37.254  1.00  0.00    -0.200 F 
ENDBRANCH  63  86
ENDBRANCH  37  38
ENDBRANCH  29  32
ENDBRANCH  27  28
ENDBRANCH  26  27
ENDBRANCH   1  26
TORSDOF 13
ENDMDL
MODEL 3
REMARK VINA RESULT:     -13.0      1.321      2.018
REMARK SMILES Nc1nc2ccccc2nc1N1CCCC[C@@H]1C(=O)NCCCCNC(=O)c1ccc(-c2c3nc(c(-c4c(F)c(F)c(F)c(F)c4F)c4ccc([nH]4)c(-c4c(F)c(F)c(F)c(F)c4F)c4nc(c(-c5c(F)c(F)c(F)c(F)c5F)c5ccc2[nH]5)C=C4)C=C3)cc1
REMARK SMILES IDX 22 1 21 2 20 3 18 4 19 5 17 7 12 8 13 9 14 10 16 11 15 12
REMARK SMILES IDX 11 13 2 14 3 15 4 16 10 17 5 18 9 19 6 20 8 21 7 22 1 23
REMARK SMILES IDX 23 26 24 27 25 28 26 29 27 31 28 32 29 33 90 34 30 35 89 36
REMARK SMILES IDX 31 37 32 38 33 39 83 40 34 41 88 42 82 43 84 44 35 45 87 46
REMARK SMILES IDX 81 47 80 48 36 50 68 51 48 52 67 53 49 54 52 55 66 56 85 57
REMARK SMILES IDX 50 58 51 59 65 61 86 62 53 63 37 64 38 65 46 66 39 67 40 68
REMARK SMILES IDX 44 69 47 70 41 71 42 72 45 73 43 74 69 75 70 76 78 77 71 78
REMARK SMILES IDX 72 79 76 80 79 81 73 82 74 83 77 84 75 85 54 86 55 87 63 88
REMARK SMILES IDX 56 89 57 90 61 91 64 92 58 93 59 94 62 95 60 96
REMARK H PARENT 20 6 1 24 1 25 25 30 84 49 52 60
REMARK Flexibility Score: inf
ROOT
ATOM      1  C   UNL A   1      33.163  29.418  24.964  1.00  0.00     0.023 C 
ENDROOT
BRANCH   1   2
ATOM      2  C   UNL A   1      34.023  28.496  25.821  1.00  0.00     0.116 C 
BRANCH   2   3
ATOM      3  N   UNL A   1      33.261  27.380  26.354  1.00  0.00    -0.354 N 
ATOM      4  C   UNL A   1      32.996  26.160  25.795  1.00  0.00     0.242 C 
ATOM      5  O   UNL A   1      32.273  25.390  26.439  1.00  0.00    -0.273 OA
ATOM      6  H   UNL A   1      32.880  27.523  27.250  1.00  0.00     0.163 HD
BRANCH   4   7
ATOM      7  C   UNL A   1      33.484  25.785  24.372  1.00  0.00     0.173 C 
ATOM      8  N   UNL A   1      32.436  25.775  23.327  1.00  0.00    -0.342 N 
ATOM      9  C   UNL A   1      32.730  25.176  22.035  1.00  0.00     0.119 C 
ATOM     10  C   UNL A   1      33.278  23.768  22.226  1.00  0.00     0.022 C 
ATOM     11  C   UNL A   1      34.183  24.413  24.475  1.00  0.00     0.035 C 
ATOM     12  C   UNL A   1      34.508  23.788  23.124  1.00  0.00     0.004 C 
BRANCH   8  13
ATOM     13  C   UNL A   1      31.291  26.547  23.395  1.00  0.00     0.172 A 
ATOM     14  C   UNL A   1      30.051  26.100  23.909  1.00  0.00     0.167 A 
ATOM     15  N   UNL A   1      28.916  26.818  23.771  1.00  0.00    -0.226 NA
ATOM     16  C   UNL A   1      29.014  27.996  23.131  1.00  0.00     0.091 A 
ATOM     17  N   UNL A   1      31.391  27.779  22.840  1.00  0.00    -0.225 NA
ATOM     18  C   UNL A   1      27.870  28.746  22.886  1.00  0.00     0.031 A 
ATOM     19  C   UNL A   1      30.259  28.484  22.678  1.00  0.00     0.091 A 
ATOM     20  C   UNL A   1      27.928  29.958  22.193  1.00  0.00     0.002 A 
ATOM     21  C   UNL A   1      30.310  29.697  22.004  1.00  0.00     0.031 A 
ATOM     22  C   UNL A   1      29.155  30.436  21.750  1.00  0.00     0.002 A 
BRANCH  14  23
ATOM     23  N   UNL A   1      29.902  24.881  24.551  1.00  0.00    -0.381 N 
ATOM     24  H   UNL A   1      29.577  24.098  24.052  1.00  0.00     0.158 HD
ATOM     25  H   UNL A   1      30.122  24.799  25.508  1.00  0.00     0.158 HD
ENDBRANCH  14  23
ENDBRANCH   8  13
ENDBRANCH   4   7
ENDBRANCH   2   3
ENDBRANCH   1   2
BRANCH   1  26
ATOM     26  C   UNL A   1      31.974  30.039  25.693  1.00  0.00     0.023 C 
BRANCH  26  27
ATOM     27  C   UNL A   1      32.279  30.600  27.076  1.00  0.00     0.116 C 
BRANCH  27  28
ATOM     28  N   UNL A   1      32.290  32.057  27.128  1.00  0.00    -0.352 N 
ATOM     29  C   UNL A   1      33.298  32.887  27.563  1.00  0.00     0.251 C 
ATOM     30  H   UNL A   1      31.472  32.504  26.811  1.00  0.00     0.163 HD
ATOM     31  O   UNL A   1      33.136  34.101  27.628  1.00  0.00    -0.269 OA
BRANCH  29  32
ATOM     32  C   UNL A   1      34.573  32.282  27.998  1.00  0.00     0.039 A 
ATOM     33  C   UNL A   1      34.614  30.942  28.386  1.00  0.00     0.014 A 
ATOM     34  C   UNL A   1      35.709  33.090  28.106  1.00  0.00     0.014 A 
ATOM     35  C   UNL A   1      35.737  30.458  29.046  1.00  0.00     0.010 A 
ATOM     36  C   UNL A   1      36.864  32.575  28.701  1.00  0.00     0.010 A 
ATOM     37  C   UNL A   1      36.867  31.273  29.227  1.00  0.00    -0.014 A 
BRANCH  37  38
ATOM     38  C   UNL A   1      38.028  30.749  29.992  1.00  0.00     0.031 A 
ATOM     39  C   UNL A   1      38.223  31.111  31.440  1.00  0.00     0.074 A 
ATOM     40  C   UNL A   1      38.876  29.893  29.391  1.00  0.00     0.049 A 
ATOM     41  N   UNL A   1      39.171  30.736  32.263  1.00  0.00    -0.248 NA
ATOM     42  C   UNL A   1      37.232  32.015  32.047  1.00  0.00     0.031 C 
ATOM     43  C   UNL A   1      38.788  29.465  27.995  1.00  0.00     0.029 A 
ATOM     44  N   UNL A   1      39.963  29.214  29.881  1.00  0.00    -0.354 N 
ATOM     45  C   UNL A   1      38.906  31.374  33.468  1.00  0.00     0.074 A 
ATOM     46  C   UNL A   1      37.719  32.175  33.271  1.00  0.00     0.031 C 
ATOM     47  C   UNL A   1      39.750  28.562  27.751  1.00  0.00     0.029 A 
ATOM     48  C   UNL A   1      40.556  28.390  28.956  1.00  0.00     0.049 A 
ATOM     49  H   UNL A   1      40.285  29.307  30.805  1.00  0.00     0.167 HD
ATOM     50  C   UNL A   1      39.589  31.287  34.634  1.00  0.00     0.037 A 
ATOM     51  C   UNL A   1      41.637  27.596  29.060  1.00  0.00     0.037 A 
ATOM     52  C   UNL A   1      40.742  30.452  34.845  1.00  0.00     0.049 A 
ATOM     53  C   UNL A   1      42.374  27.524  30.366  1.00  0.00     0.074 A 
ATOM     54  C   UNL A   1      41.467  30.264  36.008  1.00  0.00     0.029 A 
ATOM     55  N   UNL A   1      41.331  29.659  33.872  1.00  0.00    -0.354 N 
ATOM     56  N   UNL A   1      42.104  28.124  31.500  1.00  0.00    -0.248 NA
ATOM     57  C   UNL A   1      43.570  26.671  30.408  1.00  0.00     0.031 C 
ATOM     58  C   UNL A   1      42.519  29.385  35.732  1.00  0.00     0.029 A 
ATOM     59  C   UNL A   1      42.424  28.995  34.407  1.00  0.00     0.049 A 
ATOM     60  H   UNL A   1      41.020  29.578  32.942  1.00  0.00     0.167 HD
ATOM     61  C   UNL A   1      43.092  27.723  32.387  1.00  0.00     0.074 A 
ATOM     62  C   UNL A   1      43.953  26.806  31.670  1.00  0.00     0.031 C 
ATOM     63  C   UNL A   1      43.273  28.089  33.678  1.00  0.00     0.037 A 
BRANCH  50  64
ATOM     64  C   UNL A   1      39.119  32.113  35.794  1.00  0.00     0.064 A 
ATOM     65  C   UNL A   1      38.277  31.581  36.780  1.00  0.00     0.173 A 
ATOM     66  C   UNL A   1      39.609  33.415  35.979  1.00  0.00     0.173 A 
ATOM     67  F   UNL A   1      37.778  30.344  36.644  1.00  0.00    -0.203 F 
ATOM     68  C   UNL A   1      37.942  32.323  37.910  1.00  0.00     0.198 A 
ATOM     69  C   UNL A   1      39.288  34.147  37.119  1.00  0.00     0.198 A 
ATOM     70  F   UNL A   1      40.424  33.967  35.066  1.00  0.00    -0.203 F 
ATOM     71  F   UNL A   1      37.126  31.800  38.836  1.00  0.00    -0.200 F 
ATOM     72  C   UNL A   1      38.457  33.600  38.084  1.00  0.00     0.200 A 
ATOM     73  F   UNL A   1      39.796  35.375  37.291  1.00  0.00    -0.200 F 
ATOM     74  F   UNL A   1      38.152  34.302  39.184  1.00  0.00    -0.200 F 
ENDBRANCH  50  64
BRANCH  51  75
ATOM     75  C   UNL A   1      42.089  26.816  27.881  1.00  0.00     0.064 A 
ATOM     76  C   UNL A   1      43.018  27.346  26.977  1.00  0.00     0.173 A 
ATOM     77  C   UNL A   1      41.616  25.516  27.647  1.00  0.00     0.173 A 
ATOM     78  F   UNL A   1      43.482  28.592  27.149  1.00  0.00    -0.203 F 
ATOM     79  C   UNL A   1      43.451  26.608  25.878  1.00  0.00     0.198 A 
ATOM     80  C   UNL A   1      42.070  24.769  26.564  1.00  0.00     0.198 A 
ATOM     81  F   UNL A   1      40.728  24.964  28.487  1.00  0.00    -0.203 F 
ATOM     82  F   UNL A   1      44.316  27.150  25.009  1.00  0.00    -0.200 F 
ATOM     83  C   UNL A   1      42.984  25.318  25.676  1.00  0.00     0.200 A 
ATOM     84  F   UNL A   1      41.628  23.518  26.382  1.00  0.00    -0.200 F 
ATOM     85  F   UNL A   1      43.409  24.605  24.625  1.00  0.00    -0.200 F 
ENDBRANCH  51  75
BRANCH  63  86
ATOM     86  C   UNL A   1      44.446  27.504  34.403  1.00  0.00     0.064 A 
ATOM     87  C   UNL A   1      45.671  28.181  34.464  1.00  0.00     0.173 A 
ATOM     88  C   UNL A   1      44.325  26.291  35.096  1.00  0.00     0.173 A 
ATOM     89  F   UNL A   1      45.837  29.338  33.805  1.00  0.00    -0.203 F 
ATOM     90  C   UNL A   1      46.740  27.658  35.185  1.00  0.00     0.198 A 
ATOM     91  C   UNL A   1      45.388  25.782  35.834  1.00  0.00     0.198 A 
ATOM     92  F   UNL A   1      43.168  25.611  35.072  1.00  0.00    -0.203 F 
ATOM     93  F   UNL A   1      47.913  28.306  35.207  1.00  0.00    -0.200 F 
ATOM     94  C   UNL A   1      46.595  26.464  35.876  1.00  0.00     0.200 A 
ATOM     95  F   UNL A   1      45.244  24.634  36.512  1.00  0.00    -0.200 F 
ATOM     96  F   UNL A   1      47.623  25.967  36.580  1.00  0.00    -0.200 F 
ENDBRANCH  63  86
ENDBRANCH  37  38
ENDBRANCH  29  32
ENDBRANCH  27  28
ENDBRANCH  26  27
ENDBRANCH   1  26
TORSDOF 13
ENDMDL
