MODEL 1
REMARK VINA RESULT:     -13.4      0.000      0.000
REMARK SMILES Cc1cccc(NS(=O)(=O)c2ccc(Br)c(C(=O)NCCCCNC(=O)c3ccc(-c4c5nc(c(-c6c(F)c(F)c(F)c(F)c6F)c6ccc([nH]6)c(-c6c(F)c(F)c(F)c(F)c6F)c6nc(c(-c7c(F)c(F)c(F)c(F)c7F)c7ccc4[nH]7)C=C6)C=C5)cc3)c2)c1
REMARK SMILES IDX 21 1 20 2 19 3 17 4 18 5 16 7 11 8 12 9 90 10 13 11 14 12
REMARK SMILES IDX 15 13 8 14 9 15 10 16 7 17 6 19 1 20 2 21 3 22 91 23 4 24
REMARK SMILES IDX 5 25 22 26 23 27 24 28 25 29 26 31 27 32 28 33 89 34 29 35
REMARK SMILES IDX 88 36 30 37 31 38 32 39 82 40 33 41 87 42 81 43 83 44 34 45
REMARK SMILES IDX 86 46 80 47 79 48 35 50 67 51 47 52 66 53 48 54 51 55 65 56
REMARK SMILES IDX 84 57 49 58 50 59 64 61 85 62 52 63 36 64 37 65 45 66 38 67
REMARK SMILES IDX 39 68 43 69 46 70 40 71 41 72 44 73 42 74 68 75 69 76 77 77
REMARK SMILES IDX 70 78 71 79 75 80 78 81 72 82 73 83 76 84 74 85 53 86 54 87
REMARK SMILES IDX 62 88 55 89 56 90 60 91 63 92 57 93 58 94 61 95 59 96
REMARK H PARENT 19 6 7 18 24 30 83 49 51 60
REMARK Flexibility Score: inf
ROOT
ATOM      1  C   UNL A   1      36.883  23.769  25.266  1.00  0.00     0.023 C 
ENDROOT
BRANCH   1   2
ATOM      2  C   UNL A   1      35.590  23.298  25.924  1.00  0.00     0.116 C 
BRANCH   2   3
ATOM      3  N   UNL A   1      35.007  22.057  25.427  1.00  0.00    -0.352 N 
ATOM      4  C   UNL A   1      33.917  21.823  24.606  1.00  0.00     0.252 C 
ATOM      5  O   UNL A   1      33.710  20.672  24.223  1.00  0.00    -0.269 OA
ATOM      6  H   UNL A   1      35.470  21.242  25.729  1.00  0.00     0.163 HD
BRANCH   4   7
ATOM      7  C   UNL A   1      32.912  22.878  24.302  1.00  0.00     0.055 A 
ATOM      8  C   UNL A   1      32.033  24.437  22.660  1.00  0.00     0.088 A 
ATOM      9  C   UNL A   1      30.777  24.347  23.247  1.00  0.00     0.023 A 
ATOM     10  C   UNL A   1      33.074  23.617  23.121  1.00  0.00     0.037 A 
ATOM     11  C   UNL A   1      30.690  23.788  24.521  1.00  0.00     0.018 A 
ATOM     12  C   UNL A   1      31.810  23.183  25.095  1.00  0.00     0.030 A 
ATOM     13  Br  UNL A   1      31.892  23.133  27.001  1.00  0.00    -0.050 Br
BRANCH   8  14
ATOM     14  S   UNL A   1      32.452  25.779  21.560  1.00  0.00     0.261 S 
ATOM     15  O   UNL A   1      31.224  26.456  21.256  1.00  0.00    -0.201 OA
ATOM     16  O   UNL A   1      33.278  25.202  20.505  1.00  0.00    -0.201 OA
BRANCH  14  17
ATOM     17  N   UNL A   1      33.402  26.913  22.352  1.00  0.00    -0.280 N 
ATOM     18  H   UNL A   1      34.042  27.404  21.787  1.00  0.00     0.180 HD
BRANCH  17  19
ATOM     19  C   UNL A   1      33.409  27.262  23.735  1.00  0.00     0.049 A 
ATOM     20  C   UNL A   1      31.783  30.078  25.735  1.00  0.00     0.044 C 
ATOM     21  C   UNL A   1      32.507  28.807  25.402  1.00  0.00    -0.049 A 
ATOM     22  C   UNL A   1      32.904  27.927  26.410  1.00  0.00     0.003 A 
ATOM     23  C   UNL A   1      32.749  28.455  24.068  1.00  0.00     0.030 A 
ATOM     24  C   UNL A   1      33.656  26.795  26.091  1.00  0.00     0.002 A 
ATOM     25  C   UNL A   1      33.968  26.499  24.756  1.00  0.00     0.027 A 
ENDBRANCH  17  19
ENDBRANCH  14  17
ENDBRANCH   8  14
ENDBRANCH   4   7
ENDBRANCH   2   3
ENDBRANCH   1   2
BRANCH   1  26
ATOM     26  C   UNL A   1      38.031  22.773  25.216  1.00  0.00     0.023 C 
BRANCH  26  27
ATOM     27  C   UNL A   1      38.890  22.682  26.471  1.00  0.00     0.116 C 
BRANCH  27  28
ATOM     28  N   UNL A   1      40.320  22.901  26.281  1.00  0.00    -0.352 N 
ATOM     29  C   UNL A   1      41.022  24.101  26.294  1.00  0.00     0.251 C 
ATOM     30  H   UNL A   1      40.859  22.092  26.123  1.00  0.00     0.163 HD
ATOM     31  O   UNL A   1      42.233  24.116  26.115  1.00  0.00    -0.269 OA
BRANCH  29  32
ATOM     32  C   UNL A   1      40.312  25.352  26.665  1.00  0.00     0.039 A 
ATOM     33  C   UNL A   1      40.778  26.559  26.136  1.00  0.00     0.014 A 
ATOM     34  C   UNL A   1      39.375  25.357  27.692  1.00  0.00     0.014 A 
ATOM     35  C   UNL A   1      40.529  27.742  26.828  1.00  0.00     0.010 A 
ATOM     36  C   UNL A   1      39.221  26.505  28.446  1.00  0.00     0.010 A 
ATOM     37  C   UNL A   1      39.864  27.681  28.054  1.00  0.00    -0.014 A 
BRANCH  37  38
ATOM     38  C   UNL A   1      39.961  28.742  29.050  1.00  0.00     0.031 A 
ATOM     39  C   UNL A   1      38.900  29.756  29.205  1.00  0.00     0.074 A 
ATOM     40  C   UNL A   1      41.032  28.781  29.876  1.00  0.00     0.049 A 
ATOM     41  N   UNL A   1      39.134  30.980  29.544  1.00  0.00    -0.248 NA
ATOM     42  C   UNL A   1      37.486  29.478  28.976  1.00  0.00     0.031 C 
ATOM     43  C   UNL A   1      41.215  29.644  31.041  1.00  0.00     0.029 A 
ATOM     44  N   UNL A   1      42.282  28.158  29.703  1.00  0.00    -0.354 N 
ATOM     45  C   UNL A   1      37.926  31.561  29.838  1.00  0.00     0.074 A 
ATOM     46  C   UNL A   1      36.924  30.616  29.398  1.00  0.00     0.031 C 
ATOM     47  C   UNL A   1      42.529  29.755  31.291  1.00  0.00     0.029 A 
ATOM     48  C   UNL A   1      43.234  29.061  30.229  1.00  0.00     0.049 A 
ATOM     49  H   UNL A   1      42.457  27.277  29.299  1.00  0.00     0.167 HD
ATOM     50  C   UNL A   1      37.879  32.716  30.558  1.00  0.00     0.037 A 
ATOM     51  C   UNL A   1      44.221  29.596  29.457  1.00  0.00     0.037 A 
ATOM     52  C   UNL A   1      39.204  33.172  30.951  1.00  0.00     0.049 A 
ATOM     53  C   UNL A   1      44.201  31.104  29.393  1.00  0.00     0.074 A 
ATOM     54  C   UNL A   1      39.929  33.019  32.122  1.00  0.00     0.029 A 
ATOM     55  N   UNL A   1      40.107  33.597  29.983  1.00  0.00    -0.354 N 
ATOM     56  N   UNL A   1      43.168  31.828  29.719  1.00  0.00    -0.248 NA
ATOM     57  C   UNL A   1      45.321  31.911  28.919  1.00  0.00     0.031 C 
ATOM     58  C   UNL A   1      41.282  33.330  31.851  1.00  0.00     0.029 A 
ATOM     59  C   UNL A   1      41.378  33.685  30.517  1.00  0.00     0.049 A 
ATOM     60  H   UNL A   1      39.874  33.806  29.049  1.00  0.00     0.167 HD
ATOM     61  C   UNL A   1      43.445  33.153  29.491  1.00  0.00     0.074 A 
ATOM     62  C   UNL A   1      44.814  33.152  29.011  1.00  0.00     0.031 C 
ATOM     63  C   UNL A   1      42.510  34.124  29.716  1.00  0.00     0.037 A 
BRANCH  50  64
ATOM     64  C   UNL A   1      36.591  33.227  31.145  1.00  0.00     0.064 A 
ATOM     65  C   UNL A   1      35.684  33.995  30.388  1.00  0.00     0.173 A 
ATOM     66  C   UNL A   1      36.233  33.016  32.489  1.00  0.00     0.173 A 
ATOM     67  F   UNL A   1      35.872  34.218  29.082  1.00  0.00    -0.203 F 
ATOM     68  C   UNL A   1      34.557  34.591  30.958  1.00  0.00     0.198 A 
ATOM     69  C   UNL A   1      35.129  33.648  33.070  1.00  0.00     0.198 A 
ATOM     70  F   UNL A   1      36.952  32.193  33.269  1.00  0.00    -0.203 F 
ATOM     71  F   UNL A   1      33.738  35.328  30.195  1.00  0.00    -0.200 F 
ATOM     72  C   UNL A   1      34.298  34.444  32.306  1.00  0.00     0.200 A 
ATOM     73  F   UNL A   1      34.888  33.496  34.380  1.00  0.00    -0.200 F 
ATOM     74  F   UNL A   1      33.248  35.063  32.863  1.00  0.00    -0.200 F 
ENDBRANCH  50  64
BRANCH  51  75
ATOM     75  C   UNL A   1      44.682  28.696  28.371  1.00  0.00     0.064 A 
ATOM     76  C   UNL A   1      45.443  27.564  28.725  1.00  0.00     0.173 A 
ATOM     77  C   UNL A   1      44.113  28.718  27.094  1.00  0.00     0.173 A 
ATOM     78  F   UNL A   1      46.023  27.501  29.933  1.00  0.00    -0.203 F 
ATOM     79  C   UNL A   1      45.530  26.456  27.887  1.00  0.00     0.198 A 
ATOM     80  C   UNL A   1      44.219  27.612  26.247  1.00  0.00     0.198 A 
ATOM     81  F   UNL A   1      43.366  29.760  26.703  1.00  0.00    -0.203 F 
ATOM     82  F   UNL A   1      46.168  25.352  28.301  1.00  0.00    -0.200 F 
ATOM     83  C   UNL A   1      44.896  26.472  26.657  1.00  0.00     0.200 A 
ATOM     84  F   UNL A   1      43.589  27.618  25.063  1.00  0.00    -0.200 F 
ATOM     85  F   UNL A   1      44.909  25.378  25.882  1.00  0.00    -0.200 F 
ENDBRANCH  51  75
BRANCH  63  86
ATOM     86  C   UNL A   1      42.590  35.583  29.324  1.00  0.00     0.064 A 
ATOM     87  C   UNL A   1      43.375  36.542  29.985  1.00  0.00     0.173 A 
ATOM     88  C   UNL A   1      41.954  36.039  28.139  1.00  0.00     0.173 A 
ATOM     89  F   UNL A   1      44.122  36.221  31.047  1.00  0.00    -0.203 F 
ATOM     90  C   UNL A   1      43.468  37.863  29.532  1.00  0.00     0.198 A 
ATOM     91  C   UNL A   1      42.099  37.339  27.657  1.00  0.00     0.198 A 
ATOM     92  F   UNL A   1      41.190  35.229  27.391  1.00  0.00    -0.203 F 
ATOM     93  F   UNL A   1      44.198  38.748  30.225  1.00  0.00    -0.200 F 
ATOM     94  C   UNL A   1      42.844  38.257  28.364  1.00  0.00     0.200 A 
ATOM     95  F   UNL A   1      41.529  37.687  26.495  1.00  0.00    -0.200 F 
ATOM     96  F   UNL A   1      42.979  39.511  27.910  1.00  0.00    -0.200 F 
ENDBRANCH  63  86
ENDBRANCH  37  38
ENDBRANCH  29  32
ENDBRANCH  27  28
ENDBRANCH  26  27
ENDBRANCH   1  26
TORSDOF 14
ENDMDL
MODEL 2
REMARK VINA RESULT:     -13.4      1.377      2.260
REMARK SMILES Cc1cccc(NS(=O)(=O)c2ccc(Br)c(C(=O)NCCCCNC(=O)c3ccc(-c4c5nc(c(-c6c(F)c(F)c(F)c(F)c6F)c6ccc([nH]6)c(-c6c(F)c(F)c(F)c(F)c6F)c6nc(c(-c7c(F)c(F)c(F)c(F)c7F)c7ccc4[nH]7)C=C6)C=C5)cc3)c2)c1
REMARK SMILES IDX 21 1 20 2 19 3 17 4 18 5 16 7 11 8 12 9 90 10 13 11 14 12
REMARK SMILES IDX 15 13 8 14 9 15 10 16 7 17 6 19 1 20 2 21 3 22 91 23 4 24
REMARK SMILES IDX 5 25 22 26 23 27 24 28 25 29 26 31 27 32 28 33 89 34 29 35
REMARK SMILES IDX 88 36 30 37 31 38 32 39 82 40 33 41 87 42 81 43 83 44 34 45
REMARK SMILES IDX 86 46 80 47 79 48 35 50 67 51 47 52 66 53 48 54 51 55 65 56
REMARK SMILES IDX 84 57 49 58 50 59 64 61 85 62 52 63 36 64 37 65 45 66 38 67
REMARK SMILES IDX 39 68 43 69 46 70 40 71 41 72 44 73 42 74 68 75 69 76 77 77
REMARK SMILES IDX 70 78 71 79 75 80 78 81 72 82 73 83 76 84 74 85 53 86 54 87
REMARK SMILES IDX 62 88 55 89 56 90 60 91 63 92 57 93 58 94 61 95 59 96
REMARK H PARENT 19 6 7 18 24 30 83 49 51 60
REMARK Flexibility Score: inf
ROOT
ATOM      1  C   UNL A   1      37.529  21.059  25.096  1.00  0.00     0.023 C 
ENDROOT
BRANCH   1   2
ATOM      2  C   UNL A   1      36.506  22.155  25.375  1.00  0.00     0.116 C 
BRANCH   2   3
ATOM      3  N   UNL A   1      35.658  21.988  26.549  1.00  0.00    -0.352 N 
ATOM      4  C   UNL A   1      34.281  21.986  26.690  1.00  0.00     0.252 C 
ATOM      5  O   UNL A   1      33.805  21.687  27.785  1.00  0.00    -0.269 OA
ATOM      6  H   UNL A   1      36.152  21.853  27.391  1.00  0.00     0.163 HD
BRANCH   4   7
ATOM      7  C   UNL A   1      33.372  22.475  25.618  1.00  0.00     0.055 A 
ATOM      8  C   UNL A   1      32.210  24.374  24.645  1.00  0.00     0.088 A 
ATOM      9  C   UNL A   1      32.273  23.772  23.395  1.00  0.00     0.023 A 
ATOM     10  C   UNL A   1      32.857  23.775  25.737  1.00  0.00     0.037 A 
ATOM     11  C   UNL A   1      32.590  22.415  23.338  1.00  0.00     0.018 A 
ATOM     12  C   UNL A   1      33.000  21.746  24.492  1.00  0.00     0.030 A 
ATOM     13  Br  UNL A   1      32.688  19.864  24.566  1.00  0.00    -0.050 Br
BRANCH   8  14
ATOM     14  S   UNL A   1      31.072  25.707  24.980  1.00  0.00     0.261 S 
ATOM     15  O   UNL A   1      30.934  25.779  26.406  1.00  0.00    -0.201 OA
ATOM     16  O   UNL A   1      29.914  25.483  24.120  1.00  0.00    -0.201 OA
BRANCH  14  17
ATOM     17  N   UNL A   1      31.738  27.178  24.522  1.00  0.00    -0.280 N 
ATOM     18  H   UNL A   1      31.659  27.403  23.566  1.00  0.00     0.180 HD
BRANCH  17  19
ATOM     19  C   UNL A   1      32.405  28.145  25.329  1.00  0.00     0.049 A 
ATOM     20  C   UNL A   1      31.440  31.615  26.595  1.00  0.00     0.044 C 
ATOM     21  C   UNL A   1      32.180  30.322  26.420  1.00  0.00    -0.049 A 
ATOM     22  C   UNL A   1      33.289  30.022  27.214  1.00  0.00     0.003 A 
ATOM     23  C   UNL A   1      31.737  29.368  25.494  1.00  0.00     0.030 A 
ATOM     24  C   UNL A   1      34.020  28.857  26.977  1.00  0.00     0.002 A 
ATOM     25  C   UNL A   1      33.616  27.950  25.985  1.00  0.00     0.027 A 
ENDBRANCH  17  19
ENDBRANCH  14  17
ENDBRANCH   8  14
ENDBRANCH   4   7
ENDBRANCH   2   3
ENDBRANCH   1   2
BRANCH   1  26
ATOM     26  C   UNL A   1      38.906  21.229  25.717  1.00  0.00     0.023 C 
BRANCH  26  27
ATOM     27  C   UNL A   1      39.245  22.630  26.211  1.00  0.00     0.116 C 
BRANCH  27  28
ATOM     28  N   UNL A   1      40.659  22.890  26.464  1.00  0.00    -0.352 N 
ATOM     29  C   UNL A   1      41.275  24.096  26.780  1.00  0.00     0.251 C 
ATOM     30  H   UNL A   1      41.255  22.108  26.404  1.00  0.00     0.163 HD
ATOM     31  O   UNL A   1      42.484  24.148  26.963  1.00  0.00    -0.269 OA
BRANCH  29  32
ATOM     32  C   UNL A   1      40.434  25.295  27.030  1.00  0.00     0.039 A 
ATOM     33  C   UNL A   1      40.782  26.491  26.395  1.00  0.00     0.014 A 
ATOM     34  C   UNL A   1      39.486  25.296  28.047  1.00  0.00     0.014 A 
ATOM     35  C   UNL A   1      40.403  27.700  26.974  1.00  0.00     0.010 A 
ATOM     36  C   UNL A   1      39.203  26.486  28.691  1.00  0.00     0.010 A 
ATOM     37  C   UNL A   1      39.728  27.682  28.197  1.00  0.00    -0.014 A 
BRANCH  37  38
ATOM     38  C   UNL A   1      39.700  28.833  29.092  1.00  0.00     0.031 A 
ATOM     39  C   UNL A   1      38.674  29.886  28.964  1.00  0.00     0.074 A 
ATOM     40  C   UNL A   1      40.616  28.924  30.084  1.00  0.00     0.049 A 
ATOM     41  N   UNL A   1      38.901  31.131  29.225  1.00  0.00    -0.248 NA
ATOM     42  C   UNL A   1      37.309  29.626  28.519  1.00  0.00     0.031 C 
ATOM     43  C   UNL A   1      40.635  29.893  31.178  1.00  0.00     0.029 A 
ATOM     44  N   UNL A   1      41.848  28.253  30.190  1.00  0.00    -0.354 N 
ATOM     45  C   UNL A   1      37.687  31.771  29.249  1.00  0.00     0.074 A 
ATOM     46  C   UNL A   1      36.734  30.815  28.730  1.00  0.00     0.031 C 
ATOM     47  C   UNL A   1      41.890  29.992  31.642  1.00  0.00     0.029 A 
ATOM     48  C   UNL A   1      42.735  29.177  30.788  1.00  0.00     0.049 A 
ATOM     49  H   UNL A   1      42.050  27.332  29.907  1.00  0.00     0.167 HD
ATOM     50  C   UNL A   1      37.569  32.992  29.839  1.00  0.00     0.037 A 
ATOM     51  C   UNL A   1      43.862  29.606  30.154  1.00  0.00     0.037 A 
ATOM     52  C   UNL A   1      38.827  33.448  30.413  1.00  0.00     0.049 A 
ATOM     53  C   UNL A   1      43.919  31.100  29.947  1.00  0.00     0.074 A 
ATOM     54  C   UNL A   1      39.333  33.392  31.701  1.00  0.00     0.029 A 
ATOM     55  N   UNL A   1      39.899  33.751  29.582  1.00  0.00    -0.354 N 
ATOM     56  N   UNL A   1      42.879  31.881  30.020  1.00  0.00    -0.248 NA
ATOM     57  C   UNL A   1      45.138  31.825  29.603  1.00  0.00     0.031 C 
ATOM     58  C   UNL A   1      40.724  33.638  31.642  1.00  0.00     0.029 A 
ATOM     59  C   UNL A   1      41.063  33.856  30.318  1.00  0.00     0.049 A 
ATOM     60  H   UNL A   1      39.838  33.872  28.606  1.00  0.00     0.167 HD
ATOM     61  C   UNL A   1      43.249  33.169  29.722  1.00  0.00     0.074 A 
ATOM     62  C   UNL A   1      44.678  33.083  29.490  1.00  0.00     0.031 C 
ATOM     63  C   UNL A   1      42.333  34.182  29.689  1.00  0.00     0.037 A 
BRANCH  50  64
ATOM     64  C   UNL A   1      36.224  33.593  30.143  1.00  0.00     0.064 A 
ATOM     65  C   UNL A   1      35.398  34.116  29.127  1.00  0.00     0.173 A 
ATOM     66  C   UNL A   1      35.726  33.718  31.453  1.00  0.00     0.173 A 
ATOM     67  F   UNL A   1      35.722  34.006  27.833  1.00  0.00    -0.203 F 
ATOM     68  C   UNL A   1      34.214  34.800  29.409  1.00  0.00     0.198 A 
ATOM     69  C   UNL A   1      34.563  34.441  31.738  1.00  0.00     0.198 A 
ATOM     70  F   UNL A   1      36.362  33.144  32.485  1.00  0.00    -0.203 F 
ATOM     71  F   UNL A   1      33.476  35.294  28.404  1.00  0.00    -0.200 F 
ATOM     72  C   UNL A   1      33.814  34.991  30.716  1.00  0.00     0.200 A 
ATOM     73  F   UNL A   1      34.185  34.619  33.012  1.00  0.00    -0.200 F 
ATOM     74  F   UNL A   1      32.708  35.698  30.988  1.00  0.00    -0.200 F 
ENDBRANCH  50  64
BRANCH  51  75
ATOM     75  C   UNL A   1      44.462  28.590  29.253  1.00  0.00     0.064 A 
ATOM     76  C   UNL A   1      44.181  28.676  27.875  1.00  0.00     0.173 A 
ATOM     77  C   UNL A   1      45.545  27.796  29.643  1.00  0.00     0.173 A 
ATOM     78  F   UNL A   1      43.143  29.413  27.451  1.00  0.00    -0.203 F 
ATOM     79  C   UNL A   1      45.015  28.094  26.926  1.00  0.00     0.198 A 
ATOM     80  C   UNL A   1      46.369  27.196  28.688  1.00  0.00     0.198 A 
ATOM     81  F   UNL A   1      45.872  27.685  30.937  1.00  0.00    -0.203 F 
ATOM     82  F   UNL A   1      44.782  28.290  25.619  1.00  0.00    -0.200 F 
ATOM     83  C   UNL A   1      46.124  27.374  27.332  1.00  0.00     0.200 A 
ATOM     84  F   UNL A   1      47.454  26.514  29.080  1.00  0.00    -0.200 F 
ATOM     85  F   UNL A   1      46.974  26.880  26.422  1.00  0.00    -0.200 F 
ENDBRANCH  51  75
BRANCH  63  86
ATOM     86  C   UNL A   1      42.543  35.593  29.183  1.00  0.00     0.064 A 
ATOM     87  C   UNL A   1      41.909  36.134  28.054  1.00  0.00     0.173 A 
ATOM     88  C   UNL A   1      43.318  36.514  29.937  1.00  0.00     0.173 A 
ATOM     89  F   UNL A   1      41.055  35.412  27.318  1.00  0.00    -0.203 F 
ATOM     90  C   UNL A   1      42.083  37.470  27.674  1.00  0.00     0.198 A 
ATOM     91  C   UNL A   1      43.439  37.858  29.591  1.00  0.00     0.198 A 
ATOM     92  F   UNL A   1      43.964  36.145  31.053  1.00  0.00    -0.203 F 
ATOM     93  F   UNL A   1      41.487  37.925  26.563  1.00  0.00    -0.200 F 
ATOM     94  C   UNL A   1      42.834  38.334  28.449  1.00  0.00     0.200 A 
ATOM     95  F   UNL A   1      44.129  38.691  30.383  1.00  0.00    -0.200 F 
ATOM     96  F   UNL A   1      42.955  39.624  28.107  1.00  0.00    -0.200 F 
ENDBRANCH  63  86
ENDBRANCH  37  38
ENDBRANCH  29  32
ENDBRANCH  27  28
ENDBRANCH  26  27
ENDBRANCH   1  26
TORSDOF 14
ENDMDL
MODEL 3
REMARK VINA RESULT:     -13.2      1.689      2.345
REMARK SMILES Cc1cccc(NS(=O)(=O)c2ccc(Br)c(C(=O)NCCCCNC(=O)c3ccc(-c4c5nc(c(-c6c(F)c(F)c(F)c(F)c6F)c6ccc([nH]6)c(-c6c(F)c(F)c(F)c(F)c6F)c6nc(c(-c7c(F)c(F)c(F)c(F)c7F)c7ccc4[nH]7)C=C6)C=C5)cc3)c2)c1
REMARK SMILES IDX 21 1 20 2 19 3 17 4 18 5 16 7 11 8 12 9 90 10 13 11 14 12
REMARK SMILES IDX 15 13 8 14 9 15 10 16 7 17 6 19 1 20 2 21 3 22 91 23 4 24
REMARK SMILES IDX 5 25 22 26 23 27 24 28 25 29 26 31 27 32 28 33 89 34 29 35
REMARK SMILES IDX 88 36 30 37 31 38 32 39 82 40 33 41 87 42 81 43 83 44 34 45
REMARK SMILES IDX 86 46 80 47 79 48 35 50 67 51 47 52 66 53 48 54 51 55 65 56
REMARK SMILES IDX 84 57 49 58 50 59 64 61 85 62 52 63 36 64 37 65 45 66 38 67
REMARK SMILES IDX 39 68 43 69 46 70 40 71 41 72 44 73 42 74 68 75 69 76 77 77
REMARK SMILES IDX 70 78 71 79 75 80 78 81 72 82 73 83 76 84 74 85 53 86 54 87
REMARK SMILES IDX 62 88 55 89 56 90 60 91 63 92 57 93 58 94 61 95 59 96
REMARK H PARENT 19 6 7 18 24 30 83 49 51 60
REMARK Flexibility Score: inf
ROOT
ATOM      1  C   UNL A   1      37.454  22.316  24.755  1.00  0.00     0.023 C 
ENDROOT
BRANCH   1   2
ATOM      2  C   UNL A   1      36.926  23.522  25.524  1.00  0.00     0.116 C 
BRANCH   2   3
ATOM      3  N   UNL A   1      35.826  23.287  26.452  1.00  0.00    -0.352 N 
ATOM      4  C   UNL A   1      34.456  23.406  26.295  1.00  0.00     0.252 C 
ATOM      5  O   UNL A   1      33.726  23.014  27.205  1.00  0.00    -0.269 OA
ATOM      6  H   UNL A   1      36.107  22.992  27.349  1.00  0.00     0.163 HD
BRANCH   4   7
ATOM      7  C   UNL A   1      33.849  24.123  25.141  1.00  0.00     0.055 A 
ATOM      8  C   UNL A   1      33.238  26.264  24.169  1.00  0.00     0.088 A 
ATOM      9  C   UNL A   1      33.401  25.733  22.896  1.00  0.00     0.023 A 
ATOM     10  C   UNL A   1      33.569  25.490  25.292  1.00  0.00     0.037 A 
ATOM     11  C   UNL A   1      33.466  24.346  22.770  1.00  0.00     0.018 A 
ATOM     12  C   UNL A   1      33.544  23.545  23.912  1.00  0.00     0.030 A 
ATOM     13  Br  UNL A   1      32.883  21.760  23.771  1.00  0.00    -0.050 Br
BRANCH   8  14
ATOM     14  S   UNL A   1      32.325  27.774  24.437  1.00  0.00     0.261 S 
ATOM     15  O   UNL A   1      33.262  28.851  24.286  1.00  0.00    -0.201 OA
ATOM     16  O   UNL A   1      31.581  27.589  25.678  1.00  0.00    -0.201 OA
BRANCH  14  17
ATOM     17  N   UNL A   1      31.190  27.998  23.221  1.00  0.00    -0.280 N 
ATOM     18  H   UNL A   1      31.452  27.676  22.328  1.00  0.00     0.180 HD
BRANCH  17  19
ATOM     19  C   UNL A   1      29.898  28.595  23.306  1.00  0.00     0.049 A 
ATOM     20  C   UNL A   1      28.688  32.213  23.436  1.00  0.00     0.044 C 
ATOM     21  C   UNL A   1      28.684  30.718  23.319  1.00  0.00    -0.049 A 
ATOM     22  C   UNL A   1      27.503  30.027  23.042  1.00  0.00     0.003 A 
ATOM     23  C   UNL A   1      29.878  29.993  23.430  1.00  0.00     0.030 A 
ATOM     24  C   UNL A   1      27.500  28.631  23.027  1.00  0.00     0.002 A 
ATOM     25  C   UNL A   1      28.688  27.913  23.227  1.00  0.00     0.027 A 
ENDBRANCH  17  19
ENDBRANCH  14  17
ENDBRANCH   8  14
ENDBRANCH   4   7
ENDBRANCH   2   3
ENDBRANCH   1   2
BRANCH   1  26
ATOM     26  C   UNL A   1      38.524  21.479  25.437  1.00  0.00     0.023 C 
BRANCH  26  27
ATOM     27  C   UNL A   1      39.296  22.167  26.555  1.00  0.00     0.116 C 
BRANCH  27  28
ATOM     28  N   UNL A   1      40.683  22.510  26.255  1.00  0.00    -0.352 N 
ATOM     29  C   UNL A   1      41.274  23.768  26.210  1.00  0.00     0.251 C 
ATOM     30  H   UNL A   1      41.278  21.751  26.059  1.00  0.00     0.163 HD
ATOM     31  O   UNL A   1      42.461  23.888  25.938  1.00  0.00    -0.269 OA
BRANCH  29  32
ATOM     32  C   UNL A   1      40.485  24.954  26.630  1.00  0.00     0.039 A 
ATOM     33  C   UNL A   1      40.839  26.203  26.109  1.00  0.00     0.014 A 
ATOM     34  C   UNL A   1      39.588  24.871  27.689  1.00  0.00     0.014 A 
ATOM     35  C   UNL A   1      40.527  27.351  26.833  1.00  0.00     0.010 A 
ATOM     36  C   UNL A   1      39.375  25.990  28.471  1.00  0.00     0.010 A 
ATOM     37  C   UNL A   1      39.913  27.219  28.080  1.00  0.00    -0.014 A 
BRANCH  37  38
ATOM     38  C   UNL A   1      39.965  28.266  29.093  1.00  0.00     0.031 A 
ATOM     39  C   UNL A   1      38.942  29.328  29.160  1.00  0.00     0.074 A 
ATOM     40  C   UNL A   1      40.955  28.249  30.015  1.00  0.00     0.049 A 
ATOM     41  N   UNL A   1      39.201  30.538  29.534  1.00  0.00    -0.248 NA
ATOM     42  C   UNL A   1      37.544  29.119  28.798  1.00  0.00     0.031 C 
ATOM     43  C   UNL A   1      41.069  29.094  31.202  1.00  0.00     0.029 A 
ATOM     44  N   UNL A   1      42.186  27.569  29.952  1.00  0.00    -0.354 N 
ATOM     45  C   UNL A   1      37.999  31.172  29.721  1.00  0.00     0.074 A 
ATOM     46  C   UNL A   1      36.999  30.279  29.179  1.00  0.00     0.031 C 
ATOM     47  C   UNL A   1      42.357  29.141  31.574  1.00  0.00     0.029 A 
ATOM     48  C   UNL A   1      43.125  28.422  30.575  1.00  0.00     0.049 A 
ATOM     49  H   UNL A   1      42.356  26.684  29.556  1.00  0.00     0.167 HD
ATOM     50  C   UNL A   1      37.938  32.323  30.447  1.00  0.00     0.037 A 
ATOM     51  C   UNL A   1      44.204  28.915  29.904  1.00  0.00     0.037 A 
ATOM     52  C   UNL A   1      39.241  32.713  30.967  1.00  0.00     0.049 A 
ATOM     53  C   UNL A   1      44.260  30.423  29.856  1.00  0.00     0.074 A 
ATOM     54  C   UNL A   1      39.845  32.518  32.198  1.00  0.00     0.029 A 
ATOM     55  N   UNL A   1      40.248  33.103  30.092  1.00  0.00    -0.354 N 
ATOM     56  N   UNL A   1      43.236  31.193  30.093  1.00  0.00    -0.248 NA
ATOM     57  C   UNL A   1      45.455  31.179  29.498  1.00  0.00     0.031 C 
ATOM     58  C   UNL A   1      41.230  32.766  32.057  1.00  0.00     0.029 A 
ATOM     59  C   UNL A   1      41.467  33.126  30.743  1.00  0.00     0.049 A 
ATOM     60  H   UNL A   1      40.114  33.329  29.143  1.00  0.00     0.167 HD
ATOM     61  C   UNL A   1      43.594  32.505  29.907  1.00  0.00     0.074 A 
ATOM     62  C   UNL A   1      45.000  32.443  29.556  1.00  0.00     0.031 C 
ATOM     63  C   UNL A   1      42.688  33.517  30.055  1.00  0.00     0.037 A 
BRANCH  50  64
ATOM     64  C   UNL A   1      36.626  32.890  30.918  1.00  0.00     0.064 A 
ATOM     65  C   UNL A   1      35.852  33.742  30.105  1.00  0.00     0.173 A 
ATOM     66  C   UNL A   1      36.113  32.650  32.206  1.00  0.00     0.173 A 
ATOM     67  F   UNL A   1      36.192  34.002  28.838  1.00  0.00    -0.203 F 
ATOM     68  C   UNL A   1      34.706  34.384  30.580  1.00  0.00     0.198 A 
ATOM     69  C   UNL A   1      34.992  33.326  32.695  1.00  0.00     0.198 A 
ATOM     70  F   UNL A   1      36.696  31.755  33.019  1.00  0.00    -0.203 F 
ATOM     71  F   UNL A   1      34.017  35.199  29.769  1.00  0.00    -0.200 F 
ATOM     72  C   UNL A   1      34.295  34.202  31.885  1.00  0.00     0.200 A 
ATOM     73  F   UNL A   1      34.602  33.140  33.964  1.00  0.00    -0.200 F 
ATOM     74  F   UNL A   1      33.229  34.863  32.356  1.00  0.00    -0.200 F 
ENDBRANCH  50  64
BRANCH  51  75
ATOM     75  C   UNL A   1      44.722  28.002  28.855  1.00  0.00     0.064 A 
ATOM     76  C   UNL A   1      45.493  26.896  29.260  1.00  0.00     0.173 A 
ATOM     77  C   UNL A   1      44.198  27.984  27.558  1.00  0.00     0.173 A 
ATOM     78  F   UNL A   1      46.031  26.871  30.489  1.00  0.00    -0.203 F 
ATOM     79  C   UNL A   1      45.633  25.772  28.451  1.00  0.00     0.198 A 
ATOM     80  C   UNL A   1      44.358  26.864  26.740  1.00  0.00     0.198 A 
ATOM     81  F   UNL A   1      43.444  29.001  27.119  1.00  0.00    -0.203 F 
ATOM     82  F   UNL A   1      46.279  24.691  28.912  1.00  0.00    -0.200 F 
ATOM     83  C   UNL A   1      45.044  25.747  27.200  1.00  0.00     0.200 A 
ATOM     84  F   UNL A   1      43.771  26.831  25.536  1.00  0.00    -0.200 F 
ATOM     85  F   UNL A   1      45.107  24.638  26.450  1.00  0.00    -0.200 F 
ENDBRANCH  51  75
BRANCH  63  86
ATOM     86  C   UNL A   1      42.871  34.974  29.689  1.00  0.00     0.064 A 
ATOM     87  C   UNL A   1      42.189  35.623  28.648  1.00  0.00     0.173 A 
ATOM     88  C   UNL A   1      43.673  35.818  30.502  1.00  0.00     0.173 A 
ATOM     89  F   UNL A   1      41.310  34.974  27.876  1.00  0.00    -0.203 F 
ATOM     90  C   UNL A   1      42.343  36.992  28.401  1.00  0.00     0.198 A 
ATOM     91  C   UNL A   1      43.774  37.192  30.291  1.00  0.00     0.198 A 
ATOM     92  F   UNL A   1      44.364  35.342  31.548  1.00  0.00    -0.203 F 
ATOM     93  F   UNL A   1      41.700  37.553  27.367  1.00  0.00    -0.200 F 
ATOM     94  C   UNL A   1      43.121  37.778  29.229  1.00  0.00     0.200 A 
ATOM     95  F   UNL A   1      44.492  37.945  31.137  1.00  0.00    -0.200 F 
ATOM     96  F   UNL A   1      43.223  39.097  29.018  1.00  0.00    -0.200 F 
ENDBRANCH  63  86
ENDBRANCH  37  38
ENDBRANCH  29  32
ENDBRANCH  27  28
ENDBRANCH  26  27
ENDBRANCH   1  26
TORSDOF 14
ENDMDL
