MODEL 1
REMARK VINA RESULT:     -14.1      0.000      0.000
REMARK SMILES O=C(NCCCCNC(=O)[C@H]1[C@H]2CC[C@H](C2)[C@@H]1C(=O)N1CC[NH+](C2CCCCC2)CC1)c1ccc(-c2c3nc(c(-c4c(F)c(F)c(F)c(F)c4F)c4ccc([nH]4)c(-c4c(F)c(F)c(F)c(F)c4F)c4nc(c(-c5c(F)c(F)c(F)c(F)c5F)c5ccc2[nH]5)C=C4)C=C3)cc1
REMARK SMILES IDX 5 1 4 2 3 3 1 4 2 5 32 7 33 8 94 9 34 10 93 11 35 12 36 13
REMARK SMILES IDX 37 14 87 15 38 16 92 17 86 18 88 19 39 20 91 21 85 22 84 23
REMARK SMILES IDX 40 25 72 26 52 27 71 28 53 29 56 30 70 31 89 32 54 33 55 34
REMARK SMILES IDX 69 36 90 37 57 38 41 39 42 40 50 41 43 42 44 43 48 44 51 45
REMARK SMILES IDX 45 46 46 47 49 48 47 49 73 50 74 51 82 52 75 53 76 54 80 55
REMARK SMILES IDX 83 56 77 57 78 58 81 59 79 60 58 61 59 62 67 63 60 64 61 65
REMARK SMILES IDX 65 66 68 67 62 68 63 69 66 70 64 71 6 72 7 73 8 74 9 75
REMARK SMILES IDX 10 77 11 78 12 79 17 80 13 81 16 82 15 83 14 84 18 85 19 86
REMARK SMILES IDX 20 87 21 88 31 89 22 90 30 91 23 92 24 94 25 95 29 96 26 97
REMARK SMILES IDX 28 98 27 99
REMARK H PARENT 3 6 88 24 56 35 8 76 23 93
REMARK Flexibility Score: inf
ROOT
ATOM      1  C   UNL A   1      31.514  32.150  26.533  1.00  0.00     0.023 C 
ENDROOT
BRANCH   1   2
ATOM      2  C   UNL A   1      32.713  32.800  27.203  1.00  0.00     0.116 C 
BRANCH   2   3
ATOM      3  N   UNL A   1      32.450  34.165  27.626  1.00  0.00    -0.352 N 
ATOM      4  O   UNL A   1      32.666  35.976  28.965  1.00  0.00    -0.269 OA
ATOM      5  C   UNL A   1      33.069  34.872  28.628  1.00  0.00     0.251 C 
ATOM      6  H   UNL A   1      31.742  34.642  27.136  1.00  0.00     0.163 HD
BRANCH   5   7
ATOM      7  C   UNL A   1      34.224  34.258  29.313  1.00  0.00     0.039 A 
ATOM      8  C   UNL A   1      34.028  33.458  30.442  1.00  0.00     0.014 A 
ATOM      9  C   UNL A   1      35.509  34.501  28.825  1.00  0.00     0.014 A 
ATOM     10  C   UNL A   1      35.125  32.978  31.143  1.00  0.00     0.010 A 
ATOM     11  C   UNL A   1      36.608  33.956  29.487  1.00  0.00     0.010 A 
ATOM     12  C   UNL A   1      36.423  33.198  30.655  1.00  0.00    -0.014 A 
BRANCH  12  13
ATOM     13  C   UNL A   1      37.567  32.519  31.303  1.00  0.00     0.031 A 
ATOM     14  C   UNL A   1      38.258  31.361  30.650  1.00  0.00     0.074 A 
ATOM     15  C   UNL A   1      37.953  32.958  32.516  1.00  0.00     0.049 A 
ATOM     16  N   UNL A   1      39.235  30.623  31.111  1.00  0.00    -0.248 NA
ATOM     17  C   UNL A   1      37.792  30.972  29.310  1.00  0.00     0.031 C 
ATOM     18  C   UNL A   1      37.329  34.066  33.246  1.00  0.00     0.029 A 
ATOM     19  N   UNL A   1      38.948  32.529  33.355  1.00  0.00    -0.354 N 
ATOM     20  C   UNL A   1      39.486  29.669  30.135  1.00  0.00     0.074 A 
ATOM     21  C   UNL A   1      38.553  29.914  29.055  1.00  0.00     0.031 C 
ATOM     22  C   UNL A   1      37.963  34.238  34.413  1.00  0.00     0.029 A 
ATOM     23  C   UNL A   1      38.992  33.215  34.543  1.00  0.00     0.049 A 
ATOM     24  H   UNL A   1      39.570  31.801  33.127  1.00  0.00     0.167 HD
ATOM     25  C   UNL A   1      40.414  28.683  30.150  1.00  0.00     0.037 A 
ATOM     26  C   UNL A   1      39.750  33.015  35.636  1.00  0.00     0.037 A 
ATOM     27  C   UNL A   1      41.354  28.475  31.221  1.00  0.00     0.049 A 
ATOM     28  C   UNL A   1      40.747  31.895  35.629  1.00  0.00     0.074 A 
ATOM     29  C   UNL A   1      42.397  27.568  31.287  1.00  0.00     0.029 A 
ATOM     30  N   UNL A   1      41.355  29.173  32.420  1.00  0.00    -0.354 N 
ATOM     31  N   UNL A   1      41.025  31.045  34.672  1.00  0.00    -0.248 NA
ATOM     32  C   UNL A   1      41.530  31.699  36.855  1.00  0.00     0.031 C 
ATOM     33  C   UNL A   1      42.994  27.678  32.547  1.00  0.00     0.029 A 
ATOM     34  C   UNL A   1      42.352  28.686  33.250  1.00  0.00     0.049 A 
ATOM     35  H   UNL A   1      40.740  29.906  32.647  1.00  0.00     0.167 HD
ATOM     36  C   UNL A   1      42.013  30.215  35.175  1.00  0.00     0.074 A 
ATOM     37  C   UNL A   1      42.309  30.682  36.514  1.00  0.00     0.031 C 
ATOM     38  C   UNL A   1      42.618  29.157  34.583  1.00  0.00     0.037 A 
BRANCH  25  39
ATOM     39  C   UNL A   1      40.463  27.735  28.989  1.00  0.00     0.064 A 
ATOM     40  C   UNL A   1      39.665  26.584  28.940  1.00  0.00     0.173 A 
ATOM     41  C   UNL A   1      41.251  28.038  27.867  1.00  0.00     0.173 A 
ATOM     42  F   UNL A   1      38.898  26.249  29.988  1.00  0.00    -0.203 F 
ATOM     43  C   UNL A   1      39.657  25.767  27.813  1.00  0.00     0.198 A 
ATOM     44  C   UNL A   1      41.225  27.230  26.734  1.00  0.00     0.198 A 
ATOM     45  F   UNL A   1      42.028  29.131  27.862  1.00  0.00    -0.203 F 
ATOM     46  F   UNL A   1      38.900  24.661  27.793  1.00  0.00    -0.200 F 
ATOM     47  C   UNL A   1      40.429  26.095  26.707  1.00  0.00     0.200 A 
ATOM     48  F   UNL A   1      41.962  27.556  25.663  1.00  0.00    -0.200 F 
ATOM     49  F   UNL A   1      40.405  25.317  25.616  1.00  0.00    -0.200 F 
ENDBRANCH  25  39
BRANCH  26  50
ATOM     50  C   UNL A   1      39.553  33.870  36.834  1.00  0.00     0.064 A 
ATOM     51  C   UNL A   1      38.761  33.442  37.907  1.00  0.00     0.173 A 
ATOM     52  C   UNL A   1      40.164  35.131  36.932  1.00  0.00     0.173 A 
ATOM     53  F   UNL A   1      38.144  32.253  37.851  1.00  0.00    -0.203 F 
ATOM     54  C   UNL A   1      38.575  34.250  39.027  1.00  0.00     0.198 A 
ATOM     55  C   UNL A   1      40.001  35.923  38.064  1.00  0.00     0.198 A 
ATOM     56  F   UNL A   1      40.936  35.583  35.933  1.00  0.00    -0.203 F 
ATOM     57  F   UNL A   1      37.778  33.835  40.022  1.00  0.00    -0.200 F 
ATOM     58  C   UNL A   1      39.199  35.485  39.108  1.00  0.00     0.200 A 
ATOM     59  F   UNL A   1      40.621  37.108  38.145  1.00  0.00    -0.200 F 
ATOM     60  F   UNL A   1      39.024  36.258  40.188  1.00  0.00    -0.200 F 
ENDBRANCH  26  50
BRANCH  38  61
ATOM     61  C   UNL A   1      43.655  28.433  35.388  1.00  0.00     0.064 A 
ATOM     62  C   UNL A   1      45.009  28.790  35.317  1.00  0.00     0.173 A 
ATOM     63  C   UNL A   1      43.289  27.401  36.264  1.00  0.00     0.173 A 
ATOM     64  F   UNL A   1      45.409  29.757  34.477  1.00  0.00    -0.203 F 
ATOM     65  C   UNL A   1      45.963  28.127  36.082  1.00  0.00     0.198 A 
ATOM     66  C   UNL A   1      44.241  26.759  37.048  1.00  0.00     0.198 A 
ATOM     67  F   UNL A   1      42.004  27.027  36.368  1.00  0.00    -0.203 F 
ATOM     68  F   UNL A   1      47.257  28.455  35.968  1.00  0.00    -0.200 F 
ATOM     69  C   UNL A   1      45.577  27.117  36.952  1.00  0.00     0.200 A 
ATOM     70  F   UNL A   1      43.867  25.791  37.896  1.00  0.00    -0.200 F 
ATOM     71  F   UNL A   1      46.497  26.486  37.695  1.00  0.00    -0.200 F 
ENDBRANCH  38  61
ENDBRANCH  12  13
ENDBRANCH   5   7
ENDBRANCH   2   3
ENDBRANCH   1   2
BRANCH   1  72
ATOM     72  C   UNL A   1      31.587  30.626  26.450  1.00  0.00     0.023 C 
BRANCH  72  73
ATOM     73  C   UNL A   1      32.999  30.053  26.567  1.00  0.00     0.116 C 
BRANCH  73  74
ATOM     74  N   UNL A   1      33.543  29.703  25.275  1.00  0.00    -0.356 N 
ATOM     75  C   UNL A   1      33.504  28.552  24.563  1.00  0.00     0.224 C 
ATOM     76  H   UNL A   1      34.028  30.435  24.831  1.00  0.00     0.163 HD
ATOM     77  O   UNL A   1      34.046  28.595  23.454  1.00  0.00    -0.275 OA
BRANCH  75  78
ATOM     78  C   UNL A   1      32.726  27.311  25.011  1.00  0.00     0.094 C 
ATOM     79  C   UNL A   1      31.220  27.683  25.205  1.00  0.00     0.002 C 
ATOM     80  C   UNL A   1      32.617  26.077  24.082  1.00  0.00     0.094 C 
ATOM     81  C   UNL A   1      30.566  28.125  23.875  1.00  0.00     0.005 C 
ATOM     82  C   UNL A   1      30.585  26.313  25.381  1.00  0.00     0.009 C 
ATOM     83  C   UNL A   1      31.099  25.793  24.037  1.00  0.00     0.002 C 
ATOM     84  C   UNL A   1      30.468  26.818  23.076  1.00  0.00     0.005 C 
BRANCH  80  85
ATOM     85  C   UNL A   1      33.491  24.884  24.498  1.00  0.00     0.227 C 
ATOM     86  O   UNL A   1      34.535  25.067  25.128  1.00  0.00    -0.275 OA
ATOM     87  N   UNL A   1      32.996  23.613  24.294  1.00  0.00    -0.331 N 
ATOM     88  C   UNL A   1      33.103  22.650  25.391  1.00  0.00     0.181 C 
ATOM     89  C   UNL A   1      33.113  22.993  22.979  1.00  0.00     0.181 C 
ATOM     90  C   UNL A   1      32.159  21.435  25.201  1.00  0.00     0.284 C 
ATOM     91  C   UNL A   1      32.075  21.877  22.824  1.00  0.00     0.284 C 
ATOM     92  N   UNL A   1      32.156  20.827  23.853  1.00  0.00    -0.330 N 
ATOM     93  H   UNL A   1      31.298  20.286  23.748  1.00  0.00     0.348 HD
BRANCH  92  94
ATOM     94  C   UNL A   1      33.116  19.722  23.648  1.00  0.00     0.184 C 
ATOM     95  C   UNL A   1      34.077  19.555  24.847  1.00  0.00     0.065 C 
ATOM     96  C   UNL A   1      32.520  18.364  23.219  1.00  0.00     0.065 C 
ATOM     97  C   UNL A   1      35.118  18.462  24.627  1.00  0.00     0.006 C 
ATOM     98  C   UNL A   1      33.575  17.269  23.064  1.00  0.00     0.006 C 
ATOM     99  C   UNL A   1      34.440  17.137  24.308  1.00  0.00     0.000 C 
ENDBRANCH  92  94
ENDBRANCH  80  85
ENDBRANCH  75  78
ENDBRANCH  73  74
ENDBRANCH  72  73
ENDBRANCH   1  72
TORSDOF 13
ENDMDL
MODEL 2
REMARK VINA RESULT:     -14.0      0.146      1.105
REMARK SMILES O=C(NCCCCNC(=O)[C@H]1[C@H]2CC[C@H](C2)[C@@H]1C(=O)N1CC[NH+](C2CCCCC2)CC1)c1ccc(-c2c3nc(c(-c4c(F)c(F)c(F)c(F)c4F)c4ccc([nH]4)c(-c4c(F)c(F)c(F)c(F)c4F)c4nc(c(-c5c(F)c(F)c(F)c(F)c5F)c5ccc2[nH]5)C=C4)C=C3)cc1
REMARK SMILES IDX 5 1 4 2 3 3 1 4 2 5 32 7 33 8 94 9 34 10 93 11 35 12 36 13
REMARK SMILES IDX 37 14 87 15 38 16 92 17 86 18 88 19 39 20 91 21 85 22 84 23
REMARK SMILES IDX 40 25 72 26 52 27 71 28 53 29 56 30 70 31 89 32 54 33 55 34
REMARK SMILES IDX 69 36 90 37 57 38 41 39 42 40 50 41 43 42 44 43 48 44 51 45
REMARK SMILES IDX 45 46 46 47 49 48 47 49 73 50 74 51 82 52 75 53 76 54 80 55
REMARK SMILES IDX 83 56 77 57 78 58 81 59 79 60 58 61 59 62 67 63 60 64 61 65
REMARK SMILES IDX 65 66 68 67 62 68 63 69 66 70 64 71 6 72 7 73 8 74 9 75
REMARK SMILES IDX 10 77 11 78 12 79 17 80 13 81 16 82 15 83 14 84 18 85 19 86
REMARK SMILES IDX 20 87 21 88 31 89 22 90 30 91 23 92 24 94 25 95 29 96 26 97
REMARK SMILES IDX 28 98 27 99
REMARK H PARENT 3 6 88 24 56 35 8 76 23 93
REMARK Flexibility Score: inf
ROOT
ATOM      1  C   UNL A   1      31.403  32.076  26.875  1.00  0.00     0.023 C 
ENDROOT
BRANCH   1   2
ATOM      2  C   UNL A   1      32.677  32.838  27.197  1.00  0.00     0.116 C 
BRANCH   2   3
ATOM      3  N   UNL A   1      32.423  34.203  27.626  1.00  0.00    -0.352 N 
ATOM      4  O   UNL A   1      32.659  36.009  28.967  1.00  0.00    -0.269 OA
ATOM      5  C   UNL A   1      33.055  34.905  28.622  1.00  0.00     0.251 C 
ATOM      6  H   UNL A   1      31.712  34.683  27.144  1.00  0.00     0.163 HD
BRANCH   5   7
ATOM      7  C   UNL A   1      34.214  34.286  29.295  1.00  0.00     0.039 A 
ATOM      8  C   UNL A   1      34.026  33.471  30.414  1.00  0.00     0.014 A 
ATOM      9  C   UNL A   1      35.496  34.538  28.803  1.00  0.00     0.014 A 
ATOM     10  C   UNL A   1      35.128  32.985  31.104  1.00  0.00     0.010 A 
ATOM     11  C   UNL A   1      36.600  33.987  29.453  1.00  0.00     0.010 A 
ATOM     12  C   UNL A   1      36.423  33.214  30.612  1.00  0.00    -0.014 A 
BRANCH  12  13
ATOM     13  C   UNL A   1      37.572  32.529  31.246  1.00  0.00     0.031 A 
ATOM     14  C   UNL A   1      38.259  31.378  30.577  1.00  0.00     0.074 A 
ATOM     15  C   UNL A   1      37.965  32.957  32.460  1.00  0.00     0.049 A 
ATOM     16  N   UNL A   1      39.239  30.636  31.025  1.00  0.00    -0.248 NA
ATOM     17  C   UNL A   1      37.785  31.002  29.236  1.00  0.00     0.031 C 
ATOM     18  C   UNL A   1      37.345  34.057  33.205  1.00  0.00     0.029 A 
ATOM     19  N   UNL A   1      38.966  32.521  33.288  1.00  0.00    -0.354 N 
ATOM     20  C   UNL A   1      39.484  29.692  30.038  1.00  0.00     0.074 A 
ATOM     21  C   UNL A   1      38.544  29.946  28.967  1.00  0.00     0.031 C 
ATOM     22  C   UNL A   1      37.987  34.219  34.369  1.00  0.00     0.029 A 
ATOM     23  C   UNL A   1      39.018  33.195  34.483  1.00  0.00     0.049 A 
ATOM     24  H   UNL A   1      39.587  31.795  33.049  1.00  0.00     0.167 HD
ATOM     25  C   UNL A   1      40.413  28.707  30.037  1.00  0.00     0.037 A 
ATOM     26  C   UNL A   1      39.783  32.985  35.569  1.00  0.00     0.037 A 
ATOM     27  C   UNL A   1      41.361  28.489  31.100  1.00  0.00     0.049 A 
ATOM     28  C   UNL A   1      40.781  31.867  35.544  1.00  0.00     0.074 A 
ATOM     29  C   UNL A   1      42.405  27.582  31.150  1.00  0.00     0.029 A 
ATOM     30  N   UNL A   1      41.370  29.175  32.305  1.00  0.00    -0.354 N 
ATOM     31  N   UNL A   1      41.053  31.025  34.577  1.00  0.00    -0.248 NA
ATOM     32  C   UNL A   1      41.573  31.659  36.764  1.00  0.00     0.031 C 
ATOM     33  C   UNL A   1      43.010  27.681  32.407  1.00  0.00     0.029 A 
ATOM     34  C   UNL A   1      42.372  28.681  33.124  1.00  0.00     0.049 A 
ATOM     35  H   UNL A   1      40.755  29.906  32.544  1.00  0.00     0.167 HD
ATOM     36  C   UNL A   1      42.045  30.192  35.066  1.00  0.00     0.074 A 
ATOM     37  C   UNL A   1      42.350  30.646  36.408  1.00  0.00     0.031 C 
ATOM     38  C   UNL A   1      42.647  29.140  34.460  1.00  0.00     0.037 A 
BRANCH  25  39
ATOM     39  C   UNL A   1      40.455  27.770  28.867  1.00  0.00     0.064 A 
ATOM     40  C   UNL A   1      39.669  26.611  28.820  1.00  0.00     0.173 A 
ATOM     41  C   UNL A   1      41.222  28.092  27.736  1.00  0.00     0.173 A 
ATOM     42  F   UNL A   1      38.923  26.257  29.876  1.00  0.00    -0.203 F 
ATOM     43  C   UNL A   1      39.654  25.803  27.685  1.00  0.00     0.198 A 
ATOM     44  C   UNL A   1      41.188  27.294  26.596  1.00  0.00     0.198 A 
ATOM     45  F   UNL A   1      41.986  29.194  27.729  1.00  0.00    -0.203 F 
ATOM     46  F   UNL A   1      38.909  24.689  27.666  1.00  0.00    -0.200 F 
ATOM     47  C   UNL A   1      40.404  26.150  26.571  1.00  0.00     0.200 A 
ATOM     48  F   UNL A   1      41.905  27.638  25.517  1.00  0.00    -0.200 F 
ATOM     49  F   UNL A   1      40.373  25.382  25.473  1.00  0.00    -0.200 F 
ENDBRANCH  25  39
BRANCH  26  50
ATOM     50  C   UNL A   1      39.594  33.829  36.777  1.00  0.00     0.064 A 
ATOM     51  C   UNL A   1      38.777  33.408  37.833  1.00  0.00     0.173 A 
ATOM     52  C   UNL A   1      40.237  35.071  36.899  1.00  0.00     0.173 A 
ATOM     53  F   UNL A   1      38.129  32.237  37.752  1.00  0.00    -0.203 F 
ATOM     54  C   UNL A   1      38.598  34.205  38.962  1.00  0.00     0.198 A 
ATOM     55  C   UNL A   1      40.081  35.851  38.041  1.00  0.00     0.198 A 
ATOM     56  F   UNL A   1      41.034  35.516  35.917  1.00  0.00    -0.203 F 
ATOM     57  F   UNL A   1      37.777  33.798  39.941  1.00  0.00    -0.200 F 
ATOM     58  C   UNL A   1      39.254  35.422  39.068  1.00  0.00     0.200 A 
ATOM     59  F   UNL A   1      40.731  37.018  38.146  1.00  0.00    -0.200 F 
ATOM     60  F   UNL A   1      39.085  36.184  40.157  1.00  0.00    -0.200 F 
ENDBRANCH  26  50
BRANCH  38  61
ATOM     61  C   UNL A   1      43.690  28.409  35.251  1.00  0.00     0.064 A 
ATOM     62  C   UNL A   1      43.359  27.295  36.034  1.00  0.00     0.173 A 
ATOM     63  C   UNL A   1      45.035  28.802  35.194  1.00  0.00     0.173 A 
ATOM     64  F   UNL A   1      42.082  26.895  36.134  1.00  0.00    -0.203 F 
ATOM     65  C   UNL A   1      44.337  26.609  36.748  1.00  0.00     0.198 A 
ATOM     66  C   UNL A   1      46.013  28.098  35.888  1.00  0.00     0.198 A 
ATOM     67  F   UNL A   1      45.400  29.861  34.455  1.00  0.00    -0.203 F 
ATOM     68  F   UNL A   1      43.993  25.572  37.524  1.00  0.00    -0.200 F 
ATOM     69  C   UNL A   1      45.664  27.007  36.669  1.00  0.00     0.200 A 
ATOM     70  F   UNL A   1      47.297  28.476  35.802  1.00  0.00    -0.200 F 
ATOM     71  F   UNL A   1      46.605  26.340  37.351  1.00  0.00    -0.200 F 
ENDBRANCH  38  61
ENDBRANCH  12  13
ENDBRANCH   5   7
ENDBRANCH   2   3
ENDBRANCH   1   2
BRANCH   1  72
ATOM     72  C   UNL A   1      31.624  30.769  26.115  1.00  0.00     0.023 C 
BRANCH  72  73
ATOM     73  C   UNL A   1      32.978  30.107  26.375  1.00  0.00     0.116 C 
BRANCH  73  74
ATOM     74  N   UNL A   1      33.603  29.669  25.150  1.00  0.00    -0.356 N 
ATOM     75  C   UNL A   1      33.612  28.469  24.520  1.00  0.00     0.224 C 
ATOM     76  H   UNL A   1      34.116  30.369  24.686  1.00  0.00     0.163 HD
ATOM     77  O   UNL A   1      34.225  28.436  23.448  1.00  0.00    -0.275 OA
BRANCH  75  78
ATOM     78  C   UNL A   1      32.808  27.259  25.005  1.00  0.00     0.094 C 
ATOM     79  C   UNL A   1      31.315  27.675  25.209  1.00  0.00     0.002 C 
ATOM     80  C   UNL A   1      32.656  26.009  24.105  1.00  0.00     0.094 C 
ATOM     81  C   UNL A   1      30.656  28.105  23.878  1.00  0.00     0.005 C 
ATOM     82  C   UNL A   1      30.647  26.326  25.423  1.00  0.00     0.009 C 
ATOM     83  C   UNL A   1      31.130  25.764  24.085  1.00  0.00     0.002 C 
ATOM     84  C   UNL A   1      30.513  26.784  23.109  1.00  0.00     0.005 C 
BRANCH  80  85
ATOM     85  C   UNL A   1      33.504  24.802  24.537  1.00  0.00     0.227 C 
ATOM     86  O   UNL A   1      34.525  24.968  25.208  1.00  0.00    -0.275 OA
ATOM     87  N   UNL A   1      33.007  23.539  24.295  1.00  0.00    -0.331 N 
ATOM     88  C   UNL A   1      33.064  22.560  25.383  1.00  0.00     0.181 C 
ATOM     89  C   UNL A   1      33.168  22.936  22.977  1.00  0.00     0.181 C 
ATOM     90  C   UNL A   1      32.119  21.356  25.140  1.00  0.00     0.284 C 
ATOM     91  C   UNL A   1      32.128  21.831  22.768  1.00  0.00     0.284 C 
ATOM     92  N   UNL A   1      32.162  20.766  23.784  1.00  0.00    -0.330 N 
ATOM     93  H   UNL A   1      31.304  20.234  23.639  1.00  0.00     0.348 HD
BRANCH  92  94
ATOM     94  C   UNL A   1      33.120  19.657  23.600  1.00  0.00     0.184 C 
ATOM     95  C   UNL A   1      34.047  19.476  24.824  1.00  0.00     0.065 C 
ATOM     96  C   UNL A   1      32.528  18.304  23.147  1.00  0.00     0.065 C 
ATOM     97  C   UNL A   1      35.086  18.378  24.626  1.00  0.00     0.006 C 
ATOM     98  C   UNL A   1      33.579  17.203  23.015  1.00  0.00     0.006 C 
ATOM     99  C   UNL A   1      34.409  17.059  24.282  1.00  0.00     0.000 C 
ENDBRANCH  92  94
ENDBRANCH  80  85
ENDBRANCH  75  78
ENDBRANCH  73  74
ENDBRANCH  72  73
ENDBRANCH   1  72
TORSDOF 13
ENDMDL
MODEL 3
REMARK VINA RESULT:     -13.9      5.413     11.215
REMARK SMILES O=C(NCCCCNC(=O)[C@H]1[C@H]2CC[C@H](C2)[C@@H]1C(=O)N1CC[NH+](C2CCCCC2)CC1)c1ccc(-c2c3nc(c(-c4c(F)c(F)c(F)c(F)c4F)c4ccc([nH]4)c(-c4c(F)c(F)c(F)c(F)c4F)c4nc(c(-c5c(F)c(F)c(F)c(F)c5F)c5ccc2[nH]5)C=C4)C=C3)cc1
REMARK SMILES IDX 5 1 4 2 3 3 1 4 2 5 32 7 33 8 94 9 34 10 93 11 35 12 36 13
REMARK SMILES IDX 37 14 87 15 38 16 92 17 86 18 88 19 39 20 91 21 85 22 84 23
REMARK SMILES IDX 40 25 72 26 52 27 71 28 53 29 56 30 70 31 89 32 54 33 55 34
REMARK SMILES IDX 69 36 90 37 57 38 41 39 42 40 50 41 43 42 44 43 48 44 51 45
REMARK SMILES IDX 45 46 46 47 49 48 47 49 73 50 74 51 82 52 75 53 76 54 80 55
REMARK SMILES IDX 83 56 77 57 78 58 81 59 79 60 58 61 59 62 67 63 60 64 61 65
REMARK SMILES IDX 65 66 68 67 62 68 63 69 66 70 64 71 6 72 7 73 8 74 9 75
REMARK SMILES IDX 10 77 11 78 12 79 17 80 13 81 16 82 15 83 14 84 18 85 19 86
REMARK SMILES IDX 20 87 21 88 31 89 22 90 30 91 23 92 24 94 25 95 29 96 26 97
REMARK SMILES IDX 28 98 27 99
REMARK H PARENT 3 6 88 24 56 35 8 76 23 93
REMARK Flexibility Score: inf
ROOT
ATOM      1  C   UNL A   1      38.139  19.823  24.766  1.00  0.00     0.023 C 
ENDROOT
BRANCH   1   2
ATOM      2  C   UNL A   1      39.147  20.054  25.879  1.00  0.00     0.116 C 
BRANCH   2   3
ATOM      3  N   UNL A   1      40.200  19.053  25.900  1.00  0.00    -0.352 N 
ATOM      4  O   UNL A   1      42.344  18.331  25.958  1.00  0.00    -0.269 OA
ATOM      5  C   UNL A   1      41.547  19.250  26.087  1.00  0.00     0.251 C 
ATOM      6  H   UNL A   1      39.915  18.121  25.765  1.00  0.00     0.163 HD
BRANCH   5   7
ATOM      7  C   UNL A   1      42.021  20.607  26.422  1.00  0.00     0.039 A 
ATOM      8  C   UNL A   1      42.281  21.532  25.407  1.00  0.00     0.014 A 
ATOM      9  C   UNL A   1      42.217  20.944  27.762  1.00  0.00     0.014 A 
ATOM     10  C   UNL A   1      42.831  22.765  25.726  1.00  0.00     0.010 A 
ATOM     11  C   UNL A   1      42.701  22.211  28.087  1.00  0.00     0.010 A 
ATOM     12  C   UNL A   1      43.018  23.126  27.070  1.00  0.00    -0.014 A 
BRANCH  12  13
ATOM     13  C   UNL A   1      43.421  24.511  27.400  1.00  0.00     0.031 A 
ATOM     14  C   UNL A   1      42.432  25.509  27.918  1.00  0.00     0.074 A 
ATOM     15  C   UNL A   1      44.706  24.857  27.193  1.00  0.00     0.049 A 
ATOM     16  N   UNL A   1      42.613  26.774  28.198  1.00  0.00    -0.248 NA
ATOM     17  C   UNL A   1      41.058  25.034  28.146  1.00  0.00     0.031 C 
ATOM     18  C   UNL A   1      45.743  23.962  26.670  1.00  0.00     0.029 A 
ATOM     19  N   UNL A   1      45.362  26.045  27.385  1.00  0.00    -0.354 N 
ATOM     20  C   UNL A   1      41.378  27.254  28.611  1.00  0.00     0.074 A 
ATOM     21  C   UNL A   1      40.448  26.146  28.538  1.00  0.00     0.031 C 
ATOM     22  C   UNL A   1      46.904  24.627  26.597  1.00  0.00     0.029 A 
ATOM     23  C   UNL A   1      46.680  26.008  27.004  1.00  0.00     0.049 A 
ATOM     24  H   UNL A   1      44.929  26.846  27.761  1.00  0.00     0.167 HD
ATOM     25  C   UNL A   1      41.061  28.508  29.013  1.00  0.00     0.037 A 
ATOM     26  C   UNL A   1      47.598  26.989  26.948  1.00  0.00     0.037 A 
ATOM     27  C   UNL A   1      42.008  29.589  29.109  1.00  0.00     0.049 A 
ATOM     28  C   UNL A   1      47.204  28.373  27.373  1.00  0.00     0.074 A 
ATOM     29  C   UNL A   1      41.808  30.868  29.598  1.00  0.00     0.029 A 
ATOM     30  N   UNL A   1      43.329  29.523  28.692  1.00  0.00    -0.354 N 
ATOM     31  N   UNL A   1      46.052  28.798  27.829  1.00  0.00    -0.248 NA
ATOM     32  C   UNL A   1      48.232  29.415  27.266  1.00  0.00     0.031 C 
ATOM     33  C   UNL A   1      42.991  31.592  29.426  1.00  0.00     0.029 A 
ATOM     34  C   UNL A   1      43.944  30.752  28.872  1.00  0.00     0.049 A 
ATOM     35  H   UNL A   1      43.766  28.721  28.324  1.00  0.00     0.167 HD
ATOM     36  C   UNL A   1      46.214  30.153  28.067  1.00  0.00     0.074 A 
ATOM     37  C   UNL A   1      47.586  30.475  27.732  1.00  0.00     0.031 C 
ATOM     38  C   UNL A   1      45.306  31.052  28.517  1.00  0.00     0.037 A 
BRANCH  25  39
ATOM     39  C   UNL A   1      39.634  28.801  29.369  1.00  0.00     0.064 A 
ATOM     40  C   UNL A   1      39.146  28.629  30.671  1.00  0.00     0.173 A 
ATOM     41  C   UNL A   1      38.770  29.353  28.410  1.00  0.00     0.173 A 
ATOM     42  F   UNL A   1      39.930  28.100  31.622  1.00  0.00    -0.203 F 
ATOM     43  C   UNL A   1      37.843  28.994  31.001  1.00  0.00     0.198 A 
ATOM     44  C   UNL A   1      37.475  29.736  28.747  1.00  0.00     0.198 A 
ATOM     45  F   UNL A   1      39.191  29.543  27.150  1.00  0.00    -0.203 F 
ATOM     46  F   UNL A   1      37.390  28.805  32.248  1.00  0.00    -0.200 F 
ATOM     47  C   UNL A   1      37.012  29.556  30.042  1.00  0.00     0.200 A 
ATOM     48  F   UNL A   1      36.679  30.290  27.823  1.00  0.00    -0.200 F 
ATOM     49  F   UNL A   1      35.764  29.925  30.366  1.00  0.00    -0.200 F 
ENDBRANCH  25  39
BRANCH  26  50
ATOM     50  C   UNL A   1      48.958  26.696  26.428  1.00  0.00     0.064 A 
ATOM     51  C   UNL A   1      49.275  26.897  25.079  1.00  0.00     0.173 A 
ATOM     52  C   UNL A   1      49.969  26.216  27.275  1.00  0.00     0.173 A 
ATOM     53  F   UNL A   1      48.337  27.337  24.228  1.00  0.00    -0.203 F 
ATOM     54  C   UNL A   1      50.551  26.615  24.593  1.00  0.00     0.198 A 
ATOM     55  C   UNL A   1      51.251  25.965  26.794  1.00  0.00     0.198 A 
ATOM     56  F   UNL A   1      49.715  26.012  28.576  1.00  0.00    -0.203 F 
ATOM     57  F   UNL A   1      50.818  26.777  23.290  1.00  0.00    -0.200 F 
ATOM     58  C   UNL A   1      51.538  26.156  25.452  1.00  0.00     0.200 A 
ATOM     59  F   UNL A   1      52.206  25.538  27.632  1.00  0.00    -0.200 F 
ATOM     60  F   UNL A   1      52.766  25.892  24.984  1.00  0.00    -0.200 F 
ENDBRANCH  26  50
BRANCH  38  61
ATOM     61  C   UNL A   1      45.772  32.469  28.666  1.00  0.00     0.064 A 
ATOM     62  C   UNL A   1      45.611  33.399  27.630  1.00  0.00     0.173 A 
ATOM     63  C   UNL A   1      46.349  32.909  29.866  1.00  0.00     0.173 A 
ATOM     64  F   UNL A   1      45.083  33.018  26.457  1.00  0.00    -0.203 F 
ATOM     65  C   UNL A   1      46.027  34.718  27.784  1.00  0.00     0.198 A 
ATOM     66  C   UNL A   1      46.740  34.234  30.026  1.00  0.00     0.198 A 
ATOM     67  F   UNL A   1      46.521  32.055  30.887  1.00  0.00    -0.203 F 
ATOM     68  F   UNL A   1      45.902  35.580  26.766  1.00  0.00    -0.200 F 
ATOM     69  C   UNL A   1      46.584  35.136  28.984  1.00  0.00     0.200 A 
ATOM     70  F   UNL A   1      47.268  34.640  31.189  1.00  0.00    -0.200 F 
ATOM     71  F   UNL A   1      46.977  36.408  29.132  1.00  0.00    -0.200 F 
ENDBRANCH  38  61
ENDBRANCH  12  13
ENDBRANCH   5   7
ENDBRANCH   2   3
ENDBRANCH   1   2
BRANCH   1  72
ATOM     72  C   UNL A   1      36.763  20.435  25.025  1.00  0.00     0.023 C 
BRANCH  72  73
ATOM     73  C   UNL A   1      36.789  21.919  25.391  1.00  0.00     0.116 C 
BRANCH  73  74
ATOM     74  N   UNL A   1      35.955  22.203  26.535  1.00  0.00    -0.356 N 
ATOM     75  C   UNL A   1      34.747  22.806  26.644  1.00  0.00     0.224 C 
ATOM     76  H   UNL A   1      36.333  21.902  27.393  1.00  0.00     0.163 HD
ATOM     77  O   UNL A   1      34.281  22.859  27.787  1.00  0.00    -0.275 OA
BRANCH  75  78
ATOM     78  C   UNL A   1      33.927  23.270  25.437  1.00  0.00     0.094 C 
ATOM     79  C   UNL A   1      33.505  22.028  24.586  1.00  0.00     0.002 C 
ATOM     80  C   UNL A   1      32.566  23.977  25.640  1.00  0.00     0.094 C 
ATOM     81  C   UNL A   1      32.574  21.083  25.380  1.00  0.00     0.005 C 
ATOM     82  C   UNL A   1      32.508  22.645  23.617  1.00  0.00     0.009 C 
ATOM     83  C   UNL A   1      31.606  23.178  24.731  1.00  0.00     0.002 C 
ATOM     84  C   UNL A   1      31.259  21.869  25.466  1.00  0.00     0.005 C 
BRANCH  80  85
ATOM     85  C   UNL A   1      32.588  25.494  25.390  1.00  0.00     0.227 C 
ATOM     86  O   UNL A   1      33.525  26.178  25.806  1.00  0.00    -0.275 OA
ATOM     87  N   UNL A   1      31.627  26.030  24.559  1.00  0.00    -0.331 N 
ATOM     88  C   UNL A   1      32.062  26.974  23.528  1.00  0.00     0.181 C 
ATOM     89  C   UNL A   1      30.300  26.330  25.084  1.00  0.00     0.181 C 
ATOM     90  C   UNL A   1      30.994  27.168  22.421  1.00  0.00     0.284 C 
ATOM     91  C   UNL A   1      29.281  26.395  23.943  1.00  0.00     0.284 C 
ATOM     92  N   UNL A   1      29.608  27.373  22.891  1.00  0.00    -0.330 N 
ATOM     93  H   UNL A   1      28.973  27.158  22.123  1.00  0.00     0.348 HD
BRANCH  92  94
ATOM     94  C   UNL A   1      29.204  28.779  23.098  1.00  0.00     0.184 C 
ATOM     95  C   UNL A   1      29.869  29.733  22.078  1.00  0.00     0.065 C 
ATOM     96  C   UNL A   1      27.688  29.051  23.206  1.00  0.00     0.065 C 
ATOM     97  C   UNL A   1      29.515  31.198  22.316  1.00  0.00     0.006 C 
ATOM     98  C   UNL A   1      27.355  30.533  23.382  1.00  0.00     0.006 C 
ATOM     99  C   UNL A   1      28.006  31.390  22.307  1.00  0.00     0.000 C 
ENDBRANCH  92  94
ENDBRANCH  80  85
ENDBRANCH  75  78
ENDBRANCH  73  74
ENDBRANCH  72  73
ENDBRANCH   1  72
TORSDOF 13
ENDMDL
