MODEL 1
REMARK VINA RESULT:     -12.3      0.000      0.000
REMARK SMILES CCCCOC(=O)c1ccc(N2C[C@H](C(=O)NCCCCNC(=O)c3ccc(-c4c5nc(c(-c6c(F)c(F)c(F)c(F)c6F)c6ccc([nH]6)c(-c6c(F)c(F)c(F)c(F)c6F)c6nc(c(-c7c(F)c(F)c(F)c(F)c7F)c7ccc4[nH]7)C=C6)C=C5)cc3)CC2=O)cc1
REMARK SMILES IDX 15 1 16 2 17 3 14 5 12 6 13 7 89 8 88 9 90 10 11 11 8 12
REMARK SMILES IDX 9 13 92 14 10 15 91 16 6 17 7 18 5 19 4 20 3 21 2 22 1 23
REMARK SMILES IDX 18 24 19 25 20 26 21 27 22 28 23 29 24 31 25 32 26 33 87 34
REMARK SMILES IDX 27 35 86 36 28 37 29 38 30 39 80 40 31 41 85 42 79 43 81 44
REMARK SMILES IDX 32 45 84 46 78 47 77 48 33 50 65 51 45 52 64 53 46 54 49 55
REMARK SMILES IDX 63 56 82 57 47 58 48 59 62 61 83 62 50 63 34 64 35 65 43 66
REMARK SMILES IDX 36 67 37 68 41 69 44 70 38 71 39 72 42 73 40 74 66 75 67 76
REMARK SMILES IDX 75 77 68 78 69 79 73 80 76 81 70 82 71 83 74 84 72 85 51 86
REMARK SMILES IDX 52 87 60 88 53 89 54 90 58 91 61 92 55 93 56 94 59 95 57 96
REMARK H PARENT 17 4 22 30 81 49 49 60
REMARK Flexibility Score: inf
ROOT
ATOM      1  C   UNL A   1      31.694  28.288  23.836  1.00  0.00     0.225 C 
ATOM      2  O   UNL A   1      30.738  27.730  23.300  1.00  0.00    -0.275 OA
ATOM      3  N   UNL A   1      31.434  29.190  24.820  1.00  0.00    -0.356 N 
ATOM      4  H   UNL A   1      30.477  29.362  24.980  1.00  0.00     0.163 HD
ENDROOT
BRANCH   1   5
ATOM      5  C   UNL A   1      33.127  28.016  23.419  1.00  0.00     0.107 C 
ATOM      6  N   UNL A   1      33.636  25.718  23.218  1.00  0.00    -0.312 N 
ATOM      7  C   UNL A   1      33.673  26.809  24.157  1.00  0.00     0.139 C 
ATOM      8  C   UNL A   1      33.406  26.161  21.915  1.00  0.00     0.227 C 
ATOM      9  C   UNL A   1      33.198  27.656  21.943  1.00  0.00     0.116 C 
ATOM     10  O   UNL A   1      33.372  25.512  20.880  1.00  0.00    -0.274 OA
BRANCH   6  11
ATOM     11  C   UNL A   1      33.892  24.379  23.603  1.00  0.00     0.044 A 
ATOM     12  C   UNL A   1      34.373  21.738  24.424  1.00  0.00     0.060 A 
ATOM     13  C   UNL A   1      35.298  22.733  24.736  1.00  0.00     0.018 A 
ATOM     14  C   UNL A   1      33.222  22.040  23.699  1.00  0.00     0.018 A 
ATOM     15  C   UNL A   1      35.060  24.046  24.313  1.00  0.00     0.027 A 
ATOM     16  C   UNL A   1      32.983  23.356  23.298  1.00  0.00     0.027 A 
BRANCH  12  17
ATOM     17  C   UNL A   1      34.550  20.368  24.914  1.00  0.00     0.338 C 
ATOM     18  O   UNL A   1      35.622  19.782  24.889  1.00  0.00    -0.246 OA
BRANCH  17  19
ATOM     19  O   UNL A   1      33.380  19.943  25.441  1.00  0.00    -0.462 OA
BRANCH  19  20
ATOM     20  C   UNL A   1      33.052  18.566  25.203  1.00  0.00     0.233 C 
BRANCH  20  21
ATOM     21  C   UNL A   1      32.243  18.433  23.915  1.00  0.00     0.041 C 
BRANCH  21  22
ATOM     22  C   UNL A   1      32.948  17.654  22.802  1.00  0.00     0.000 C 
ATOM     23  C   UNL A   1      34.118  16.818  23.299  1.00  0.00     0.004 C 
ENDBRANCH  21  22
ENDBRANCH  20  21
ENDBRANCH  19  20
ENDBRANCH  17  19
ENDBRANCH  12  17
ENDBRANCH   6  11
ENDBRANCH   1   5
BRANCH   3  24
ATOM     24  C   UNL A   1      32.339  29.940  25.671  1.00  0.00     0.116 C 
BRANCH  24  25
ATOM     25  C   UNL A   1      31.610  30.633  26.819  1.00  0.00     0.023 C 
BRANCH  25  26
ATOM     26  C   UNL A   1      31.518  32.158  26.718  1.00  0.00     0.023 C 
BRANCH  26  27
ATOM     27  C   UNL A   1      32.746  32.931  27.190  1.00  0.00     0.116 C 
BRANCH  27  28
ATOM     28  N   UNL A   1      32.431  34.275  27.644  1.00  0.00    -0.352 N 
ATOM     29  C   UNL A   1      33.006  35.016  28.648  1.00  0.00     0.251 C 
ATOM     30  H   UNL A   1      31.698  34.722  27.160  1.00  0.00     0.163 HD
ATOM     31  O   UNL A   1      32.522  36.098  28.964  1.00  0.00    -0.269 OA
BRANCH  29  32
ATOM     32  C   UNL A   1      34.188  34.502  29.374  1.00  0.00     0.039 A 
ATOM     33  C   UNL A   1      33.991  33.849  30.596  1.00  0.00     0.014 A 
ATOM     34  C   UNL A   1      35.481  34.665  28.869  1.00  0.00     0.014 A 
ATOM     35  C   UNL A   1      35.081  33.299  31.275  1.00  0.00     0.010 A 
ATOM     36  C   UNL A   1      36.560  34.065  29.517  1.00  0.00     0.010 A 
ATOM     37  C   UNL A   1      36.369  33.372  30.722  1.00  0.00    -0.014 A 
BRANCH  37  38
ATOM     38  C   UNL A   1      37.527  32.720  31.384  1.00  0.00     0.031 A 
ATOM     39  C   UNL A   1      38.240  31.581  30.714  1.00  0.00     0.074 A 
ATOM     40  C   UNL A   1      37.895  33.111  32.619  1.00  0.00     0.049 A 
ATOM     41  N   UNL A   1      39.212  30.829  31.168  1.00  0.00    -0.248 NA
ATOM     42  C   UNL A   1      37.787  31.223  29.362  1.00  0.00     0.031 C 
ATOM     43  C   UNL A   1      37.260  34.180  33.393  1.00  0.00     0.029 A 
ATOM     44  N   UNL A   1      38.886  32.646  33.447  1.00  0.00    -0.354 N 
ATOM     45  C   UNL A   1      39.472  29.902  30.168  1.00  0.00     0.074 A 
ATOM     46  C   UNL A   1      38.532  30.159  29.098  1.00  0.00     0.031 C 
ATOM     47  C   UNL A   1      37.887  34.298  34.574  1.00  0.00     0.029 A 
ATOM     48  C   UNL A   1      38.945  33.295  34.656  1.00  0.00     0.049 A 
ATOM     49  H   UNL A   1      39.498  31.914  33.198  1.00  0.00     0.167 HD
ATOM     50  C   UNL A   1      40.422  28.937  30.138  1.00  0.00     0.037 A 
ATOM     51  C   UNL A   1      39.755  33.098  35.713  1.00  0.00     0.037 A 
ATOM     52  C   UNL A   1      41.377  28.700  31.187  1.00  0.00     0.049 A 
ATOM     53  C   UNL A   1      40.802  32.021  35.650  1.00  0.00     0.074 A 
ATOM     54  C   UNL A   1      42.410  27.778  31.223  1.00  0.00     0.029 A 
ATOM     55  N   UNL A   1      41.418  29.393  32.387  1.00  0.00    -0.354 N 
ATOM     56  N   UNL A   1      41.069  31.183  34.680  1.00  0.00    -0.248 NA
ATOM     57  C   UNL A   1      41.662  31.865  36.832  1.00  0.00     0.031 C 
ATOM     58  C   UNL A   1      43.059  27.896  32.458  1.00  0.00     0.029 A 
ATOM     59  C   UNL A   1      42.452  28.913  33.176  1.00  0.00     0.049 A 
ATOM     60  H   UNL A   1      40.804  30.120  32.641  1.00  0.00     0.167 HD
ATOM     61  C   UNL A   1      42.141  30.420  35.120  1.00  0.00     0.074 A 
ATOM     62  C   UNL A   1      42.483  30.900  36.443  1.00  0.00     0.031 C 
ATOM     63  C   UNL A   1      42.785  29.410  34.485  1.00  0.00     0.037 A 
BRANCH  50  64
ATOM     64  C   UNL A   1      40.478  28.064  28.920  1.00  0.00     0.064 A 
ATOM     65  C   UNL A   1      39.749  26.869  28.843  1.00  0.00     0.173 A 
ATOM     66  C   UNL A   1      41.240  28.443  27.804  1.00  0.00     0.173 A 
ATOM     67  F   UNL A   1      39.016  26.457  29.889  1.00  0.00    -0.203 F 
ATOM     68  C   UNL A   1      39.800  26.071  27.702  1.00  0.00     0.198 A 
ATOM     69  C   UNL A   1      41.269  27.656  26.657  1.00  0.00     0.198 A 
ATOM     70  F   UNL A   1      41.952  29.580  27.826  1.00  0.00    -0.203 F 
ATOM     71  F   UNL A   1      39.129  24.911  27.668  1.00  0.00    -0.200 F 
ATOM     72  C   UNL A   1      40.554  26.468  26.609  1.00  0.00     0.200 A 
ATOM     73  F   UNL A   1      41.991  28.045  25.597  1.00  0.00    -0.200 F 
ATOM     74  F   UNL A   1      40.598  25.702  25.511  1.00  0.00    -0.200 F 
ENDBRANCH  50  64
BRANCH  51  75
ATOM     75  C   UNL A   1      39.625  33.959  36.915  1.00  0.00     0.064 A 
ATOM     76  C   UNL A   1      38.826  33.561  37.996  1.00  0.00     0.173 A 
ATOM     77  C   UNL A   1      40.286  35.191  37.007  1.00  0.00     0.173 A 
ATOM     78  F   UNL A   1      38.158  32.400  37.941  1.00  0.00    -0.203 F 
ATOM     79  C   UNL A   1      38.682  34.372  39.119  1.00  0.00     0.198 A 
ATOM     80  C   UNL A   1      40.158  35.991  38.141  1.00  0.00     0.198 A 
ATOM     81  F   UNL A   1      41.064  35.614  35.999  1.00  0.00    -0.203 F 
ATOM     82  F   UNL A   1      37.882  33.987  40.122  1.00  0.00    -0.200 F 
ATOM     83  C   UNL A   1      39.352  35.584  39.192  1.00  0.00     0.200 A 
ATOM     84  F   UNL A   1      40.815  37.158  38.212  1.00  0.00    -0.200 F 
ATOM     85  F   UNL A   1      39.213  36.363  40.274  1.00  0.00    -0.200 F 
ENDBRANCH  51  75
BRANCH  63  86
ATOM     86  C   UNL A   1      43.943  28.781  35.197  1.00  0.00     0.064 A 
ATOM     87  C   UNL A   1      45.235  29.319  35.113  1.00  0.00     0.173 A 
ATOM     88  C   UNL A   1      43.751  27.647  36.001  1.00  0.00     0.173 A 
ATOM     89  F   UNL A   1      45.470  30.392  34.343  1.00  0.00    -0.203 F 
ATOM     90  C   UNL A   1      46.298  28.733  35.795  1.00  0.00     0.198 A 
ATOM     91  C   UNL A   1      44.811  27.078  36.699  1.00  0.00     0.198 A 
ATOM     92  F   UNL A   1      42.532  27.098  36.115  1.00  0.00    -0.203 F 
ATOM     93  F   UNL A   1      47.533  29.240  35.670  1.00  0.00    -0.200 F 
ATOM     94  C   UNL A   1      46.084  27.617  36.592  1.00  0.00     0.200 A 
ATOM     95  F   UNL A   1      44.602  26.005  37.474  1.00  0.00    -0.200 F 
ATOM     96  F   UNL A   1      47.109  27.057  37.250  1.00  0.00    -0.200 F 
ENDBRANCH  63  86
ENDBRANCH  37  38
ENDBRANCH  29  32
ENDBRANCH  27  28
ENDBRANCH  26  27
ENDBRANCH  25  26
ENDBRANCH  24  25
ENDBRANCH   3  24
TORSDOF 17
ENDMDL
MODEL 2
REMARK VINA RESULT:     -11.9      1.643      2.558
REMARK SMILES CCCCOC(=O)c1ccc(N2C[C@H](C(=O)NCCCCNC(=O)c3ccc(-c4c5nc(c(-c6c(F)c(F)c(F)c(F)c6F)c6ccc([nH]6)c(-c6c(F)c(F)c(F)c(F)c6F)c6nc(c(-c7c(F)c(F)c(F)c(F)c7F)c7ccc4[nH]7)C=C6)C=C5)cc3)CC2=O)cc1
REMARK SMILES IDX 15 1 16 2 17 3 14 5 12 6 13 7 89 8 88 9 90 10 11 11 8 12
REMARK SMILES IDX 9 13 92 14 10 15 91 16 6 17 7 18 5 19 4 20 3 21 2 22 1 23
REMARK SMILES IDX 18 24 19 25 20 26 21 27 22 28 23 29 24 31 25 32 26 33 87 34
REMARK SMILES IDX 27 35 86 36 28 37 29 38 30 39 80 40 31 41 85 42 79 43 81 44
REMARK SMILES IDX 32 45 84 46 78 47 77 48 33 50 65 51 45 52 64 53 46 54 49 55
REMARK SMILES IDX 63 56 82 57 47 58 48 59 62 61 83 62 50 63 34 64 35 65 43 66
REMARK SMILES IDX 36 67 37 68 41 69 44 70 38 71 39 72 42 73 40 74 66 75 67 76
REMARK SMILES IDX 75 77 68 78 69 79 73 80 76 81 70 82 71 83 74 84 72 85 51 86
REMARK SMILES IDX 52 87 60 88 53 89 54 90 58 91 61 92 55 93 56 94 59 95 57 96
REMARK H PARENT 17 4 22 30 81 49 49 60
REMARK Flexibility Score: inf
ROOT
ATOM      1  C   UNL A   1      31.562  27.421  26.411  1.00  0.00     0.225 C 
ATOM      2  O   UNL A   1      30.914  26.487  26.879  1.00  0.00    -0.275 OA
ATOM      3  N   UNL A   1      31.651  28.564  27.143  1.00  0.00    -0.356 N 
ATOM      4  H   UNL A   1      31.128  28.561  27.978  1.00  0.00     0.163 HD
ENDROOT
BRANCH   1   5
ATOM      5  C   UNL A   1      32.233  27.340  25.053  1.00  0.00     0.107 C 
ATOM      6  N   UNL A   1      33.401  25.318  24.693  1.00  0.00    -0.312 N 
ATOM      7  C   UNL A   1      33.586  26.663  25.171  1.00  0.00     0.139 C 
ATOM      8  C   UNL A   1      32.182  25.164  24.031  1.00  0.00     0.227 C 
ATOM      9  C   UNL A   1      31.424  26.468  24.105  1.00  0.00     0.116 C 
ATOM     10  O   UNL A   1      31.740  24.178  23.460  1.00  0.00    -0.274 OA
BRANCH   6  11
ATOM     11  C   UNL A   1      34.401  24.323  24.826  1.00  0.00     0.044 A 
ATOM     12  C   UNL A   1      36.425  22.398  25.103  1.00  0.00     0.060 A 
ATOM     13  C   UNL A   1      36.237  23.025  23.872  1.00  0.00     0.018 A 
ATOM     14  C   UNL A   1      35.610  22.710  26.189  1.00  0.00     0.018 A 
ATOM     15  C   UNL A   1      35.217  23.974  23.736  1.00  0.00     0.027 A 
ATOM     16  C   UNL A   1      34.609  23.672  26.050  1.00  0.00     0.027 A 
BRANCH  12  17
ATOM     17  C   UNL A   1      37.530  21.456  25.304  1.00  0.00     0.338 C 
ATOM     18  O   UNL A   1      37.660  20.429  24.656  1.00  0.00    -0.246 OA
BRANCH  17  19
ATOM     19  O   UNL A   1      38.365  21.963  26.238  1.00  0.00    -0.462 OA
BRANCH  19  20
ATOM     20  C   UNL A   1      39.764  21.717  26.024  1.00  0.00     0.233 C 
BRANCH  20  21
ATOM     21  C   UNL A   1      40.518  21.782  27.350  1.00  0.00     0.041 C 
BRANCH  21  22
ATOM     22  C   UNL A   1      41.933  21.200  27.302  1.00  0.00     0.000 C 
ATOM     23  C   UNL A   1      41.970  19.690  27.480  1.00  0.00     0.004 C 
ENDBRANCH  21  22
ENDBRANCH  20  21
ENDBRANCH  19  20
ENDBRANCH  17  19
ENDBRANCH  12  17
ENDBRANCH   6  11
ENDBRANCH   1   5
BRANCH   3  24
ATOM     24  C   UNL A   1      32.391  29.786  26.892  1.00  0.00     0.116 C 
BRANCH  24  25
ATOM     25  C   UNL A   1      31.615  30.760  26.010  1.00  0.00     0.023 C 
BRANCH  25  26
ATOM     26  C   UNL A   1      31.370  32.146  26.612  1.00  0.00     0.023 C 
BRANCH  26  27
ATOM     27  C   UNL A   1      32.579  32.811  27.263  1.00  0.00     0.116 C 
BRANCH  27  28
ATOM     28  N   UNL A   1      32.336  34.197  27.631  1.00  0.00    -0.352 N 
ATOM     29  C   UNL A   1      32.973  34.978  28.563  1.00  0.00     0.251 C 
ATOM     30  H   UNL A   1      31.608  34.641  27.139  1.00  0.00     0.163 HD
ATOM     31  O   UNL A   1      32.546  36.100  28.817  1.00  0.00    -0.269 OA
BRANCH  29  32
ATOM     32  C   UNL A   1      34.156  34.463  29.289  1.00  0.00     0.039 A 
ATOM     33  C   UNL A   1      33.960  33.826  30.519  1.00  0.00     0.014 A 
ATOM     34  C   UNL A   1      35.447  34.610  28.775  1.00  0.00     0.014 A 
ATOM     35  C   UNL A   1      35.049  33.275  31.198  1.00  0.00     0.010 A 
ATOM     36  C   UNL A   1      36.525  34.010  29.424  1.00  0.00     0.010 A 
ATOM     37  C   UNL A   1      36.336  33.332  30.638  1.00  0.00    -0.014 A 
BRANCH  37  38
ATOM     38  C   UNL A   1      37.492  32.679  31.301  1.00  0.00     0.031 A 
ATOM     39  C   UNL A   1      38.202  31.535  30.634  1.00  0.00     0.074 A 
ATOM     40  C   UNL A   1      37.862  33.073  32.535  1.00  0.00     0.049 A 
ATOM     41  N   UNL A   1      39.172  30.783  31.089  1.00  0.00    -0.248 NA
ATOM     42  C   UNL A   1      37.746  31.175  29.283  1.00  0.00     0.031 C 
ATOM     43  C   UNL A   1      37.231  34.145  33.305  1.00  0.00     0.029 A 
ATOM     44  N   UNL A   1      38.853  32.607  33.363  1.00  0.00    -0.354 N 
ATOM     45  C   UNL A   1      39.428  29.851  30.092  1.00  0.00     0.074 A 
ATOM     46  C   UNL A   1      38.488  30.108  29.023  1.00  0.00     0.031 C 
ATOM     47  C   UNL A   1      37.859  34.265  34.485  1.00  0.00     0.029 A 
ATOM     48  C   UNL A   1      38.914  33.260  34.570  1.00  0.00     0.049 A 
ATOM     49  H   UNL A   1      39.462  31.873  33.116  1.00  0.00     0.167 HD
ATOM     50  C   UNL A   1      40.374  28.883  30.064  1.00  0.00     0.037 A 
ATOM     51  C   UNL A   1      39.725  33.063  35.627  1.00  0.00     0.037 A 
ATOM     52  C   UNL A   1      41.330  28.647  31.114  1.00  0.00     0.049 A 
ATOM     53  C   UNL A   1      40.768  31.983  35.567  1.00  0.00     0.074 A 
ATOM     54  C   UNL A   1      42.360  27.722  31.152  1.00  0.00     0.029 A 
ATOM     55  N   UNL A   1      41.374  29.344  32.311  1.00  0.00    -0.354 N 
ATOM     56  N   UNL A   1      41.032  31.142  34.599  1.00  0.00    -0.248 NA
ATOM     57  C   UNL A   1      41.629  31.829  36.749  1.00  0.00     0.031 C 
ATOM     58  C   UNL A   1      43.010  27.842  32.386  1.00  0.00     0.029 A 
ATOM     59  C   UNL A   1      42.407  28.863  33.101  1.00  0.00     0.049 A 
ATOM     60  H   UNL A   1      40.763  30.073  32.563  1.00  0.00     0.167 HD
ATOM     61  C   UNL A   1      42.103  30.377  35.040  1.00  0.00     0.074 A 
ATOM     62  C   UNL A   1      42.446  30.860  36.362  1.00  0.00     0.031 C 
ATOM     63  C   UNL A   1      42.743  29.363  34.408  1.00  0.00     0.037 A 
BRANCH  50  64
ATOM     64  C   UNL A   1      40.427  28.006  28.849  1.00  0.00     0.064 A 
ATOM     65  C   UNL A   1      39.714  26.801  28.786  1.00  0.00     0.173 A 
ATOM     66  C   UNL A   1      41.170  28.392  27.722  1.00  0.00     0.173 A 
ATOM     67  F   UNL A   1      39.000  26.383  29.843  1.00  0.00    -0.203 F 
ATOM     68  C   UNL A   1      39.761  25.999  27.648  1.00  0.00     0.198 A 
ATOM     69  C   UNL A   1      41.195  27.600  26.577  1.00  0.00     0.198 A 
ATOM     70  F   UNL A   1      41.866  29.539  27.731  1.00  0.00    -0.203 F 
ATOM     71  F   UNL A   1      39.106  24.830  27.626  1.00  0.00    -0.200 F 
ATOM     72  C   UNL A   1      40.496  26.402  26.543  1.00  0.00     0.200 A 
ATOM     73  F   UNL A   1      41.898  27.995  25.507  1.00  0.00    -0.200 F 
ATOM     74  F   UNL A   1      40.537  25.633  25.448  1.00  0.00    -0.200 F 
ENDBRANCH  50  64
BRANCH  51  75
ATOM     75  C   UNL A   1      39.598  33.929  36.826  1.00  0.00     0.064 A 
ATOM     76  C   UNL A   1      40.301  35.140  36.910  1.00  0.00     0.173 A 
ATOM     77  C   UNL A   1      38.785  33.567  37.907  1.00  0.00     0.173 A 
ATOM     78  F   UNL A   1      41.108  35.515  35.908  1.00  0.00    -0.203 F 
ATOM     79  C   UNL A   1      40.205  35.949  38.039  1.00  0.00     0.198 A 
ATOM     80  C   UNL A   1      38.673  34.388  39.028  1.00  0.00     0.198 A 
ATOM     81  F   UNL A   1      38.091  32.420  37.872  1.00  0.00    -0.203 F 
ATOM     82  F   UNL A   1      40.917  37.082  38.112  1.00  0.00    -0.200 F 
ATOM     83  C   UNL A   1      39.387  35.574  39.096  1.00  0.00     0.200 A 
ATOM     84  F   UNL A   1      37.874  34.028  40.042  1.00  0.00    -0.200 F 
ATOM     85  F   UNL A   1      39.295  36.354  40.182  1.00  0.00    -0.200 F 
ENDBRANCH  51  75
BRANCH  63  86
ATOM     86  C   UNL A   1      43.899  28.732  35.121  1.00  0.00     0.064 A 
ATOM     87  C   UNL A   1      45.204  29.224  34.978  1.00  0.00     0.173 A 
ATOM     88  C   UNL A   1      43.694  27.646  35.985  1.00  0.00     0.173 A 
ATOM     89  F   UNL A   1      45.452  30.251  34.150  1.00  0.00    -0.203 F 
ATOM     90  C   UNL A   1      46.267  28.639  35.661  1.00  0.00     0.198 A 
ATOM     91  C   UNL A   1      44.755  27.078  36.684  1.00  0.00     0.198 A 
ATOM     92  F   UNL A   1      42.463  27.143  36.157  1.00  0.00    -0.203 F 
ATOM     93  F   UNL A   1      47.513  29.099  35.481  1.00  0.00    -0.200 F 
ATOM     94  C   UNL A   1      46.041  27.570  36.518  1.00  0.00     0.200 A 
ATOM     95  F   UNL A   1      44.534  26.052  37.517  1.00  0.00    -0.200 F 
ATOM     96  F   UNL A   1      47.064  27.011  37.177  1.00  0.00    -0.200 F 
ENDBRANCH  63  86
ENDBRANCH  37  38
ENDBRANCH  29  32
ENDBRANCH  27  28
ENDBRANCH  26  27
ENDBRANCH  25  26
ENDBRANCH  24  25
ENDBRANCH   3  24
TORSDOF 17
ENDMDL
MODEL 3
REMARK VINA RESULT:     -11.8      5.307     11.010
REMARK SMILES CCCCOC(=O)c1ccc(N2C[C@H](C(=O)NCCCCNC(=O)c3ccc(-c4c5nc(c(-c6c(F)c(F)c(F)c(F)c6F)c6ccc([nH]6)c(-c6c(F)c(F)c(F)c(F)c6F)c6nc(c(-c7c(F)c(F)c(F)c(F)c7F)c7ccc4[nH]7)C=C6)C=C5)cc3)CC2=O)cc1
REMARK SMILES IDX 15 1 16 2 17 3 14 5 12 6 13 7 89 8 88 9 90 10 11 11 8 12
REMARK SMILES IDX 9 13 92 14 10 15 91 16 6 17 7 18 5 19 4 20 3 21 2 22 1 23
REMARK SMILES IDX 18 24 19 25 20 26 21 27 22 28 23 29 24 31 25 32 26 33 87 34
REMARK SMILES IDX 27 35 86 36 28 37 29 38 30 39 80 40 31 41 85 42 79 43 81 44
REMARK SMILES IDX 32 45 84 46 78 47 77 48 33 50 65 51 45 52 64 53 46 54 49 55
REMARK SMILES IDX 63 56 82 57 47 58 48 59 62 61 83 62 50 63 34 64 35 65 43 66
REMARK SMILES IDX 36 67 37 68 41 69 44 70 38 71 39 72 42 73 40 74 66 75 67 76
REMARK SMILES IDX 75 77 68 78 69 79 73 80 76 81 70 82 71 83 74 84 72 85 51 86
REMARK SMILES IDX 52 87 60 88 53 89 54 90 58 91 61 92 55 93 56 94 59 95 57 96
REMARK H PARENT 17 4 22 30 81 49 49 60
REMARK Flexibility Score: inf
ROOT
ATOM      1  C   UNL A   1      33.761  22.917  24.070  1.00  0.00     0.225 C 
ATOM      2  O   UNL A   1      32.606  22.647  23.743  1.00  0.00    -0.275 OA
ATOM      3  N   UNL A   1      34.629  21.884  24.248  1.00  0.00    -0.356 N 
ATOM      4  H   UNL A   1      34.231  20.989  24.150  1.00  0.00     0.163 HD
ENDROOT
BRANCH   1   5
ATOM      5  C   UNL A   1      34.224  24.342  24.298  1.00  0.00     0.107 C 
ATOM      6  N   UNL A   1      32.471  25.925  24.273  1.00  0.00    -0.312 N 
ATOM      7  C   UNL A   1      33.446  25.300  23.417  1.00  0.00     0.139 C 
ATOM      8  C   UNL A   1      32.736  25.687  25.622  1.00  0.00     0.227 C 
ATOM      9  C   UNL A   1      33.936  24.779  25.727  1.00  0.00     0.116 C 
ATOM     10  O   UNL A   1      32.147  26.114  26.605  1.00  0.00    -0.274 OA
BRANCH   6  11
ATOM     11  C   UNL A   1      31.433  26.744  23.765  1.00  0.00     0.044 A 
ATOM     12  C   UNL A   1      29.372  28.398  22.817  1.00  0.00     0.060 A 
ATOM     13  C   UNL A   1      29.053  27.238  23.521  1.00  0.00     0.018 A 
ATOM     14  C   UNL A   1      30.702  28.734  22.569  1.00  0.00     0.018 A 
ATOM     15  C   UNL A   1      30.083  26.410  23.981  1.00  0.00     0.027 A 
ATOM     16  C   UNL A   1      31.723  27.913  23.048  1.00  0.00     0.027 A 
BRANCH  12  17
ATOM     17  C   UNL A   1      28.324  29.328  22.387  1.00  0.00     0.338 C 
ATOM     18  O   UNL A   1      27.199  29.335  22.863  1.00  0.00    -0.246 OA
BRANCH  17  19
ATOM     19  O   UNL A   1      28.847  30.175  21.473  1.00  0.00    -0.462 OA
BRANCH  19  20
ATOM     20  C   UNL A   1      27.923  31.098  20.877  1.00  0.00     0.233 C 
BRANCH  20  21
ATOM     21  C   UNL A   1      28.043  32.467  21.543  1.00  0.00     0.041 C 
BRANCH  21  22
ATOM     22  C   UNL A   1      28.753  32.450  22.899  1.00  0.00     0.000 C 
ATOM     23  C   UNL A   1      29.306  33.807  23.307  1.00  0.00     0.004 C 
ENDBRANCH  21  22
ENDBRANCH  20  21
ENDBRANCH  19  20
ENDBRANCH  17  19
ENDBRANCH  12  17
ENDBRANCH   6  11
ENDBRANCH   1   5
BRANCH   3  24
ATOM     24  C   UNL A   1      36.046  21.891  24.557  1.00  0.00     0.116 C 
BRANCH  24  25
ATOM     25  C   UNL A   1      36.471  20.653  25.342  1.00  0.00     0.023 C 
BRANCH  25  26
ATOM     26  C   UNL A   1      37.803  20.028  24.920  1.00  0.00     0.023 C 
BRANCH  26  27
ATOM     27  C   UNL A   1      39.011  20.392  25.780  1.00  0.00     0.116 C 
BRANCH  27  28
ATOM     28  N   UNL A   1      40.033  19.358  25.790  1.00  0.00    -0.352 N 
ATOM     29  C   UNL A   1      41.377  19.461  26.056  1.00  0.00     0.251 C 
ATOM     30  H   UNL A   1      39.716  18.451  25.575  1.00  0.00     0.163 HD
ATOM     31  O   UNL A   1      42.108  18.489  25.899  1.00  0.00    -0.269 OA
BRANCH  29  32
ATOM     32  C   UNL A   1      41.956  20.748  26.501  1.00  0.00     0.039 A 
ATOM     33  C   UNL A   1      42.324  21.687  25.531  1.00  0.00     0.014 A 
ATOM     34  C   UNL A   1      42.145  21.032  27.856  1.00  0.00     0.014 A 
ATOM     35  C   UNL A   1      42.815  22.935  25.921  1.00  0.00     0.010 A 
ATOM     36  C   UNL A   1      42.580  22.298  28.246  1.00  0.00     0.010 A 
ATOM     37  C   UNL A   1      42.913  23.263  27.283  1.00  0.00    -0.014 A 
BRANCH  37  38
ATOM     38  C   UNL A   1      43.352  24.612  27.719  1.00  0.00     0.031 A 
ATOM     39  C   UNL A   1      42.337  25.664  28.065  1.00  0.00     0.074 A 
ATOM     40  C   UNL A   1      44.665  24.912  27.739  1.00  0.00     0.049 A 
ATOM     41  N   UNL A   1      42.520  26.921  28.380  1.00  0.00    -0.248 NA
ATOM     42  C   UNL A   1      40.925  25.253  28.031  1.00  0.00     0.031 C 
ATOM     43  C   UNL A   1      45.748  23.992  27.389  1.00  0.00     0.029 A 
ATOM     44  N   UNL A   1      45.311  26.081  28.055  1.00  0.00    -0.354 N 
ATOM     45  C   UNL A   1      41.252  27.455  28.564  1.00  0.00     0.074 A 
ATOM     46  C   UNL A   1      40.305  26.396  28.288  1.00  0.00     0.031 C 
ATOM     47  C   UNL A   1      46.923  24.626  27.525  1.00  0.00     0.029 A 
ATOM     48  C   UNL A   1      46.677  26.004  27.939  1.00  0.00     0.049 A 
ATOM     49  H   UNL A   1      44.840  26.899  28.338  1.00  0.00     0.167 HD
ATOM     50  C   UNL A   1      40.910  28.708  28.946  1.00  0.00     0.037 A 
ATOM     51  C   UNL A   1      47.623  26.941  28.138  1.00  0.00     0.037 A 
ATOM     52  C   UNL A   1      41.852  29.753  29.250  1.00  0.00     0.049 A 
ATOM     53  C   UNL A   1      47.215  28.324  28.565  1.00  0.00     0.074 A 
ATOM     54  C   UNL A   1      41.600  31.040  29.696  1.00  0.00     0.029 A 
ATOM     55  N   UNL A   1      43.228  29.629  29.142  1.00  0.00    -0.354 N 
ATOM     56  N   UNL A   1      46.015  28.802  28.782  1.00  0.00    -0.248 NA
ATOM     57  C   UNL A   1      48.296  29.297  28.777  1.00  0.00     0.031 C 
ATOM     58  C   UNL A   1      42.825  31.703  29.830  1.00  0.00     0.029 A 
ATOM     59  C   UNL A   1      43.840  30.820  29.502  1.00  0.00     0.049 A 
ATOM     60  H   UNL A   1      43.701  28.816  28.854  1.00  0.00     0.167 HD
ATOM     61  C   UNL A   1      46.195  30.118  29.180  1.00  0.00     0.074 A 
ATOM     62  C   UNL A   1      47.623  30.363  29.184  1.00  0.00     0.031 C 
ATOM     63  C   UNL A   1      45.262  31.043  29.511  1.00  0.00     0.037 A 
BRANCH  50  64
ATOM     64  C   UNL A   1      39.447  29.018  29.064  1.00  0.00     0.064 A 
ATOM     65  C   UNL A   1      38.783  28.950  30.296  1.00  0.00     0.173 A 
ATOM     66  C   UNL A   1      38.710  29.421  27.939  1.00  0.00     0.173 A 
ATOM     67  F   UNL A   1      39.442  28.557  31.397  1.00  0.00    -0.203 F 
ATOM     68  C   UNL A   1      37.427  29.251  30.396  1.00  0.00     0.198 A 
ATOM     69  C   UNL A   1      37.361  29.744  28.048  1.00  0.00     0.198 A 
ATOM     70  F   UNL A   1      39.302  29.505  26.738  1.00  0.00    -0.203 F 
ATOM     71  F   UNL A   1      36.803  29.138  31.577  1.00  0.00    -0.200 F 
ATOM     72  C   UNL A   1      36.719  29.654  29.274  1.00  0.00     0.200 A 
ATOM     73  F   UNL A   1      36.680  30.142  26.964  1.00  0.00    -0.200 F 
ATOM     74  F   UNL A   1      35.416  29.947  29.372  1.00  0.00    -0.200 F 
ENDBRANCH  50  64
BRANCH  51  75
ATOM     75  C   UNL A   1      49.056  26.595  27.960  1.00  0.00     0.064 A 
ATOM     76  C   UNL A   1      49.619  26.525  26.679  1.00  0.00     0.173 A 
ATOM     77  C   UNL A   1      49.884  26.325  29.057  1.00  0.00     0.173 A 
ATOM     78  F   UNL A   1      48.858  26.755  25.599  1.00  0.00    -0.203 F 
ATOM     79  C   UNL A   1      50.957  26.181  26.500  1.00  0.00     0.198 A 
ATOM     80  C   UNL A   1      51.229  26.002  28.878  1.00  0.00     0.198 A 
ATOM     81  F   UNL A   1      49.392  26.382  30.302  1.00  0.00    -0.203 F 
ATOM     82  F   UNL A   1      51.462  26.082  25.263  1.00  0.00    -0.200 F 
ATOM     83  C   UNL A   1      51.762  25.925  27.601  1.00  0.00     0.200 A 
ATOM     84  F   UNL A   1      52.006  25.765  29.944  1.00  0.00    -0.200 F 
ATOM     85  F   UNL A   1      53.049  25.595  27.428  1.00  0.00    -0.200 F 
ENDBRANCH  51  75
BRANCH  63  86
ATOM     86  C   UNL A   1      45.754  32.392  29.938  1.00  0.00     0.064 A 
ATOM     87  C   UNL A   1      45.909  33.440  29.019  1.00  0.00     0.173 A 
ATOM     88  C   UNL A   1      46.041  32.649  31.287  1.00  0.00     0.173 A 
ATOM     89  F   UNL A   1      45.663  33.236  27.716  1.00  0.00    -0.203 F 
ATOM     90  C   UNL A   1      46.351  34.693  29.433  1.00  0.00     0.198 A 
ATOM     91  C   UNL A   1      46.460  33.910  31.701  1.00  0.00     0.198 A 
ATOM     92  F   UNL A   1      45.905  31.679  32.203  1.00  0.00    -0.203 F 
ATOM     93  F   UNL A   1      46.529  35.671  28.534  1.00  0.00    -0.200 F 
ATOM     94  C   UNL A   1      46.620  34.929  30.775  1.00  0.00     0.200 A 
ATOM     95  F   UNL A   1      46.713  34.138  32.997  1.00  0.00    -0.200 F 
ATOM     96  F   UNL A   1      47.042  36.137  31.172  1.00  0.00    -0.200 F 
ENDBRANCH  63  86
ENDBRANCH  37  38
ENDBRANCH  29  32
ENDBRANCH  27  28
ENDBRANCH  26  27
ENDBRANCH  25  26
ENDBRANCH  24  25
ENDBRANCH   3  24
TORSDOF 17
ENDMDL
