MODEL 1
REMARK VINA RESULT:     -11.6      0.000      0.000
REMARK SMILES CC(C)Cc1ccc([C@@H](C)C(=O)NCCCCNC(=O)c2ccc(-c3c4nc(c(-c5c(F)c(F)c(F)c(F)c5F)c5ccc([nH]5)c(-c5c(F)c(F)c(F)c(F)c5F)c5nc(c(-c6c(F)c(F)c(F)c(F)c6F)c6ccc3[nH]6)C=C5)C=C4)cc2)cc1
REMARK SMILES IDX 15 1 14 2 13 3 11 4 12 5 9 7 10 8 8 9 5 10 6 11 85 12 7 13
REMARK SMILES IDX 84 14 4 15 2 16 1 17 3 18 16 19 17 20 18 21 19 22 20 24
REMARK SMILES IDX 21 25 22 26 83 27 23 28 82 29 24 30 25 31 26 32 76 33 27 34
REMARK SMILES IDX 81 35 75 36 77 37 28 38 80 39 74 40 73 41 29 43 61 44 41 45
REMARK SMILES IDX 60 46 42 47 45 48 59 49 78 50 43 51 44 52 58 54 79 55 46 56
REMARK SMILES IDX 30 57 31 58 39 59 32 60 33 61 37 62 40 63 34 64 35 65 38 66
REMARK SMILES IDX 36 67 62 68 63 69 71 70 64 71 65 72 69 73 72 74 66 75 67 76
REMARK SMILES IDX 70 77 68 78 47 79 48 80 56 81 49 82 50 83 54 84 57 85 51 86
REMARK SMILES IDX 52 87 55 88 53 89
REMARK H PARENT 13 6 18 23 77 42 45 53
REMARK Flexibility Score: inf
ROOT
ATOM      1  C   UNL A   1      31.823  28.186  27.359  1.00  0.00     0.023 C 
ENDROOT
BRANCH   1   2
ATOM      2  C   UNL A   1      31.807  26.737  26.868  1.00  0.00     0.116 C 
BRANCH   2   3
ATOM      3  N   UNL A   1      32.919  26.444  25.990  1.00  0.00    -0.356 N 
ATOM      4  C   UNL A   1      32.963  25.966  24.714  1.00  0.00     0.227 C 
ATOM      5  O   UNL A   1      34.091  25.763  24.247  1.00  0.00    -0.274 OA
ATOM      6  H   UNL A   1      33.803  26.620  26.385  1.00  0.00     0.163 HD
BRANCH   4   7
ATOM      7  C   UNL A   1      31.719  25.701  23.852  1.00  0.00     0.105 C 
ATOM      8  C   UNL A   1      31.933  24.653  22.758  1.00  0.00     0.023 C 
BRANCH   7   9
ATOM      9  C   UNL A   1      30.997  26.964  23.414  1.00  0.00    -0.036 A 
ATOM     10  C   UNL A   1      29.693  29.314  22.515  1.00  0.00    -0.048 A 
ATOM     11  C   UNL A   1      28.967  28.253  23.062  1.00  0.00     0.004 A 
ATOM     12  C   UNL A   1      31.080  29.180  22.393  1.00  0.00     0.004 A 
ATOM     13  C   UNL A   1      29.616  27.124  23.556  1.00  0.00     0.005 A 
ATOM     14  C   UNL A   1      31.721  28.012  22.822  1.00  0.00     0.005 A 
BRANCH  10  15
ATOM     15  C   UNL A   1      28.992  30.582  22.082  1.00  0.00     0.038 C 
BRANCH  15  16
ATOM     16  C   UNL A   1      28.728  31.571  23.241  1.00  0.00    -0.013 C 
ATOM     17  C   UNL A   1      28.878  33.028  22.791  1.00  0.00     0.008 C 
ATOM     18  C   UNL A   1      27.339  31.346  23.835  1.00  0.00     0.008 C 
ENDBRANCH  15  16
ENDBRANCH  10  15
ENDBRANCH   7   9
ENDBRANCH   4   7
ENDBRANCH   2   3
ENDBRANCH   1   2
BRANCH   1  19
ATOM     19  C   UNL A   1      31.693  29.243  26.267  1.00  0.00     0.023 C 
BRANCH  19  20
ATOM     20  C   UNL A   1      32.895  30.165  26.107  1.00  0.00     0.116 C 
BRANCH  20  21
ATOM     21  N   UNL A   1      32.697  31.507  26.638  1.00  0.00    -0.352 N 
ATOM     22  C   UNL A   1      33.524  32.222  27.477  1.00  0.00     0.251 C 
ATOM     23  H   UNL A   1      31.868  31.960  26.361  1.00  0.00     0.163 HD
ATOM     24  O   UNL A   1      33.197  33.323  27.894  1.00  0.00    -0.269 OA
BRANCH  22  25
ATOM     25  C   UNL A   1      34.796  31.605  27.912  1.00  0.00     0.039 A 
ATOM     26  C   UNL A   1      35.926  32.415  28.038  1.00  0.00     0.014 A 
ATOM     27  C   UNL A   1      34.840  30.260  28.282  1.00  0.00     0.014 A 
ATOM     28  C   UNL A   1      37.078  31.898  28.632  1.00  0.00     0.010 A 
ATOM     29  C   UNL A   1      35.959  29.769  28.943  1.00  0.00     0.010 A 
ATOM     30  C   UNL A   1      37.083  30.587  29.138  1.00  0.00    -0.014 A 
BRANCH  30  31
ATOM     31  C   UNL A   1      38.238  30.060  29.906  1.00  0.00     0.031 A 
ATOM     32  C   UNL A   1      38.482  30.524  31.312  1.00  0.00     0.074 A 
ATOM     33  C   UNL A   1      39.119  29.239  29.301  1.00  0.00     0.049 A 
ATOM     34  N   UNL A   1      39.487  30.259  32.109  1.00  0.00    -0.248 NA
ATOM     35  C   UNL A   1      37.483  31.438  31.889  1.00  0.00     0.031 C 
ATOM     36  C   UNL A   1      39.026  28.771  27.916  1.00  0.00     0.029 A 
ATOM     37  N   UNL A   1      40.277  28.668  29.766  1.00  0.00    -0.354 N 
ATOM     38  C   UNL A   1      39.249  30.986  33.267  1.00  0.00     0.074 A 
ATOM     39  C   UNL A   1      38.035  31.742  33.053  1.00  0.00     0.031 C 
ATOM     40  C   UNL A   1      40.071  27.970  27.651  1.00  0.00     0.029 A 
ATOM     41  C   UNL A   1      40.925  27.896  28.832  1.00  0.00     0.049 A 
ATOM     42  H   UNL A   1      40.610  28.798  30.684  1.00  0.00     0.167 HD
ATOM     43  C   UNL A   1      39.969  31.003  34.414  1.00  0.00     0.037 A 
ATOM     44  C   UNL A   1      42.082  27.215  28.918  1.00  0.00     0.037 A 
ATOM     45  C   UNL A   1      41.155  30.219  34.636  1.00  0.00     0.049 A 
ATOM     46  C   UNL A   1      42.852  27.233  30.211  1.00  0.00     0.074 A 
ATOM     47  C   UNL A   1      41.906  30.099  35.793  1.00  0.00     0.029 A 
ATOM     48  N   UNL A   1      41.765  29.423  33.678  1.00  0.00    -0.354 N 
ATOM     49  N   UNL A   1      42.574  27.860  31.327  1.00  0.00    -0.248 NA
ATOM     50  C   UNL A   1      44.092  26.447  30.255  1.00  0.00     0.031 C 
ATOM     51  C   UNL A   1      42.992  29.259  35.523  1.00  0.00     0.029 A 
ATOM     52  C   UNL A   1      42.895  28.825  34.210  1.00  0.00     0.049 A 
ATOM     53  H   UNL A   1      41.441  29.300  32.756  1.00  0.00     0.167 HD
ATOM     54  C   UNL A   1      43.591  27.529  32.212  1.00  0.00     0.074 A 
ATOM     55  C   UNL A   1      44.484  26.632  31.507  1.00  0.00     0.031 C 
ATOM     56  C   UNL A   1      43.771  27.935  33.493  1.00  0.00     0.037 A 
BRANCH  43  57
ATOM     57  C   UNL A   1      39.485  31.890  35.522  1.00  0.00     0.064 A 
ATOM     58  C   UNL A   1      38.548  31.441  36.466  1.00  0.00     0.173 A 
ATOM     59  C   UNL A   1      39.983  33.195  35.659  1.00  0.00     0.173 A 
ATOM     60  F   UNL A   1      38.032  30.207  36.371  1.00  0.00    -0.203 F 
ATOM     61  C   UNL A   1      38.107  32.276  37.489  1.00  0.00     0.198 A 
ATOM     62  C   UNL A   1      39.561  34.016  36.701  1.00  0.00     0.198 A 
ATOM     63  F   UNL A   1      40.882  33.670  34.785  1.00  0.00    -0.203 F 
ATOM     64  F   UNL A   1      37.175  31.843  38.351  1.00  0.00    -0.200 F 
ATOM     65  C   UNL A   1      38.618  33.560  37.610  1.00  0.00     0.200 A 
ATOM     66  F   UNL A   1      40.062  35.253  36.821  1.00  0.00    -0.200 F 
ATOM     67  F   UNL A   1      38.196  34.360  38.598  1.00  0.00    -0.200 F 
ENDBRANCH  43  57
BRANCH  44  68
ATOM     68  C   UNL A   1      42.571  26.435  27.751  1.00  0.00     0.064 A 
ATOM     69  C   UNL A   1      43.490  26.991  26.851  1.00  0.00     0.173 A 
ATOM     70  C   UNL A   1      42.137  25.124  27.516  1.00  0.00     0.173 A 
ATOM     71  F   UNL A   1      43.918  28.251  27.024  1.00  0.00    -0.203 F 
ATOM     72  C   UNL A   1      43.943  26.271  25.747  1.00  0.00     0.198 A 
ATOM     73  C   UNL A   1      42.610  24.395  26.426  1.00  0.00     0.198 A 
ATOM     74  F   UNL A   1      41.263  24.545  28.351  1.00  0.00    -0.203 F 
ATOM     75  F   UNL A   1      44.791  26.841  24.880  1.00  0.00    -0.200 F 
ATOM     76  C   UNL A   1      43.507  24.972  25.539  1.00  0.00     0.200 A 
ATOM     77  F   UNL A   1      42.196  23.135  26.234  1.00  0.00    -0.200 F 
ATOM     78  F   UNL A   1      43.947  24.278  24.480  1.00  0.00    -0.200 F 
ENDBRANCH  44  68
BRANCH  56  79
ATOM     79  C   UNL A   1      44.968  27.398  34.220  1.00  0.00     0.064 A 
ATOM     80  C   UNL A   1      46.182  28.098  34.246  1.00  0.00     0.173 A 
ATOM     81  C   UNL A   1      44.885  26.194  34.935  1.00  0.00     0.173 A 
ATOM     82  F   UNL A   1      46.315  29.245  33.564  1.00  0.00    -0.203 F 
ATOM     83  C   UNL A   1      47.278  27.601  34.947  1.00  0.00     0.198 A 
ATOM     84  C   UNL A   1      45.974  25.714  35.656  1.00  0.00     0.198 A 
ATOM     85  F   UNL A   1      43.742  25.490  34.945  1.00  0.00    -0.203 F 
ATOM     86  F   UNL A   1      48.441  28.266  34.926  1.00  0.00    -0.200 F 
ATOM     87  C   UNL A   1      47.170  26.415  35.657  1.00  0.00     0.200 A 
ATOM     88  F   UNL A   1      45.865  24.574  36.351  1.00  0.00    -0.200 F 
ATOM     89  F   UNL A   1      48.224  25.943  36.338  1.00  0.00    -0.200 F 
ENDBRANCH  56  79
ENDBRANCH  30  31
ENDBRANCH  22  25
ENDBRANCH  20  21
ENDBRANCH  19  20
ENDBRANCH   1  19
TORSDOF 14
ENDMDL
MODEL 2
REMARK VINA RESULT:     -11.6      0.690      2.218
REMARK SMILES CC(C)Cc1ccc([C@@H](C)C(=O)NCCCCNC(=O)c2ccc(-c3c4nc(c(-c5c(F)c(F)c(F)c(F)c5F)c5ccc([nH]5)c(-c5c(F)c(F)c(F)c(F)c5F)c5nc(c(-c6c(F)c(F)c(F)c(F)c6F)c6ccc3[nH]6)C=C5)C=C4)cc2)cc1
REMARK SMILES IDX 15 1 14 2 13 3 11 4 12 5 9 7 10 8 8 9 5 10 6 11 85 12 7 13
REMARK SMILES IDX 84 14 4 15 2 16 1 17 3 18 16 19 17 20 18 21 19 22 20 24
REMARK SMILES IDX 21 25 22 26 83 27 23 28 82 29 24 30 25 31 26 32 76 33 27 34
REMARK SMILES IDX 81 35 75 36 77 37 28 38 80 39 74 40 73 41 29 43 61 44 41 45
REMARK SMILES IDX 60 46 42 47 45 48 59 49 78 50 43 51 44 52 58 54 79 55 46 56
REMARK SMILES IDX 30 57 31 58 39 59 32 60 33 61 37 62 40 63 34 64 35 65 38 66
REMARK SMILES IDX 36 67 62 68 63 69 71 70 64 71 65 72 69 73 72 74 66 75 67 76
REMARK SMILES IDX 70 77 68 78 47 79 48 80 56 81 49 82 50 83 54 84 57 85 51 86
REMARK SMILES IDX 52 87 55 88 53 89
REMARK H PARENT 13 6 18 23 77 42 45 53
REMARK Flexibility Score: inf
ROOT
ATOM      1  C   UNL A   1      33.845  28.631  25.179  1.00  0.00     0.023 C 
ENDROOT
BRANCH   1   2
ATOM      2  C   UNL A   1      33.660  27.115  25.287  1.00  0.00     0.116 C 
BRANCH   2   3
ATOM      3  N   UNL A   1      33.974  26.435  24.050  1.00  0.00    -0.356 N 
ATOM      4  C   UNL A   1      33.279  25.518  23.319  1.00  0.00     0.227 C 
ATOM      5  O   UNL A   1      33.852  25.072  22.317  1.00  0.00    -0.274 OA
ATOM      6  H   UNL A   1      34.847  26.677  23.666  1.00  0.00     0.163 HD
BRANCH   4   7
ATOM      7  C   UNL A   1      31.857  25.048  23.659  1.00  0.00     0.105 C 
ATOM      8  C   UNL A   1      31.519  23.654  23.127  1.00  0.00     0.023 C 
BRANCH   7   9
ATOM      9  C   UNL A   1      30.791  26.108  23.435  1.00  0.00    -0.036 A 
ATOM     10  C   UNL A   1      28.789  28.087  23.108  1.00  0.00    -0.048 A 
ATOM     11  C   UNL A   1      30.053  28.241  22.534  1.00  0.00     0.004 A 
ATOM     12  C   UNL A   1      28.540  26.945  23.876  1.00  0.00     0.004 A 
ATOM     13  C   UNL A   1      31.016  27.240  22.648  1.00  0.00     0.005 A 
ATOM     14  C   UNL A   1      29.536  25.976  24.050  1.00  0.00     0.005 A 
BRANCH  10  15
ATOM     15  C   UNL A   1      27.714  29.127  22.889  1.00  0.00     0.038 C 
BRANCH  15  16
ATOM     16  C   UNL A   1      28.269  30.535  22.571  1.00  0.00    -0.013 C 
ATOM     17  C   UNL A   1      28.028  30.926  21.109  1.00  0.00     0.008 C 
ATOM     18  C   UNL A   1      27.653  31.578  23.501  1.00  0.00     0.008 C 
ENDBRANCH  15  16
ENDBRANCH  10  15
ENDBRANCH   7   9
ENDBRANCH   4   7
ENDBRANCH   2   3
ENDBRANCH   1   2
BRANCH   1  19
ATOM     19  C   UNL A   1      32.593  29.458  25.449  1.00  0.00     0.023 C 
BRANCH  19  20
ATOM     20  C   UNL A   1      32.437  29.954  26.882  1.00  0.00     0.116 C 
BRANCH  20  21
ATOM     21  N   UNL A   1      32.442  31.403  27.019  1.00  0.00    -0.352 N 
ATOM     22  C   UNL A   1      33.446  32.209  27.511  1.00  0.00     0.251 C 
ATOM     23  H   UNL A   1      31.626  31.866  26.721  1.00  0.00     0.163 HD
ATOM     24  O   UNL A   1      33.286  33.415  27.626  1.00  0.00    -0.269 OA
BRANCH  22  25
ATOM     25  C   UNL A   1      34.707  31.577  27.956  1.00  0.00     0.039 A 
ATOM     26  C   UNL A   1      35.849  32.371  28.080  1.00  0.00     0.014 A 
ATOM     27  C   UNL A   1      34.731  30.234  28.335  1.00  0.00     0.014 A 
ATOM     28  C   UNL A   1      36.991  31.842  28.682  1.00  0.00     0.010 A 
ATOM     29  C   UNL A   1      35.841  29.731  29.003  1.00  0.00     0.010 A 
ATOM     30  C   UNL A   1      36.975  30.535  29.197  1.00  0.00    -0.014 A 
BRANCH  30  31
ATOM     31  C   UNL A   1      38.119  29.996  29.973  1.00  0.00     0.031 A 
ATOM     32  C   UNL A   1      38.358  30.457  31.381  1.00  0.00     0.074 A 
ATOM     33  C   UNL A   1      38.997  29.168  29.373  1.00  0.00     0.049 A 
ATOM     34  N   UNL A   1      39.355  30.182  32.185  1.00  0.00    -0.248 NA
ATOM     35  C   UNL A   1      37.364  31.380  31.951  1.00  0.00     0.031 C 
ATOM     36  C   UNL A   1      38.910  28.702  27.987  1.00  0.00     0.029 A 
ATOM     37  N   UNL A   1      40.146  28.586  29.846  1.00  0.00    -0.354 N 
ATOM     38  C   UNL A   1      39.116  30.911  33.341  1.00  0.00     0.074 A 
ATOM     39  C   UNL A   1      37.910  31.678  33.119  1.00  0.00     0.031 C 
ATOM     40  C   UNL A   1      39.950  27.891  27.729  1.00  0.00     0.029 A 
ATOM     41  C   UNL A   1      40.794  27.809  28.916  1.00  0.00     0.049 A 
ATOM     42  H   UNL A   1      40.474  28.712  30.766  1.00  0.00     0.167 HD
ATOM     43  C   UNL A   1      39.828  30.920  34.494  1.00  0.00     0.037 A 
ATOM     44  C   UNL A   1      41.944  27.116  29.010  1.00  0.00     0.037 A 
ATOM     45  C   UNL A   1      41.004  30.125  34.723  1.00  0.00     0.049 A 
ATOM     46  C   UNL A   1      42.705  27.126  30.308  1.00  0.00     0.074 A 
ATOM     47  C   UNL A   1      41.746  29.997  35.885  1.00  0.00     0.029 A 
ATOM     48  N   UNL A   1      41.614  29.324  33.769  1.00  0.00    -0.354 N 
ATOM     49  N   UNL A   1      42.425  27.755  31.423  1.00  0.00    -0.248 NA
ATOM     50  C   UNL A   1      43.937  26.329  30.360  1.00  0.00     0.031 C 
ATOM     51  C   UNL A   1      42.826  29.148  35.622  1.00  0.00     0.029 A 
ATOM     52  C   UNL A   1      42.734  28.715  34.309  1.00  0.00     0.049 A 
ATOM     53  H   UNL A   1      41.296  29.205  32.844  1.00  0.00     0.167 HD
ATOM     54  C   UNL A   1      43.433  27.414  32.315  1.00  0.00     0.074 A 
ATOM     55  C   UNL A   1      44.322  26.510  31.616  1.00  0.00     0.031 C 
ATOM     56  C   UNL A   1      43.607  27.818  33.597  1.00  0.00     0.037 A 
BRANCH  43  57
ATOM     57  C   UNL A   1      39.343  31.810  35.598  1.00  0.00     0.064 A 
ATOM     58  C   UNL A   1      39.781  33.139  35.717  1.00  0.00     0.173 A 
ATOM     59  C   UNL A   1      38.409  31.341  36.534  1.00  0.00     0.173 A 
ATOM     60  F   UNL A   1      40.684  33.632  34.856  1.00  0.00    -0.203 F 
ATOM     61  C   UNL A   1      39.323  33.954  36.748  1.00  0.00     0.198 A 
ATOM     62  C   UNL A   1      37.931  32.169  37.546  1.00  0.00     0.198 A 
ATOM     63  F   UNL A   1      37.956  30.080  36.463  1.00  0.00    -0.203 F 
ATOM     64  F   UNL A   1      39.792  35.204  36.870  1.00  0.00    -0.200 F 
ATOM     65  C   UNL A   1      38.394  33.472  37.657  1.00  0.00     0.200 A 
ATOM     66  F   UNL A   1      37.026  31.704  38.418  1.00  0.00    -0.200 F 
ATOM     67  F   UNL A   1      37.950  34.259  38.646  1.00  0.00    -0.200 F 
ENDBRANCH  43  57
BRANCH  44  68
ATOM     68  C   UNL A   1      42.435  26.333  27.846  1.00  0.00     0.064 A 
ATOM     69  C   UNL A   1      41.967  25.035  27.606  1.00  0.00     0.173 A 
ATOM     70  C   UNL A   1      43.373  26.866  26.951  1.00  0.00     0.173 A 
ATOM     71  F   UNL A   1      41.084  24.475  28.447  1.00  0.00    -0.203 F 
ATOM     72  C   UNL A   1      42.432  24.289  26.525  1.00  0.00     0.198 A 
ATOM     73  C   UNL A   1      43.819  26.130  25.855  1.00  0.00     0.198 A 
ATOM     74  F   UNL A   1      43.848  28.106  27.133  1.00  0.00    -0.203 F 
ATOM     75  F   UNL A   1      41.997  23.036  26.341  1.00  0.00    -0.200 F 
ATOM     76  C   UNL A   1      43.353  24.840  25.646  1.00  0.00     0.200 A 
ATOM     77  F   UNL A   1      44.700  26.669  25.001  1.00  0.00    -0.200 F 
ATOM     78  F   UNL A   1      43.796  24.125  24.603  1.00  0.00    -0.200 F 
ENDBRANCH  44  68
BRANCH  56  79
ATOM     79  C   UNL A   1      44.794  27.269  34.332  1.00  0.00     0.064 A 
ATOM     80  C   UNL A   1      44.728  26.051  35.022  1.00  0.00     0.173 A 
ATOM     81  C   UNL A   1      46.022  27.947  34.307  1.00  0.00     0.173 A 
ATOM     82  F   UNL A   1      43.571  25.375  35.087  1.00  0.00    -0.203 F 
ATOM     83  C   UNL A   1      45.844  25.540  35.678  1.00  0.00     0.198 A 
ATOM     84  C   UNL A   1      47.143  27.421  34.942  1.00  0.00     0.198 A 
ATOM     85  F   UNL A   1      46.137  29.115  33.655  1.00  0.00    -0.203 F 
ATOM     86  F   UNL A   1      45.748  24.393  36.365  1.00  0.00    -0.200 F 
ATOM     87  C   UNL A   1      47.052  26.221  35.631  1.00  0.00     0.200 A 
ATOM     88  F   UNL A   1      48.311  28.074  34.885  1.00  0.00    -0.200 F 
ATOM     89  F   UNL A   1      48.128  25.723  36.256  1.00  0.00    -0.200 F 
ENDBRANCH  56  79
ENDBRANCH  30  31
ENDBRANCH  22  25
ENDBRANCH  20  21
ENDBRANCH  19  20
ENDBRANCH   1  19
TORSDOF 14
ENDMDL
MODEL 3
REMARK VINA RESULT:     -11.6      1.830      7.807
REMARK SMILES CC(C)Cc1ccc([C@@H](C)C(=O)NCCCCNC(=O)c2ccc(-c3c4nc(c(-c5c(F)c(F)c(F)c(F)c5F)c5ccc([nH]5)c(-c5c(F)c(F)c(F)c(F)c5F)c5nc(c(-c6c(F)c(F)c(F)c(F)c6F)c6ccc3[nH]6)C=C5)C=C4)cc2)cc1
REMARK SMILES IDX 15 1 14 2 13 3 11 4 12 5 9 7 10 8 8 9 5 10 6 11 85 12 7 13
REMARK SMILES IDX 84 14 4 15 2 16 1 17 3 18 16 19 17 20 18 21 19 22 20 24
REMARK SMILES IDX 21 25 22 26 83 27 23 28 82 29 24 30 25 31 26 32 76 33 27 34
REMARK SMILES IDX 81 35 75 36 77 37 28 38 80 39 74 40 73 41 29 43 61 44 41 45
REMARK SMILES IDX 60 46 42 47 45 48 59 49 78 50 43 51 44 52 58 54 79 55 46 56
REMARK SMILES IDX 30 57 31 58 39 59 32 60 33 61 37 62 40 63 34 64 35 65 38 66
REMARK SMILES IDX 36 67 62 68 63 69 71 70 64 71 65 72 69 73 72 74 66 75 67 76
REMARK SMILES IDX 70 77 68 78 47 79 48 80 56 81 49 82 50 83 54 84 57 85 51 86
REMARK SMILES IDX 52 87 55 88 53 89
REMARK H PARENT 13 6 18 23 77 42 45 53
REMARK Flexibility Score: inf
ROOT
ATOM      1  C   UNL A   1      32.373  30.180  26.009  1.00  0.00     0.023 C 
ENDROOT
BRANCH   1   2
ATOM      2  C   UNL A   1      33.284  29.094  26.586  1.00  0.00     0.116 C 
BRANCH   2   3
ATOM      3  N   UNL A   1      32.549  27.904  26.958  1.00  0.00    -0.356 N 
ATOM      4  C   UNL A   1      32.042  26.883  26.212  1.00  0.00     0.227 C 
ATOM      5  O   UNL A   1      31.401  26.023  26.829  1.00  0.00    -0.274 OA
ATOM      6  H   UNL A   1      32.386  27.816  27.925  1.00  0.00     0.163 HD
BRANCH   4   7
ATOM      7  C   UNL A   1      32.244  26.745  24.695  1.00  0.00     0.105 C 
ATOM      8  C   UNL A   1      33.708  26.808  24.254  1.00  0.00     0.023 C 
BRANCH   7   9
ATOM      9  C   UNL A   1      31.278  27.578  23.870  1.00  0.00    -0.036 A 
ATOM     10  C   UNL A   1      29.426  29.147  22.408  1.00  0.00    -0.048 A 
ATOM     11  C   UNL A   1      30.799  29.393  22.326  1.00  0.00     0.004 A 
ATOM     12  C   UNL A   1      28.980  28.126  23.252  1.00  0.00     0.004 A 
ATOM     13  C   UNL A   1      31.710  28.583  23.001  1.00  0.00     0.005 A 
ATOM     14  C   UNL A   1      29.895  27.362  23.987  1.00  0.00     0.005 A 
BRANCH  10  15
ATOM     15  C   UNL A   1      28.450  29.960  21.587  1.00  0.00     0.038 C 
BRANCH  15  16
ATOM     16  C   UNL A   1      28.522  31.480  21.865  1.00  0.00    -0.013 C 
ATOM     17  C   UNL A   1      27.883  32.296  20.738  1.00  0.00     0.008 C 
ATOM     18  C   UNL A   1      27.857  31.816  23.198  1.00  0.00     0.008 C 
ENDBRANCH  15  16
ENDBRANCH  10  15
ENDBRANCH   7   9
ENDBRANCH   4   7
ENDBRANCH   2   3
ENDBRANCH   1   2
BRANCH   1  19
ATOM     19  C   UNL A   1      31.939  31.255  27.000  1.00  0.00     0.023 C 
BRANCH  19  20
ATOM     20  C   UNL A   1      33.019  32.258  27.387  1.00  0.00     0.116 C 
BRANCH  20  21
ATOM     21  N   UNL A   1      32.535  33.619  27.574  1.00  0.00    -0.352 N 
ATOM     22  C   UNL A   1      33.026  34.589  28.419  1.00  0.00     0.251 C 
ATOM     23  H   UNL A   1      31.759  33.878  27.026  1.00  0.00     0.163 HD
ATOM     24  O   UNL A   1      32.476  35.676  28.517  1.00  0.00    -0.269 OA
BRANCH  22  25
ATOM     25  C   UNL A   1      34.204  34.270  29.255  1.00  0.00     0.039 A 
ATOM     26  C   UNL A   1      34.001  33.676  30.503  1.00  0.00     0.014 A 
ATOM     27  C   UNL A   1      35.495  34.470  28.764  1.00  0.00     0.014 A 
ATOM     28  C   UNL A   1      35.097  33.190  31.217  1.00  0.00     0.010 A 
ATOM     29  C   UNL A   1      36.577  33.917  29.439  1.00  0.00     0.010 A 
ATOM     30  C   UNL A   1      36.386  33.258  30.664  1.00  0.00    -0.014 A 
BRANCH  30  31
ATOM     31  C   UNL A   1      37.548  32.619  31.330  1.00  0.00     0.031 A 
ATOM     32  C   UNL A   1      38.243  31.458  30.679  1.00  0.00     0.074 A 
ATOM     33  C   UNL A   1      37.911  33.022  32.564  1.00  0.00     0.049 A 
ATOM     34  N   UNL A   1      39.207  30.705  31.144  1.00  0.00    -0.248 NA
ATOM     35  C   UNL A   1      37.768  31.070  29.342  1.00  0.00     0.031 C 
ATOM     36  C   UNL A   1      37.268  34.093  33.327  1.00  0.00     0.029 A 
ATOM     37  N   UNL A   1      38.897  32.564  33.401  1.00  0.00    -0.354 N 
ATOM     38  C   UNL A   1      39.438  29.746  30.168  1.00  0.00     0.074 A 
ATOM     39  C   UNL A   1      38.482  29.979  29.108  1.00  0.00     0.031 C 
ATOM     40  C   UNL A   1      37.889  34.222  34.512  1.00  0.00     0.029 A 
ATOM     41  C   UNL A   1      38.947  33.222  34.606  1.00  0.00     0.049 A 
ATOM     42  H   UNL A   1      39.511  31.832  33.160  1.00  0.00     0.167 HD
ATOM     43  C   UNL A   1      40.379  28.771  30.149  1.00  0.00     0.037 A 
ATOM     44  C   UNL A   1      39.750  33.033  35.669  1.00  0.00     0.037 A 
ATOM     45  C   UNL A   1      41.352  28.568  31.188  1.00  0.00     0.049 A 
ATOM     46  C   UNL A   1      40.801  31.958  35.613  1.00  0.00     0.074 A 
ATOM     47  C   UNL A   1      42.402  27.666  31.222  1.00  0.00     0.029 A 
ATOM     48  N   UNL A   1      41.394  29.275  32.380  1.00  0.00    -0.354 N 
ATOM     49  N   UNL A   1      41.064  31.109  34.650  1.00  0.00    -0.248 NA
ATOM     50  C   UNL A   1      41.668  31.818  36.791  1.00  0.00     0.031 C 
ATOM     51  C   UNL A   1      43.055  27.802  32.452  1.00  0.00     0.029 A 
ATOM     52  C   UNL A   1      42.437  28.816  33.166  1.00  0.00     0.049 A 
ATOM     53  H   UNL A   1      40.773  29.998  32.630  1.00  0.00     0.167 HD
ATOM     54  C   UNL A   1      42.136  30.348  35.095  1.00  0.00     0.074 A 
ATOM     55  C   UNL A   1      42.487  30.847  36.409  1.00  0.00     0.031 C 
ATOM     56  C   UNL A   1      42.771  29.326  34.472  1.00  0.00     0.037 A 
BRANCH  43  57
ATOM     57  C   UNL A   1      40.406  27.860  28.959  1.00  0.00     0.064 A 
ATOM     58  C   UNL A   1      39.665  26.668  28.930  1.00  0.00     0.173 A 
ATOM     59  C   UNL A   1      41.158  28.194  27.823  1.00  0.00     0.173 A 
ATOM     60  F   UNL A   1      38.941  26.296  29.996  1.00  0.00    -0.203 F 
ATOM     61  C   UNL A   1      39.700  25.831  27.818  1.00  0.00     0.198 A 
ATOM     62  C   UNL A   1      41.167  27.368  26.702  1.00  0.00     0.198 A 
ATOM     63  F   UNL A   1      41.881  29.323  27.799  1.00  0.00    -0.203 F 
ATOM     64  F   UNL A   1      39.024  24.673  27.831  1.00  0.00    -0.200 F 
ATOM     65  C   UNL A   1      40.444  26.184  26.703  1.00  0.00     0.200 A 
ATOM     66  F   UNL A   1      41.879  27.716  25.622  1.00  0.00    -0.200 F 
ATOM     67  F   UNL A   1      40.473  25.380  25.632  1.00  0.00    -0.200 F 
ENDBRANCH  43  57
BRANCH  44  68
ATOM     68  C   UNL A   1      39.610  33.899  36.868  1.00  0.00     0.064 A 
ATOM     69  C   UNL A   1      38.829  33.494  37.959  1.00  0.00     0.173 A 
ATOM     70  C   UNL A   1      40.252  35.142  36.950  1.00  0.00     0.173 A 
ATOM     71  F   UNL A   1      38.179  32.321  37.917  1.00  0.00    -0.203 F 
ATOM     72  C   UNL A   1      38.682  34.307  39.081  1.00  0.00     0.198 A 
ATOM     73  C   UNL A   1      40.125  35.944  38.083  1.00  0.00     0.198 A 
ATOM     74  F   UNL A   1      41.014  35.574  35.935  1.00  0.00    -0.203 F 
ATOM     75  F   UNL A   1      37.898  33.912  40.093  1.00  0.00    -0.200 F 
ATOM     76  C   UNL A   1      39.335  35.528  39.144  1.00  0.00     0.200 A 
ATOM     77  F   UNL A   1      40.767  37.118  38.147  1.00  0.00    -0.200 F 
ATOM     78  F   UNL A   1      39.197  36.307  40.226  1.00  0.00    -0.200 F 
ENDBRANCH  44  68
BRANCH  56  79
ATOM     79  C   UNL A   1      43.921  28.691  35.196  1.00  0.00     0.064 A 
ATOM     80  C   UNL A   1      45.234  29.149  35.026  1.00  0.00     0.173 A 
ATOM     81  C   UNL A   1      43.700  27.644  36.103  1.00  0.00     0.173 A 
ATOM     82  F   UNL A   1      45.497  30.137  34.157  1.00  0.00    -0.203 F 
ATOM     83  C   UNL A   1      46.290  28.568  35.723  1.00  0.00     0.198 A 
ATOM     84  C   UNL A   1      44.753  27.083  36.819  1.00  0.00     0.198 A 
ATOM     85  F   UNL A   1      42.459  27.174  36.305  1.00  0.00    -0.203 F 
ATOM     86  F   UNL A   1      47.543  28.995  35.516  1.00  0.00    -0.200 F 
ATOM     87  C   UNL A   1      46.047  27.542  36.625  1.00  0.00     0.200 A 
ATOM     88  F   UNL A   1      44.516  26.100  37.697  1.00  0.00    -0.200 F 
ATOM     89  F   UNL A   1      47.064  26.990  37.302  1.00  0.00    -0.200 F 
ENDBRANCH  56  79
ENDBRANCH  30  31
ENDBRANCH  22  25
ENDBRANCH  20  21
ENDBRANCH  19  20
ENDBRANCH   1  19
TORSDOF 14
ENDMDL
