MODEL 1
REMARK VINA RESULT:     -11.9      0.000      0.000
REMARK SMILES CC(C)C[C@H](CNC(=O)N[C@@H](C)C1CCCCC1)C(=O)NCCCCNC(=O)c1ccc(-c2c3nc(c(-c4c(F)c(F)c(F)c(F)c4F)c4ccc([nH]4)c(-c4c(F)c(F)c(F)c(F)c4F)c4nc(c(-c5c(F)c(F)c(F)c(F)c5F)c5ccc2[nH]5)C=C4)C=C3)cc1
REMARK SMILES IDX 22 1 21 2 19 3 20 4 5 6 4 7 2 8 1 9 3 10 6 11 7 12 8 13 9 15
REMARK SMILES IDX 10 16 11 18 12 19 13 20 14 21 18 22 15 23 17 24 16 25 23 26
REMARK SMILES IDX 24 27 25 28 26 29 27 30 28 32 29 33 30 34 91 35 31 36 90 37
REMARK SMILES IDX 32 38 33 39 34 40 84 41 35 42 89 43 83 44 85 45 36 46 88 47
REMARK SMILES IDX 82 48 81 49 37 51 69 52 49 53 68 54 50 55 53 56 67 57 86 58
REMARK SMILES IDX 51 59 52 60 66 62 87 63 54 64 38 65 39 66 47 67 40 68 41 69
REMARK SMILES IDX 45 70 48 71 42 72 43 73 46 74 44 75 70 76 71 77 79 78 72 79
REMARK SMILES IDX 73 80 77 81 80 82 74 83 75 84 78 85 76 86 55 87 56 88 64 89
REMARK SMILES IDX 57 90 58 91 62 92 65 93 59 94 60 95 63 96 61 97
REMARK H PARENT 21 5 7 14 10 17 26 31 85 50 53 61
REMARK Flexibility Score: inf
ROOT
ATOM      1  C   UNL A   1      35.572  20.667  25.388  1.00  0.00     0.116 C 
ENDROOT
BRANCH   1   2
ATOM      2  N   UNL A   1      34.388  19.839  25.296  1.00  0.00    -0.356 N 
ATOM      3  C   UNL A   1      33.110  20.180  24.974  1.00  0.00     0.224 C 
ATOM      4  O   UNL A   1      32.259  19.288  24.977  1.00  0.00    -0.275 OA
ATOM      5  H   UNL A   1      34.528  18.886  25.495  1.00  0.00     0.163 HD
BRANCH   3   6
ATOM      6  C   UNL A   1      32.723  21.623  24.657  1.00  0.00     0.098 C 
BRANCH   6   7
ATOM      7  C   UNL A   1      33.485  22.266  23.472  1.00  0.00     0.018 C 
BRANCH   7   8
ATOM      8  C   UNL A   1      34.066  23.679  23.730  1.00  0.00    -0.017 C 
ATOM      9  C   UNL A   1      35.592  23.686  23.787  1.00  0.00     0.007 C 
ATOM     10  C   UNL A   1      33.580  24.660  22.658  1.00  0.00     0.007 C 
ENDBRANCH   7   8
ENDBRANCH   6   7
BRANCH   6  11
ATOM     11  C   UNL A   1      32.675  22.407  25.989  1.00  0.00     0.131 C 
BRANCH  11  12
ATOM     12  N   UNL A   1      31.391  22.429  26.670  1.00  0.00    -0.337 N 
ATOM     13  C   UNL A   1      30.437  23.324  26.918  1.00  0.00     0.315 C 
ATOM     14  H   UNL A   1      31.168  21.547  27.050  1.00  0.00     0.165 HD
ATOM     15  O   UNL A   1      29.530  22.980  27.680  1.00  0.00    -0.249 OA
ATOM     16  N   UNL A   1      30.390  24.554  26.412  1.00  0.00    -0.335 N 
ATOM     17  H   UNL A   1      29.717  25.120  26.853  1.00  0.00     0.165 HD
BRANCH  16  18
ATOM     18  C   UNL A   1      31.107  25.254  25.354  1.00  0.00     0.083 C 
ATOM     19  C   UNL A   1      30.219  25.343  24.114  1.00  0.00     0.031 C 
BRANCH  18  20
ATOM     20  C   UNL A   1      31.683  26.588  25.873  1.00  0.00     0.011 C 
ATOM     21  C   UNL A   1      33.221  26.531  25.932  1.00  0.00     0.006 C 
ATOM     22  C   UNL A   1      31.213  27.824  25.093  1.00  0.00     0.006 C 
ATOM     23  C   UNL A   1      33.809  27.813  26.511  1.00  0.00     0.000 C 
ATOM     24  C   UNL A   1      31.809  29.104  25.679  1.00  0.00     0.000 C 
ATOM     25  C   UNL A   1      33.331  29.038  25.738  1.00  0.00     0.000 C 
ENDBRANCH  18  20
ENDBRANCH  16  18
ENDBRANCH  11  12
ENDBRANCH   6  11
ENDBRANCH   3   6
ENDBRANCH   1   2
BRANCH   1  26
ATOM     26  C   UNL A   1      36.833  19.926  24.948  1.00  0.00     0.023 C 
BRANCH  26  27
ATOM     27  C   UNL A   1      38.076  20.802  24.856  1.00  0.00     0.023 C 
BRANCH  27  28
ATOM     28  C   UNL A   1      39.025  20.662  26.033  1.00  0.00     0.116 C 
BRANCH  28  29
ATOM     29  N   UNL A   1      39.881  19.487  25.949  1.00  0.00    -0.352 N 
ATOM     30  C   UNL A   1      41.252  19.435  26.056  1.00  0.00     0.251 C 
ATOM     31  H   UNL A   1      39.425  18.628  25.797  1.00  0.00     0.163 HD
ATOM     32  O   UNL A   1      41.867  18.402  25.874  1.00  0.00    -0.269 OA
BRANCH  30  33
ATOM     33  C   UNL A   1      41.960  20.694  26.354  1.00  0.00     0.039 A 
ATOM     34  C   UNL A   1      42.238  21.571  25.306  1.00  0.00     0.014 A 
ATOM     35  C   UNL A   1      42.242  21.036  27.679  1.00  0.00     0.014 A 
ATOM     36  C   UNL A   1      42.746  22.835  25.597  1.00  0.00     0.010 A 
ATOM     37  C   UNL A   1      42.675  22.322  27.971  1.00  0.00     0.010 A 
ATOM     38  C   UNL A   1      42.934  23.230  26.932  1.00  0.00    -0.014 A 
BRANCH  38  39
ATOM     39  C   UNL A   1      43.418  24.587  27.269  1.00  0.00     0.031 A 
ATOM     40  C   UNL A   1      42.458  25.597  27.824  1.00  0.00     0.074 A 
ATOM     41  C   UNL A   1      44.693  24.925  27.003  1.00  0.00     0.049 A 
ATOM     42  N   UNL A   1      42.655  26.858  28.109  1.00  0.00    -0.248 NA
ATOM     43  C   UNL A   1      41.079  25.137  28.057  1.00  0.00     0.031 C 
ATOM     44  C   UNL A   1      45.699  24.043  26.409  1.00  0.00     0.029 A 
ATOM     45  N   UNL A   1      45.359  26.110  27.190  1.00  0.00    -0.354 N 
ATOM     46  C   UNL A   1      41.426  27.344  28.529  1.00  0.00     0.074 A 
ATOM     47  C   UNL A   1      40.475  26.260  28.413  1.00  0.00     0.031 C 
ATOM     48  C   UNL A   1      46.860  24.710  26.303  1.00  0.00     0.029 A 
ATOM     49  C   UNL A   1      46.672  26.072  26.793  1.00  0.00     0.049 A 
ATOM     50  H   UNL A   1      44.935  26.912  27.572  1.00  0.00     0.167 HD
ATOM     51  C   UNL A   1      41.123  28.578  28.994  1.00  0.00     0.037 A 
ATOM     52  C   UNL A   1      47.615  27.031  26.825  1.00  0.00     0.037 A 
ATOM     53  C   UNL A   1      42.084  29.637  29.149  1.00  0.00     0.049 A 
ATOM     54  C   UNL A   1      47.261  28.385  27.375  1.00  0.00     0.074 A 
ATOM     55  C   UNL A   1      41.900  30.899  29.684  1.00  0.00     0.029 A 
ATOM     56  N   UNL A   1      43.416  29.551  28.771  1.00  0.00    -0.354 N 
ATOM     57  N   UNL A   1      46.113  28.814  27.839  1.00  0.00    -0.248 NA
ATOM     58  C   UNL A   1      48.336  29.386  27.414  1.00  0.00     0.031 C 
ATOM     59  C   UNL A   1      43.113  31.589  29.600  1.00  0.00     0.029 A 
ATOM     60  C   UNL A   1      44.063  30.743  29.047  1.00  0.00     0.049 A 
ATOM     61  H   UNL A   1      43.838  28.759  28.366  1.00  0.00     0.167 HD
ATOM     62  C   UNL A   1      46.330  30.122  28.248  1.00  0.00     0.074 A 
ATOM     63  C   UNL A   1      47.726  30.413  27.988  1.00  0.00     0.031 C 
ATOM     64  C   UNL A   1      45.455  31.004  28.789  1.00  0.00     0.037 A 
BRANCH  51  65
ATOM     65  C   UNL A   1      39.697  28.841  29.377  1.00  0.00     0.064 A 
ATOM     66  C   UNL A   1      39.238  28.629  30.686  1.00  0.00     0.173 A 
ATOM     67  C   UNL A   1      38.784  29.324  28.429  1.00  0.00     0.173 A 
ATOM     68  F   UNL A   1      40.069  28.152  31.625  1.00  0.00    -0.203 F 
ATOM     69  C   UNL A   1      37.908  28.864  31.024  1.00  0.00     0.198 A 
ATOM     70  C   UNL A   1      37.461  29.584  28.778  1.00  0.00     0.198 A 
ATOM     71  F   UNL A   1      39.173  29.544  27.165  1.00  0.00    -0.203 F 
ATOM     72  F   UNL A   1      37.479  28.604  32.267  1.00  0.00    -0.200 F 
ATOM     73  C   UNL A   1      37.022  29.347  30.072  1.00  0.00     0.200 A 
ATOM     74  F   UNL A   1      36.609  30.059  27.859  1.00  0.00    -0.200 F 
ATOM     75  F   UNL A   1      35.743  29.574  30.400  1.00  0.00    -0.200 F 
ENDBRANCH  51  65
BRANCH  52  76
ATOM     76  C   UNL A   1      48.994  26.732  26.360  1.00  0.00     0.064 A 
ATOM     77  C   UNL A   1      49.956  26.237  27.251  1.00  0.00     0.173 A 
ATOM     78  C   UNL A   1      49.377  26.929  25.027  1.00  0.00     0.173 A 
ATOM     79  F   UNL A   1      49.641  26.051  28.541  1.00  0.00    -0.203 F 
ATOM     80  C   UNL A   1      51.256  25.966  26.829  1.00  0.00     0.198 A 
ATOM     81  C   UNL A   1      50.671  26.635  24.600  1.00  0.00     0.198 A 
ATOM     82  F   UNL A   1      48.491  27.395  24.135  1.00  0.00    -0.203 F 
ATOM     83  F   UNL A   1      52.167  25.529  27.709  1.00  0.00    -0.200 F 
ATOM     84  C   UNL A   1      51.611  26.161  25.502  1.00  0.00     0.200 A 
ATOM     85  F   UNL A   1      51.007  26.814  23.315  1.00  0.00    -0.200 F 
ATOM     86  F   UNL A   1      52.860  25.897  25.096  1.00  0.00    -0.200 F 
ENDBRANCH  52  76
BRANCH  64  87
ATOM     87  C   UNL A   1      45.989  32.354  29.165  1.00  0.00     0.064 A 
ATOM     88  C   UNL A   1      45.949  33.432  28.270  1.00  0.00     0.173 A 
ATOM     89  C   UNL A   1      46.500  32.580  30.452  1.00  0.00     0.173 A 
ATOM     90  F   UNL A   1      45.483  33.259  27.025  1.00  0.00    -0.203 F 
ATOM     91  C   UNL A   1      46.424  34.685  28.644  1.00  0.00     0.198 A 
ATOM     92  C   UNL A   1      46.950  33.841  30.831  1.00  0.00     0.198 A 
ATOM     93  F   UNL A   1      46.551  31.579  31.344  1.00  0.00    -0.203 F 
ATOM     94  F   UNL A   1      46.415  35.694  27.761  1.00  0.00    -0.200 F 
ATOM     95  C   UNL A   1      46.916  34.891  29.925  1.00  0.00     0.200 A 
ATOM     96  F   UNL A   1      47.415  34.040  32.071  1.00  0.00    -0.200 F 
ATOM     97  F   UNL A   1      47.365  36.101  30.285  1.00  0.00    -0.200 F 
ENDBRANCH  64  87
ENDBRANCH  38  39
ENDBRANCH  30  33
ENDBRANCH  28  29
ENDBRANCH  27  28
ENDBRANCH  26  27
ENDBRANCH   1  26
TORSDOF 17
ENDMDL
MODEL 2
REMARK VINA RESULT:     -11.9      0.840      2.096
REMARK SMILES CC(C)C[C@H](CNC(=O)N[C@@H](C)C1CCCCC1)C(=O)NCCCCNC(=O)c1ccc(-c2c3nc(c(-c4c(F)c(F)c(F)c(F)c4F)c4ccc([nH]4)c(-c4c(F)c(F)c(F)c(F)c4F)c4nc(c(-c5c(F)c(F)c(F)c(F)c5F)c5ccc2[nH]5)C=C4)C=C3)cc1
REMARK SMILES IDX 22 1 21 2 19 3 20 4 5 6 4 7 2 8 1 9 3 10 6 11 7 12 8 13 9 15
REMARK SMILES IDX 10 16 11 18 12 19 13 20 14 21 18 22 15 23 17 24 16 25 23 26
REMARK SMILES IDX 24 27 25 28 26 29 27 30 28 32 29 33 30 34 91 35 31 36 90 37
REMARK SMILES IDX 32 38 33 39 34 40 84 41 35 42 89 43 83 44 85 45 36 46 88 47
REMARK SMILES IDX 82 48 81 49 37 51 69 52 49 53 68 54 50 55 53 56 67 57 86 58
REMARK SMILES IDX 51 59 52 60 66 62 87 63 54 64 38 65 39 66 47 67 40 68 41 69
REMARK SMILES IDX 45 70 48 71 42 72 43 73 46 74 44 75 70 76 71 77 79 78 72 79
REMARK SMILES IDX 73 80 77 81 80 82 74 83 75 84 78 85 76 86 55 87 56 88 64 89
REMARK SMILES IDX 57 90 58 91 62 92 65 93 59 94 60 95 63 96 61 97
REMARK H PARENT 21 5 7 14 10 17 26 31 85 50 53 61
REMARK Flexibility Score: inf
ROOT
ATOM      1  C   UNL A   1      35.823  21.932  25.430  1.00  0.00     0.116 C 
ENDROOT
BRANCH   1   2
ATOM      2  N   UNL A   1      35.446  22.544  24.173  1.00  0.00    -0.356 N 
ATOM      3  C   UNL A   1      34.238  22.572  23.546  1.00  0.00     0.224 C 
ATOM      4  O   UNL A   1      34.167  23.153  22.460  1.00  0.00    -0.275 OA
ATOM      5  H   UNL A   1      36.173  23.011  23.701  1.00  0.00     0.163 HD
BRANCH   3   6
ATOM      6  C   UNL A   1      33.013  21.879  24.138  1.00  0.00     0.098 C 
BRANCH   6   7
ATOM      7  C   UNL A   1      32.627  20.535  23.471  1.00  0.00     0.018 C 
BRANCH   7   8
ATOM      8  C   UNL A   1      32.612  19.298  24.402  1.00  0.00    -0.017 C 
ATOM      9  C   UNL A   1      33.545  18.188  23.923  1.00  0.00     0.007 C 
ATOM     10  C   UNL A   1      32.976  19.703  25.834  1.00  0.00     0.007 C 
ENDBRANCH   7   8
ENDBRANCH   6   7
BRANCH   6  11
ATOM     11  C   UNL A   1      31.901  22.939  24.310  1.00  0.00     0.131 C 
BRANCH  11  12
ATOM     12  N   UNL A   1      31.146  22.876  25.550  1.00  0.00    -0.337 N 
ATOM     13  C   UNL A   1      30.637  23.744  26.423  1.00  0.00     0.315 C 
ATOM     14  H   UNL A   1      30.963  21.946  25.816  1.00  0.00     0.165 HD
ATOM     15  O   UNL A   1      30.166  23.280  27.465  1.00  0.00    -0.249 OA
ATOM     16  N   UNL A   1      30.599  25.064  26.258  1.00  0.00    -0.335 N 
ATOM     17  H   UNL A   1      30.356  25.542  27.083  1.00  0.00     0.165 HD
BRANCH  16  18
ATOM     18  C   UNL A   1      30.835  25.963  25.136  1.00  0.00     0.083 C 
ATOM     19  C   UNL A   1      29.504  26.293  24.464  1.00  0.00     0.031 C 
BRANCH  18  20
ATOM     20  C   UNL A   1      31.693  27.169  25.572  1.00  0.00     0.011 C 
ATOM     21  C   UNL A   1      31.332  27.606  27.004  1.00  0.00     0.006 C 
ATOM     22  C   UNL A   1      33.207  26.949  25.436  1.00  0.00     0.006 C 
ATOM     23  C   UNL A   1      32.116  28.843  27.429  1.00  0.00     0.000 C 
ATOM     24  C   UNL A   1      33.985  28.193  25.865  1.00  0.00     0.000 C 
ATOM     25  C   UNL A   1      33.618  28.622  27.282  1.00  0.00     0.000 C 
ENDBRANCH  18  20
ENDBRANCH  16  18
ENDBRANCH  11  12
ENDBRANCH   6  11
ENDBRANCH   3   6
ENDBRANCH   1   2
BRANCH   1  26
ATOM     26  C   UNL A   1      36.569  20.615  25.231  1.00  0.00     0.023 C 
BRANCH  26  27
ATOM     27  C   UNL A   1      38.035  20.776  24.846  1.00  0.00     0.023 C 
BRANCH  27  28
ATOM     28  C   UNL A   1      39.001  20.662  26.012  1.00  0.00     0.116 C 
BRANCH  28  29
ATOM     29  N   UNL A   1      39.855  19.484  25.941  1.00  0.00    -0.352 N 
ATOM     30  C   UNL A   1      41.226  19.430  26.061  1.00  0.00     0.251 C 
ATOM     31  H   UNL A   1      39.399  18.626  25.790  1.00  0.00     0.163 HD
ATOM     32  O   UNL A   1      41.840  18.396  25.890  1.00  0.00    -0.269 OA
BRANCH  30  33
ATOM     33  C   UNL A   1      41.934  20.689  26.359  1.00  0.00     0.039 A 
ATOM     34  C   UNL A   1      42.232  21.556  25.308  1.00  0.00     0.014 A 
ATOM     35  C   UNL A   1      42.195  21.043  27.685  1.00  0.00     0.014 A 
ATOM     36  C   UNL A   1      42.740  22.820  25.595  1.00  0.00     0.010 A 
ATOM     37  C   UNL A   1      42.629  22.330  27.973  1.00  0.00     0.010 A 
ATOM     38  C   UNL A   1      42.907  23.227  26.929  1.00  0.00    -0.014 A 
BRANCH  38  39
ATOM     39  C   UNL A   1      43.391  24.585  27.262  1.00  0.00     0.031 A 
ATOM     40  C   UNL A   1      42.430  25.599  27.808  1.00  0.00     0.074 A 
ATOM     41  C   UNL A   1      44.667  24.922  26.998  1.00  0.00     0.049 A 
ATOM     42  N   UNL A   1      42.627  26.860  28.088  1.00  0.00    -0.248 NA
ATOM     43  C   UNL A   1      41.050  25.141  28.039  1.00  0.00     0.031 C 
ATOM     44  C   UNL A   1      45.675  24.036  26.412  1.00  0.00     0.029 A 
ATOM     45  N   UNL A   1      45.333  26.107  27.182  1.00  0.00    -0.354 N 
ATOM     46  C   UNL A   1      41.396  27.350  28.502  1.00  0.00     0.074 A 
ATOM     47  C   UNL A   1      40.446  26.265  28.388  1.00  0.00     0.031 C 
ATOM     48  C   UNL A   1      46.836  24.702  26.306  1.00  0.00     0.029 A 
ATOM     49  C   UNL A   1      46.648  26.066  26.789  1.00  0.00     0.049 A 
ATOM     50  H   UNL A   1      44.908  26.911  27.559  1.00  0.00     0.167 HD
ATOM     51  C   UNL A   1      41.093  28.586  28.961  1.00  0.00     0.037 A 
ATOM     52  C   UNL A   1      47.591  27.025  26.819  1.00  0.00     0.037 A 
ATOM     53  C   UNL A   1      42.054  29.644  29.114  1.00  0.00     0.049 A 
ATOM     54  C   UNL A   1      47.236  28.382  27.362  1.00  0.00     0.074 A 
ATOM     55  C   UNL A   1      41.868  30.909  29.643  1.00  0.00     0.029 A 
ATOM     56  N   UNL A   1      43.387  29.556  28.741  1.00  0.00    -0.354 N 
ATOM     57  N   UNL A   1      46.086  28.814  27.820  1.00  0.00    -0.248 NA
ATOM     58  C   UNL A   1      48.312  29.383  27.400  1.00  0.00     0.031 C 
ATOM     59  C   UNL A   1      43.083  31.598  29.559  1.00  0.00     0.029 A 
ATOM     60  C   UNL A   1      44.034  30.749  29.013  1.00  0.00     0.049 A 
ATOM     61  H   UNL A   1      43.810  28.762  28.341  1.00  0.00     0.167 HD
ATOM     62  C   UNL A   1      46.303  30.124  28.224  1.00  0.00     0.074 A 
ATOM     63  C   UNL A   1      47.700  30.413  27.968  1.00  0.00     0.031 C 
ATOM     64  C   UNL A   1      45.427  31.009  28.758  1.00  0.00     0.037 A 
BRANCH  51  65
ATOM     65  C   UNL A   1      39.666  28.851  29.338  1.00  0.00     0.064 A 
ATOM     66  C   UNL A   1      38.738  29.334  28.403  1.00  0.00     0.173 A 
ATOM     67  C   UNL A   1      39.218  28.607  30.644  1.00  0.00     0.173 A 
ATOM     68  F   UNL A   1      39.122  29.599  27.145  1.00  0.00    -0.203 F 
ATOM     69  C   UNL A   1      37.420  29.590  28.770  1.00  0.00     0.198 A 
ATOM     70  C   UNL A   1      37.891  28.837  31.000  1.00  0.00     0.198 A 
ATOM     71  F   UNL A   1      40.065  28.145  31.575  1.00  0.00    -0.203 F 
ATOM     72  F   UNL A   1      36.564  30.100  27.873  1.00  0.00    -0.200 F 
ATOM     73  C   UNL A   1      36.996  29.336  30.066  1.00  0.00     0.200 A 
ATOM     74  F   UNL A   1      37.482  28.583  32.250  1.00  0.00    -0.200 F 
ATOM     75  F   UNL A   1      35.726  29.580  30.416  1.00  0.00    -0.200 F 
ENDBRANCH  51  65
BRANCH  52  76
ATOM     76  C   UNL A   1      48.971  26.724  26.361  1.00  0.00     0.064 A 
ATOM     77  C   UNL A   1      49.349  26.957  25.031  1.00  0.00     0.173 A 
ATOM     78  C   UNL A   1      49.937  26.206  27.234  1.00  0.00     0.173 A 
ATOM     79  F   UNL A   1      48.453  27.435  24.155  1.00  0.00    -0.203 F 
ATOM     80  C   UNL A   1      50.637  26.665  24.587  1.00  0.00     0.198 A 
ATOM     81  C   UNL A   1      51.232  25.936  26.795  1.00  0.00     0.198 A 
ATOM     82  F   UNL A   1      49.626  25.972  28.517  1.00  0.00    -0.203 F 
ATOM     83  F   UNL A   1      50.961  26.862  23.303  1.00  0.00    -0.200 F 
ATOM     84  C   UNL A   1      51.579  26.160  25.471  1.00  0.00     0.200 A 
ATOM     85  F   UNL A   1      52.143  25.458  27.654  1.00  0.00    -0.200 F 
ATOM     86  F   UNL A   1      52.818  25.882  25.045  1.00  0.00    -0.200 F 
ENDBRANCH  52  76
BRANCH  64  87
ATOM     87  C   UNL A   1      45.960  32.360  29.130  1.00  0.00     0.064 A 
ATOM     88  C   UNL A   1      45.925  33.434  28.230  1.00  0.00     0.173 A 
ATOM     89  C   UNL A   1      46.466  32.592  30.418  1.00  0.00     0.173 A 
ATOM     90  F   UNL A   1      45.463  33.255  26.984  1.00  0.00    -0.203 F 
ATOM     91  C   UNL A   1      46.399  34.688  28.599  1.00  0.00     0.198 A 
ATOM     92  C   UNL A   1      46.916  33.854  30.792  1.00  0.00     0.198 A 
ATOM     93  F   UNL A   1      46.513  31.595  31.315  1.00  0.00    -0.203 F 
ATOM     94  F   UNL A   1      46.394  35.693  27.712  1.00  0.00    -0.200 F 
ATOM     95  C   UNL A   1      46.886  34.900  29.881  1.00  0.00     0.200 A 
ATOM     96  F   UNL A   1      47.376  34.059  32.033  1.00  0.00    -0.200 F 
ATOM     97  F   UNL A   1      47.334  36.111  30.237  1.00  0.00    -0.200 F 
ENDBRANCH  64  87
ENDBRANCH  38  39
ENDBRANCH  30  33
ENDBRANCH  28  29
ENDBRANCH  27  28
ENDBRANCH  26  27
ENDBRANCH   1  26
TORSDOF 17
ENDMDL
MODEL 3
REMARK VINA RESULT:     -11.8      0.729      1.815
REMARK SMILES CC(C)C[C@H](CNC(=O)N[C@@H](C)C1CCCCC1)C(=O)NCCCCNC(=O)c1ccc(-c2c3nc(c(-c4c(F)c(F)c(F)c(F)c4F)c4ccc([nH]4)c(-c4c(F)c(F)c(F)c(F)c4F)c4nc(c(-c5c(F)c(F)c(F)c(F)c5F)c5ccc2[nH]5)C=C4)C=C3)cc1
REMARK SMILES IDX 22 1 21 2 19 3 20 4 5 6 4 7 2 8 1 9 3 10 6 11 7 12 8 13 9 15
REMARK SMILES IDX 10 16 11 18 12 19 13 20 14 21 18 22 15 23 17 24 16 25 23 26
REMARK SMILES IDX 24 27 25 28 26 29 27 30 28 32 29 33 30 34 91 35 31 36 90 37
REMARK SMILES IDX 32 38 33 39 34 40 84 41 35 42 89 43 83 44 85 45 36 46 88 47
REMARK SMILES IDX 82 48 81 49 37 51 69 52 49 53 68 54 50 55 53 56 67 57 86 58
REMARK SMILES IDX 51 59 52 60 66 62 87 63 54 64 38 65 39 66 47 67 40 68 41 69
REMARK SMILES IDX 45 70 48 71 42 72 43 73 46 74 44 75 70 76 71 77 79 78 72 79
REMARK SMILES IDX 73 80 77 81 80 82 74 83 75 84 78 85 76 86 55 87 56 88 64 89
REMARK SMILES IDX 57 90 58 91 62 92 65 93 59 94 60 95 63 96 61 97
REMARK H PARENT 21 5 7 14 10 17 26 31 85 50 53 61
REMARK Flexibility Score: inf
ROOT
ATOM      1  C   UNL A   1      36.387  21.917  25.763  1.00  0.00     0.116 C 
ENDROOT
BRANCH   1   2
ATOM      2  N   UNL A   1      35.257  21.037  25.974  1.00  0.00    -0.356 N 
ATOM      3  C   UNL A   1      33.936  21.238  25.710  1.00  0.00     0.224 C 
ATOM      4  O   UNL A   1      33.149  20.333  25.995  1.00  0.00    -0.275 OA
ATOM      5  H   UNL A   1      35.476  20.163  26.368  1.00  0.00     0.163 HD
BRANCH   3   6
ATOM      6  C   UNL A   1      33.429  22.551  25.117  1.00  0.00     0.098 C 
BRANCH   6   7
ATOM      7  C   UNL A   1      33.867  23.830  25.873  1.00  0.00     0.018 C 
BRANCH   7   8
ATOM      8  C   UNL A   1      34.580  24.908  25.019  1.00  0.00    -0.017 C 
ATOM      9  C   UNL A   1      34.063  24.960  23.583  1.00  0.00     0.007 C 
ATOM     10  C   UNL A   1      34.440  26.286  25.673  1.00  0.00     0.007 C 
ENDBRANCH   7   8
ENDBRANCH   6   7
BRANCH   6  11
ATOM     11  C   UNL A   1      31.925  22.383  24.803  1.00  0.00     0.131 C 
BRANCH  11  12
ATOM     12  N   UNL A   1      31.029  22.402  25.947  1.00  0.00    -0.337 N 
ATOM     13  C   UNL A   1      30.414  23.326  26.685  1.00  0.00     0.315 C 
ATOM     14  H   UNL A   1      30.820  21.491  26.259  1.00  0.00     0.165 HD
ATOM     15  O   UNL A   1      29.826  22.934  27.697  1.00  0.00    -0.249 OA
ATOM     16  N   UNL A   1      30.389  24.629  26.417  1.00  0.00    -0.335 N 
ATOM     17  H   UNL A   1      30.047  25.164  27.169  1.00  0.00     0.165 HD
BRANCH  16  18
ATOM     18  C   UNL A   1      30.752  25.444  25.266  1.00  0.00     0.083 C 
ATOM     19  C   UNL A   1      29.845  25.089  24.089  1.00  0.00     0.031 C 
BRANCH  18  20
ATOM     20  C   UNL A   1      30.811  26.938  25.650  1.00  0.00     0.011 C 
ATOM     21  C   UNL A   1      31.562  27.129  26.980  1.00  0.00     0.006 C 
ATOM     22  C   UNL A   1      31.395  27.847  24.559  1.00  0.00     0.006 C 
ATOM     23  C   UNL A   1      31.570  28.590  27.417  1.00  0.00     0.000 C 
ATOM     24  C   UNL A   1      31.400  29.309  25.005  1.00  0.00     0.000 C 
ATOM     25  C   UNL A   1      32.142  29.489  26.326  1.00  0.00     0.000 C 
ENDBRANCH  18  20
ENDBRANCH  16  18
ENDBRANCH  11  12
ENDBRANCH   6  11
ENDBRANCH   3   6
ENDBRANCH   1   2
BRANCH   1  26
ATOM     26  C   UNL A   1      37.318  21.410  24.664  1.00  0.00     0.023 C 
BRANCH  26  27
ATOM     27  C   UNL A   1      38.090  20.148  25.028  1.00  0.00     0.023 C 
BRANCH  27  28
ATOM     28  C   UNL A   1      39.381  20.405  25.785  1.00  0.00     0.116 C 
BRANCH  28  29
ATOM     29  N   UNL A   1      40.229  19.226  25.898  1.00  0.00    -0.352 N 
ATOM     30  C   UNL A   1      41.579  19.183  26.165  1.00  0.00     0.251 C 
ATOM     31  H   UNL A   1      39.785  18.359  25.767  1.00  0.00     0.163 HD
ATOM     32  O   UNL A   1      42.200  18.139  26.142  1.00  0.00    -0.269 OA
BRANCH  30  33
ATOM     33  C   UNL A   1      42.261  20.462  26.437  1.00  0.00     0.039 A 
ATOM     34  C   UNL A   1      42.707  21.226  25.358  1.00  0.00     0.014 A 
ATOM     35  C   UNL A   1      42.353  20.938  27.747  1.00  0.00     0.014 A 
ATOM     36  C   UNL A   1      43.192  22.510  25.591  1.00  0.00     0.010 A 
ATOM     37  C   UNL A   1      42.764  22.245  27.969  1.00  0.00     0.010 A 
ATOM     38  C   UNL A   1      43.190  23.039  26.893  1.00  0.00    -0.014 A 
BRANCH  38  39
ATOM     39  C   UNL A   1      43.647  24.421  27.159  1.00  0.00     0.031 A 
ATOM     40  C   UNL A   1      42.677  25.429  27.699  1.00  0.00     0.074 A 
ATOM     41  C   UNL A   1      44.905  24.781  26.841  1.00  0.00     0.049 A 
ATOM     42  N   UNL A   1      42.848  26.706  27.926  1.00  0.00    -0.248 NA
ATOM     43  C   UNL A   1      41.318  24.945  27.992  1.00  0.00     0.031 C 
ATOM     44  C   UNL A   1      45.917  23.900  26.255  1.00  0.00     0.029 A 
ATOM     45  N   UNL A   1      45.544  25.989  26.959  1.00  0.00    -0.354 N 
ATOM     46  C   UNL A   1      41.619  27.178  28.362  1.00  0.00     0.074 A 
ATOM     47  C   UNL A   1      40.695  26.065  28.319  1.00  0.00     0.031 C 
ATOM     48  C   UNL A   1      47.056  24.592  26.086  1.00  0.00     0.029 A 
ATOM     49  C   UNL A   1      46.846  25.968  26.525  1.00  0.00     0.049 A 
ATOM     50  H   UNL A   1      45.109  26.796  27.320  1.00  0.00     0.167 HD
ATOM     51  C   UNL A   1      41.296  28.422  28.785  1.00  0.00     0.037 A 
ATOM     52  C   UNL A   1      47.763  26.952  26.489  1.00  0.00     0.037 A 
ATOM     53  C   UNL A   1      42.233  29.510  28.867  1.00  0.00     0.049 A 
ATOM     54  C   UNL A   1      47.389  28.318  26.993  1.00  0.00     0.074 A 
ATOM     55  C   UNL A   1      42.030  30.788  29.354  1.00  0.00     0.029 A 
ATOM     56  N   UNL A   1      43.555  29.442  28.453  1.00  0.00    -0.354 N 
ATOM     57  N   UNL A   1      46.243  28.737  27.472  1.00  0.00    -0.248 NA
ATOM     58  C   UNL A   1      48.437  29.347  26.959  1.00  0.00     0.031 C 
ATOM     59  C   UNL A   1      43.222  31.506  29.206  1.00  0.00     0.029 A 
ATOM     60  C   UNL A   1      44.177  30.661  28.660  1.00  0.00     0.049 A 
ATOM     61  H   UNL A   1      43.987  28.645  28.069  1.00  0.00     0.167 HD
ATOM     62  C   UNL A   1      46.437  30.066  27.821  1.00  0.00     0.074 A 
ATOM     63  C   UNL A   1      47.816  30.382  27.508  1.00  0.00     0.031 C 
ATOM     64  C   UNL A   1      45.554  30.947  28.350  1.00  0.00     0.037 A 
BRANCH  51  65
ATOM     65  C   UNL A   1      39.876  28.664  29.198  1.00  0.00     0.064 A 
ATOM     66  C   UNL A   1      38.917  29.136  28.288  1.00  0.00     0.173 A 
ATOM     67  C   UNL A   1      39.465  28.409  30.514  1.00  0.00     0.173 A 
ATOM     68  F   UNL A   1      39.265  29.411  27.022  1.00  0.00    -0.203 F 
ATOM     69  C   UNL A   1      37.605  29.370  28.689  1.00  0.00     0.198 A 
ATOM     70  C   UNL A   1      38.144  28.618  30.904  1.00  0.00     0.198 A 
ATOM     71  F   UNL A   1      40.342  27.957  31.422  1.00  0.00    -0.203 F 
ATOM     72  F   UNL A   1      36.719  29.870  27.817  1.00  0.00    -0.200 F 
ATOM     73  C   UNL A   1      37.217  29.105  29.995  1.00  0.00     0.200 A 
ATOM     74  F   UNL A   1      37.770  28.353  32.163  1.00  0.00    -0.200 F 
ATOM     75  F   UNL A   1      35.953  29.329  30.378  1.00  0.00    -0.200 F 
ENDBRANCH  51  65
BRANCH  52  76
ATOM     76  C   UNL A   1      49.136  26.669  25.997  1.00  0.00     0.064 A 
ATOM     77  C   UNL A   1      50.087  26.071  26.835  1.00  0.00     0.173 A 
ATOM     78  C   UNL A   1      49.523  26.983  24.687  1.00  0.00     0.173 A 
ATOM     79  F   UNL A   1      49.766  25.770  28.103  1.00  0.00    -0.203 F 
ATOM     80  C   UNL A   1      51.380  25.814  26.388  1.00  0.00     0.198 A 
ATOM     81  C   UNL A   1      50.811  26.704  24.233  1.00  0.00     0.198 A 
ATOM     82  F   UNL A   1      48.648  27.550  23.845  1.00  0.00    -0.203 F 
ATOM     83  F   UNL A   1      52.281  25.276  27.222  1.00  0.00    -0.200 F 
ATOM     84  C   UNL A   1      51.741  26.126  25.086  1.00  0.00     0.200 A 
ATOM     85  F   UNL A   1      51.152  26.996  22.970  1.00  0.00    -0.200 F 
ATOM     86  F   UNL A   1      52.984  25.876  24.654  1.00  0.00    -0.200 F 
ENDBRANCH  52  76
BRANCH  64  87
ATOM     87  C   UNL A   1      46.062  32.325  28.655  1.00  0.00     0.064 A 
ATOM     88  C   UNL A   1      46.681  32.623  29.877  1.00  0.00     0.173 A 
ATOM     89  C   UNL A   1      45.969  33.343  27.694  1.00  0.00     0.173 A 
ATOM     90  F   UNL A   1      46.778  31.685  30.830  1.00  0.00    -0.203 F 
ATOM     91  C   UNL A   1      47.171  33.899  30.134  1.00  0.00     0.198 A 
ATOM     92  C   UNL A   1      46.484  34.611  27.945  1.00  0.00     0.198 A 
ATOM     93  F   UNL A   1      45.391  33.102  26.508  1.00  0.00    -0.203 F 
ATOM     94  F   UNL A   1      47.724  34.175  31.324  1.00  0.00    -0.200 F 
ATOM     95  C   UNL A   1      47.080  34.889  29.166  1.00  0.00     0.200 A 
ATOM     96  F   UNL A   1      46.405  35.563  27.006  1.00  0.00    -0.200 F 
ATOM     97  F   UNL A   1      47.560  36.115  29.414  1.00  0.00    -0.200 F 
ENDBRANCH  64  87
ENDBRANCH  38  39
ENDBRANCH  30  33
ENDBRANCH  28  29
ENDBRANCH  27  28
ENDBRANCH  26  27
ENDBRANCH   1  26
TORSDOF 17
ENDMDL
