MODEL 1
REMARK VINA RESULT:     -13.0      0.000      0.000
REMARK SMILES O=C(NCCCCNC(=O)c1ccc(-c2c3nc(c(-c4c(F)c(F)c(F)c(F)c4F)c4ccc([nH]4)c(-c4c(F)c(F)c(F)c(F)c4F)c4nc(c(-c5c(F)c(F)c(F)c(F)c5F)c5ccc2[nH]5)C=C4)C=C3)cc1)C1=Cc2cc(S(F)(F)(F)(F)F)ccc2O[C@H]1C(F)(F)F
REMARK SMILES IDX 6 1 5 2 4 3 3 4 1 5 2 6 74 8 75 9 89 10 76 11 88 12 77 13
REMARK SMILES IDX 87 14 78 15 86 16 85 17 90 18 91 19 92 20 93 21 79 22 80 23
REMARK SMILES IDX 81 24 82 25 83 26 84 27 7 28 8 29 9 30 10 32 11 33 12 34
REMARK SMILES IDX 73 35 13 36 72 37 14 38 15 39 16 40 66 41 17 42 71 43 65 44
REMARK SMILES IDX 67 45 18 46 70 47 64 48 63 49 19 51 51 52 31 53 50 54 32 55
REMARK SMILES IDX 35 56 49 57 68 58 33 59 34 60 48 62 69 63 36 64 20 65 21 66
REMARK SMILES IDX 29 67 22 68 23 69 27 70 30 71 24 72 25 73 28 74 26 75 52 76
REMARK SMILES IDX 53 77 61 78 54 79 55 80 59 81 62 82 56 83 57 84 60 85 58 86
REMARK SMILES IDX 37 87 38 88 46 89 39 90 40 91 44 92 47 93 41 94 42 95 45 96
REMARK SMILES IDX 43 97
REMARK H PARENT 3 7 8 31 67 50 35 61
REMARK Flexibility Score: inf
ROOT
ATOM      1  C   UNL A   1      35.462  23.760  25.382  1.00  0.00     0.023 C 
ENDROOT
BRANCH   1   2
ATOM      2  C   UNL A   1      35.003  23.863  23.936  1.00  0.00     0.023 C 
BRANCH   2   3
ATOM      3  C   UNL A   1      33.890  24.893  23.830  1.00  0.00     0.116 C 
BRANCH   3   4
ATOM      4  N   UNL A   1      33.565  25.403  25.170  1.00  0.00    -0.352 N 
ATOM      5  O   UNL A   1      31.905  25.754  26.834  1.00  0.00    -0.270 OA
ATOM      6  C   UNL A   1      32.187  25.313  25.675  1.00  0.00     0.251 C 
ATOM      7  H   UNL A   1      34.269  25.802  25.729  1.00  0.00     0.163 HD
BRANCH   6   8
ATOM      8  C   UNL A   1      31.099  24.695  24.812  1.00  0.00     0.067 C 
ATOM      9  C   UNL A   1      31.004  23.343  24.703  1.00  0.00     0.025 C 
ATOM     10  C   UNL A   1      30.118  25.588  24.070  1.00  0.00     0.314 C 
ATOM     11  C   UNL A   1      31.986  22.449  25.444  1.00  0.00     0.019 A 
ATOM     12  O   UNL A   1      31.815  23.898  27.321  1.00  0.00    -0.475 OA
ATOM     13  C   UNL A   1      32.550  21.375  24.775  1.00  0.00     0.036 A 
ATOM     14  C   UNL A   1      32.283  22.702  26.714  1.00  0.00     0.128 A 
ATOM     15  C   UNL A   1      33.200  20.448  25.624  1.00  0.00     0.107 A 
ATOM     16  C   UNL A   1      33.037  21.818  27.445  1.00  0.00     0.048 A 
ATOM     17  C   UNL A   1      33.577  20.704  26.863  1.00  0.00     0.028 A 
BRANCH  10  18
ATOM     18  C   UNL A   1      30.441  27.044  24.360  1.00  0.00     0.429 C 
ATOM     19  F   UNL A   1      29.500  27.750  23.738  1.00  0.00    -0.167 F 
ATOM     20  F   UNL A   1      30.459  27.369  25.649  1.00  0.00    -0.167 F 
ATOM     21  F   UNL A   1      31.625  27.313  23.818  1.00  0.00    -0.167 F 
ENDBRANCH  10  18
BRANCH  15  22
ATOM     22  S   UNL A   1      33.540  18.797  24.964  1.00  0.00     0.310 S 
ATOM     23  F   UNL A   1      32.981  19.187  23.533  1.00  0.00    -0.094 F 
ATOM     24  F   UNL A   1      32.071  18.373  25.347  1.00  0.00    -0.094 F 
ATOM     25  F   UNL A   1      33.831  17.379  24.398  1.00  0.00    -0.094 F 
ATOM     26  F   UNL A   1      34.957  19.280  24.463  1.00  0.00    -0.094 F 
ATOM     27  F   UNL A   1      33.219  20.273  25.434  1.00  0.00    -0.094 F 
ENDBRANCH  15  22
ENDBRANCH   6   8
ENDBRANCH   3   4
ENDBRANCH   2   3
ENDBRANCH   1   2
BRANCH   1  28
ATOM     28  C   UNL A   1      36.907  24.220  25.489  1.00  0.00     0.116 C 
BRANCH  28  29
ATOM     29  N   UNL A   1      37.797  23.051  25.447  1.00  0.00    -0.352 N 
ATOM     30  C   UNL A   1      39.078  23.077  26.169  1.00  0.00     0.251 C 
ATOM     31  H   UNL A   1      37.537  22.252  24.935  1.00  0.00     0.163 HD
ATOM     32  O   UNL A   1      39.848  22.066  26.133  1.00  0.00    -0.269 OA
BRANCH  30  33
ATOM     33  C   UNL A   1      39.480  24.311  26.959  1.00  0.00     0.039 A 
ATOM     34  C   UNL A   1      39.147  24.413  28.299  1.00  0.00     0.014 A 
ATOM     35  C   UNL A   1      40.144  25.280  26.338  1.00  0.00     0.014 A 
ATOM     36  C   UNL A   1      39.307  25.714  28.833  1.00  0.00     0.010 A 
ATOM     37  C   UNL A   1      40.384  26.477  26.968  1.00  0.00     0.010 A 
ATOM     38  C   UNL A   1      40.028  26.669  28.275  1.00  0.00    -0.014 A 
BRANCH  38  39
ATOM     39  C   UNL A   1      40.442  27.913  29.043  1.00  0.00     0.031 A 
ATOM     40  C   UNL A   1      41.762  27.971  29.496  1.00  0.00     0.074 A 
ATOM     41  C   UNL A   1      39.509  28.916  29.246  1.00  0.00     0.049 A 
ATOM     42  N   UNL A   1      42.354  28.972  30.149  1.00  0.00    -0.248 NA
ATOM     43  C   UNL A   1      42.745  26.893  29.312  1.00  0.00     0.031 C 
ATOM     44  C   UNL A   1      38.179  28.869  28.784  1.00  0.00     0.029 A 
ATOM     45  N   UNL A   1      39.683  30.109  29.910  1.00  0.00    -0.354 N 
ATOM     46  C   UNL A   1      43.630  28.668  30.398  1.00  0.00     0.074 A 
ATOM     47  C   UNL A   1      43.897  27.325  29.869  1.00  0.00     0.031 C 
ATOM     48  C   UNL A   1      37.557  30.011  29.174  1.00  0.00     0.029 A 
ATOM     49  C   UNL A   1      38.487  30.793  29.885  1.00  0.00     0.049 A 
ATOM     50  H   UNL A   1      40.517  30.420  30.330  1.00  0.00     0.167 HD
ATOM     51  C   UNL A   1      44.580  29.461  31.045  1.00  0.00     0.037 A 
ATOM     52  C   UNL A   1      38.203  32.027  30.448  1.00  0.00     0.037 A 
ATOM     53  C   UNL A   1      44.307  30.714  31.569  1.00  0.00     0.049 A 
ATOM     54  C   UNL A   1      39.139  32.795  31.146  1.00  0.00     0.074 A 
ATOM     55  C   UNL A   1      45.256  31.528  32.217  1.00  0.00     0.029 A 
ATOM     56  N   UNL A   1      43.106  31.387  31.566  1.00  0.00    -0.354 N 
ATOM     57  N   UNL A   1      40.424  32.508  31.360  1.00  0.00    -0.248 NA
ATOM     58  C   UNL A   1      38.841  34.089  31.773  1.00  0.00     0.031 C 
ATOM     59  C   UNL A   1      44.633  32.672  32.607  1.00  0.00     0.029 A 
ATOM     60  C   UNL A   1      43.284  32.590  32.211  1.00  0.00     0.049 A 
ATOM     61  H   UNL A   1      42.264  31.062  31.172  1.00  0.00     0.167 HD
ATOM     62  C   UNL A   1      41.005  33.492  32.050  1.00  0.00     0.074 A 
ATOM     63  C   UNL A   1      39.994  34.519  32.332  1.00  0.00     0.031 C 
ATOM     64  C   UNL A   1      42.339  33.576  32.452  1.00  0.00     0.037 A 
BRANCH  51  65
ATOM     65  C   UNL A   1      45.993  28.918  31.181  1.00  0.00     0.064 A 
ATOM     66  C   UNL A   1      46.283  28.150  32.297  1.00  0.00     0.173 A 
ATOM     67  C   UNL A   1      46.888  29.095  30.215  1.00  0.00     0.173 A 
ATOM     68  F   UNL A   1      45.356  27.739  33.156  1.00  0.00    -0.203 F 
ATOM     69  C   UNL A   1      47.657  27.843  32.440  1.00  0.00     0.198 A 
ATOM     70  C   UNL A   1      48.178  28.648  30.367  1.00  0.00     0.198 A 
ATOM     71  F   UNL A   1      46.530  29.710  29.091  1.00  0.00    -0.203 F 
ATOM     72  F   UNL A   1      48.079  27.434  33.633  1.00  0.00    -0.200 F 
ATOM     73  C   UNL A   1      48.550  27.934  31.471  1.00  0.00     0.200 A 
ATOM     74  F   UNL A   1      49.078  28.915  29.425  1.00  0.00    -0.200 F 
ATOM     75  F   UNL A   1      49.746  27.360  31.564  1.00  0.00    -0.200 F 
ENDBRANCH  51  65
BRANCH  52  76
ATOM     76  C   UNL A   1      36.794  32.577  30.297  1.00  0.00     0.064 A 
ATOM     77  C   UNL A   1      36.475  33.333  29.181  1.00  0.00     0.173 A 
ATOM     78  C   UNL A   1      35.925  32.407  31.286  1.00  0.00     0.173 A 
ATOM     79  F   UNL A   1      37.201  33.324  28.066  1.00  0.00    -0.203 F 
ATOM     80  C   UNL A   1      35.305  34.114  29.334  1.00  0.00     0.198 A 
ATOM     81  C   UNL A   1      34.740  33.103  31.302  1.00  0.00     0.198 A 
ATOM     82  F   UNL A   1      36.203  31.558  32.270  1.00  0.00    -0.203 F 
ATOM     83  F   UNL A   1      35.119  35.121  28.485  1.00  0.00    -0.200 F 
ATOM     84  C   UNL A   1      34.386  33.913  30.260  1.00  0.00     0.200 A 
ATOM     85  F   UNL A   1      33.925  32.984  32.347  1.00  0.00    -0.200 F 
ATOM     86  F   UNL A   1      33.181  34.470  30.183  1.00  0.00    -0.200 F 
ENDBRANCH  52  76
BRANCH  64  87
ATOM     87  C   UNL A   1      42.783  34.822  33.200  1.00  0.00     0.064 A 
ATOM     88  C   UNL A   1      42.703  34.858  34.583  1.00  0.00     0.173 A 
ATOM     89  C   UNL A   1      43.237  35.862  32.510  1.00  0.00     0.173 A 
ATOM     90  F   UNL A   1      42.499  33.772  35.325  1.00  0.00    -0.203 F 
ATOM     91  C   UNL A   1      42.857  36.151  35.133  1.00  0.00     0.198 A 
ATOM     92  C   UNL A   1      43.497  37.057  33.136  1.00  0.00     0.198 A 
ATOM     93  F   UNL A   1      43.443  35.744  31.201  1.00  0.00    -0.203 F 
ATOM     94  F   UNL A   1      42.447  36.344  36.383  1.00  0.00    -0.200 F 
ATOM     95  C   UNL A   1      43.382  37.180  34.492  1.00  0.00     0.200 A 
ATOM     96  F   UNL A   1      43.865  38.109  32.411  1.00  0.00    -0.200 F 
ATOM     97  F   UNL A   1      43.777  38.277  35.133  1.00  0.00    -0.200 F 
ENDBRANCH  64  87
ENDBRANCH  38  39
ENDBRANCH  30  33
ENDBRANCH  28  29
ENDBRANCH   1  28
TORSDOF 13
ENDMDL
MODEL 2
REMARK VINA RESULT:     -12.9      3.304      8.999
REMARK SMILES O=C(NCCCCNC(=O)c1ccc(-c2c3nc(c(-c4c(F)c(F)c(F)c(F)c4F)c4ccc([nH]4)c(-c4c(F)c(F)c(F)c(F)c4F)c4nc(c(-c5c(F)c(F)c(F)c(F)c5F)c5ccc2[nH]5)C=C4)C=C3)cc1)C1=Cc2cc(S(F)(F)(F)(F)F)ccc2O[C@H]1C(F)(F)F
REMARK SMILES IDX 6 1 5 2 4 3 3 4 1 5 2 6 74 8 75 9 89 10 76 11 88 12 77 13
REMARK SMILES IDX 87 14 78 15 86 16 85 17 90 18 91 19 92 20 93 21 79 22 80 23
REMARK SMILES IDX 81 24 82 25 83 26 84 27 7 28 8 29 9 30 10 32 11 33 12 34
REMARK SMILES IDX 73 35 13 36 72 37 14 38 15 39 16 40 66 41 17 42 71 43 65 44
REMARK SMILES IDX 67 45 18 46 70 47 64 48 63 49 19 51 51 52 31 53 50 54 32 55
REMARK SMILES IDX 35 56 49 57 68 58 33 59 34 60 48 62 69 63 36 64 20 65 21 66
REMARK SMILES IDX 29 67 22 68 23 69 27 70 30 71 24 72 25 73 28 74 26 75 52 76
REMARK SMILES IDX 53 77 61 78 54 79 55 80 59 81 62 82 56 83 57 84 60 85 58 86
REMARK SMILES IDX 37 87 38 88 46 89 39 90 40 91 44 92 47 93 41 94 42 95 45 96
REMARK SMILES IDX 43 97
REMARK H PARENT 3 7 8 31 67 50 35 61
REMARK Flexibility Score: inf
ROOT
ATOM      1  C   UNL A   1      33.271  27.640  25.873  1.00  0.00     0.023 C 
ENDROOT
BRANCH   1   2
ATOM      2  C   UNL A   1      32.227  26.743  26.518  1.00  0.00     0.023 C 
BRANCH   2   3
ATOM      3  C   UNL A   1      32.309  25.353  25.910  1.00  0.00     0.116 C 
BRANCH   3   4
ATOM      4  N   UNL A   1      33.549  25.231  25.130  1.00  0.00    -0.352 N 
ATOM      5  O   UNL A   1      34.586  24.547  23.105  1.00  0.00    -0.270 OA
ATOM      6  C   UNL A   1      33.514  24.652  23.779  1.00  0.00     0.251 C 
ATOM      7  H   UNL A   1      34.402  25.538  25.512  1.00  0.00     0.163 HD
BRANCH   6   8
ATOM      8  C   UNL A   1      32.195  24.178  23.189  1.00  0.00     0.067 C 
ATOM      9  C   UNL A   1      31.309  25.083  22.691  1.00  0.00     0.025 C 
ATOM     10  C   UNL A   1      31.866  22.695  23.156  1.00  0.00     0.314 C 
ATOM     11  C   UNL A   1      31.638  26.567  22.725  1.00  0.00     0.019 A 
ATOM     12  O   UNL A   1      33.871  26.039  22.106  1.00  0.00    -0.475 OA
ATOM     13  C   UNL A   1      30.659  27.460  23.131  1.00  0.00     0.036 A 
ATOM     14  C   UNL A   1      32.844  26.986  22.362  1.00  0.00     0.128 A 
ATOM     15  C   UNL A   1      30.961  28.811  22.841  1.00  0.00     0.107 A 
ATOM     16  C   UNL A   1      33.108  28.328  22.230  1.00  0.00     0.048 A 
ATOM     17  C   UNL A   1      32.168  29.265  22.557  1.00  0.00     0.028 A 
BRANCH  10  18
ATOM     18  C   UNL A   1      33.013  21.908  23.768  1.00  0.00     0.429 C 
ATOM     19  F   UNL A   1      32.690  20.627  23.616  1.00  0.00    -0.167 F 
ATOM     20  F   UNL A   1      34.203  22.133  23.220  1.00  0.00    -0.167 F 
ATOM     21  F   UNL A   1      33.060  22.202  25.065  1.00  0.00    -0.167 F 
ENDBRANCH  10  18
BRANCH  15  22
ATOM     22  S   UNL A   1      29.597  30.002  22.864  1.00  0.00     0.310 S 
ATOM     23  F   UNL A   1      28.584  28.922  23.431  1.00  0.00    -0.094 F 
ATOM     24  F   UNL A   1      29.192  29.522  21.418  1.00  0.00    -0.094 F 
ATOM     25  F   UNL A   1      28.426  31.024  22.883  1.00  0.00    -0.094 F 
ATOM     26  F   UNL A   1      29.933  30.369  24.363  1.00  0.00    -0.094 F 
ATOM     27  F   UNL A   1      30.720  28.889  22.900  1.00  0.00    -0.094 F 
ENDBRANCH  15  22
ENDBRANCH   6   8
ENDBRANCH   3   4
ENDBRANCH   2   3
ENDBRANCH   1   2
BRANCH   1  28
ATOM     28  C   UNL A   1      34.175  28.221  26.948  1.00  0.00     0.116 C 
BRANCH  28  29
ATOM     29  N   UNL A   1      33.667  29.539  27.356  1.00  0.00    -0.352 N 
ATOM     30  C   UNL A   1      34.558  30.492  28.033  1.00  0.00     0.251 C 
ATOM     31  H   UNL A   1      32.730  29.782  27.178  1.00  0.00     0.163 HD
ATOM     32  O   UNL A   1      34.119  31.632  28.386  1.00  0.00    -0.269 OA
BRANCH  30  33
ATOM     33  C   UNL A   1      36.004  30.116  28.310  1.00  0.00     0.039 A 
ATOM     34  C   UNL A   1      36.976  30.357  27.353  1.00  0.00     0.014 A 
ATOM     35  C   UNL A   1      36.307  29.552  29.473  1.00  0.00     0.014 A 
ATOM     36  C   UNL A   1      38.203  29.698  27.603  1.00  0.00     0.010 A 
ATOM     37  C   UNL A   1      37.566  29.050  29.700  1.00  0.00     0.010 A 
ATOM     38  C   UNL A   1      38.561  29.200  28.773  1.00  0.00    -0.014 A 
BRANCH  38  39
ATOM     39  C   UNL A   1      40.000  28.814  29.073  1.00  0.00     0.031 A 
ATOM     40  C   UNL A   1      40.757  29.718  29.822  1.00  0.00     0.074 A 
ATOM     41  C   UNL A   1      40.480  27.604  28.605  1.00  0.00     0.049 A 
ATOM     42  N   UNL A   1      42.016  29.575  30.238  1.00  0.00    -0.248 NA
ATOM     43  C   UNL A   1      40.260  31.020  30.291  1.00  0.00     0.031 C 
ATOM     44  C   UNL A   1      39.721  26.683  27.857  1.00  0.00     0.029 A 
ATOM     45  N   UNL A   1      41.742  27.075  28.767  1.00  0.00    -0.354 N 
ATOM     46  C   UNL A   1      42.391  30.642  30.946  1.00  0.00     0.074 A 
ATOM     47  C   UNL A   1      41.270  31.589  30.985  1.00  0.00     0.031 C 
ATOM     48  C   UNL A   1      40.515  25.621  27.562  1.00  0.00     0.029 A 
ATOM     49  C   UNL A   1      41.785  25.859  28.122  1.00  0.00     0.049 A 
ATOM     50  H   UNL A   1      42.484  27.495  29.259  1.00  0.00     0.167 HD
ATOM     51  C   UNL A   1      43.625  30.862  31.561  1.00  0.00     0.037 A 
ATOM     52  C   UNL A   1      42.862  24.993  28.014  1.00  0.00     0.037 A 
ATOM     53  C   UNL A   1      44.688  29.975  31.490  1.00  0.00     0.049 A 
ATOM     54  C   UNL A   1      44.115  25.240  28.581  1.00  0.00     0.074 A 
ATOM     55  C   UNL A   1      45.935  30.179  32.111  1.00  0.00     0.029 A 
ATOM     56  N   UNL A   1      44.739  28.771  30.825  1.00  0.00    -0.354 N 
ATOM     57  N   UNL A   1      44.476  26.288  29.322  1.00  0.00    -0.248 NA
ATOM     58  C   UNL A   1      45.271  24.345  28.446  1.00  0.00     0.031 C 
ATOM     59  C   UNL A   1      46.730  29.116  31.817  1.00  0.00     0.029 A 
ATOM     60  C   UNL A   1      45.993  28.232  31.005  1.00  0.00     0.049 A 
ATOM     61  H   UNL A   1      44.005  28.366  30.307  1.00  0.00     0.167 HD
ATOM     62  C   UNL A   1      45.750  26.164  29.702  1.00  0.00     0.074 A 
ATOM     63  C   UNL A   1      46.281  24.916  29.139  1.00  0.00     0.031 C 
ATOM     64  C   UNL A   1      46.489  27.040  30.500  1.00  0.00     0.037 A 
BRANCH  51  65
ATOM     65  C   UNL A   1      43.813  32.145  32.354  1.00  0.00     0.064 A 
ATOM     66  C   UNL A   1      44.269  33.262  31.673  1.00  0.00     0.173 A 
ATOM     67  C   UNL A   1      43.459  32.215  33.633  1.00  0.00     0.173 A 
ATOM     68  F   UNL A   1      44.393  33.304  30.350  1.00  0.00    -0.203 F 
ATOM     69  C   UNL A   1      44.592  34.353  32.514  1.00  0.00     0.198 A 
ATOM     70  C   UNL A   1      43.680  33.360  34.358  1.00  0.00     0.198 A 
ATOM     71  F   UNL A   1      42.886  31.165  34.215  1.00  0.00    -0.203 F 
ATOM     72  F   UNL A   1      45.359  35.316  32.010  1.00  0.00    -0.200 F 
ATOM     73  C   UNL A   1      44.183  34.484  33.763  1.00  0.00     0.200 A 
ATOM     74  F   UNL A   1      43.400  33.376  35.657  1.00  0.00    -0.200 F 
ATOM     75  F   UNL A   1      44.257  35.644  34.407  1.00  0.00    -0.200 F 
ENDBRANCH  51  65
BRANCH  52  76
ATOM     76  C   UNL A   1      42.668  23.702  27.235  1.00  0.00     0.064 A 
ATOM     77  C   UNL A   1      42.191  22.578  27.889  1.00  0.00     0.173 A 
ATOM     78  C   UNL A   1      43.056  23.649  25.966  1.00  0.00     0.173 A 
ATOM     79  F   UNL A   1      41.562  22.632  29.060  1.00  0.00    -0.203 F 
ATOM     80  C   UNL A   1      42.433  21.368  27.198  1.00  0.00     0.198 A 
ATOM     81  C   UNL A   1      43.140  22.444  25.311  1.00  0.00     0.198 A 
ATOM     82  F   UNL A   1      43.366  24.771  25.324  1.00  0.00    -0.203 F 
ATOM     83  F   UNL A   1      42.344  20.234  27.887  1.00  0.00    -0.200 F 
ATOM     84  C   UNL A   1      42.740  21.285  25.916  1.00  0.00     0.200 A 
ATOM     85  F   UNL A   1      43.615  22.405  24.069  1.00  0.00    -0.200 F 
ATOM     86  F   UNL A   1      42.665  20.136  25.251  1.00  0.00    -0.200 F 
ENDBRANCH  52  76
BRANCH  64  87
ATOM     87  C   UNL A   1      47.922  26.664  30.835  1.00  0.00     0.064 A 
ATOM     88  C   UNL A   1      48.957  27.128  30.039  1.00  0.00     0.173 A 
ATOM     89  C   UNL A   1      48.157  25.889  31.887  1.00  0.00     0.173 A 
ATOM     90  F   UNL A   1      48.802  28.096  29.141  1.00  0.00    -0.203 F 
ATOM     91  C   UNL A   1      50.193  26.479  30.269  1.00  0.00     0.198 A 
ATOM     92  C   UNL A   1      49.419  25.401  32.129  1.00  0.00     0.198 A 
ATOM     93  F   UNL A   1      47.163  25.584  32.716  1.00  0.00    -0.203 F 
ATOM     94  F   UNL A   1      51.133  26.591  29.336  1.00  0.00    -0.200 F 
ATOM     95  C   UNL A   1      50.478  25.771  31.347  1.00  0.00     0.200 A 
ATOM     96  F   UNL A   1      49.613  24.555  33.136  1.00  0.00    -0.200 F 
ATOM     97  F   UNL A   1      51.728  25.436  31.655  1.00  0.00    -0.200 F 
ENDBRANCH  64  87
ENDBRANCH  38  39
ENDBRANCH  30  33
ENDBRANCH  28  29
ENDBRANCH   1  28
TORSDOF 13
ENDMDL
MODEL 3
REMARK VINA RESULT:     -12.9      0.296      7.061
REMARK SMILES O=C(NCCCCNC(=O)c1ccc(-c2c3nc(c(-c4c(F)c(F)c(F)c(F)c4F)c4ccc([nH]4)c(-c4c(F)c(F)c(F)c(F)c4F)c4nc(c(-c5c(F)c(F)c(F)c(F)c5F)c5ccc2[nH]5)C=C4)C=C3)cc1)C1=Cc2cc(S(F)(F)(F)(F)F)ccc2O[C@H]1C(F)(F)F
REMARK SMILES IDX 6 1 5 2 4 3 3 4 1 5 2 6 74 8 75 9 89 10 76 11 88 12 77 13
REMARK SMILES IDX 87 14 78 15 86 16 85 17 90 18 91 19 92 20 93 21 79 22 80 23
REMARK SMILES IDX 81 24 82 25 83 26 84 27 7 28 8 29 9 30 10 32 11 33 12 34
REMARK SMILES IDX 73 35 13 36 72 37 14 38 15 39 16 40 66 41 17 42 71 43 65 44
REMARK SMILES IDX 67 45 18 46 70 47 64 48 63 49 19 51 51 52 31 53 50 54 32 55
REMARK SMILES IDX 35 56 49 57 68 58 33 59 34 60 48 62 69 63 36 64 20 65 21 66
REMARK SMILES IDX 29 67 22 68 23 69 27 70 30 71 24 72 25 73 28 74 26 75 52 76
REMARK SMILES IDX 53 77 61 78 54 79 55 80 59 81 62 82 56 83 57 84 60 85 58 86
REMARK SMILES IDX 37 87 38 88 46 89 39 90 40 91 44 92 47 93 41 94 42 95 45 96
REMARK SMILES IDX 43 97
REMARK H PARENT 3 7 8 31 67 50 35 61
REMARK Flexibility Score: inf
ROOT
ATOM      1  C   UNL A   1      35.419  23.810  25.404  1.00  0.00     0.023 C 
ENDROOT
BRANCH   1   2
ATOM      2  C   UNL A   1      35.080  24.014  23.936  1.00  0.00     0.023 C 
BRANCH   2   3
ATOM      3  C   UNL A   1      33.864  24.918  23.819  1.00  0.00     0.116 C 
BRANCH   3   4
ATOM      4  N   UNL A   1      33.521  25.453  25.144  1.00  0.00    -0.352 N 
ATOM      5  O   UNL A   1      31.841  25.832  26.781  1.00  0.00    -0.270 OA
ATOM      6  C   UNL A   1      32.138  25.369  25.635  1.00  0.00     0.251 C 
ATOM      7  H   UNL A   1      34.218  25.866  25.703  1.00  0.00     0.163 HD
BRANCH   6   8
ATOM      8  C   UNL A   1      31.062  24.730  24.772  1.00  0.00     0.067 C 
ATOM      9  C   UNL A   1      30.986  23.375  24.673  1.00  0.00     0.025 C 
ATOM     10  C   UNL A   1      30.073  25.603  24.018  1.00  0.00     0.314 C 
ATOM     11  C   UNL A   1      31.976  22.500  25.426  1.00  0.00     0.019 A 
ATOM     12  O   UNL A   1      31.776  23.962  27.290  1.00  0.00    -0.475 OA
ATOM     13  C   UNL A   1      32.557  21.429  24.768  1.00  0.00     0.036 A 
ATOM     14  C   UNL A   1      32.263  22.767  26.694  1.00  0.00     0.128 A 
ATOM     15  C   UNL A   1      33.216  20.518  25.627  1.00  0.00     0.107 A 
ATOM     16  C   UNL A   1      33.026  21.899  27.437  1.00  0.00     0.048 A 
ATOM     17  C   UNL A   1      33.583  20.789  26.866  1.00  0.00     0.028 A 
BRANCH  10  18
ATOM     18  C   UNL A   1      30.375  27.066  24.298  1.00  0.00     0.429 C 
ATOM     19  F   UNL A   1      29.420  27.753  23.677  1.00  0.00    -0.167 F 
ATOM     20  F   UNL A   1      30.394  27.399  25.585  1.00  0.00    -0.167 F 
ATOM     21  F   UNL A   1      31.553  27.350  23.748  1.00  0.00    -0.167 F 
ENDBRANCH  10  18
BRANCH  15  22
ATOM     22  S   UNL A   1      33.580  18.866  24.982  1.00  0.00     0.310 S 
ATOM     23  F   UNL A   1      33.059  19.249  23.535  1.00  0.00    -0.094 F 
ATOM     24  F   UNL A   1      32.103  18.437  25.326  1.00  0.00    -0.094 F 
ATOM     25  F   UNL A   1      33.893  17.448  24.428  1.00  0.00    -0.094 F 
ATOM     26  F   UNL A   1      35.009  19.354  24.519  1.00  0.00    -0.094 F 
ATOM     27  F   UNL A   1      33.240  20.341  25.438  1.00  0.00    -0.094 F 
ENDBRANCH  15  22
ENDBRANCH   6   8
ENDBRANCH   3   4
ENDBRANCH   2   3
ENDBRANCH   1   2
BRANCH   1  28
ATOM     28  C   UNL A   1      36.852  24.250  25.660  1.00  0.00     0.116 C 
BRANCH  28  29
ATOM     29  N   UNL A   1      37.746  23.087  25.567  1.00  0.00    -0.352 N 
ATOM     30  C   UNL A   1      39.069  23.125  26.205  1.00  0.00     0.251 C 
ATOM     31  H   UNL A   1      37.458  22.283  25.077  1.00  0.00     0.163 HD
ATOM     32  O   UNL A   1      39.842  22.119  26.125  1.00  0.00    -0.269 OA
BRANCH  30  33
ATOM     33  C   UNL A   1      39.513  24.366  26.960  1.00  0.00     0.039 A 
ATOM     34  C   UNL A   1      39.224  24.495  28.308  1.00  0.00     0.014 A 
ATOM     35  C   UNL A   1      40.171  25.315  26.303  1.00  0.00     0.014 A 
ATOM     36  C   UNL A   1      39.418  25.803  28.815  1.00  0.00     0.010 A 
ATOM     37  C   UNL A   1      40.447  26.519  26.904  1.00  0.00     0.010 A 
ATOM     38  C   UNL A   1      40.135  26.738  28.218  1.00  0.00    -0.014 A 
BRANCH  38  39
ATOM     39  C   UNL A   1      40.590  27.989  28.951  1.00  0.00     0.031 A 
ATOM     40  C   UNL A   1      39.639  28.992  29.146  1.00  0.00     0.074 A 
ATOM     41  C   UNL A   1      41.900  28.069  29.390  1.00  0.00     0.049 A 
ATOM     42  N   UNL A   1      39.797  30.148  29.793  1.00  0.00    -0.248 NA
ATOM     43  C   UNL A   1      38.256  28.925  28.651  1.00  0.00     0.031 C 
ATOM     44  C   UNL A   1      42.863  27.057  29.205  1.00  0.00     0.029 A 
ATOM     45  N   UNL A   1      42.503  29.106  30.066  1.00  0.00    -0.354 N 
ATOM     46  C   UNL A   1      38.655  30.839  29.787  1.00  0.00     0.074 A 
ATOM     47  C   UNL A   1      37.650  30.066  29.048  1.00  0.00     0.031 C 
ATOM     48  C   UNL A   1      44.032  27.483  29.750  1.00  0.00     0.029 A 
ATOM     49  C   UNL A   1      43.820  28.767  30.287  1.00  0.00     0.049 A 
ATOM     50  H   UNL A   1      42.068  29.944  30.343  1.00  0.00     0.167 HD
ATOM     51  C   UNL A   1      38.413  32.084  30.371  1.00  0.00     0.037 A 
ATOM     52  C   UNL A   1      44.797  29.523  30.916  1.00  0.00     0.037 A 
ATOM     53  C   UNL A   1      39.379  32.821  31.039  1.00  0.00     0.049 A 
ATOM     54  C   UNL A   1      44.570  30.794  31.450  1.00  0.00     0.074 A 
ATOM     55  C   UNL A   1      39.150  34.073  31.639  1.00  0.00     0.029 A 
ATOM     56  N   UNL A   1      40.702  32.493  31.238  1.00  0.00    -0.354 N 
ATOM     57  N   UNL A   1      43.419  31.466  31.479  1.00  0.00    -0.248 NA
ATOM     58  C   UNL A   1      45.604  31.616  32.089  1.00  0.00     0.031 C 
ATOM     59  C   UNL A   1      40.320  34.499  32.186  1.00  0.00     0.029 A 
ATOM     60  C   UNL A   1      41.299  33.520  31.933  1.00  0.00     0.049 A 
ATOM     61  H   UNL A   1      41.144  31.667  30.935  1.00  0.00     0.167 HD
ATOM     62  C   UNL A   1      43.589  32.642  32.089  1.00  0.00     0.074 A 
ATOM     63  C   UNL A   1      44.998  32.758  32.484  1.00  0.00     0.031 C 
ATOM     64  C   UNL A   1      42.623  33.620  32.335  1.00  0.00     0.037 A 
BRANCH  51  65
ATOM     65  C   UNL A   1      37.012  32.664  30.270  1.00  0.00     0.064 A 
ATOM     66  C   UNL A   1      36.713  33.433  29.157  1.00  0.00     0.173 A 
ATOM     67  C   UNL A   1      36.082  32.362  31.169  1.00  0.00     0.173 A 
ATOM     68  F   UNL A   1      37.529  33.549  28.115  1.00  0.00    -0.203 F 
ATOM     69  C   UNL A   1      35.458  34.083  29.231  1.00  0.00     0.198 A 
ATOM     70  C   UNL A   1      34.834  32.931  31.101  1.00  0.00     0.198 A 
ATOM     71  F   UNL A   1      36.364  31.502  32.143  1.00  0.00    -0.203 F 
ATOM     72  F   UNL A   1      35.240  35.103  28.404  1.00  0.00    -0.200 F 
ATOM     73  C   UNL A   1      34.487  33.748  30.061  1.00  0.00     0.200 A 
ATOM     74  F   UNL A   1      33.949  32.684  32.063  1.00  0.00    -0.200 F 
ATOM     75  F   UNL A   1      33.241  34.180  29.894  1.00  0.00    -0.200 F 
ENDBRANCH  51  65
BRANCH  52  76
ATOM     76  C   UNL A   1      46.194  28.935  31.032  1.00  0.00     0.064 A 
ATOM     77  C   UNL A   1      47.108  29.149  30.012  1.00  0.00     0.173 A 
ATOM     78  C   UNL A   1      46.480  28.144  32.059  1.00  0.00     0.173 A 
ATOM     79  F   UNL A   1      46.972  30.113  29.106  1.00  0.00    -0.203 F 
ATOM     80  C   UNL A   1      48.198  28.248  30.023  1.00  0.00     0.198 A 
ATOM     81  C   UNL A   1      47.631  27.393  32.064  1.00  0.00     0.198 A 
ATOM     82  F   UNL A   1      45.646  28.078  33.092  1.00  0.00    -0.203 F 
ATOM     83  F   UNL A   1      48.918  28.135  28.910  1.00  0.00    -0.200 F 
ATOM     84  C   UNL A   1      48.551  27.511  31.060  1.00  0.00     0.200 A 
ATOM     85  F   UNL A   1      47.853  26.542  33.062  1.00  0.00    -0.200 F 
ATOM     86  F   UNL A   1      49.738  26.914  31.123  1.00  0.00    -0.200 F 
ENDBRANCH  52  76
BRANCH  64  87
ATOM     87  C   UNL A   1      43.048  34.868  33.089  1.00  0.00     0.064 A 
ATOM     88  C   UNL A   1      43.023  34.876  34.474  1.00  0.00     0.173 A 
ATOM     89  C   UNL A   1      43.433  35.937  32.402  1.00  0.00     0.173 A 
ATOM     90  F   UNL A   1      42.892  33.771  35.202  1.00  0.00    -0.203 F 
ATOM     91  C   UNL A   1      43.149  36.165  35.043  1.00  0.00     0.198 A 
ATOM     92  C   UNL A   1      43.672  37.131  33.040  1.00  0.00     0.198 A 
ATOM     93  F   UNL A   1      43.590  35.852  31.083  1.00  0.00    -0.203 F 
ATOM     94  F   UNL A   1      42.782  36.319  36.311  1.00  0.00    -0.200 F 
ATOM     95  C   UNL A   1      43.607  37.225  34.402  1.00  0.00     0.200 A 
ATOM     96  F   UNL A   1      43.969  38.210  32.322  1.00  0.00    -0.200 F 
ATOM     97  F   UNL A   1      43.985  38.325  35.048  1.00  0.00    -0.200 F 
ENDBRANCH  64  87
ENDBRANCH  38  39
ENDBRANCH  30  33
ENDBRANCH  28  29
ENDBRANCH   1  28
TORSDOF 13
ENDMDL
