MODEL 1
REMARK VINA RESULT:     -11.4      0.000      0.000
REMARK SMILES O=C(CN(CC(F)(F)F)C(=O)CC[C@H]1CCC[NH2+]C1)NCCCCNC(=O)c1ccc(-c2c3nc(c(-c4c(F)c(F)c(F)c(F)c4F)c4ccc([nH]4)c(-c4c(F)c(F)c(F)c(F)c4F)c4nc(c(-c5c(F)c(F)c(F)c(F)c5F)c5ccc2[nH]5)C=C4)C=C3)cc1
REMARK SMILES IDX 21 1 20 2 1 3 2 4 3 6 4 7 5 8 6 9 7 10 8 11 9 12 10 13 11 14
REMARK SMILES IDX 12 15 13 16 14 17 15 18 19 19 16 20 18 21 17 22 22 25 23 26
REMARK SMILES IDX 24 27 25 28 26 29 27 31 28 32 29 33 90 34 30 35 89 36 31 37
REMARK SMILES IDX 32 38 33 39 83 40 34 41 88 42 82 43 84 44 35 45 87 46 81 47
REMARK SMILES IDX 80 48 36 50 68 51 48 52 67 53 49 54 52 55 66 56 85 57 50 58
REMARK SMILES IDX 51 59 65 61 86 62 53 63 37 64 38 65 46 66 39 67 40 68 44 69
REMARK SMILES IDX 47 70 41 71 42 72 45 73 43 74 69 75 70 76 78 77 71 78 72 79
REMARK SMILES IDX 76 80 79 81 73 82 74 83 77 84 75 85 54 86 55 87 63 88 56 89
REMARK SMILES IDX 57 90 61 91 64 92 58 93 59 94 62 95 60 96
REMARK H PARENT 20 5 18 23 18 24 25 30 84 49 52 60
REMARK Flexibility Score: inf
ROOT
ATOM      1  C   UNL A   1      32.706  30.137  26.938  1.00  0.00     0.116 C 
ENDROOT
BRANCH   1   2
ATOM      2  N   UNL A   1      32.909  28.772  26.488  1.00  0.00    -0.355 N 
ATOM      3  O   UNL A   1      31.325  27.845  27.852  1.00  0.00    -0.273 OA
ATOM      4  C   UNL A   1      32.057  27.753  26.867  1.00  0.00     0.239 C 
ATOM      5  H   UNL A   1      33.669  28.567  25.899  1.00  0.00     0.163 HD
BRANCH   4   6
ATOM      6  C   UNL A   1      32.229  26.409  26.121  1.00  0.00     0.219 C 
BRANCH   6   7
ATOM      7  N   UNL A   1      31.602  26.262  24.783  1.00  0.00    -0.324 N 
BRANCH   7   8
ATOM      8  C   UNL A   1      32.511  25.785  23.697  1.00  0.00     0.235 C 
BRANCH   8   9
ATOM      9  C   UNL A   1      32.707  26.578  22.395  1.00  0.00     0.406 C 
ATOM     10  F   UNL A   1      33.662  26.083  21.590  1.00  0.00    -0.169 F 
ATOM     11  F   UNL A   1      31.557  26.550  21.674  1.00  0.00    -0.169 F 
ATOM     12  F   UNL A   1      32.992  27.874  22.643  1.00  0.00    -0.169 F 
ENDBRANCH   8   9
ENDBRANCH   7   8
BRANCH   7  13
ATOM     13  C   UNL A   1      30.221  26.452  24.768  1.00  0.00     0.223 C 
ATOM     14  O   UNL A   1      29.505  25.769  25.511  1.00  0.00    -0.275 OA
BRANCH  13  15
ATOM     15  C   UNL A   1      29.500  27.460  23.874  1.00  0.00     0.101 C 
BRANCH  15  16
ATOM     16  C   UNL A   1      30.133  28.844  23.647  1.00  0.00     0.019 C 
BRANCH  16  17
ATOM     17  C   UNL A   1      29.161  29.861  23.051  1.00  0.00     0.045 C 
ATOM     18  C   UNL A   1      29.029  31.188  23.802  1.00  0.00     0.015 C 
ATOM     19  C   UNL A   1      29.523  30.166  21.593  1.00  0.00     0.264 C 
ATOM     20  C   UNL A   1      27.935  32.015  23.113  1.00  0.00     0.062 C 
ATOM     21  N   UNL A   1      28.443  30.901  20.939  1.00  0.00    -0.346 N 
ATOM     22  C   UNL A   1      28.201  32.182  21.613  1.00  0.00     0.260 C 
ATOM     23  H   UNL A   1      28.698  31.078  19.968  1.00  0.00     0.346 HD
ATOM     24  H   UNL A   1      27.592  30.341  20.985  1.00  0.00     0.346 HD
ENDBRANCH  16  17
ENDBRANCH  15  16
ENDBRANCH  13  15
ENDBRANCH   7  13
ENDBRANCH   6   7
ENDBRANCH   4   6
ENDBRANCH   1   2
BRANCH   1  25
ATOM     25  C   UNL A   1      31.575  30.862  26.211  1.00  0.00     0.023 C 
BRANCH  25  26
ATOM     26  C   UNL A   1      31.408  32.339  26.570  1.00  0.00     0.023 C 
BRANCH  26  27
ATOM     27  C   UNL A   1      32.567  32.972  27.336  1.00  0.00     0.116 C 
BRANCH  27  28
ATOM     28  N   UNL A   1      32.320  34.346  27.736  1.00  0.00    -0.352 N 
ATOM     29  C   UNL A   1      32.960  35.122  28.675  1.00  0.00     0.251 C 
ATOM     30  H   UNL A   1      31.579  34.791  27.262  1.00  0.00     0.163 HD
ATOM     31  O   UNL A   1      32.525  36.231  28.954  1.00  0.00    -0.269 OA
BRANCH  29  32
ATOM     32  C   UNL A   1      34.159  34.611  29.382  1.00  0.00     0.039 A 
ATOM     33  C   UNL A   1      34.016  34.154  30.697  1.00  0.00     0.014 A 
ATOM     34  C   UNL A   1      35.416  34.587  28.773  1.00  0.00     0.014 A 
ATOM     35  C   UNL A   1      35.112  33.605  31.368  1.00  0.00     0.010 A 
ATOM     36  C   UNL A   1      36.489  33.970  29.415  1.00  0.00     0.010 A 
ATOM     37  C   UNL A   1      36.349  33.468  30.718  1.00  0.00    -0.014 A 
BRANCH  37  38
ATOM     38  C   UNL A   1      37.495  32.789  31.380  1.00  0.00     0.031 A 
ATOM     39  C   UNL A   1      38.193  31.638  30.708  1.00  0.00     0.074 A 
ATOM     40  C   UNL A   1      37.871  33.167  32.619  1.00  0.00     0.049 A 
ATOM     41  N   UNL A   1      39.162  30.879  31.155  1.00  0.00    -0.248 NA
ATOM     42  C   UNL A   1      37.723  31.275  29.361  1.00  0.00     0.031 C 
ATOM     43  C   UNL A   1      37.254  34.242  33.397  1.00  0.00     0.029 A 
ATOM     44  N   UNL A   1      38.856  32.685  33.445  1.00  0.00    -0.354 N 
ATOM     45  C   UNL A   1      39.406  29.946  30.157  1.00  0.00     0.074 A 
ATOM     46  C   UNL A   1      38.449  30.199  29.101  1.00  0.00     0.031 C 
ATOM     47  C   UNL A   1      37.890  34.355  34.574  1.00  0.00     0.029 A 
ATOM     48  C   UNL A   1      38.929  33.333  34.655  1.00  0.00     0.049 A 
ATOM     49  H   UNL A   1      39.455  31.944  33.194  1.00  0.00     0.167 HD
ATOM     50  C   UNL A   1      40.356  28.980  30.114  1.00  0.00     0.037 A 
ATOM     51  C   UNL A   1      39.735  33.121  35.714  1.00  0.00     0.037 A 
ATOM     52  C   UNL A   1      41.323  28.746  31.156  1.00  0.00     0.049 A 
ATOM     53  C   UNL A   1      40.763  32.024  35.649  1.00  0.00     0.074 A 
ATOM     54  C   UNL A   1      42.364  27.832  31.176  1.00  0.00     0.029 A 
ATOM     55  N   UNL A   1      41.366  29.424  32.365  1.00  0.00    -0.354 N 
ATOM     56  N   UNL A   1      41.029  31.194  34.670  1.00  0.00    -0.248 NA
ATOM     57  C   UNL A   1      41.608  31.838  36.838  1.00  0.00     0.031 C 
ATOM     58  C   UNL A   1      42.995  27.915  32.420  1.00  0.00     0.029 A 
ATOM     59  C   UNL A   1      42.393  28.927  33.150  1.00  0.00     0.049 A 
ATOM     60  H   UNL A   1      40.756  30.152  32.625  1.00  0.00     0.167 HD
ATOM     61  C   UNL A   1      42.091  30.414  35.110  1.00  0.00     0.074 A 
ATOM     62  C   UNL A   1      42.430  30.879  36.438  1.00  0.00     0.031 C 
ATOM     63  C   UNL A   1      42.729  29.403  34.468  1.00  0.00     0.037 A 
BRANCH  50  64
ATOM     64  C   UNL A   1      40.397  28.093  28.901  1.00  0.00     0.064 A 
ATOM     65  C   UNL A   1      41.155  28.425  27.766  1.00  0.00     0.173 A 
ATOM     66  C   UNL A   1      39.707  26.871  28.891  1.00  0.00     0.173 A 
ATOM     67  F   UNL A   1      41.826  29.586  27.719  1.00  0.00    -0.203 F 
ATOM     68  C   UNL A   1      41.193  27.583  26.658  1.00  0.00     0.198 A 
ATOM     69  C   UNL A   1      39.776  26.016  27.795  1.00  0.00     0.198 A 
ATOM     70  F   UNL A   1      38.973  26.500  29.951  1.00  0.00    -0.203 F 
ATOM     71  F   UNL A   1      41.881  27.947  25.567  1.00  0.00    -0.200 F 
ATOM     72  C   UNL A   1      40.512  26.376  26.676  1.00  0.00     0.200 A 
ATOM     73  F   UNL A   1      39.130  24.841  27.820  1.00  0.00    -0.200 F 
ATOM     74  F   UNL A   1      40.558  25.562  25.613  1.00  0.00    -0.200 F 
ENDBRANCH  50  64
BRANCH  51  75
ATOM     75  C   UNL A   1      39.614  33.976  36.926  1.00  0.00     0.064 A 
ATOM     76  C   UNL A   1      40.289  35.203  37.012  1.00  0.00     0.173 A 
ATOM     77  C   UNL A   1      38.843  33.580  38.029  1.00  0.00     0.173 A 
ATOM     78  F   UNL A   1      41.056  35.617  35.992  1.00  0.00    -0.203 F 
ATOM     79  C   UNL A   1      40.218  35.987  38.162  1.00  0.00     0.198 A 
ATOM     80  C   UNL A   1      38.746  34.380  39.166  1.00  0.00     0.198 A 
ATOM     81  F   UNL A   1      38.174  32.417  37.998  1.00  0.00    -0.203 F 
ATOM     82  F   UNL A   1      40.917  37.127  38.238  1.00  0.00    -0.200 F 
ATOM     83  C   UNL A   1      39.442  35.576  39.236  1.00  0.00     0.200 A 
ATOM     84  F   UNL A   1      37.983  33.987  40.195  1.00  0.00    -0.200 F 
ATOM     85  F   UNL A   1      39.374  36.330  40.342  1.00  0.00    -0.200 F 
ENDBRANCH  51  75
BRANCH  63  86
ATOM     86  C   UNL A   1      43.889  28.759  35.174  1.00  0.00     0.064 A 
ATOM     87  C   UNL A   1      45.195  29.260  35.064  1.00  0.00     0.173 A 
ATOM     88  C   UNL A   1      43.683  27.646  36.005  1.00  0.00     0.173 A 
ATOM     89  F   UNL A   1      45.450  30.313  34.271  1.00  0.00    -0.203 F 
ATOM     90  C   UNL A   1      46.254  28.653  35.733  1.00  0.00     0.198 A 
ATOM     91  C   UNL A   1      44.738  27.064  36.701  1.00  0.00     0.198 A 
ATOM     92  F   UNL A   1      42.453  27.132  36.153  1.00  0.00    -0.203 F 
ATOM     93  F   UNL A   1      47.501  29.116  35.569  1.00  0.00    -0.200 F 
ATOM     94  C   UNL A   1      46.024  27.562  36.558  1.00  0.00     0.200 A 
ATOM     95  F   UNL A   1      44.510  26.020  37.510  1.00  0.00    -0.200 F 
ATOM     96  F   UNL A   1      47.044  26.985  37.209  1.00  0.00    -0.200 F 
ENDBRANCH  63  86
ENDBRANCH  37  38
ENDBRANCH  29  32
ENDBRANCH  27  28
ENDBRANCH  26  27
ENDBRANCH  25  26
ENDBRANCH   1  25
TORSDOF 18
ENDMDL
MODEL 2
REMARK VINA RESULT:     -11.4      6.276     10.671
REMARK SMILES O=C(CN(CC(F)(F)F)C(=O)CC[C@H]1CCC[NH2+]C1)NCCCCNC(=O)c1ccc(-c2c3nc(c(-c4c(F)c(F)c(F)c(F)c4F)c4ccc([nH]4)c(-c4c(F)c(F)c(F)c(F)c4F)c4nc(c(-c5c(F)c(F)c(F)c(F)c5F)c5ccc2[nH]5)C=C4)C=C3)cc1
REMARK SMILES IDX 21 1 20 2 1 3 2 4 3 6 4 7 5 8 6 9 7 10 8 11 9 12 10 13 11 14
REMARK SMILES IDX 12 15 13 16 14 17 15 18 19 19 16 20 18 21 17 22 22 25 23 26
REMARK SMILES IDX 24 27 25 28 26 29 27 31 28 32 29 33 90 34 30 35 89 36 31 37
REMARK SMILES IDX 32 38 33 39 83 40 34 41 88 42 82 43 84 44 35 45 87 46 81 47
REMARK SMILES IDX 80 48 36 50 68 51 48 52 67 53 49 54 52 55 66 56 85 57 50 58
REMARK SMILES IDX 51 59 65 61 86 62 53 63 37 64 38 65 46 66 39 67 40 68 44 69
REMARK SMILES IDX 47 70 41 71 42 72 45 73 43 74 69 75 70 76 78 77 71 78 72 79
REMARK SMILES IDX 76 80 79 81 73 82 74 83 77 84 75 85 54 86 55 87 63 88 56 89
REMARK SMILES IDX 57 90 61 91 64 92 58 93 59 94 62 95 60 96
REMARK H PARENT 20 5 18 23 18 24 25 30 84 49 52 60
REMARK Flexibility Score: inf
ROOT
ATOM      1  C   UNL A   1      37.545  21.929  25.011  1.00  0.00     0.116 C 
ENDROOT
BRANCH   1   2
ATOM      2  N   UNL A   1      36.410  22.833  24.990  1.00  0.00    -0.355 N 
ATOM      3  O   UNL A   1      36.412  23.147  22.725  1.00  0.00    -0.273 OA
ATOM      4  C   UNL A   1      35.824  23.228  23.803  1.00  0.00     0.239 C 
ATOM      5  H   UNL A   1      36.049  23.172  25.840  1.00  0.00     0.163 HD
BRANCH   4   6
ATOM      6  C   UNL A   1      34.477  23.979  23.926  1.00  0.00     0.219 C 
BRANCH   6   7
ATOM      7  N   UNL A   1      33.259  23.192  24.244  1.00  0.00    -0.324 N 
BRANCH   7   8
ATOM      8  C   UNL A   1      32.553  23.582  25.501  1.00  0.00     0.235 C 
BRANCH   8   9
ATOM      9  C   UNL A   1      31.020  23.588  25.604  1.00  0.00     0.406 C 
ATOM     10  F   UNL A   1      30.472  22.366  25.718  1.00  0.00    -0.169 F 
ATOM     11  F   UNL A   1      30.645  24.271  26.715  1.00  0.00    -0.169 F 
ATOM     12  F   UNL A   1      30.455  24.207  24.545  1.00  0.00    -0.169 F 
ENDBRANCH   8   9
ENDBRANCH   7   8
BRANCH   7  13
ATOM     13  C   UNL A   1      32.872  22.297  23.247  1.00  0.00     0.223 C 
ATOM     14  O   UNL A   1      32.756  22.699  22.082  1.00  0.00    -0.275 OA
BRANCH  13  15
ATOM     15  C   UNL A   1      32.564  20.820  23.487  1.00  0.00     0.101 C 
BRANCH  15  16
ATOM     16  C   UNL A   1      33.380  20.047  24.536  1.00  0.00     0.019 C 
BRANCH  16  17
ATOM     17  C   UNL A   1      33.283  18.530  24.378  1.00  0.00     0.045 C 
ATOM     18  C   UNL A   1      34.608  17.784  24.206  1.00  0.00     0.015 C 
ATOM     19  C   UNL A   1      32.530  17.910  25.561  1.00  0.00     0.264 C 
ATOM     20  C   UNL A   1      34.288  16.304  23.955  1.00  0.00     0.062 C 
ATOM     21  N   UNL A   1      32.182  16.520  25.276  1.00  0.00    -0.346 N 
ATOM     22  C   UNL A   1      33.389  15.717  25.048  1.00  0.00     0.260 C 
ATOM     23  H   UNL A   1      31.669  16.134  26.068  1.00  0.00     0.346 HD
ATOM     24  H   UNL A   1      31.607  16.493  24.434  1.00  0.00     0.346 HD
ENDBRANCH  16  17
ENDBRANCH  15  16
ENDBRANCH  13  15
ENDBRANCH   7  13
ENDBRANCH   6   7
ENDBRANCH   4   6
ENDBRANCH   1   2
BRANCH   1  25
ATOM     25  C   UNL A   1      37.156  20.453  24.961  1.00  0.00     0.023 C 
BRANCH  25  26
ATOM     26  C   UNL A   1      38.325  19.467  24.989  1.00  0.00     0.023 C 
BRANCH  26  27
ATOM     27  C   UNL A   1      39.463  19.814  25.945  1.00  0.00     0.116 C 
BRANCH  27  28
ATOM     28  N   UNL A   1      40.582  18.889  25.879  1.00  0.00    -0.352 N 
ATOM     29  C   UNL A   1      41.930  19.120  26.031  1.00  0.00     0.251 C 
ATOM     30  H   UNL A   1      40.337  17.952  25.698  1.00  0.00     0.163 HD
ATOM     31  O   UNL A   1      42.733  18.221  25.821  1.00  0.00    -0.269 OA
BRANCH  29  32
ATOM     32  C   UNL A   1      42.424  20.465  26.413  1.00  0.00     0.039 A 
ATOM     33  C   UNL A   1      42.922  21.304  25.410  1.00  0.00     0.014 A 
ATOM     34  C   UNL A   1      42.413  20.901  27.740  1.00  0.00     0.014 A 
ATOM     35  C   UNL A   1      43.334  22.601  25.727  1.00  0.00     0.010 A 
ATOM     36  C   UNL A   1      42.751  22.219  28.042  1.00  0.00     0.010 A 
ATOM     37  C   UNL A   1      43.212  23.087  27.039  1.00  0.00    -0.014 A 
BRANCH  37  38
ATOM     38  C   UNL A   1      43.544  24.498  27.373  1.00  0.00     0.031 A 
ATOM     39  C   UNL A   1      44.976  24.958  27.408  1.00  0.00     0.074 A 
ATOM     40  C   UNL A   1      42.558  25.355  27.708  1.00  0.00     0.049 A 
ATOM     41  N   UNL A   1      45.465  26.125  27.745  1.00  0.00    -0.248 NA
ATOM     42  C   UNL A   1      45.998  23.965  27.040  1.00  0.00     0.031 C 
ATOM     43  C   UNL A   1      41.133  25.027  27.751  1.00  0.00     0.029 A 
ATOM     44  N   UNL A   1      42.605  26.675  28.085  1.00  0.00    -0.354 N 
ATOM     45  C   UNL A   1      46.845  26.004  27.642  1.00  0.00     0.074 A 
ATOM     46  C   UNL A   1      47.119  24.634  27.264  1.00  0.00     0.031 C 
ATOM     47  C   UNL A   1      40.440  26.121  28.106  1.00  0.00     0.029 A 
ATOM     48  C   UNL A   1      41.372  27.215  28.361  1.00  0.00     0.049 A 
ATOM     49  H   UNL A   1      43.444  27.186  28.150  1.00  0.00     0.167 HD
ATOM     50  C   UNL A   1      47.795  26.953  27.824  1.00  0.00     0.037 A 
ATOM     51  C   UNL A   1      41.031  28.449  28.782  1.00  0.00     0.037 A 
ATOM     52  C   UNL A   1      47.516  28.322  28.177  1.00  0.00     0.049 A 
ATOM     53  C   UNL A   1      42.109  29.475  29.002  1.00  0.00     0.074 A 
ATOM     54  C   UNL A   1      48.408  29.372  28.324  1.00  0.00     0.029 A 
ATOM     55  N   UNL A   1      46.255  28.831  28.447  1.00  0.00    -0.354 N 
ATOM     56  N   UNL A   1      43.404  29.366  28.834  1.00  0.00    -0.248 NA
ATOM     57  C   UNL A   1      41.675  30.801  29.467  1.00  0.00     0.031 C 
ATOM     58  C   UNL A   1      47.693  30.498  28.741  1.00  0.00     0.029 A 
ATOM     59  C   UNL A   1      46.348  30.170  28.789  1.00  0.00     0.049 A 
ATOM     60  H   UNL A   1      45.417  28.316  28.400  1.00  0.00     0.167 HD
ATOM     61  C   UNL A   1      43.935  30.614  29.137  1.00  0.00     0.074 A 
ATOM     62  C   UNL A   1      42.819  31.469  29.486  1.00  0.00     0.031 C 
ATOM     63  C   UNL A   1      45.230  31.015  29.126  1.00  0.00     0.037 A 
BRANCH  50  64
ATOM     64  C   UNL A   1      49.231  26.546  27.652  1.00  0.00     0.064 A 
ATOM     65  C   UNL A   1      49.818  26.423  26.383  1.00  0.00     0.173 A 
ATOM     66  C   UNL A   1      50.045  26.323  28.773  1.00  0.00     0.173 A 
ATOM     67  F   UNL A   1      49.083  26.617  25.278  1.00  0.00    -0.203 F 
ATOM     68  C   UNL A   1      51.156  26.061  26.244  1.00  0.00     0.198 A 
ATOM     69  C   UNL A   1      51.391  25.995  28.630  1.00  0.00     0.198 A 
ATOM     70  F   UNL A   1      49.538  26.434  30.011  1.00  0.00    -0.203 F 
ATOM     71  F   UNL A   1      51.680  25.899  25.020  1.00  0.00    -0.200 F 
ATOM     72  C   UNL A   1      51.943  25.857  27.366  1.00  0.00     0.200 A 
ATOM     73  F   UNL A   1      52.154  25.813  29.718  1.00  0.00    -0.200 F 
ATOM     74  F   UNL A   1      53.232  25.518  27.230  1.00  0.00    -0.200 F 
ENDBRANCH  50  64
BRANCH  51  75
ATOM     75  C   UNL A   1      39.601  28.790  29.010  1.00  0.00     0.064 A 
ATOM     76  C   UNL A   1      38.808  29.301  27.972  1.00  0.00     0.173 A 
ATOM     77  C   UNL A   1      39.002  28.635  30.268  1.00  0.00     0.173 A 
ATOM     78  F   UNL A   1      39.340  29.489  26.754  1.00  0.00    -0.203 F 
ATOM     79  C   UNL A   1      37.481  29.668  28.189  1.00  0.00     0.198 A 
ATOM     80  C   UNL A   1      37.665  28.971  30.478  1.00  0.00     0.198 A 
ATOM     81  F   UNL A   1      39.714  28.147  31.296  1.00  0.00    -0.203 F 
ATOM     82  F   UNL A   1      36.765  30.205  27.193  1.00  0.00    -0.200 F 
ATOM     83  C   UNL A   1      36.910  29.497  29.442  1.00  0.00     0.200 A 
ATOM     84  F   UNL A   1      37.113  28.789  31.685  1.00  0.00    -0.200 F 
ATOM     85  F   UNL A   1      35.634  29.849  29.651  1.00  0.00    -0.200 F 
ENDBRANCH  51  75
BRANCH  63  86
ATOM     86  C   UNL A   1      45.512  32.454  29.458  1.00  0.00     0.064 A 
ATOM     87  C   UNL A   1      45.496  33.457  28.478  1.00  0.00     0.173 A 
ATOM     88  C   UNL A   1      45.763  32.838  30.784  1.00  0.00     0.173 A 
ATOM     89  F   UNL A   1      45.275  33.143  27.191  1.00  0.00    -0.203 F 
ATOM     90  C   UNL A   1      45.751  34.786  28.808  1.00  0.00     0.198 A 
ATOM     91  C   UNL A   1      45.982  34.173  31.116  1.00  0.00     0.198 A 
ATOM     92  F   UNL A   1      45.782  31.921  31.762  1.00  0.00    -0.203 F 
ATOM     93  F   UNL A   1      45.784  35.719  27.846  1.00  0.00    -0.200 F 
ATOM     94  C   UNL A   1      45.985  35.144  30.127  1.00  0.00     0.200 A 
ATOM     95  F   UNL A   1      46.191  34.518  32.395  1.00  0.00    -0.200 F 
ATOM     96  F   UNL A   1      46.220  36.424  30.445  1.00  0.00    -0.200 F 
ENDBRANCH  63  86
ENDBRANCH  37  38
ENDBRANCH  29  32
ENDBRANCH  27  28
ENDBRANCH  26  27
ENDBRANCH  25  26
ENDBRANCH   1  25
TORSDOF 18
ENDMDL
MODEL 3
REMARK VINA RESULT:     -11.3      6.385     11.804
REMARK SMILES O=C(CN(CC(F)(F)F)C(=O)CC[C@H]1CCC[NH2+]C1)NCCCCNC(=O)c1ccc(-c2c3nc(c(-c4c(F)c(F)c(F)c(F)c4F)c4ccc([nH]4)c(-c4c(F)c(F)c(F)c(F)c4F)c4nc(c(-c5c(F)c(F)c(F)c(F)c5F)c5ccc2[nH]5)C=C4)C=C3)cc1
REMARK SMILES IDX 21 1 20 2 1 3 2 4 3 6 4 7 5 8 6 9 7 10 8 11 9 12 10 13 11 14
REMARK SMILES IDX 12 15 13 16 14 17 15 18 19 19 16 20 18 21 17 22 22 25 23 26
REMARK SMILES IDX 24 27 25 28 26 29 27 31 28 32 29 33 90 34 30 35 89 36 31 37
REMARK SMILES IDX 32 38 33 39 83 40 34 41 88 42 82 43 84 44 35 45 87 46 81 47
REMARK SMILES IDX 80 48 36 50 68 51 48 52 67 53 49 54 52 55 66 56 85 57 50 58
REMARK SMILES IDX 51 59 65 61 86 62 53 63 37 64 38 65 46 66 39 67 40 68 44 69
REMARK SMILES IDX 47 70 41 71 42 72 45 73 43 74 69 75 70 76 78 77 71 78 72 79
REMARK SMILES IDX 76 80 79 81 73 82 74 83 77 84 75 85 54 86 55 87 63 88 56 89
REMARK SMILES IDX 57 90 61 91 64 92 58 93 59 94 62 95 60 96
REMARK H PARENT 20 5 18 23 18 24 25 30 84 49 52 60
REMARK Flexibility Score: inf
ROOT
ATOM      1  C   UNL A   1      37.324  21.826  25.745  1.00  0.00     0.116 C 
ENDROOT
BRANCH   1   2
ATOM      2  N   UNL A   1      36.070  22.270  26.329  1.00  0.00    -0.355 N 
ATOM      3  O   UNL A   1      35.977  24.248  25.187  1.00  0.00    -0.273 OA
ATOM      4  C   UNL A   1      35.408  23.384  25.853  1.00  0.00     0.239 C 
ATOM      5  H   UNL A   1      35.684  21.765  27.079  1.00  0.00     0.163 HD
BRANCH   4   6
ATOM      6  C   UNL A   1      33.971  23.599  26.382  1.00  0.00     0.219 C 
BRANCH   6   7
ATOM      7  N   UNL A   1      32.836  23.352  25.457  1.00  0.00    -0.324 N 
BRANCH   7   8
ATOM      8  C   UNL A   1      32.666  24.358  24.366  1.00  0.00     0.235 C 
BRANCH   8   9
ATOM      9  C   UNL A   1      33.294  24.165  22.977  1.00  0.00     0.406 C 
ATOM     10  F   UNL A   1      34.386  24.917  22.759  1.00  0.00    -0.169 F 
ATOM     11  F   UNL A   1      33.694  22.875  22.840  1.00  0.00    -0.169 F 
ATOM     12  F   UNL A   1      32.405  24.415  21.992  1.00  0.00    -0.169 F 
ENDBRANCH   8   9
ENDBRANCH   7   8
BRANCH   7  13
ATOM     13  C   UNL A   1      32.181  22.137  25.657  1.00  0.00     0.223 C 
ATOM     14  O   UNL A   1      30.949  22.123  25.773  1.00  0.00    -0.275 OA
BRANCH  13  15
ATOM     15  C   UNL A   1      32.885  20.785  25.754  1.00  0.00     0.101 C 
BRANCH  15  16
ATOM     16  C   UNL A   1      33.648  20.249  24.530  1.00  0.00     0.019 C 
BRANCH  16  17
ATOM     17  C   UNL A   1      33.454  18.751  24.305  1.00  0.00     0.045 C 
ATOM     18  C   UNL A   1      34.729  17.907  24.250  1.00  0.00     0.015 C 
ATOM     19  C   UNL A   1      32.529  18.158  25.375  1.00  0.00     0.264 C 
ATOM     20  C   UNL A   1      34.328  16.465  23.910  1.00  0.00     0.062 C 
ATOM     21  N   UNL A   1      32.111  16.809  25.002  1.00  0.00    -0.346 N 
ATOM     22  C   UNL A   1      33.271  15.920  24.876  1.00  0.00     0.260 C 
ATOM     23  H   UNL A   1      31.485  16.443  25.718  1.00  0.00     0.346 HD
ATOM     24  H   UNL A   1      31.633  16.853  24.102  1.00  0.00     0.346 HD
ENDBRANCH  16  17
ENDBRANCH  15  16
ENDBRANCH  13  15
ENDBRANCH   7  13
ENDBRANCH   6   7
ENDBRANCH   4   6
ENDBRANCH   1   2
BRANCH   1  25
ATOM     25  C   UNL A   1      37.183  20.599  24.847  1.00  0.00     0.023 C 
BRANCH  25  26
ATOM     26  C   UNL A   1      38.416  19.697  24.776  1.00  0.00     0.023 C 
BRANCH  26  27
ATOM     27  C   UNL A   1      39.404  19.828  25.932  1.00  0.00     0.116 C 
BRANCH  27  28
ATOM     28  N   UNL A   1      40.471  18.843  25.902  1.00  0.00    -0.352 N 
ATOM     29  C   UNL A   1      41.830  19.007  26.046  1.00  0.00     0.251 C 
ATOM     30  H   UNL A   1      40.176  17.914  25.755  1.00  0.00     0.163 HD
ATOM     31  O   UNL A   1      42.583  18.059  25.871  1.00  0.00    -0.269 OA
BRANCH  29  32
ATOM     32  C   UNL A   1      42.395  20.337  26.378  1.00  0.00     0.039 A 
ATOM     33  C   UNL A   1      43.066  21.047  25.377  1.00  0.00     0.014 A 
ATOM     34  C   UNL A   1      42.285  20.882  27.660  1.00  0.00     0.014 A 
ATOM     35  C   UNL A   1      43.553  22.331  25.639  1.00  0.00     0.010 A 
ATOM     36  C   UNL A   1      42.702  22.191  27.897  1.00  0.00     0.010 A 
ATOM     37  C   UNL A   1      43.337  22.933  26.889  1.00  0.00    -0.014 A 
BRANCH  37  38
ATOM     38  C   UNL A   1      43.754  24.337  27.150  1.00  0.00     0.031 A 
ATOM     39  C   UNL A   1      42.761  25.346  27.658  1.00  0.00     0.074 A 
ATOM     40  C   UNL A   1      45.016  24.722  26.870  1.00  0.00     0.049 A 
ATOM     41  N   UNL A   1      42.918  26.628  27.877  1.00  0.00    -0.248 NA
ATOM     42  C   UNL A   1      41.401  24.856  27.932  1.00  0.00     0.031 C 
ATOM     43  C   UNL A   1      46.066  23.853  26.339  1.00  0.00     0.029 A 
ATOM     44  N   UNL A   1      45.627  25.946  26.985  1.00  0.00    -0.354 N 
ATOM     45  C   UNL A   1      41.682  27.096  28.299  1.00  0.00     0.074 A 
ATOM     46  C   UNL A   1      40.769  25.974  28.255  1.00  0.00     0.031 C 
ATOM     47  C   UNL A   1      47.197  24.562  26.199  1.00  0.00     0.029 A 
ATOM     48  C   UNL A   1      46.942  25.947  26.586  1.00  0.00     0.049 A 
ATOM     49  H   UNL A   1      45.167  26.748  27.323  1.00  0.00     0.167 HD
ATOM     50  C   UNL A   1      41.343  28.344  28.708  1.00  0.00     0.037 A 
ATOM     51  C   UNL A   1      47.840  26.950  26.528  1.00  0.00     0.037 A 
ATOM     52  C   UNL A   1      42.259  29.453  28.774  1.00  0.00     0.049 A 
ATOM     53  C   UNL A   1      47.428  28.331  26.963  1.00  0.00     0.074 A 
ATOM     54  C   UNL A   1      42.024  30.738  29.233  1.00  0.00     0.029 A 
ATOM     55  N   UNL A   1      43.583  29.414  28.362  1.00  0.00    -0.354 N 
ATOM     56  N   UNL A   1      46.273  28.745  27.426  1.00  0.00    -0.248 NA
ATOM     57  C   UNL A   1      48.449  29.386  26.871  1.00  0.00     0.031 C 
ATOM     58  C   UNL A   1      43.187  31.491  29.042  1.00  0.00     0.029 A 
ATOM     59  C   UNL A   1      44.167  30.659  28.527  1.00  0.00     0.049 A 
ATOM     60  H   UNL A   1      44.040  28.617  28.007  1.00  0.00     0.167 HD
ATOM     61  C   UNL A   1      46.439  30.094  27.714  1.00  0.00     0.074 A 
ATOM     62  C   UNL A   1      47.809  30.426  27.385  1.00  0.00     0.031 C 
ATOM     63  C   UNL A   1      45.536  30.977  28.206  1.00  0.00     0.037 A 
BRANCH  50  64
ATOM     64  C   UNL A   1      39.915  28.582  29.113  1.00  0.00     0.064 A 
ATOM     65  C   UNL A   1      39.471  28.358  30.426  1.00  0.00     0.173 A 
ATOM     66  C   UNL A   1      38.989  29.087  28.187  1.00  0.00     0.173 A 
ATOM     67  F   UNL A   1      40.313  27.868  31.349  1.00  0.00    -0.203 F 
ATOM     68  C   UNL A   1      38.148  28.601  30.787  1.00  0.00     0.198 A 
ATOM     69  C   UNL A   1      37.676  29.361  28.561  1.00  0.00     0.198 A 
ATOM     70  F   UNL A   1      39.361  29.326  26.920  1.00  0.00    -0.203 F 
ATOM     71  F   UNL A   1      37.735  28.330  32.033  1.00  0.00    -0.200 F 
ATOM     72  C   UNL A   1      37.254  29.110  29.858  1.00  0.00     0.200 A 
ATOM     73  F   UNL A   1      36.818  29.868  27.664  1.00  0.00    -0.200 F 
ATOM     74  F   UNL A   1      35.985  29.352  30.209  1.00  0.00    -0.200 F 
ENDBRANCH  50  64
BRANCH  51  75
ATOM     75  C   UNL A   1      49.224  26.687  26.052  1.00  0.00     0.064 A 
ATOM     76  C   UNL A   1      50.204  26.193  26.926  1.00  0.00     0.173 A 
ATOM     77  C   UNL A   1      49.605  26.941  24.726  1.00  0.00     0.173 A 
ATOM     78  F   UNL A   1      49.896  25.954  28.210  1.00  0.00    -0.203 F 
ATOM     79  C   UNL A   1      51.515  25.989  26.500  1.00  0.00     0.198 A 
ATOM     80  C   UNL A   1      50.908  26.705  24.292  1.00  0.00     0.198 A 
ATOM     81  F   UNL A   1      48.706  27.411  23.847  1.00  0.00    -0.203 F 
ATOM     82  F   UNL A   1      52.443  25.569  27.370  1.00  0.00    -0.200 F 
ATOM     83  C   UNL A   1      51.864  26.240  25.181  1.00  0.00     0.200 A 
ATOM     84  F   UNL A   1      51.237  26.935  23.013  1.00  0.00    -0.200 F 
ATOM     85  F   UNL A   1      53.125  26.042  24.770  1.00  0.00    -0.200 F 
ENDBRANCH  51  75
BRANCH  63  86
ATOM     86  C   UNL A   1      46.010  32.380  28.465  1.00  0.00     0.064 A 
ATOM     87  C   UNL A   1      46.637  32.741  29.667  1.00  0.00     0.173 A 
ATOM     88  C   UNL A   1      45.869  33.368  27.477  1.00  0.00     0.173 A 
ATOM     89  F   UNL A   1      46.783  31.838  30.650  1.00  0.00    -0.203 F 
ATOM     90  C   UNL A   1      47.077  34.044  29.883  1.00  0.00     0.198 A 
ATOM     91  C   UNL A   1      46.343  34.661  27.683  1.00  0.00     0.198 A 
ATOM     92  F   UNL A   1      45.285  33.075  26.306  1.00  0.00    -0.203 F 
ATOM     93  F   UNL A   1      47.623  34.378  31.060  1.00  0.00    -0.200 F 
ATOM     94  C   UNL A   1      46.938  35.000  28.888  1.00  0.00     0.200 A 
ATOM     95  F   UNL A   1      46.223  35.579  26.713  1.00  0.00    -0.200 F 
ATOM     96  F   UNL A   1      47.371  36.252  29.094  1.00  0.00    -0.200 F 
ENDBRANCH  63  86
ENDBRANCH  37  38
ENDBRANCH  29  32
ENDBRANCH  27  28
ENDBRANCH  26  27
ENDBRANCH  25  26
ENDBRANCH   1  25
TORSDOF 18
ENDMDL
