MODEL 1
REMARK VINA RESULT:     -11.3      0.000      0.000
REMARK SMILES C/C=C/C=C/C(=O)N[C@@](C)(C(=O)NCCCCNC(=O)c1ccc(-c2c3nc(c(-c4c(F)c(F)c(F)c(F)c4F)c4ccc([nH]4)c(-c4c(F)c(F)c(F)c(F)c4F)c4nc(c(-c5c(F)c(F)c(F)c(F)c5F)c5ccc2[nH]5)C=C4)C=C3)cc1)C(F)(F)F
REMARK SMILES IDX 15 1 14 2 13 3 11 4 12 5 9 7 10 8 8 9 6 10 7 11 5 13 4 14
REMARK SMILES IDX 3 15 1 16 2 17 84 18 85 19 86 20 87 21 16 22 17 23 18 24
REMARK SMILES IDX 19 25 20 27 21 28 22 29 83 30 23 31 82 32 24 33 25 34 26 35
REMARK SMILES IDX 76 36 27 37 81 38 75 39 77 40 28 41 80 42 74 43 73 44 29 46
REMARK SMILES IDX 61 47 41 48 60 49 42 50 45 51 59 52 78 53 43 54 44 55 58 57
REMARK SMILES IDX 79 58 46 59 30 60 31 61 39 62 32 63 33 64 37 65 40 66 34 67
REMARK SMILES IDX 35 68 38 69 36 70 62 71 63 72 71 73 64 74 65 75 69 76 72 77
REMARK SMILES IDX 66 78 67 79 70 80 68 81 47 82 48 83 56 84 49 85 50 86 54 87
REMARK SMILES IDX 57 88 51 89 52 90 55 91 53 92
REMARK H PARENT 13 6 8 12 18 26 77 45 45 56
REMARK Flexibility Score: inf
ROOT
ATOM      1  C   UNL A   1      31.509  30.394  26.576  1.00  0.00     0.023 C 
ENDROOT
BRANCH   1   2
ATOM      2  C   UNL A   1      32.316  29.852  25.400  1.00  0.00     0.116 C 
BRANCH   2   3
ATOM      3  N   UNL A   1      31.479  29.704  24.227  1.00  0.00    -0.354 N 
ATOM      4  C   UNL A   1      31.351  28.745  23.275  1.00  0.00     0.254 C 
ATOM      5  O   UNL A   1      30.663  29.093  22.309  1.00  0.00    -0.272 OA
ATOM      6  H   UNL A   1      30.869  30.466  24.090  1.00  0.00     0.163 HD
BRANCH   4   7
ATOM      7  C   UNL A   1      32.045  27.368  23.350  1.00  0.00     0.212 C 
ATOM      8  C   UNL A   1      31.491  26.360  22.320  1.00  0.00     0.056 C 
BRANCH   7   9
ATOM      9  N   UNL A   1      31.731  26.805  24.721  1.00  0.00    -0.331 N 
ATOM     10  C   UNL A   1      32.280  26.119  25.745  1.00  0.00     0.245 C 
ATOM     11  O   UNL A   1      31.625  26.081  26.790  1.00  0.00    -0.270 OA
ATOM     12  H   UNL A   1      30.795  27.011  24.942  1.00  0.00     0.165 HD
BRANCH  10  13
ATOM     13  C   UNL A   1      33.595  25.466  25.728  1.00  0.00     0.071 C 
ATOM     14  C   UNL A   1      33.942  24.552  24.821  1.00  0.00     0.005 C 
BRANCH  14  15
ATOM     15  C   UNL A   1      35.261  23.986  24.674  1.00  0.00    -0.004 C 
ATOM     16  C   UNL A   1      37.491  23.480  25.759  1.00  0.00     0.035 C 
ATOM     17  C   UNL A   1      36.096  23.997  25.727  1.00  0.00    -0.030 C 
ENDBRANCH  14  15
ENDBRANCH  10  13
ENDBRANCH   7   9
BRANCH   7  18
ATOM     18  C   UNL A   1      33.482  27.688  22.864  1.00  0.00     0.420 C 
ATOM     19  F   UNL A   1      34.344  28.007  23.846  1.00  0.00    -0.168 F 
ATOM     20  F   UNL A   1      34.005  26.646  22.165  1.00  0.00    -0.168 F 
ATOM     21  F   UNL A   1      33.482  28.714  21.967  1.00  0.00    -0.168 F 
ENDBRANCH   7  18
ENDBRANCH   4   7
ENDBRANCH   2   3
ENDBRANCH   1   2
BRANCH   1  22
ATOM     22  C   UNL A   1      31.418  31.919  26.647  1.00  0.00     0.023 C 
BRANCH  22  23
ATOM     23  C   UNL A   1      32.725  32.625  26.980  1.00  0.00     0.116 C 
BRANCH  23  24
ATOM     24  N   UNL A   1      32.515  33.952  27.532  1.00  0.00    -0.352 N 
ATOM     25  C   UNL A   1      33.158  34.568  28.577  1.00  0.00     0.251 C 
ATOM     26  H   UNL A   1      31.814  34.485  27.094  1.00  0.00     0.163 HD
ATOM     27  O   UNL A   1      32.742  35.633  29.013  1.00  0.00    -0.269 OA
BRANCH  25  28
ATOM     28  C   UNL A   1      34.343  33.929  29.186  1.00  0.00     0.039 A 
ATOM     29  C   UNL A   1      34.154  32.830  30.026  1.00  0.00     0.014 A 
ATOM     30  C   UNL A   1      35.629  34.413  28.937  1.00  0.00     0.014 A 
ATOM     31  C   UNL A   1      35.262  32.195  30.588  1.00  0.00     0.010 A 
ATOM     32  C   UNL A   1      36.735  33.722  29.419  1.00  0.00     0.010 A 
ATOM     33  C   UNL A   1      36.563  32.622  30.273  1.00  0.00    -0.014 A 
BRANCH  33  34
ATOM     34  C   UNL A   1      37.747  31.963  30.878  1.00  0.00     0.031 A 
ATOM     35  C   UNL A   1      38.188  32.336  32.268  1.00  0.00     0.074 A 
ATOM     36  C   UNL A   1      38.441  31.050  30.171  1.00  0.00     0.049 A 
ATOM     37  N   UNL A   1      39.196  31.882  32.969  1.00  0.00    -0.248 NA
ATOM     38  C   UNL A   1      37.411  33.383  32.950  1.00  0.00     0.031 C 
ATOM     39  C   UNL A   1      38.147  30.643  28.796  1.00  0.00     0.029 A 
ATOM     40  N   UNL A   1      39.537  30.298  30.512  1.00  0.00    -0.354 N 
ATOM     41  C   UNL A   1      39.176  32.592  34.163  1.00  0.00     0.074 A 
ATOM     42  C   UNL A   1      38.106  33.559  34.063  1.00  0.00     0.031 C 
ATOM     43  C   UNL A   1      39.016  29.689  28.424  1.00  0.00     0.029 A 
ATOM     44  C   UNL A   1      39.950  29.443  29.519  1.00  0.00     0.049 A 
ATOM     45  H   UNL A   1      39.985  30.365  31.387  1.00  0.00     0.167 HD
ATOM     46  C   UNL A   1      39.956  32.432  35.258  1.00  0.00     0.037 A 
ATOM     47  C   UNL A   1      40.963  28.558  29.500  1.00  0.00     0.037 A 
ATOM     48  C   UNL A   1      41.007  31.453  35.361  1.00  0.00     0.049 A 
ATOM     49  C   UNL A   1      41.816  28.398  30.731  1.00  0.00     0.074 A 
ATOM     50  C   UNL A   1      41.825  31.175  36.440  1.00  0.00     0.029 A 
ATOM     51  N   UNL A   1      41.384  30.593  34.341  1.00  0.00    -0.354 N 
ATOM     52  N   UNL A   1      41.742  29.024  31.881  1.00  0.00    -0.248 NA
ATOM     53  C   UNL A   1      42.886  27.393  30.664  1.00  0.00     0.031 C 
ATOM     54  C   UNL A   1      42.735  30.184  36.056  1.00  0.00     0.029 A 
ATOM     55  C   UNL A   1      42.437  29.796  34.760  1.00  0.00     0.049 A 
ATOM     56  H   UNL A   1      40.966  30.554  33.450  1.00  0.00     0.167 HD
ATOM     57  C   UNL A   1      42.725  28.462  32.686  1.00  0.00     0.074 A 
ATOM     58  C   UNL A   1      43.370  27.434  31.897  1.00  0.00     0.031 C 
ATOM     59  C   UNL A   1      43.062  28.767  33.964  1.00  0.00     0.037 A 
BRANCH  46  60
ATOM     60  C   UNL A   1      39.699  33.334  36.431  1.00  0.00     0.064 A 
ATOM     61  C   UNL A   1      40.322  34.588  36.551  1.00  0.00     0.173 A 
ATOM     62  C   UNL A   1      38.800  32.954  37.440  1.00  0.00     0.173 A 
ATOM     63  F   UNL A   1      41.201  34.996  35.623  1.00  0.00    -0.203 F 
ATOM     64  C   UNL A   1      40.085  35.406  37.652  1.00  0.00     0.198 A 
ATOM     65  C   UNL A   1      38.537  33.792  38.522  1.00  0.00     0.198 A 
ATOM     66  F   UNL A   1      38.172  31.771  37.377  1.00  0.00    -0.203 F 
ATOM     67  F   UNL A   1      40.741  36.570  37.774  1.00  0.00    -0.200 F 
ATOM     68  C   UNL A   1      39.187  35.012  38.632  1.00  0.00     0.200 A 
ATOM     69  F   UNL A   1      37.658  33.416  39.460  1.00  0.00    -0.200 F 
ATOM     70  F   UNL A   1      38.955  35.805  39.688  1.00  0.00    -0.200 F 
ENDBRANCH  46  60
BRANCH  47  71
ATOM     71  C   UNL A   1      41.206  27.726  28.291  1.00  0.00     0.064 A 
ATOM     72  C   UNL A   1      40.626  26.456  28.159  1.00  0.00     0.173 A 
ATOM     73  C   UNL A   1      42.034  28.174  27.252  1.00  0.00     0.173 A 
ATOM     74  F   UNL A   1      39.840  25.976  29.134  1.00  0.00    -0.203 F 
ATOM     75  C   UNL A   1      40.889  25.654  27.052  1.00  0.00     0.198 A 
ATOM     76  C   UNL A   1      42.271  27.384  26.128  1.00  0.00     0.198 A 
ATOM     77  F   UNL A   1      42.608  29.384  27.323  1.00  0.00    -0.203 F 
ATOM     78  F   UNL A   1      40.368  24.422  26.981  1.00  0.00    -0.200 F 
ATOM     79  C   UNL A   1      41.708  26.121  26.035  1.00  0.00     0.200 A 
ATOM     80  F   UNL A   1      43.049  27.846  25.140  1.00  0.00    -0.200 F 
ATOM     81  F   UNL A   1      41.962  25.349  24.969  1.00  0.00    -0.200 F 
ENDBRANCH  47  71
BRANCH  59  82
ATOM     82  C   UNL A   1      44.139  27.940  34.608  1.00  0.00     0.064 A 
ATOM     83  C   UNL A   1      45.487  28.330  34.595  1.00  0.00     0.173 A 
ATOM     84  C   UNL A   1      43.811  26.741  35.260  1.00  0.00     0.173 A 
ATOM     85  F   UNL A   1      45.856  29.461  33.976  1.00  0.00    -0.203 F 
ATOM     86  C   UNL A   1      46.469  27.529  35.171  1.00  0.00     0.198 A 
ATOM     87  C   UNL A   1      44.792  25.962  35.869  1.00  0.00     0.198 A 
ATOM     88  F   UNL A   1      42.536  26.325  35.314  1.00  0.00    -0.203 F 
ATOM     89  F   UNL A   1      47.757  27.888  35.084  1.00  0.00    -0.200 F 
ATOM     90  C   UNL A   1      46.121  26.350  35.812  1.00  0.00     0.200 A 
ATOM     91  F   UNL A   1      44.449  24.834  36.505  1.00  0.00    -0.200 F 
ATOM     92  F   UNL A   1      47.068  25.580  36.366  1.00  0.00    -0.200 F 
ENDBRANCH  59  82
ENDBRANCH  33  34
ENDBRANCH  25  28
ENDBRANCH  23  24
ENDBRANCH  22  23
ENDBRANCH   1  22
TORSDOF 15
ENDMDL
MODEL 2
REMARK VINA RESULT:     -11.3      0.137      1.698
REMARK SMILES C/C=C/C=C/C(=O)N[C@@](C)(C(=O)NCCCCNC(=O)c1ccc(-c2c3nc(c(-c4c(F)c(F)c(F)c(F)c4F)c4ccc([nH]4)c(-c4c(F)c(F)c(F)c(F)c4F)c4nc(c(-c5c(F)c(F)c(F)c(F)c5F)c5ccc2[nH]5)C=C4)C=C3)cc1)C(F)(F)F
REMARK SMILES IDX 15 1 14 2 13 3 11 4 12 5 9 7 10 8 8 9 6 10 7 11 5 13 4 14
REMARK SMILES IDX 3 15 1 16 2 17 84 18 85 19 86 20 87 21 16 22 17 23 18 24
REMARK SMILES IDX 19 25 20 27 21 28 22 29 83 30 23 31 82 32 24 33 25 34 26 35
REMARK SMILES IDX 76 36 27 37 81 38 75 39 77 40 28 41 80 42 74 43 73 44 29 46
REMARK SMILES IDX 61 47 41 48 60 49 42 50 45 51 59 52 78 53 43 54 44 55 58 57
REMARK SMILES IDX 79 58 46 59 30 60 31 61 39 62 32 63 33 64 37 65 40 66 34 67
REMARK SMILES IDX 35 68 38 69 36 70 62 71 63 72 71 73 64 74 65 75 69 76 72 77
REMARK SMILES IDX 66 78 67 79 70 80 68 81 47 82 48 83 56 84 49 85 50 86 54 87
REMARK SMILES IDX 57 88 51 89 52 90 55 91 53 92
REMARK H PARENT 13 6 8 12 18 26 77 45 45 56
REMARK Flexibility Score: inf
ROOT
ATOM      1  C   UNL A   1      31.517  30.377  26.600  1.00  0.00     0.023 C 
ENDROOT
BRANCH   1   2
ATOM      2  C   UNL A   1      32.349  29.846  25.436  1.00  0.00     0.116 C 
BRANCH   2   3
ATOM      3  N   UNL A   1      31.544  29.733  24.238  1.00  0.00    -0.354 N 
ATOM      4  C   UNL A   1      31.396  28.775  23.288  1.00  0.00     0.254 C 
ATOM      5  O   UNL A   1      30.758  29.151  22.298  1.00  0.00    -0.272 OA
ATOM      6  H   UNL A   1      30.980  30.524  24.077  1.00  0.00     0.163 HD
BRANCH   4   7
ATOM      7  C   UNL A   1      32.014  27.363  23.394  1.00  0.00     0.212 C 
ATOM      8  C   UNL A   1      31.432  26.376  22.359  1.00  0.00     0.056 C 
BRANCH   7   9
ATOM      9  N   UNL A   1      31.637  26.833  24.761  1.00  0.00    -0.331 N 
ATOM     10  C   UNL A   1      32.119  26.121  25.800  1.00  0.00     0.245 C 
ATOM     11  O   UNL A   1      31.444  26.133  26.833  1.00  0.00    -0.270 OA
ATOM     12  H   UNL A   1      30.713  27.104  24.964  1.00  0.00     0.165 HD
BRANCH  10  13
ATOM     13  C   UNL A   1      33.388  25.380  25.812  1.00  0.00     0.071 C 
ATOM     14  C   UNL A   1      33.609  24.302  25.062  1.00  0.00     0.005 C 
BRANCH  14  15
ATOM     15  C   UNL A   1      34.876  23.625  24.930  1.00  0.00    -0.004 C 
ATOM     16  C   UNL A   1      37.336  23.581  25.528  1.00  0.00     0.035 C 
ATOM     17  C   UNL A   1      35.951  24.127  25.561  1.00  0.00    -0.030 C 
ENDBRANCH  14  15
ENDBRANCH  10  13
ENDBRANCH   7   9
BRANCH   7  18
ATOM     18  C   UNL A   1      33.477  27.602  22.940  1.00  0.00     0.420 C 
ATOM     19  F   UNL A   1      34.316  27.955  23.930  1.00  0.00    -0.168 F 
ATOM     20  F   UNL A   1      33.985  26.499  22.329  1.00  0.00    -0.168 F 
ATOM     21  F   UNL A   1      33.545  28.567  21.981  1.00  0.00    -0.168 F 
ENDBRANCH   7  18
ENDBRANCH   4   7
ENDBRANCH   2   3
ENDBRANCH   1   2
BRANCH   1  22
ATOM     22  C   UNL A   1      31.390  31.900  26.659  1.00  0.00     0.023 C 
BRANCH  22  23
ATOM     23  C   UNL A   1      32.697  32.644  26.897  1.00  0.00     0.116 C 
BRANCH  23  24
ATOM     24  N   UNL A   1      32.493  33.945  27.508  1.00  0.00    -0.352 N 
ATOM     25  C   UNL A   1      33.134  34.509  28.584  1.00  0.00     0.251 C 
ATOM     26  H   UNL A   1      31.798  34.503  27.092  1.00  0.00     0.163 HD
ATOM     27  O   UNL A   1      32.722  35.555  29.066  1.00  0.00    -0.269 OA
BRANCH  25  28
ATOM     28  C   UNL A   1      34.312  33.834  29.169  1.00  0.00     0.039 A 
ATOM     29  C   UNL A   1      35.584  34.319  28.859  1.00  0.00     0.014 A 
ATOM     30  C   UNL A   1      34.163  32.730  30.011  1.00  0.00     0.014 A 
ATOM     31  C   UNL A   1      36.706  33.714  29.424  1.00  0.00     0.010 A 
ATOM     32  C   UNL A   1      35.276  32.190  30.647  1.00  0.00     0.010 A 
ATOM     33  C   UNL A   1      36.561  32.658  30.339  1.00  0.00    -0.014 A 
BRANCH  33  34
ATOM     34  C   UNL A   1      37.751  31.998  30.935  1.00  0.00     0.031 A 
ATOM     35  C   UNL A   1      38.202  32.371  32.322  1.00  0.00     0.074 A 
ATOM     36  C   UNL A   1      38.440  31.087  30.222  1.00  0.00     0.049 A 
ATOM     37  N   UNL A   1      39.214  31.917  33.016  1.00  0.00    -0.248 NA
ATOM     38  C   UNL A   1      37.428  33.417  33.011  1.00  0.00     0.031 C 
ATOM     39  C   UNL A   1      38.136  30.680  28.849  1.00  0.00     0.029 A 
ATOM     40  N   UNL A   1      39.539  30.335  30.555  1.00  0.00    -0.354 N 
ATOM     41  C   UNL A   1      39.202  32.626  34.210  1.00  0.00     0.074 A 
ATOM     42  C   UNL A   1      38.131  33.593  34.119  1.00  0.00     0.031 C 
ATOM     43  C   UNL A   1      39.004  29.727  28.471  1.00  0.00     0.029 A 
ATOM     44  C   UNL A   1      39.945  29.481  29.559  1.00  0.00     0.049 A 
ATOM     45  H   UNL A   1      39.993  30.402  31.426  1.00  0.00     0.167 HD
ATOM     46  C   UNL A   1      39.990  32.466  35.300  1.00  0.00     0.037 A 
ATOM     47  C   UNL A   1      40.959  28.597  29.532  1.00  0.00     0.037 A 
ATOM     48  C   UNL A   1      41.043  31.488  35.394  1.00  0.00     0.049 A 
ATOM     49  C   UNL A   1      41.821  28.437  30.757  1.00  0.00     0.074 A 
ATOM     50  C   UNL A   1      41.869  31.209  36.467  1.00  0.00     0.029 A 
ATOM     51  N   UNL A   1      41.413  30.628  34.371  1.00  0.00    -0.354 N 
ATOM     52  N   UNL A   1      41.754  29.061  31.908  1.00  0.00    -0.248 NA
ATOM     53  C   UNL A   1      42.890  27.432  30.681  1.00  0.00     0.031 C 
ATOM     54  C   UNL A   1      42.777  30.220  36.076  1.00  0.00     0.029 A 
ATOM     55  C   UNL A   1      42.470  29.832  34.782  1.00  0.00     0.049 A 
ATOM     56  H   UNL A   1      40.988  30.590  33.483  1.00  0.00     0.167 HD
ATOM     57  C   UNL A   1      42.744  28.500  32.705  1.00  0.00     0.074 A 
ATOM     58  C   UNL A   1      43.384  27.473  31.911  1.00  0.00     0.031 C 
ATOM     59  C   UNL A   1      43.090  28.805  33.981  1.00  0.00     0.037 A 
BRANCH  46  60
ATOM     60  C   UNL A   1      39.741  33.368  36.475  1.00  0.00     0.064 A 
ATOM     61  C   UNL A   1      38.839  33.020  37.495  1.00  0.00     0.173 A 
ATOM     62  C   UNL A   1      40.427  34.585  36.599  1.00  0.00     0.173 A 
ATOM     63  F   UNL A   1      38.145  31.875  37.422  1.00  0.00    -0.203 F 
ATOM     64  C   UNL A   1      38.607  33.873  38.571  1.00  0.00     0.198 A 
ATOM     65  C   UNL A   1      40.221  35.419  37.696  1.00  0.00     0.198 A 
ATOM     66  F   UNL A   1      41.304  34.967  35.658  1.00  0.00    -0.203 F 
ATOM     67  F   UNL A   1      37.695  33.547  39.498  1.00  0.00    -0.200 F 
ATOM     68  C   UNL A   1      39.304  35.068  38.675  1.00  0.00     0.200 A 
ATOM     69  F   UNL A   1      40.905  36.566  37.802  1.00  0.00    -0.200 F 
ATOM     70  F   UNL A   1      39.085  35.885  39.715  1.00  0.00    -0.200 F 
ENDBRANCH  46  60
BRANCH  47  71
ATOM     71  C   UNL A   1      41.194  27.766  28.321  1.00  0.00     0.064 A 
ATOM     72  C   UNL A   1      40.578  26.515  28.172  1.00  0.00     0.173 A 
ATOM     73  C   UNL A   1      42.050  28.196  27.296  1.00  0.00     0.173 A 
ATOM     74  F   UNL A   1      39.764  26.052  29.133  1.00  0.00    -0.203 F 
ATOM     75  C   UNL A   1      40.833  25.712  27.062  1.00  0.00     0.198 A 
ATOM     76  C   UNL A   1      42.278  27.406  26.170  1.00  0.00     0.198 A 
ATOM     77  F   UNL A   1      42.658  29.387  27.383  1.00  0.00    -0.203 F 
ATOM     78  F   UNL A   1      40.276  24.497  26.976  1.00  0.00    -0.200 F 
ATOM     79  C   UNL A   1      41.679  26.161  26.060  1.00  0.00     0.200 A 
ATOM     80  F   UNL A   1      43.083  27.851  25.196  1.00  0.00    -0.200 F 
ATOM     81  F   UNL A   1      41.924  25.388  24.993  1.00  0.00    -0.200 F 
ENDBRANCH  47  71
BRANCH  59  82
ATOM     82  C   UNL A   1      44.172  27.977  34.617  1.00  0.00     0.064 A 
ATOM     83  C   UNL A   1      43.895  26.774  35.284  1.00  0.00     0.173 A 
ATOM     84  C   UNL A   1      45.510  28.392  34.543  1.00  0.00     0.173 A 
ATOM     85  F   UNL A   1      42.631  26.338  35.393  1.00  0.00    -0.203 F 
ATOM     86  C   UNL A   1      44.912  26.043  35.892  1.00  0.00     0.198 A 
ATOM     87  C   UNL A   1      46.529  27.637  35.119  1.00  0.00     0.198 A 
ATOM     88  F   UNL A   1      45.835  29.528  33.907  1.00  0.00    -0.203 F 
ATOM     89  F   UNL A   1      44.614  24.935  36.584  1.00  0.00    -0.200 F 
ATOM     90  C   UNL A   1      46.227  26.471  35.804  1.00  0.00     0.200 A 
ATOM     91  F   UNL A   1      47.802  28.043  35.015  1.00  0.00    -0.200 F 
ATOM     92  F   UNL A   1      47.205  25.766  36.390  1.00  0.00    -0.200 F 
ENDBRANCH  59  82
ENDBRANCH  33  34
ENDBRANCH  25  28
ENDBRANCH  23  24
ENDBRANCH  22  23
ENDBRANCH   1  22
TORSDOF 15
ENDMDL
MODEL 3
REMARK VINA RESULT:     -11.2      5.425     10.901
REMARK SMILES C/C=C/C=C/C(=O)N[C@@](C)(C(=O)NCCCCNC(=O)c1ccc(-c2c3nc(c(-c4c(F)c(F)c(F)c(F)c4F)c4ccc([nH]4)c(-c4c(F)c(F)c(F)c(F)c4F)c4nc(c(-c5c(F)c(F)c(F)c(F)c5F)c5ccc2[nH]5)C=C4)C=C3)cc1)C(F)(F)F
REMARK SMILES IDX 15 1 14 2 13 3 11 4 12 5 9 7 10 8 8 9 6 10 7 11 5 13 4 14
REMARK SMILES IDX 3 15 1 16 2 17 84 18 85 19 86 20 87 21 16 22 17 23 18 24
REMARK SMILES IDX 19 25 20 27 21 28 22 29 83 30 23 31 82 32 24 33 25 34 26 35
REMARK SMILES IDX 76 36 27 37 81 38 75 39 77 40 28 41 80 42 74 43 73 44 29 46
REMARK SMILES IDX 61 47 41 48 60 49 42 50 45 51 59 52 78 53 43 54 44 55 58 57
REMARK SMILES IDX 79 58 46 59 30 60 31 61 39 62 32 63 33 64 37 65 40 66 34 67
REMARK SMILES IDX 35 68 38 69 36 70 62 71 63 72 71 73 64 74 65 75 69 76 72 77
REMARK SMILES IDX 66 78 67 79 70 80 68 81 47 82 48 83 56 84 49 85 50 86 54 87
REMARK SMILES IDX 57 88 51 89 52 90 55 91 53 92
REMARK H PARENT 13 6 8 12 18 26 77 45 45 56
REMARK Flexibility Score: inf
ROOT
ATOM      1  C   UNL A   1      37.363  20.822  24.485  1.00  0.00     0.023 C 
ENDROOT
BRANCH   1   2
ATOM      2  C   UNL A   1      36.336  21.333  25.493  1.00  0.00     0.116 C 
BRANCH   2   3
ATOM      3  N   UNL A   1      35.154  20.497  25.491  1.00  0.00    -0.354 N 
ATOM      4  C   UNL A   1      33.823  20.746  25.589  1.00  0.00     0.254 C 
ATOM      5  O   UNL A   1      33.140  19.731  25.761  1.00  0.00    -0.272 OA
ATOM      6  H   UNL A   1      35.360  19.538  25.399  1.00  0.00     0.163 HD
BRANCH   4   7
ATOM      7  C   UNL A   1      33.214  22.165  25.553  1.00  0.00     0.212 C 
ATOM      8  C   UNL A   1      31.681  22.153  25.367  1.00  0.00     0.056 C 
BRANCH   7   9
ATOM      9  N   UNL A   1      33.795  22.849  24.334  1.00  0.00    -0.331 N 
ATOM     10  C   UNL A   1      34.239  24.043  23.889  1.00  0.00     0.245 C 
ATOM     11  O   UNL A   1      34.836  24.036  22.809  1.00  0.00    -0.270 OA
ATOM     12  H   UNL A   1      33.877  22.189  23.608  1.00  0.00     0.165 HD
BRANCH  10  13
ATOM     13  C   UNL A   1      34.109  25.321  24.601  1.00  0.00     0.071 C 
ATOM     14  C   UNL A   1      32.939  25.927  24.801  1.00  0.00     0.005 C 
BRANCH  14  15
ATOM     15  C   UNL A   1      32.740  27.105  25.611  1.00  0.00    -0.004 C 
ATOM     16  C   UNL A   1      31.613  28.129  27.634  1.00  0.00     0.035 C 
ATOM     17  C   UNL A   1      31.950  27.024  26.694  1.00  0.00    -0.030 C 
ENDBRANCH  14  15
ENDBRANCH  10  13
ENDBRANCH   7   9
BRANCH   7  18
ATOM     18  C   UNL A   1      33.438  22.663  27.005  1.00  0.00     0.420 C 
ATOM     19  F   UNL A   1      33.396  21.696  27.938  1.00  0.00    -0.168 F 
ATOM     20  F   UNL A   1      34.627  23.311  27.121  1.00  0.00    -0.168 F 
ATOM     21  F   UNL A   1      32.518  23.607  27.349  1.00  0.00    -0.168 F 
ENDBRANCH   7  18
ENDBRANCH   4   7
ENDBRANCH   2   3
ENDBRANCH   1   2
BRANCH   1  22
ATOM     22  C   UNL A   1      38.188  19.625  24.958  1.00  0.00     0.023 C 
BRANCH  22  23
ATOM     23  C   UNL A   1      39.232  19.945  26.020  1.00  0.00     0.116 C 
BRANCH  23  24
ATOM     24  N   UNL A   1      40.395  19.078  25.936  1.00  0.00    -0.352 N 
ATOM     25  C   UNL A   1      41.726  19.403  26.012  1.00  0.00     0.251 C 
ATOM     26  H   UNL A   1      40.200  18.122  25.807  1.00  0.00     0.163 HD
ATOM     27  O   UNL A   1      42.579  18.564  25.758  1.00  0.00    -0.269 OA
BRANCH  25  28
ATOM     28  C   UNL A   1      42.123  20.778  26.382  1.00  0.00     0.039 A 
ATOM     29  C   UNL A   1      42.300  21.720  25.367  1.00  0.00     0.014 A 
ATOM     30  C   UNL A   1      42.326  21.133  27.717  1.00  0.00     0.014 A 
ATOM     31  C   UNL A   1      42.647  23.030  25.698  1.00  0.00     0.010 A 
ATOM     32  C   UNL A   1      42.577  22.459  28.051  1.00  0.00     0.010 A 
ATOM     33  C   UNL A   1      42.768  23.416  27.043  1.00  0.00    -0.014 A 
BRANCH  33  34
ATOM     34  C   UNL A   1      43.151  24.804  27.405  1.00  0.00     0.031 A 
ATOM     35  C   UNL A   1      44.561  25.280  27.172  1.00  0.00     0.074 A 
ATOM     36  C   UNL A   1      42.244  25.627  27.966  1.00  0.00     0.049 A 
ATOM     37  N   UNL A   1      45.095  26.448  27.423  1.00  0.00    -0.248 NA
ATOM     38  C   UNL A   1      45.506  24.301  26.609  1.00  0.00     0.031 C 
ATOM     39  C   UNL A   1      40.863  25.267  28.291  1.00  0.00     0.029 A 
ATOM     40  N   UNL A   1      42.347  26.937  28.359  1.00  0.00    -0.354 N 
ATOM     41  C   UNL A   1      46.431  26.340  27.059  1.00  0.00     0.074 A 
ATOM     42  C   UNL A   1      46.647  24.973  26.642  1.00  0.00     0.031 C 
ATOM     43  C   UNL A   1      40.238  26.340  28.801  1.00  0.00     0.029 A 
ATOM     44  C   UNL A   1      41.181  27.452  28.870  1.00  0.00     0.049 A 
ATOM     45  H   UNL A   1      43.179  27.459  28.282  1.00  0.00     0.167 HD
ATOM     46  C   UNL A   1      47.386  27.299  27.041  1.00  0.00     0.037 A 
ATOM     47  C   UNL A   1      40.905  28.685  29.335  1.00  0.00     0.037 A 
ATOM     48  C   UNL A   1      47.161  28.665  27.439  1.00  0.00     0.049 A 
ATOM     49  C   UNL A   1      41.985  29.735  29.304  1.00  0.00     0.074 A 
ATOM     50  C   UNL A   1      48.045  29.728  27.415  1.00  0.00     0.029 A 
ATOM     51  N   UNL A   1      45.961  29.154  27.934  1.00  0.00    -0.354 N 
ATOM     52  N   UNL A   1      43.225  29.641  28.889  1.00  0.00    -0.248 NA
ATOM     53  C   UNL A   1      41.616  31.071  29.793  1.00  0.00     0.031 C 
ATOM     54  C   UNL A   1      47.398  30.848  27.948  1.00  0.00     0.029 A 
ATOM     55  C   UNL A   1      46.089  30.500  28.238  1.00  0.00     0.049 A 
ATOM     56  H   UNL A   1      45.140  28.623  28.053  1.00  0.00     0.167 HD
ATOM     57  C   UNL A   1      43.772  30.910  29.029  1.00  0.00     0.074 A 
ATOM     58  C   UNL A   1      42.723  31.759  29.550  1.00  0.00     0.031 C 
ATOM     59  C   UNL A   1      45.029  31.335  28.747  1.00  0.00     0.037 A 
BRANCH  46  60
ATOM     60  C   UNL A   1      48.758  26.904  26.576  1.00  0.00     0.064 A 
ATOM     61  C   UNL A   1      49.156  27.051  25.237  1.00  0.00     0.173 A 
ATOM     62  C   UNL A   1      49.700  26.392  27.482  1.00  0.00     0.173 A 
ATOM     63  F   UNL A   1      48.293  27.522  24.324  1.00  0.00    -0.203 F 
ATOM     64  C   UNL A   1      50.426  26.666  24.817  1.00  0.00     0.198 A 
ATOM     65  C   UNL A   1      50.982  26.043  27.067  1.00  0.00     0.198 A 
ATOM     66  F   UNL A   1      49.378  26.234  28.775  1.00  0.00    -0.203 F 
ATOM     67  F   UNL A   1      50.759  26.758  23.521  1.00  0.00    -0.200 F 
ATOM     68  C   UNL A   1      51.342  26.170  25.734  1.00  0.00     0.200 A 
ATOM     69  F   UNL A   1      51.870  25.578  27.956  1.00  0.00    -0.200 F 
ATOM     70  F   UNL A   1      52.566  25.807  25.329  1.00  0.00    -0.200 F 
ENDBRANCH  46  60
BRANCH  47  71
ATOM     71  C   UNL A   1      39.542  29.007  29.834  1.00  0.00     0.064 A 
ATOM     72  C   UNL A   1      38.563  29.529  28.976  1.00  0.00     0.173 A 
ATOM     73  C   UNL A   1      39.194  28.818  31.179  1.00  0.00     0.173 A 
ATOM     74  F   UNL A   1      38.853  29.745  27.684  1.00  0.00    -0.203 F 
ATOM     75  C   UNL A   1      37.300  29.878  29.449  1.00  0.00     0.198 A 
ATOM     76  C   UNL A   1      37.919  29.136  31.645  1.00  0.00     0.198 A 
ATOM     77  F   UNL A   1      40.088  28.314  32.041  1.00  0.00    -0.203 F 
ATOM     78  F   UNL A   1      36.405  30.429  28.619  1.00  0.00    -0.200 F 
ATOM     79  C   UNL A   1      36.978  29.677  30.782  1.00  0.00     0.200 A 
ATOM     80  F   UNL A   1      37.605  28.924  32.930  1.00  0.00    -0.200 F 
ATOM     81  F   UNL A   1      35.763  30.013  31.238  1.00  0.00    -0.200 F 
ENDBRANCH  47  71
BRANCH  59  82
ATOM     82  C   UNL A   1      45.321  32.797  28.943  1.00  0.00     0.064 A 
ATOM     83  C   UNL A   1      45.864  33.295  30.137  1.00  0.00     0.173 A 
ATOM     84  C   UNL A   1      45.063  33.711  27.910  1.00  0.00     0.173 A 
ATOM     85  F   UNL A   1      46.119  32.466  31.160  1.00  0.00    -0.203 F 
ATOM     86  C   UNL A   1      46.095  34.658  30.304  1.00  0.00     0.198 A 
ATOM     87  C   UNL A   1      45.332  35.068  28.067  1.00  0.00     0.198 A 
ATOM     88  F   UNL A   1      44.554  33.289  26.742  1.00  0.00    -0.203 F 
ATOM     89  F   UNL A   1      46.547  35.118  31.479  1.00  0.00    -0.200 F 
ATOM     90  C   UNL A   1      45.834  35.541  29.268  1.00  0.00     0.200 A 
ATOM     91  F   UNL A   1      45.098  35.917  27.057  1.00  0.00    -0.200 F 
ATOM     92  F   UNL A   1      46.057  36.853  29.432  1.00  0.00    -0.200 F 
ENDBRANCH  59  82
ENDBRANCH  33  34
ENDBRANCH  25  28
ENDBRANCH  23  24
ENDBRANCH  22  23
ENDBRANCH   1  22
TORSDOF 15
ENDMDL
