MODEL 1
REMARK VINA RESULT:     -13.8      0.000      0.000
REMARK SMILES NC(=O)[C@H]1CN(C(=O)CSc2ccccc2C(=O)NCCCCNC(=O)c2ccc(-c3c4nc(c(-c5c(F)c(F)c(F)c(F)c5F)c5ccc([nH]5)c(-c5c(F)c(F)c(F)c(F)c5F)c5nc(c(-c6c(F)c(F)c(F)c(F)c6F)c6ccc3[nH]6)C=C5)C=C4)cc2)c2ccccc2O1
REMARK SMILES IDX 20 1 19 2 17 3 18 4 16 6 11 7 12 8 13 9 15 10 14 11 10 12
REMARK SMILES IDX 9 13 7 14 8 15 6 16 4 17 5 18 96 19 95 20 90 21 94 22 91 23
REMARK SMILES IDX 93 24 92 25 2 26 1 27 3 30 21 31 22 32 23 33 24 34 25 35
REMARK SMILES IDX 26 37 27 38 28 39 89 40 29 41 88 42 30 43 31 44 32 45 82 46
REMARK SMILES IDX 33 47 87 48 81 49 83 50 34 51 86 52 80 53 79 54 35 56 67 57
REMARK SMILES IDX 47 58 66 59 48 60 51 61 65 62 84 63 49 64 50 65 64 67 85 68
REMARK SMILES IDX 52 69 36 70 37 71 45 72 38 73 39 74 43 75 46 76 40 77 41 78
REMARK SMILES IDX 44 79 42 80 68 81 69 82 77 83 70 84 71 85 75 86 78 87 72 88
REMARK SMILES IDX 73 89 76 90 74 91 53 92 54 93 62 94 55 95 56 96 60 97 63 98
REMARK SMILES IDX 57 99 58 100 61 101 59 102
REMARK H PARENT 19 5 1 28 1 29 24 36 83 55 51 66
REMARK Flexibility Score: inf
ROOT
ATOM      1  C   UNL A   1      37.129  22.577  25.782  1.00  0.00     0.116 C 
ENDROOT
BRANCH   1   2
ATOM      2  N   UNL A   1      35.940  22.145  26.450  1.00  0.00    -0.352 N 
ATOM      3  C   UNL A   1      34.650  21.848  26.128  1.00  0.00     0.252 C 
ATOM      4  O   UNL A   1      34.021  21.468  27.128  1.00  0.00    -0.269 OA
ATOM      5  H   UNL A   1      36.098  22.031  27.415  1.00  0.00     0.163 HD
BRANCH   3   6
ATOM      6  C   UNL A   1      33.920  21.876  24.804  1.00  0.00     0.053 A 
ATOM      7  C   UNL A   1      33.704  22.883  23.837  1.00  0.00     0.020 A 
ATOM      8  C   UNL A   1      32.838  22.605  22.741  1.00  0.00     0.016 A 
ATOM      9  C   UNL A   1      32.211  21.375  22.563  1.00  0.00     0.001 A 
ATOM     10  C   UNL A   1      33.271  20.624  24.567  1.00  0.00     0.015 A 
ATOM     11  C   UNL A   1      32.429  20.375  23.483  1.00  0.00     0.001 A 
BRANCH   7  12
ATOM     12  S   UNL A   1      34.146  24.615  23.879  1.00  0.00    -0.115 SA
BRANCH  12  13
ATOM     13  C   UNL A   1      33.263  25.401  22.466  1.00  0.00     0.175 C 
BRANCH  13  14
ATOM     14  C   UNL A   1      31.952  26.121  22.755  1.00  0.00     0.237 C 
ATOM     15  O   UNL A   1      31.362  26.655  21.811  1.00  0.00    -0.274 OA
BRANCH  14  16
ATOM     16  N   UNL A   1      31.439  26.065  24.060  1.00  0.00    -0.304 N 
ATOM     17  C   UNL A   1      31.105  24.581  26.003  1.00  0.00     0.281 C 
ATOM     18  C   UNL A   1      30.649  24.947  24.599  1.00  0.00     0.181 C 
ATOM     19  O   UNL A   1      30.896  25.681  26.889  1.00  0.00    -0.477 OA
ATOM     20  C   UNL A   1      31.354  26.875  26.389  1.00  0.00     0.144 A 
ATOM     21  C   UNL A   1      31.640  27.115  25.027  1.00  0.00     0.086 A 
ATOM     22  C   UNL A   1      31.497  27.881  27.349  1.00  0.00     0.049 A 
ATOM     23  C   UNL A   1      32.042  28.409  24.670  1.00  0.00     0.030 A 
ATOM     24  C   UNL A   1      31.915  29.152  26.972  1.00  0.00     0.004 A 
ATOM     25  C   UNL A   1      32.178  29.417  25.632  1.00  0.00     0.002 A 
BRANCH  17  26
ATOM     26  C   UNL A   1      30.385  23.379  26.633  1.00  0.00     0.260 C 
ATOM     27  N   UNL A   1      30.564  22.129  26.117  1.00  0.00    -0.366 N 
ATOM     28  H   UNL A   1      30.103  21.360  26.521  1.00  0.00     0.159 HD
ATOM     29  H   UNL A   1      31.155  21.998  25.340  1.00  0.00     0.159 HD
ATOM     30  O   UNL A   1      29.623  23.492  27.594  1.00  0.00    -0.271 OA
ENDBRANCH  17  26
ENDBRANCH  14  16
ENDBRANCH  13  14
ENDBRANCH  12  13
ENDBRANCH   7  12
ENDBRANCH   3   6
ENDBRANCH   1   2
BRANCH   1  31
ATOM     31  C   UNL A   1      37.502  21.678  24.609  1.00  0.00     0.023 C 
BRANCH  31  32
ATOM     32  C   UNL A   1      38.144  20.351  25.029  1.00  0.00     0.023 C 
BRANCH  32  33
ATOM     33  C   UNL A   1      39.431  20.463  25.847  1.00  0.00     0.116 C 
BRANCH  33  34
ATOM     34  N   UNL A   1      40.257  19.263  25.843  1.00  0.00    -0.352 N 
ATOM     35  C   UNL A   1      41.599  19.168  26.134  1.00  0.00     0.251 C 
ATOM     36  H   UNL A   1      39.802  18.423  25.604  1.00  0.00     0.163 HD
ATOM     37  O   UNL A   1      42.185  18.099  26.067  1.00  0.00    -0.269 OA
BRANCH  35  38
ATOM     38  C   UNL A   1      42.323  20.405  26.484  1.00  0.00     0.039 A 
ATOM     39  C   UNL A   1      43.041  21.065  25.485  1.00  0.00     0.014 A 
ATOM     40  C   UNL A   1      42.194  20.958  27.759  1.00  0.00     0.014 A 
ATOM     41  C   UNL A   1      43.563  22.333  25.744  1.00  0.00     0.010 A 
ATOM     42  C   UNL A   1      42.669  22.244  27.998  1.00  0.00     0.010 A 
ATOM     43  C   UNL A   1      43.339  22.949  26.987  1.00  0.00    -0.014 A 
BRANCH  43  44
ATOM     44  C   UNL A   1      43.756  24.352  27.229  1.00  0.00     0.031 A 
ATOM     45  C   UNL A   1      42.762  25.366  27.713  1.00  0.00     0.074 A 
ATOM     46  C   UNL A   1      45.017  24.727  26.937  1.00  0.00     0.049 A 
ATOM     47  N   UNL A   1      42.925  26.646  27.926  1.00  0.00    -0.248 NA
ATOM     48  C   UNL A   1      41.396  24.882  27.964  1.00  0.00     0.031 C 
ATOM     49  C   UNL A   1      46.059  23.847  26.404  1.00  0.00     0.029 A 
ATOM     50  N   UNL A   1      45.632  25.949  27.034  1.00  0.00    -0.354 N 
ATOM     51  C   UNL A   1      41.685  27.122  28.328  1.00  0.00     0.074 A 
ATOM     52  C   UNL A   1      40.766  26.005  28.280  1.00  0.00     0.031 C 
ATOM     53  C   UNL A   1      47.189  24.554  26.239  1.00  0.00     0.029 A 
ATOM     54  C   UNL A   1      46.944  25.940  26.626  1.00  0.00     0.049 A 
ATOM     55  H   UNL A   1      45.177  26.757  27.364  1.00  0.00     0.167 HD
ATOM     56  C   UNL A   1      41.350  28.373  28.723  1.00  0.00     0.037 A 
ATOM     57  C   UNL A   1      47.846  26.938  26.570  1.00  0.00     0.037 A 
ATOM     58  C   UNL A   1      42.269  29.477  28.793  1.00  0.00     0.049 A 
ATOM     59  C   UNL A   1      47.447  28.317  27.018  1.00  0.00     0.074 A 
ATOM     60  C   UNL A   1      42.039  30.765  29.247  1.00  0.00     0.029 A 
ATOM     61  N   UNL A   1      43.596  29.425  28.394  1.00  0.00    -0.354 N 
ATOM     62  N   UNL A   1      46.293  28.736  27.474  1.00  0.00    -0.248 NA
ATOM     63  C   UNL A   1      48.480  29.360  26.950  1.00  0.00     0.031 C 
ATOM     64  C   UNL A   1      43.218  31.503  29.087  1.00  0.00     0.029 A 
ATOM     65  C   UNL A   1      44.193  30.664  28.572  1.00  0.00     0.049 A 
ATOM     66  H   UNL A   1      44.048  28.627  28.036  1.00  0.00     0.167 HD
ATOM     67  C   UNL A   1      46.466  30.081  27.771  1.00  0.00     0.074 A 
ATOM     68  C   UNL A   1      47.842  30.405  27.456  1.00  0.00     0.031 C 
ATOM     69  C   UNL A   1      45.565  30.968  28.260  1.00  0.00     0.037 A 
BRANCH  56  70
ATOM     70  C   UNL A   1      39.924  28.610  29.123  1.00  0.00     0.064 A 
ATOM     71  C   UNL A   1      39.481  28.369  30.432  1.00  0.00     0.173 A 
ATOM     72  C   UNL A   1      38.998  29.116  28.198  1.00  0.00     0.173 A 
ATOM     73  F   UNL A   1      40.326  27.872  31.349  1.00  0.00    -0.203 F 
ATOM     74  C   UNL A   1      38.157  28.598  30.794  1.00  0.00     0.198 A 
ATOM     75  C   UNL A   1      37.681  29.371  28.571  1.00  0.00     0.198 A 
ATOM     76  F   UNL A   1      39.373  29.369  26.935  1.00  0.00    -0.203 F 
ATOM     77  F   UNL A   1      37.746  28.317  32.038  1.00  0.00    -0.200 F 
ATOM     78  C   UNL A   1      37.260  29.105  29.866  1.00  0.00     0.200 A 
ATOM     79  F   UNL A   1      36.818  29.870  27.676  1.00  0.00    -0.200 F 
ATOM     80  F   UNL A   1      35.986  29.330  30.217  1.00  0.00    -0.200 F 
ENDBRANCH  56  70
BRANCH  57  81
ATOM     81  C   UNL A   1      49.228  26.664  26.099  1.00  0.00     0.064 A 
ATOM     82  C   UNL A   1      49.590  26.899  24.766  1.00  0.00     0.173 A 
ATOM     83  C   UNL A   1      50.208  26.157  26.964  1.00  0.00     0.173 A 
ATOM     84  F   UNL A   1      48.679  27.364  23.898  1.00  0.00    -0.203 F 
ATOM     85  C   UNL A   1      50.876  26.620  24.310  1.00  0.00     0.198 A 
ATOM     86  C   UNL A   1      51.501  25.903  26.513  1.00  0.00     0.198 A 
ATOM     87  F   UNL A   1      49.912  25.922  28.251  1.00  0.00    -0.203 F 
ATOM     88  F   UNL A   1      51.185  26.815  23.021  1.00  0.00    -0.200 F 
ATOM     89  C   UNL A   1      51.832  26.126  25.185  1.00  0.00     0.200 A 
ATOM     90  F   UNL A   1      52.426  25.437  27.363  1.00  0.00    -0.200 F 
ATOM     91  F   UNL A   1      53.071  25.860  24.746  1.00  0.00    -0.200 F 
ENDBRANCH  57  81
BRANCH  69  92
ATOM     92  C   UNL A   1      46.045  32.366  28.510  1.00  0.00     0.064 A 
ATOM     93  C   UNL A   1      45.938  33.365  27.533  1.00  0.00     0.173 A 
ATOM     94  C   UNL A   1      46.581  32.720  29.759  1.00  0.00     0.173 A 
ATOM     95  F   UNL A   1      45.448  33.072  26.319  1.00  0.00    -0.203 F 
ATOM     96  C   UNL A   1      46.368  34.665  27.789  1.00  0.00     0.198 A 
ATOM     97  C   UNL A   1      46.987  34.026  30.019  1.00  0.00     0.198 A 
ATOM     98  F   UNL A   1      46.701  31.800  30.728  1.00  0.00    -0.203 F 
ATOM     99  F   UNL A   1      46.295  35.594  26.826  1.00  0.00    -0.200 F 
ATOM    100  C   UNL A   1      46.885  34.996  29.032  1.00  0.00     0.200 A 
ATOM    101  F   UNL A   1      47.476  34.346  31.225  1.00  0.00    -0.200 F 
ATOM    102  F   UNL A   1      47.292  36.247  29.279  1.00  0.00    -0.200 F 
ENDBRANCH  69  92
ENDBRANCH  43  44
ENDBRANCH  35  38
ENDBRANCH  33  34
ENDBRANCH  32  33
ENDBRANCH  31  32
ENDBRANCH   1  31
TORSDOF 16
ENDMDL
MODEL 2
REMARK VINA RESULT:     -13.8      0.394      7.207
REMARK SMILES NC(=O)[C@H]1CN(C(=O)CSc2ccccc2C(=O)NCCCCNC(=O)c2ccc(-c3c4nc(c(-c5c(F)c(F)c(F)c(F)c5F)c5ccc([nH]5)c(-c5c(F)c(F)c(F)c(F)c5F)c5nc(c(-c6c(F)c(F)c(F)c(F)c6F)c6ccc3[nH]6)C=C5)C=C4)cc2)c2ccccc2O1
REMARK SMILES IDX 20 1 19 2 17 3 18 4 16 6 11 7 12 8 13 9 15 10 14 11 10 12
REMARK SMILES IDX 9 13 7 14 8 15 6 16 4 17 5 18 96 19 95 20 90 21 94 22 91 23
REMARK SMILES IDX 93 24 92 25 2 26 1 27 3 30 21 31 22 32 23 33 24 34 25 35
REMARK SMILES IDX 26 37 27 38 28 39 89 40 29 41 88 42 30 43 31 44 32 45 82 46
REMARK SMILES IDX 33 47 87 48 81 49 83 50 34 51 86 52 80 53 79 54 35 56 67 57
REMARK SMILES IDX 47 58 66 59 48 60 51 61 65 62 84 63 49 64 50 65 64 67 85 68
REMARK SMILES IDX 52 69 36 70 37 71 45 72 38 73 39 74 43 75 46 76 40 77 41 78
REMARK SMILES IDX 44 79 42 80 68 81 69 82 77 83 70 84 71 85 75 86 78 87 72 88
REMARK SMILES IDX 73 89 76 90 74 91 53 92 54 93 62 94 55 95 56 96 60 97 63 98
REMARK SMILES IDX 57 99 58 100 61 101 59 102
REMARK H PARENT 19 5 1 28 1 29 24 36 83 55 51 66
REMARK Flexibility Score: inf
ROOT
ATOM      1  C   UNL A   1      37.118  22.449  25.780  1.00  0.00     0.116 C 
ENDROOT
BRANCH   1   2
ATOM      2  N   UNL A   1      35.926  22.046  26.461  1.00  0.00    -0.352 N 
ATOM      3  C   UNL A   1      34.627  21.777  26.152  1.00  0.00     0.252 C 
ATOM      4  O   UNL A   1      33.999  21.413  27.159  1.00  0.00    -0.269 OA
ATOM      5  H   UNL A   1      36.090  21.931  27.424  1.00  0.00     0.163 HD
BRANCH   3   6
ATOM      6  C   UNL A   1      33.885  21.816  24.834  1.00  0.00     0.053 A 
ATOM      7  C   UNL A   1      33.661  22.832  23.878  1.00  0.00     0.020 A 
ATOM      8  C   UNL A   1      32.786  22.565  22.788  1.00  0.00     0.016 A 
ATOM      9  C   UNL A   1      32.155  21.337  22.605  1.00  0.00     0.001 A 
ATOM     10  C   UNL A   1      33.233  20.567  24.593  1.00  0.00     0.015 A 
ATOM     11  C   UNL A   1      32.380  20.329  23.514  1.00  0.00     0.001 A 
BRANCH   7  12
ATOM     12  S   UNL A   1      34.106  24.563  23.931  1.00  0.00    -0.115 SA
BRANCH  12  13
ATOM     13  C   UNL A   1      33.255  25.352  22.500  1.00  0.00     0.175 C 
BRANCH  13  14
ATOM     14  C   UNL A   1      31.942  26.078  22.762  1.00  0.00     0.237 C 
ATOM     15  O   UNL A   1      31.369  26.607  21.804  1.00  0.00    -0.274 OA
BRANCH  14  16
ATOM     16  N   UNL A   1      31.408  26.034  24.059  1.00  0.00    -0.304 N 
ATOM     17  C   UNL A   1      31.046  24.569  26.012  1.00  0.00     0.281 C 
ATOM     18  C   UNL A   1      30.612  24.919  24.596  1.00  0.00     0.181 C 
ATOM     19  O   UNL A   1      30.819  25.678  26.882  1.00  0.00    -0.477 OA
ATOM     20  C   UNL A   1      31.282  26.868  26.378  1.00  0.00     0.144 A 
ATOM     21  C   UNL A   1      31.590  27.095  25.019  1.00  0.00     0.086 A 
ATOM     22  C   UNL A   1      31.406  27.884  27.330  1.00  0.00     0.049 A 
ATOM     23  C   UNL A   1      31.994  28.386  24.655  1.00  0.00     0.030 A 
ATOM     24  C   UNL A   1      31.827  29.152  26.946  1.00  0.00     0.004 A 
ATOM     25  C   UNL A   1      32.110  29.405  25.608  1.00  0.00     0.002 A 
BRANCH  17  26
ATOM     26  C   UNL A   1      30.319  23.371  26.642  1.00  0.00     0.260 C 
ATOM     27  N   UNL A   1      30.491  22.120  26.127  1.00  0.00    -0.366 N 
ATOM     28  H   UNL A   1      30.026  21.354  26.531  1.00  0.00     0.159 HD
ATOM     29  H   UNL A   1      31.081  21.985  25.350  1.00  0.00     0.159 HD
ATOM     30  O   UNL A   1      29.559  23.489  27.604  1.00  0.00    -0.271 OA
ENDBRANCH  17  26
ENDBRANCH  14  16
ENDBRANCH  13  14
ENDBRANCH  12  13
ENDBRANCH   7  12
ENDBRANCH   3   6
ENDBRANCH   1   2
BRANCH   1  31
ATOM     31  C   UNL A   1      37.483  21.515  24.632  1.00  0.00     0.023 C 
BRANCH  31  32
ATOM     32  C   UNL A   1      38.131  20.204  25.088  1.00  0.00     0.023 C 
BRANCH  32  33
ATOM     33  C   UNL A   1      39.376  20.345  25.965  1.00  0.00     0.116 C 
BRANCH  33  34
ATOM     34  N   UNL A   1      40.278  19.203  25.924  1.00  0.00    -0.352 N 
ATOM     35  C   UNL A   1      41.639  19.200  26.132  1.00  0.00     0.251 C 
ATOM     36  H   UNL A   1      39.867  18.331  25.722  1.00  0.00     0.163 HD
ATOM     37  O   UNL A   1      42.290  18.171  26.041  1.00  0.00    -0.269 OA
BRANCH  35  38
ATOM     38  C   UNL A   1      42.299  20.488  26.424  1.00  0.00     0.039 A 
ATOM     39  C   UNL A   1      42.815  21.230  25.360  1.00  0.00     0.014 A 
ATOM     40  C   UNL A   1      42.301  20.998  27.723  1.00  0.00     0.014 A 
ATOM     41  C   UNL A   1      43.260  22.533  25.589  1.00  0.00     0.010 A 
ATOM     42  C   UNL A   1      42.695  22.315  27.939  1.00  0.00     0.010 A 
ATOM     43  C   UNL A   1      43.159  23.099  26.871  1.00  0.00    -0.014 A 
BRANCH  43  44
ATOM     44  C   UNL A   1      43.486  24.527  27.103  1.00  0.00     0.031 A 
ATOM     45  C   UNL A   1      44.874  25.038  26.852  1.00  0.00     0.074 A 
ATOM     46  C   UNL A   1      42.546  25.346  27.615  1.00  0.00     0.049 A 
ATOM     47  N   UNL A   1      45.361  26.236  27.049  1.00  0.00    -0.248 NA
ATOM     48  C   UNL A   1      45.850  24.067  26.336  1.00  0.00     0.031 C 
ATOM     49  C   UNL A   1      41.178  24.952  27.958  1.00  0.00     0.029 A 
ATOM     50  N   UNL A   1      42.604  26.675  27.950  1.00  0.00    -0.354 N 
ATOM     51  C   UNL A   1      46.700  26.161  26.690  1.00  0.00     0.074 A 
ATOM     52  C   UNL A   1      46.962  24.790  26.312  1.00  0.00     0.031 C 
ATOM     53  C   UNL A   1      40.521  26.021  28.436  1.00  0.00     0.029 A 
ATOM     54  C   UNL A   1      41.427  27.165  28.462  1.00  0.00     0.049 A 
ATOM     55  H   UNL A   1      43.411  27.225  27.835  1.00  0.00     0.167 HD
ATOM     56  C   UNL A   1      47.621  27.154  26.658  1.00  0.00     0.037 A 
ATOM     57  C   UNL A   1      41.116  28.399  28.902  1.00  0.00     0.037 A 
ATOM     58  C   UNL A   1      47.353  28.523  27.013  1.00  0.00     0.049 A 
ATOM     59  C   UNL A   1      42.157  29.483  28.852  1.00  0.00     0.074 A 
ATOM     60  C   UNL A   1      48.203  29.613  26.946  1.00  0.00     0.029 A 
ATOM     61  N   UNL A   1      46.143  28.987  27.505  1.00  0.00    -0.354 N 
ATOM     62  N   UNL A   1      43.396  29.419  28.433  1.00  0.00    -0.248 NA
ATOM     63  C   UNL A   1      41.752  30.813  29.330  1.00  0.00     0.031 C 
ATOM     64  C   UNL A   1      47.518  30.732  27.434  1.00  0.00     0.029 A 
ATOM     65  C   UNL A   1      46.230  30.346  27.766  1.00  0.00     0.049 A 
ATOM     66  H   UNL A   1      45.341  28.435  27.649  1.00  0.00     0.167 HD
ATOM     67  C   UNL A   1      43.911  30.701  28.572  1.00  0.00     0.074 A 
ATOM     68  C   UNL A   1      42.846  31.525  29.102  1.00  0.00     0.031 C 
ATOM     69  C   UNL A   1      45.157  31.154  28.287  1.00  0.00     0.037 A 
BRANCH  56  70
ATOM     70  C   UNL A   1      49.006  26.794  26.211  1.00  0.00     0.064 A 
ATOM     71  C   UNL A   1      49.405  26.942  24.875  1.00  0.00     0.173 A 
ATOM     72  C   UNL A   1      49.955  26.329  27.134  1.00  0.00     0.173 A 
ATOM     73  F   UNL A   1      48.530  27.370  23.953  1.00  0.00    -0.203 F 
ATOM     74  C   UNL A   1      50.696  26.610  24.472  1.00  0.00     0.198 A 
ATOM     75  C   UNL A   1      51.253  26.026  26.733  1.00  0.00     0.198 A 
ATOM     76  F   UNL A   1      49.625  26.176  28.425  1.00  0.00    -0.203 F 
ATOM     77  F   UNL A   1      51.041  26.715  23.182  1.00  0.00    -0.200 F 
ATOM     78  C   UNL A   1      51.620  26.159  25.402  1.00  0.00     0.200 A 
ATOM     79  F   UNL A   1      52.149  25.600  27.634  1.00  0.00    -0.200 F 
ATOM     80  F   UNL A   1      52.864  25.845  25.014  1.00  0.00    -0.200 F 
ENDBRANCH  56  70
BRANCH  57  81
ATOM     81  C   UNL A   1      39.746  28.685  29.401  1.00  0.00     0.064 A 
ATOM     82  C   UNL A   1      39.411  28.463  30.743  1.00  0.00     0.173 A 
ATOM     83  C   UNL A   1      38.746  29.179  28.551  1.00  0.00     0.173 A 
ATOM     84  F   UNL A   1      40.331  27.972  31.589  1.00  0.00    -0.203 F 
ATOM     85  C   UNL A   1      38.123  28.704  31.213  1.00  0.00     0.198 A 
ATOM     86  C   UNL A   1      37.465  29.444  29.027  1.00  0.00     0.198 A 
ATOM     87  F   UNL A   1      39.019  29.415  27.259  1.00  0.00    -0.203 F 
ATOM     88  F   UNL A   1      37.818  28.443  32.492  1.00  0.00    -0.200 F 
ATOM     89  C   UNL A   1      37.152  29.198  30.356  1.00  0.00     0.200 A 
ATOM     90  F   UNL A   1      36.531  29.933  28.200  1.00  0.00    -0.200 F 
ATOM     91  F   UNL A   1      35.912  29.432  30.809  1.00  0.00    -0.200 F 
ENDBRANCH  57  81
BRANCH  69  92
ATOM     92  C   UNL A   1      45.427  32.611  28.516  1.00  0.00     0.064 A 
ATOM     93  C   UNL A   1      45.942  33.080  29.732  1.00  0.00     0.173 A 
ATOM     94  C   UNL A   1      45.206  33.544  27.490  1.00  0.00     0.173 A 
ATOM     95  F   UNL A   1      46.154  32.229  30.748  1.00  0.00    -0.203 F 
ATOM     96  C   UNL A   1      46.208  34.433  29.922  1.00  0.00     0.198 A 
ATOM     97  C   UNL A   1      45.497  34.892  27.675  1.00  0.00     0.198 A 
ATOM     98  F   UNL A   1      44.718  33.143  26.306  1.00  0.00    -0.203 F 
ATOM     99  F   UNL A   1      46.661  34.865  31.106  1.00  0.00    -0.200 F 
ATOM    100  C   UNL A   1      45.992  35.337  28.891  1.00  0.00     0.200 A 
ATOM    101  F   UNL A   1      45.297  35.761  26.675  1.00  0.00    -0.200 F 
ATOM    102  F   UNL A   1      46.255  36.637  29.073  1.00  0.00    -0.200 F 
ENDBRANCH  69  92
ENDBRANCH  43  44
ENDBRANCH  35  38
ENDBRANCH  33  34
ENDBRANCH  32  33
ENDBRANCH  31  32
ENDBRANCH   1  31
TORSDOF 16
ENDMDL
MODEL 3
REMARK VINA RESULT:     -13.7      0.503      7.131
REMARK SMILES NC(=O)[C@H]1CN(C(=O)CSc2ccccc2C(=O)NCCCCNC(=O)c2ccc(-c3c4nc(c(-c5c(F)c(F)c(F)c(F)c5F)c5ccc([nH]5)c(-c5c(F)c(F)c(F)c(F)c5F)c5nc(c(-c6c(F)c(F)c(F)c(F)c6F)c6ccc3[nH]6)C=C5)C=C4)cc2)c2ccccc2O1
REMARK SMILES IDX 20 1 19 2 17 3 18 4 16 6 11 7 12 8 13 9 15 10 14 11 10 12
REMARK SMILES IDX 9 13 7 14 8 15 6 16 4 17 5 18 96 19 95 20 90 21 94 22 91 23
REMARK SMILES IDX 93 24 92 25 2 26 1 27 3 30 21 31 22 32 23 33 24 34 25 35
REMARK SMILES IDX 26 37 27 38 28 39 89 40 29 41 88 42 30 43 31 44 32 45 82 46
REMARK SMILES IDX 33 47 87 48 81 49 83 50 34 51 86 52 80 53 79 54 35 56 67 57
REMARK SMILES IDX 47 58 66 59 48 60 51 61 65 62 84 63 49 64 50 65 64 67 85 68
REMARK SMILES IDX 52 69 36 70 37 71 45 72 38 73 39 74 43 75 46 76 40 77 41 78
REMARK SMILES IDX 44 79 42 80 68 81 69 82 77 83 70 84 71 85 75 86 78 87 72 88
REMARK SMILES IDX 73 89 76 90 74 91 53 92 54 93 62 94 55 95 56 96 60 97 63 98
REMARK SMILES IDX 57 99 58 100 61 101 59 102
REMARK H PARENT 19 5 1 28 1 29 24 36 83 55 51 66
REMARK Flexibility Score: inf
ROOT
ATOM      1  C   UNL A   1      37.375  22.619  25.398  1.00  0.00     0.116 C 
ENDROOT
BRANCH   1   2
ATOM      2  N   UNL A   1      36.189  22.583  26.197  1.00  0.00    -0.352 N 
ATOM      3  C   UNL A   1      34.845  22.464  26.008  1.00  0.00     0.252 C 
ATOM      4  O   UNL A   1      34.245  22.451  27.094  1.00  0.00    -0.269 OA
ATOM      5  H   UNL A   1      36.404  22.670  27.154  1.00  0.00     0.163 HD
BRANCH   3   6
ATOM      6  C   UNL A   1      34.023  22.317  24.747  1.00  0.00     0.053 A 
ATOM      7  C   UNL A   1      33.659  23.214  23.718  1.00  0.00     0.020 A 
ATOM      8  C   UNL A   1      32.743  22.774  22.720  1.00  0.00     0.016 A 
ATOM      9  C   UNL A   1      32.206  21.490  22.696  1.00  0.00     0.001 A 
ATOM     10  C   UNL A   1      33.463  21.005  24.668  1.00  0.00     0.015 A 
ATOM     11  C   UNL A   1      32.569  20.597  23.678  1.00  0.00     0.001 A 
BRANCH   7  12
ATOM     12  S   UNL A   1      33.962  24.970  23.578  1.00  0.00    -0.115 SA
BRANCH  12  13
ATOM     13  C   UNL A   1      32.801  25.587  22.287  1.00  0.00     0.175 C 
BRANCH  13  14
ATOM     14  C   UNL A   1      31.602  26.411  22.739  1.00  0.00     0.237 C 
ATOM     15  O   UNL A   1      30.962  27.025  21.880  1.00  0.00    -0.274 OA
BRANCH  14  16
ATOM     16  N   UNL A   1      31.235  26.358  24.092  1.00  0.00    -0.304 N 
ATOM     17  C   UNL A   1      31.143  24.888  26.072  1.00  0.00     0.281 C 
ATOM     18  C   UNL A   1      30.531  25.230  24.723  1.00  0.00     0.181 C 
ATOM     19  O   UNL A   1      31.008  25.993  26.966  1.00  0.00    -0.477 OA
ATOM     20  C   UNL A   1      31.384  27.191  26.410  1.00  0.00     0.144 A 
ATOM     21  C   UNL A   1      31.517  27.422  25.023  1.00  0.00     0.086 A 
ATOM     22  C   UNL A   1      31.609  28.209  27.341  1.00  0.00     0.049 A 
ATOM     23  C   UNL A   1      31.850  28.719  24.614  1.00  0.00     0.030 A 
ATOM     24  C   UNL A   1      31.957  29.484  26.910  1.00  0.00     0.004 A 
ATOM     25  C   UNL A   1      32.068  29.740  25.547  1.00  0.00     0.002 A 
BRANCH  17  26
ATOM     26  C   UNL A   1      30.521  23.679  26.786  1.00  0.00     0.260 C 
ATOM     27  N   UNL A   1      31.217  22.509  26.881  1.00  0.00    -0.366 N 
ATOM     28  H   UNL A   1      30.818  21.735  27.339  1.00  0.00     0.159 HD
ATOM     29  H   UNL A   1      32.119  22.441  26.491  1.00  0.00     0.159 HD
ATOM     30  O   UNL A   1      29.391  23.707  27.276  1.00  0.00    -0.271 OA
ENDBRANCH  17  26
ENDBRANCH  14  16
ENDBRANCH  13  14
ENDBRANCH  12  13
ENDBRANCH   7  12
ENDBRANCH   3   6
ENDBRANCH   1   2
BRANCH   1  31
ATOM     31  C   UNL A   1      37.471  21.439  24.438  1.00  0.00     0.023 C 
BRANCH  31  32
ATOM     32  C   UNL A   1      38.068  20.178  25.071  1.00  0.00     0.023 C 
BRANCH  32  33
ATOM     33  C   UNL A   1      39.361  20.376  25.863  1.00  0.00     0.116 C 
BRANCH  33  34
ATOM     34  N   UNL A   1      40.250  19.223  25.870  1.00  0.00    -0.352 N 
ATOM     35  C   UNL A   1      41.601  19.207  26.135  1.00  0.00     0.251 C 
ATOM     36  H   UNL A   1      39.837  18.354  25.660  1.00  0.00     0.163 HD
ATOM     37  O   UNL A   1      42.243  18.169  26.081  1.00  0.00    -0.269 OA
BRANCH  35  38
ATOM     38  C   UNL A   1      42.264  20.490  26.441  1.00  0.00     0.039 A 
ATOM     39  C   UNL A   1      42.765  21.252  25.385  1.00  0.00     0.014 A 
ATOM     40  C   UNL A   1      42.283  20.975  27.750  1.00  0.00     0.014 A 
ATOM     41  C   UNL A   1      43.212  22.550  25.632  1.00  0.00     0.010 A 
ATOM     42  C   UNL A   1      42.680  22.289  27.985  1.00  0.00     0.010 A 
ATOM     43  C   UNL A   1      43.128  23.092  26.925  1.00  0.00    -0.014 A 
BRANCH  43  44
ATOM     44  C   UNL A   1      43.458  24.516  27.179  1.00  0.00     0.031 A 
ATOM     45  C   UNL A   1      44.845  25.030  26.929  1.00  0.00     0.074 A 
ATOM     46  C   UNL A   1      42.521  25.327  27.710  1.00  0.00     0.049 A 
ATOM     47  N   UNL A   1      45.334  26.224  27.144  1.00  0.00    -0.248 NA
ATOM     48  C   UNL A   1      45.818  24.068  26.392  1.00  0.00     0.031 C 
ATOM     49  C   UNL A   1      41.154  24.929  28.053  1.00  0.00     0.029 A 
ATOM     50  N   UNL A   1      42.581  26.650  28.066  1.00  0.00    -0.354 N 
ATOM     51  C   UNL A   1      46.670  26.155  26.777  1.00  0.00     0.074 A 
ATOM     52  C   UNL A   1      46.930  24.790  26.374  1.00  0.00     0.031 C 
ATOM     53  C   UNL A   1      40.500  25.990  28.552  1.00  0.00     0.029 A 
ATOM     54  C   UNL A   1      41.407  27.133  28.592  1.00  0.00     0.049 A 
ATOM     55  H   UNL A   1      43.389  27.202  27.956  1.00  0.00     0.167 HD
ATOM     56  C   UNL A   1      47.592  27.147  26.756  1.00  0.00     0.037 A 
ATOM     57  C   UNL A   1      41.100  28.359  29.054  1.00  0.00     0.037 A 
ATOM     58  C   UNL A   1      47.327  28.510  27.135  1.00  0.00     0.049 A 
ATOM     59  C   UNL A   1      42.141  29.443  29.017  1.00  0.00     0.074 A 
ATOM     60  C   UNL A   1      48.177  29.601  27.083  1.00  0.00     0.029 A 
ATOM     61  N   UNL A   1      46.120  28.968  27.641  1.00  0.00    -0.354 N 
ATOM     62  N   UNL A   1      43.378  29.386  28.591  1.00  0.00    -0.248 NA
ATOM     63  C   UNL A   1      41.740  30.765  29.519  1.00  0.00     0.031 C 
ATOM     64  C   UNL A   1      47.496  30.712  27.592  1.00  0.00     0.029 A 
ATOM     65  C   UNL A   1      46.209  30.322  27.924  1.00  0.00     0.049 A 
ATOM     66  H   UNL A   1      45.318  28.413  27.780  1.00  0.00     0.167 HD
ATOM     67  C   UNL A   1      43.895  30.665  28.749  1.00  0.00     0.074 A 
ATOM     68  C   UNL A   1      42.833  31.481  29.298  1.00  0.00     0.031 C 
ATOM     69  C   UNL A   1      45.140  31.121  28.464  1.00  0.00     0.037 A 
BRANCH  56  70
ATOM     70  C   UNL A   1      48.975  26.794  26.296  1.00  0.00     0.064 A 
ATOM     71  C   UNL A   1      49.370  26.971  24.962  1.00  0.00     0.173 A 
ATOM     72  C   UNL A   1      49.926  26.306  27.205  1.00  0.00     0.173 A 
ATOM     73  F   UNL A   1      48.492  27.422  24.053  1.00  0.00    -0.203 F 
ATOM     74  C   UNL A   1      50.658  26.645  24.548  1.00  0.00     0.198 A 
ATOM     75  C   UNL A   1      51.222  26.008  26.793  1.00  0.00     0.198 A 
ATOM     76  F   UNL A   1      49.600  26.125  28.494  1.00  0.00    -0.203 F 
ATOM     77  F   UNL A   1      50.999  26.778  23.259  1.00  0.00    -0.200 F 
ATOM     78  C   UNL A   1      51.584  26.171  25.464  1.00  0.00     0.200 A 
ATOM     79  F   UNL A   1      52.120  25.559  27.681  1.00  0.00    -0.200 F 
ATOM     80  F   UNL A   1      52.826  25.862  25.064  1.00  0.00    -0.200 F 
ENDBRANCH  56  70
BRANCH  57  81
ATOM     81  C   UNL A   1      39.733  28.639  29.565  1.00  0.00     0.064 A 
ATOM     82  C   UNL A   1      38.741  29.147  28.716  1.00  0.00     0.173 A 
ATOM     83  C   UNL A   1      39.392  28.410  30.906  1.00  0.00     0.173 A 
ATOM     84  F   UNL A   1      39.027  29.400  27.430  1.00  0.00    -0.203 F 
ATOM     85  C   UNL A   1      37.465  29.437  29.192  1.00  0.00     0.198 A 
ATOM     86  C   UNL A   1      38.108  28.676  31.376  1.00  0.00     0.198 A 
ATOM     87  F   UNL A   1      40.305  27.917  31.756  1.00  0.00    -0.203 F 
ATOM     88  F   UNL A   1      36.547  29.962  28.369  1.00  0.00    -0.200 F 
ATOM     89  C   UNL A   1      37.148  29.197  30.521  1.00  0.00     0.200 A 
ATOM     90  F   UNL A   1      37.801  28.432  32.657  1.00  0.00    -0.200 F 
ATOM     91  F   UNL A   1      35.919  29.474  30.979  1.00  0.00    -0.200 F 
ENDBRANCH  57  81
BRANCH  69  92
ATOM     92  C   UNL A   1      45.412  32.574  28.716  1.00  0.00     0.064 A 
ATOM     93  C   UNL A   1      45.960  33.020  29.926  1.00  0.00     0.173 A 
ATOM     94  C   UNL A   1      45.159  33.527  27.716  1.00  0.00     0.173 A 
ATOM     95  F   UNL A   1      46.203  32.149  30.918  1.00  0.00    -0.203 F 
ATOM     96  C   UNL A   1      46.228  34.369  30.137  1.00  0.00     0.198 A 
ATOM     97  C   UNL A   1      45.452  34.873  27.921  1.00  0.00     0.198 A 
ATOM     98  F   UNL A   1      44.639  33.150  26.539  1.00  0.00    -0.203 F 
ATOM     99  F   UNL A   1      46.713  34.778  31.317  1.00  0.00    -0.200 F 
ATOM    100  C   UNL A   1      45.980  35.294  29.132  1.00  0.00     0.200 A 
ATOM    101  F   UNL A   1      45.222  35.762  26.945  1.00  0.00    -0.200 F 
ATOM    102  F   UNL A   1      46.244  36.591  29.334  1.00  0.00    -0.200 F 
ENDBRANCH  69  92
ENDBRANCH  43  44
ENDBRANCH  35  38
ENDBRANCH  33  34
ENDBRANCH  32  33
ENDBRANCH  31  32
ENDBRANCH   1  31
TORSDOF 16
ENDMDL
