MODEL 1
REMARK VINA RESULT:     -12.9      0.000      0.000
REMARK SMILES Cc1nsc(NC(=O)[C@@H]2C[NH2+]C[C@H]2C)c1C(=O)NCCCCNC(=O)c1ccc(-c2c3nc(c(-c4c(F)c(F)c(F)c(F)c4F)c4ccc([nH]4)c(-c4c(F)c(F)c(F)c(F)c4F)c4nc(c(-c5c(F)c(F)c(F)c(F)c5F)c5ccc2[nH]5)C=C4)C=C3)cc1
REMARK SMILES IDX 20 1 19 2 18 3 16 4 17 5 15 7 1 8 2 9 3 10 4 11 5 12 6 13
REMARK SMILES IDX 7 14 8 16 9 17 10 18 13 19 11 20 12 21 14 22 21 25 22 26
REMARK SMILES IDX 23 27 24 28 25 30 26 31 27 32 88 33 28 34 87 35 29 36 30 37
REMARK SMILES IDX 31 38 81 39 32 40 86 41 80 42 82 43 33 44 85 45 79 46 78 47
REMARK SMILES IDX 34 49 66 50 46 51 65 52 47 53 50 54 64 55 83 56 48 57 49 58
REMARK SMILES IDX 63 60 84 61 51 62 35 63 36 64 44 65 37 66 38 67 42 68 45 69
REMARK SMILES IDX 39 70 40 71 43 72 41 73 67 74 68 75 76 76 69 77 70 78 74 79
REMARK SMILES IDX 77 80 71 81 72 82 75 83 73 84 52 85 53 86 61 87 54 88 55 89
REMARK SMILES IDX 59 90 62 91 56 92 57 93 60 94 58 95
REMARK H PARENT 18 6 6 15 11 23 11 24 23 29 82 48 50 59
REMARK Flexibility Score: inf
ROOT
ATOM      1  C   UNL A   1      32.038  29.414  26.886  1.00  0.00     0.023 C 
ENDROOT
BRANCH   1   2
ATOM      2  C   UNL A   1      31.976  28.115  27.690  1.00  0.00     0.116 C 
BRANCH   2   3
ATOM      3  N   UNL A   1      30.970  27.193  27.217  1.00  0.00    -0.352 N 
ATOM      4  C   UNL A   1      30.823  26.374  26.132  1.00  0.00     0.256 C 
ATOM      5  O   UNL A   1      29.821  25.650  26.214  1.00  0.00    -0.269 OA
ATOM      6  H   UNL A   1      30.200  27.143  27.828  1.00  0.00     0.163 HD
BRANCH   4   7
ATOM      7  C   UNL A   1      31.653  26.336  24.914  1.00  0.00     0.097 A 
ATOM      8  C   UNL A   1      34.224  25.692  25.456  1.00  0.00     0.069 C 
ATOM      9  C   UNL A   1      33.077  26.135  24.624  1.00  0.00     0.066 A 
ATOM     10  N   UNL A   1      33.459  26.408  23.375  1.00  0.00    -0.195 NA
ATOM     11  S   UNL A   1      32.179  26.911  22.517  1.00  0.00    -0.017 S 
ATOM     12  C   UNL A   1      31.011  26.510  23.668  1.00  0.00     0.129 A 
BRANCH  12  13
ATOM     13  N   UNL A   1      29.666  26.658  23.379  1.00  0.00    -0.315 N 
ATOM     14  C   UNL A   1      28.814  27.735  23.413  1.00  0.00     0.234 C 
ATOM     15  H   UNL A   1      29.231  25.823  23.091  1.00  0.00     0.170 HD
ATOM     16  O   UNL A   1      27.624  27.478  23.636  1.00  0.00    -0.274 OA
BRANCH  14  17
ATOM     17  C   UNL A   1      29.223  29.135  22.893  1.00  0.00     0.142 C 
ATOM     18  C   UNL A   1      30.001  30.036  23.845  1.00  0.00     0.274 C 
ATOM     19  C   UNL A   1      27.991  30.021  22.528  1.00  0.00     0.059 C 
ATOM     20  N   UNL A   1      29.483  31.399  23.699  1.00  0.00    -0.345 N 
ATOM     21  C   UNL A   1      28.049  31.170  23.532  1.00  0.00     0.264 C 
ATOM     22  C   UNL A   1      28.076  30.552  21.093  1.00  0.00     0.015 C 
ATOM     23  H   UNL A   1      29.882  31.861  22.882  1.00  0.00     0.346 HD
ATOM     24  H   UNL A   1      29.710  32.010  24.485  1.00  0.00     0.346 HD
ENDBRANCH  14  17
ENDBRANCH  12  13
ENDBRANCH   4   7
ENDBRANCH   2   3
ENDBRANCH   1   2
BRANCH   1  25
ATOM     25  C   UNL A   1      33.401  29.744  26.263  1.00  0.00     0.023 C 
BRANCH  25  26
ATOM     26  C   UNL A   1      34.515  30.023  27.273  1.00  0.00     0.116 C 
BRANCH  26  27
ATOM     27  N   UNL A   1      34.299  31.242  28.055  1.00  0.00    -0.352 N 
ATOM     28  C   UNL A   1      34.909  31.613  29.244  1.00  0.00     0.251 C 
ATOM     29  H   UNL A   1      33.640  31.877  27.692  1.00  0.00     0.163 HD
ATOM     30  O   UNL A   1      34.410  32.426  29.999  1.00  0.00    -0.269 OA
BRANCH  28  31
ATOM     31  C   UNL A   1      36.217  31.017  29.552  1.00  0.00     0.039 A 
ATOM     32  C   UNL A   1      36.372  29.652  29.824  1.00  0.00     0.014 A 
ATOM     33  C   UNL A   1      37.310  31.876  29.501  1.00  0.00     0.014 A 
ATOM     34  C   UNL A   1      37.660  29.141  29.969  1.00  0.00     0.010 A 
ATOM     35  C   UNL A   1      38.569  31.348  29.478  1.00  0.00     0.010 A 
ATOM     36  C   UNL A   1      38.750  29.999  29.783  1.00  0.00    -0.014 A 
BRANCH  36  37
ATOM     37  C   UNL A   1      40.127  29.530  29.825  1.00  0.00     0.031 A 
ATOM     38  C   UNL A   1      40.702  29.341  31.188  1.00  0.00     0.074 A 
ATOM     39  C   UNL A   1      40.666  28.975  28.717  1.00  0.00     0.049 A 
ATOM     40  N   UNL A   1      41.769  29.875  31.685  1.00  0.00    -0.248 NA
ATOM     41  C   UNL A   1      39.937  28.543  32.163  1.00  0.00     0.031 C 
ATOM     42  C   UNL A   1      40.028  28.778  27.407  1.00  0.00     0.029 A 
ATOM     43  N   UNL A   1      41.830  28.290  28.582  1.00  0.00    -0.354 N 
ATOM     44  C   UNL A   1      41.920  29.330  32.960  1.00  0.00     0.074 A 
ATOM     45  C   UNL A   1      40.672  28.685  33.268  1.00  0.00     0.031 C 
ATOM     46  C   UNL A   1      40.684  27.815  26.726  1.00  0.00     0.029 A 
ATOM     47  C   UNL A   1      41.868  27.447  27.475  1.00  0.00     0.049 A 
ATOM     48  H   UNL A   1      42.582  28.380  29.212  1.00  0.00     0.167 HD
ATOM     49  C   UNL A   1      43.147  29.236  33.549  1.00  0.00     0.037 A 
ATOM     50  C   UNL A   1      42.771  26.456  27.268  1.00  0.00     0.037 A 
ATOM     51  C   UNL A   1      44.107  30.074  32.871  1.00  0.00     0.049 A 
ATOM     52  C   UNL A   1      43.934  26.737  28.155  1.00  0.00     0.074 A 
ATOM     53  C   UNL A   1      44.171  31.422  32.574  1.00  0.00     0.029 A 
ATOM     54  N   UNL A   1      45.014  29.470  32.032  1.00  0.00    -0.354 N 
ATOM     55  N   UNL A   1      44.714  27.777  28.013  1.00  0.00    -0.248 NA
ATOM     56  C   UNL A   1      43.909  26.155  29.491  1.00  0.00     0.031 C 
ATOM     57  C   UNL A   1      44.680  31.473  31.241  1.00  0.00     0.029 A 
ATOM     58  C   UNL A   1      44.985  30.168  30.853  1.00  0.00     0.049 A 
ATOM     59  H   UNL A   1      45.576  28.688  32.238  1.00  0.00     0.167 HD
ATOM     60  C   UNL A   1      44.937  28.233  29.306  1.00  0.00     0.074 A 
ATOM     61  C   UNL A   1      44.465  27.158  30.177  1.00  0.00     0.031 C 
ATOM     62  C   UNL A   1      45.189  29.551  29.564  1.00  0.00     0.037 A 
BRANCH  49  63
ATOM     63  C   UNL A   1      43.588  28.121  34.476  1.00  0.00     0.064 A 
ATOM     64  C   UNL A   1      43.421  26.784  34.055  1.00  0.00     0.173 A 
ATOM     65  C   UNL A   1      43.864  28.287  35.850  1.00  0.00     0.173 A 
ATOM     66  F   UNL A   1      43.158  26.499  32.771  1.00  0.00    -0.203 F 
ATOM     67  C   UNL A   1      43.417  25.716  34.957  1.00  0.00     0.198 A 
ATOM     68  C   UNL A   1      43.915  27.213  36.737  1.00  0.00     0.198 A 
ATOM     69  F   UNL A   1      43.983  29.491  36.420  1.00  0.00    -0.203 F 
ATOM     70  F   UNL A   1      43.106  24.486  34.528  1.00  0.00    -0.200 F 
ATOM     71  C   UNL A   1      43.652  25.933  36.301  1.00  0.00     0.200 A 
ATOM     72  F   UNL A   1      44.136  27.447  38.040  1.00  0.00    -0.200 F 
ATOM     73  F   UNL A   1      43.577  24.925  37.179  1.00  0.00    -0.200 F 
ENDBRANCH  49  63
BRANCH  50  74
ATOM     74  C   UNL A   1      42.515  25.134  26.640  1.00  0.00     0.064 A 
ATOM     75  C   UNL A   1      43.243  24.704  25.521  1.00  0.00     0.173 A 
ATOM     76  C   UNL A   1      41.711  24.160  27.270  1.00  0.00     0.173 A 
ATOM     77  F   UNL A   1      44.075  25.549  24.894  1.00  0.00    -0.203 F 
ATOM     78  C   UNL A   1      43.173  23.381  25.062  1.00  0.00     0.198 A 
ATOM     79  C   UNL A   1      41.633  22.845  26.805  1.00  0.00     0.198 A 
ATOM     80  F   UNL A   1      41.050  24.436  28.403  1.00  0.00    -0.203 F 
ATOM     81  F   UNL A   1      43.924  22.994  24.021  1.00  0.00    -0.200 F 
ATOM     82  C   UNL A   1      42.373  22.453  25.708  1.00  0.00     0.200 A 
ATOM     83  F   UNL A   1      40.881  21.953  27.465  1.00  0.00    -0.200 F 
ATOM     84  F   UNL A   1      42.344  21.177  25.300  1.00  0.00    -0.200 F 
ENDBRANCH  50  74
BRANCH  62  85
ATOM     85  C   UNL A   1      45.451  30.485  28.414  1.00  0.00     0.064 A 
ATOM     86  C   UNL A   1      44.446  31.176  27.714  1.00  0.00     0.173 A 
ATOM     87  C   UNL A   1      46.779  30.840  28.144  1.00  0.00     0.173 A 
ATOM     88  F   UNL A   1      43.153  30.978  27.990  1.00  0.00    -0.203 F 
ATOM     89  C   UNL A   1      44.760  32.146  26.764  1.00  0.00     0.198 A 
ATOM     90  C   UNL A   1      47.089  31.836  27.222  1.00  0.00     0.198 A 
ATOM     91  F   UNL A   1      47.781  30.261  28.823  1.00  0.00    -0.203 F 
ATOM     92  F   UNL A   1      43.779  32.787  26.110  1.00  0.00    -0.200 F 
ATOM     93  C   UNL A   1      46.081  32.482  26.526  1.00  0.00     0.200 A 
ATOM     94  F   UNL A   1      48.367  32.196  27.037  1.00  0.00    -0.200 F 
ATOM     95  F   UNL A   1      46.382  33.450  25.649  1.00  0.00    -0.200 F 
ENDBRANCH  62  85
ENDBRANCH  36  37
ENDBRANCH  28  31
ENDBRANCH  26  27
ENDBRANCH  25  26
ENDBRANCH   1  25
TORSDOF 13
ENDMDL
MODEL 2
REMARK VINA RESULT:     -12.9      1.549      3.001
REMARK SMILES Cc1nsc(NC(=O)[C@@H]2C[NH2+]C[C@H]2C)c1C(=O)NCCCCNC(=O)c1ccc(-c2c3nc(c(-c4c(F)c(F)c(F)c(F)c4F)c4ccc([nH]4)c(-c4c(F)c(F)c(F)c(F)c4F)c4nc(c(-c5c(F)c(F)c(F)c(F)c5F)c5ccc2[nH]5)C=C4)C=C3)cc1
REMARK SMILES IDX 20 1 19 2 18 3 16 4 17 5 15 7 1 8 2 9 3 10 4 11 5 12 6 13
REMARK SMILES IDX 7 14 8 16 9 17 10 18 13 19 11 20 12 21 14 22 21 25 22 26
REMARK SMILES IDX 23 27 24 28 25 30 26 31 27 32 88 33 28 34 87 35 29 36 30 37
REMARK SMILES IDX 31 38 81 39 32 40 86 41 80 42 82 43 33 44 85 45 79 46 78 47
REMARK SMILES IDX 34 49 66 50 46 51 65 52 47 53 50 54 64 55 83 56 48 57 49 58
REMARK SMILES IDX 63 60 84 61 51 62 35 63 36 64 44 65 37 66 38 67 42 68 45 69
REMARK SMILES IDX 39 70 40 71 43 72 41 73 67 74 68 75 76 76 69 77 70 78 74 79
REMARK SMILES IDX 77 80 71 81 72 82 75 83 73 84 52 85 53 86 61 87 54 88 55 89
REMARK SMILES IDX 59 90 62 91 56 92 57 93 60 94 58 95
REMARK H PARENT 18 6 6 15 11 23 11 24 23 29 82 48 50 59
REMARK Flexibility Score: inf
ROOT
ATOM      1  C   UNL A   1      35.097  29.770  27.346  1.00  0.00     0.023 C 
ENDROOT
BRANCH   1   2
ATOM      2  C   UNL A   1      34.266  28.592  26.834  1.00  0.00     0.116 C 
BRANCH   2   3
ATOM      3  N   UNL A   1      33.010  28.430  27.526  1.00  0.00    -0.352 N 
ATOM      4  C   UNL A   1      31.785  27.903  27.224  1.00  0.00     0.256 C 
ATOM      5  O   UNL A   1      31.026  27.869  28.202  1.00  0.00    -0.269 OA
ATOM      6  H   UNL A   1      33.045  28.788  28.442  1.00  0.00     0.163 HD
BRANCH   4   7
ATOM      7  C   UNL A   1      31.290  27.476  25.902  1.00  0.00     0.097 A 
ATOM      8  C   UNL A   1      31.713  29.356  24.002  1.00  0.00     0.069 C 
ATOM      9  C   UNL A   1      31.179  28.095  24.576  1.00  0.00     0.066 A 
ATOM     10  N   UNL A   1      30.448  27.425  23.683  1.00  0.00    -0.195 NA
ATOM     11  S   UNL A   1      29.868  26.073  24.364  1.00  0.00    -0.017 S 
ATOM     12  C   UNL A   1      30.796  26.160  25.772  1.00  0.00     0.129 A 
BRANCH  12  13
ATOM     13  N   UNL A   1      30.749  25.136  26.703  1.00  0.00    -0.315 N 
ATOM     14  C   UNL A   1      31.068  23.802  26.645  1.00  0.00     0.234 C 
ATOM     15  H   UNL A   1      30.421  25.424  27.586  1.00  0.00     0.170 HD
ATOM     16  O   UNL A   1      30.435  23.060  27.407  1.00  0.00    -0.274 OA
BRANCH  14  17
ATOM     17  C   UNL A   1      32.339  23.281  25.930  1.00  0.00     0.142 C 
ATOM     18  C   UNL A   1      32.587  21.777  25.951  1.00  0.00     0.274 C 
ATOM     19  C   UNL A   1      33.652  23.846  26.557  1.00  0.00     0.059 C 
ATOM     20  N   UNL A   1      34.020  21.561  26.175  1.00  0.00    -0.345 N 
ATOM     21  C   UNL A   1      34.347  22.614  27.135  1.00  0.00     0.264 C 
ATOM     22  C   UNL A   1      34.540  24.523  25.508  1.00  0.00     0.015 C 
ATOM     23  H   UNL A   1      34.550  21.671  25.310  1.00  0.00     0.346 HD
ATOM     24  H   UNL A   1      34.245  20.622  26.506  1.00  0.00     0.346 HD
ENDBRANCH  14  17
ENDBRANCH  12  13
ENDBRANCH   4   7
ENDBRANCH   2   3
ENDBRANCH   1   2
BRANCH   1  25
ATOM     25  C   UNL A   1      34.343  31.097  27.497  1.00  0.00     0.023 C 
BRANCH  25  26
ATOM     26  C   UNL A   1      35.183  32.251  28.044  1.00  0.00     0.116 C 
BRANCH  26  27
ATOM     27  N   UNL A   1      34.731  32.732  29.351  1.00  0.00    -0.352 N 
ATOM     28  C   UNL A   1      35.085  32.258  30.605  1.00  0.00     0.251 C 
ATOM     29  H   UNL A   1      34.097  33.485  29.338  1.00  0.00     0.163 HD
ATOM     30  O   UNL A   1      34.393  32.452  31.586  1.00  0.00    -0.269 OA
BRANCH  28  31
ATOM     31  C   UNL A   1      36.363  31.540  30.724  1.00  0.00     0.039 A 
ATOM     32  C   UNL A   1      36.446  30.145  30.655  1.00  0.00     0.014 A 
ATOM     33  C   UNL A   1      37.500  32.330  30.853  1.00  0.00     0.014 A 
ATOM     34  C   UNL A   1      37.705  29.550  30.637  1.00  0.00     0.010 A 
ATOM     35  C   UNL A   1      38.728  31.760  30.668  1.00  0.00     0.010 A 
ATOM     36  C   UNL A   1      38.838  30.370  30.635  1.00  0.00    -0.014 A 
BRANCH  36  37
ATOM     37  C   UNL A   1      40.187  29.837  30.525  1.00  0.00     0.031 A 
ATOM     38  C   UNL A   1      40.883  29.574  31.817  1.00  0.00     0.074 A 
ATOM     39  C   UNL A   1      40.587  29.295  29.353  1.00  0.00     0.049 A 
ATOM     40  N   UNL A   1      42.019  30.041  32.221  1.00  0.00    -0.248 NA
ATOM     41  C   UNL A   1      40.179  28.779  32.839  1.00  0.00     0.031 C 
ATOM     42  C   UNL A   1      39.813  29.173  28.108  1.00  0.00     0.029 A 
ATOM     43  N   UNL A   1      41.696  28.561  29.082  1.00  0.00    -0.354 N 
ATOM     44  C   UNL A   1      42.267  29.446  33.458  1.00  0.00     0.074 A 
ATOM     45  C   UNL A   1      41.026  28.849  33.869  1.00  0.00     0.031 C 
ATOM     46  C   UNL A   1      40.350  28.204  27.336  1.00  0.00     0.029 A 
ATOM     47  C   UNL A   1      41.582  27.756  27.952  1.00  0.00     0.049 A 
ATOM     48  H   UNL A   1      42.510  28.595  29.635  1.00  0.00     0.167 HD
ATOM     49  C   UNL A   1      43.540  29.274  33.918  1.00  0.00     0.037 A 
ATOM     50  C   UNL A   1      42.410  26.732  27.626  1.00  0.00     0.037 A 
ATOM     51  C   UNL A   1      44.469  30.088  33.173  1.00  0.00     0.049 A 
ATOM     52  C   UNL A   1      43.668  26.928  28.401  1.00  0.00     0.074 A 
ATOM     53  C   UNL A   1      44.571  31.442  32.910  1.00  0.00     0.029 A 
ATOM     54  N   UNL A   1      45.259  29.472  32.230  1.00  0.00    -0.354 N 
ATOM     55  N   UNL A   1      44.480  27.934  28.212  1.00  0.00    -0.248 NA
ATOM     56  C   UNL A   1      43.745  26.302  29.715  1.00  0.00     0.031 C 
ATOM     57  C   UNL A   1      44.949  31.515  31.536  1.00  0.00     0.029 A 
ATOM     58  C   UNL A   1      45.148  30.211  31.080  1.00  0.00     0.049 A 
ATOM     59  H   UNL A   1      45.799  28.659  32.355  1.00  0.00     0.167 HD
ATOM     60  C   UNL A   1      44.852  28.335  29.489  1.00  0.00     0.074 A 
ATOM     61  C   UNL A   1      44.415  27.254  30.371  1.00  0.00     0.031 C 
ATOM     62  C   UNL A   1      45.194  29.630  29.760  1.00  0.00     0.037 A 
BRANCH  49  63
ATOM     63  C   UNL A   1      44.014  28.108  34.763  1.00  0.00     0.064 A 
ATOM     64  C   UNL A   1      43.741  26.796  34.321  1.00  0.00     0.173 A 
ATOM     65  C   UNL A   1      44.431  28.214  36.107  1.00  0.00     0.173 A 
ATOM     66  F   UNL A   1      43.339  26.568  33.061  1.00  0.00    -0.203 F 
ATOM     67  C   UNL A   1      43.772  25.699  35.187  1.00  0.00     0.198 A 
ATOM     68  C   UNL A   1      44.516  27.109  36.952  1.00  0.00     0.198 A 
ATOM     69  F   UNL A   1      44.665  29.390  36.698  1.00  0.00    -0.203 F 
ATOM     70  F   UNL A   1      43.360  24.500  34.754  1.00  0.00    -0.200 F 
ATOM     71  C   UNL A   1      44.148  25.859  36.506  1.00  0.00     0.200 A 
ATOM     72  F   UNL A   1      44.875  27.288  38.233  1.00  0.00    -0.200 F 
ATOM     73  F   UNL A   1      44.109  24.825  37.357  1.00  0.00    -0.200 F 
ENDBRANCH  49  63
BRANCH  50  74
ATOM     74  C   UNL A   1      42.028  25.446  26.989  1.00  0.00     0.064 A 
ATOM     75  C   UNL A   1      42.741  24.932  25.895  1.00  0.00     0.173 A 
ATOM     76  C   UNL A   1      41.097  24.571  27.588  1.00  0.00     0.173 A 
ATOM     77  F   UNL A   1      43.685  25.675  25.299  1.00  0.00    -0.203 F 
ATOM     78  C   UNL A   1      42.538  23.625  25.433  1.00  0.00     0.198 A 
ATOM     79  C   UNL A   1      40.886  23.272  27.120  1.00  0.00     0.198 A 
ATOM     80  F   UNL A   1      40.432  24.923  28.698  1.00  0.00    -0.203 F 
ATOM     81  F   UNL A   1      43.276  23.152  24.419  1.00  0.00    -0.200 F 
ATOM     82  C   UNL A   1      41.615  22.796  26.049  1.00  0.00     0.200 A 
ATOM     83  F   UNL A   1      40.015  22.473  27.752  1.00  0.00    -0.200 F 
ATOM     84  F   UNL A   1      41.456  21.529  25.639  1.00  0.00    -0.200 F 
ENDBRANCH  50  74
BRANCH  62  85
ATOM     85  C   UNL A   1      45.387  30.589  28.618  1.00  0.00     0.064 A 
ATOM     86  C   UNL A   1      44.376  31.420  28.104  1.00  0.00     0.173 A 
ATOM     87  C   UNL A   1      46.692  30.813  28.160  1.00  0.00     0.173 A 
ATOM     88  F   UNL A   1      43.123  31.348  28.567  1.00  0.00    -0.203 F 
ATOM     89  C   UNL A   1      44.654  32.400  27.153  1.00  0.00     0.198 A 
ATOM     90  C   UNL A   1      46.975  31.818  27.238  1.00  0.00     0.198 A 
ATOM     91  F   UNL A   1      47.711  30.094  28.657  1.00  0.00    -0.203 F 
ATOM     92  F   UNL A   1      43.667  33.176  26.680  1.00  0.00    -0.200 F 
ATOM     93  C   UNL A   1      45.955  32.603  26.728  1.00  0.00     0.200 A 
ATOM     94  F   UNL A   1      48.244  32.047  26.873  1.00  0.00    -0.200 F 
ATOM     95  F   UNL A   1      46.232  33.578  25.850  1.00  0.00    -0.200 F 
ENDBRANCH  62  85
ENDBRANCH  36  37
ENDBRANCH  28  31
ENDBRANCH  26  27
ENDBRANCH  25  26
ENDBRANCH   1  25
TORSDOF 13
ENDMDL
MODEL 3
REMARK VINA RESULT:     -12.5      3.059      7.964
REMARK SMILES Cc1nsc(NC(=O)[C@@H]2C[NH2+]C[C@H]2C)c1C(=O)NCCCCNC(=O)c1ccc(-c2c3nc(c(-c4c(F)c(F)c(F)c(F)c4F)c4ccc([nH]4)c(-c4c(F)c(F)c(F)c(F)c4F)c4nc(c(-c5c(F)c(F)c(F)c(F)c5F)c5ccc2[nH]5)C=C4)C=C3)cc1
REMARK SMILES IDX 20 1 19 2 18 3 16 4 17 5 15 7 1 8 2 9 3 10 4 11 5 12 6 13
REMARK SMILES IDX 7 14 8 16 9 17 10 18 13 19 11 20 12 21 14 22 21 25 22 26
REMARK SMILES IDX 23 27 24 28 25 30 26 31 27 32 88 33 28 34 87 35 29 36 30 37
REMARK SMILES IDX 31 38 81 39 32 40 86 41 80 42 82 43 33 44 85 45 79 46 78 47
REMARK SMILES IDX 34 49 66 50 46 51 65 52 47 53 50 54 64 55 83 56 48 57 49 58
REMARK SMILES IDX 63 60 84 61 51 62 35 63 36 64 44 65 37 66 38 67 42 68 45 69
REMARK SMILES IDX 39 70 40 71 43 72 41 73 67 74 68 75 76 76 69 77 70 78 74 79
REMARK SMILES IDX 77 80 71 81 72 82 75 83 73 84 52 85 53 86 61 87 54 88 55 89
REMARK SMILES IDX 59 90 62 91 56 92 57 93 60 94 58 95
REMARK H PARENT 18 6 6 15 11 23 11 24 23 29 82 48 50 59
REMARK Flexibility Score: inf
ROOT
ATOM      1  C   UNL A   1      35.103  23.400  24.360  1.00  0.00     0.023 C 
ENDROOT
BRANCH   1   2
ATOM      2  C   UNL A   1      34.886  24.516  25.383  1.00  0.00     0.116 C 
BRANCH   2   3
ATOM      3  N   UNL A   1      33.859  24.218  26.352  1.00  0.00    -0.352 N 
ATOM      4  C   UNL A   1      32.497  24.104  26.333  1.00  0.00     0.256 C 
ATOM      5  O   UNL A   1      32.038  23.696  27.409  1.00  0.00    -0.269 OA
ATOM      6  H   UNL A   1      34.233  24.057  27.248  1.00  0.00     0.163 HD
BRANCH   4   7
ATOM      7  C   UNL A   1      31.577  24.477  25.243  1.00  0.00     0.097 A 
ATOM      8  C   UNL A   1      31.595  22.665  23.234  1.00  0.00     0.069 C 
ATOM      9  C   UNL A   1      31.251  23.937  23.918  1.00  0.00     0.066 A 
ATOM     10  N   UNL A   1      30.508  24.724  23.138  1.00  0.00    -0.195 NA
ATOM     11  S   UNL A   1      30.183  26.106  23.919  1.00  0.00    -0.017 S 
ATOM     12  C   UNL A   1      30.754  25.609  25.427  1.00  0.00     0.129 A 
BRANCH  12  13
ATOM     13  N   UNL A   1      30.615  26.431  26.533  1.00  0.00    -0.315 N 
ATOM     14  C   UNL A   1      31.333  27.505  26.996  1.00  0.00     0.234 C 
ATOM     15  H   UNL A   1      29.845  26.199  27.101  1.00  0.00     0.170 HD
ATOM     16  O   UNL A   1      31.319  27.679  28.221  1.00  0.00    -0.274 OA
BRANCH  14  17
ATOM     17  C   UNL A   1      31.860  28.620  26.060  1.00  0.00     0.142 C 
ATOM     18  C   UNL A   1      33.145  28.339  25.290  1.00  0.00     0.274 C 
ATOM     19  C   UNL A   1      32.212  29.932  26.829  1.00  0.00     0.059 C 
ATOM     20  N   UNL A   1      33.956  29.560  25.306  1.00  0.00    -0.345 N 
ATOM     21  C   UNL A   1      33.723  30.069  26.656  1.00  0.00     0.264 C 
ATOM     22  C   UNL A   1      31.489  31.149  26.242  1.00  0.00     0.015 C 
ATOM     23  H   UNL A   1      33.639  30.224  24.600  1.00  0.00     0.346 HD
ATOM     24  H   UNL A   1      34.942  29.399  25.095  1.00  0.00     0.346 HD
ENDBRANCH  14  17
ENDBRANCH  12  13
ENDBRANCH   4   7
ENDBRANCH   2   3
ENDBRANCH   1   2
BRANCH   1  25
ATOM     25  C   UNL A   1      36.420  22.625  24.493  1.00  0.00     0.023 C 
BRANCH  25  26
ATOM     26  C   UNL A   1      37.354  23.134  25.591  1.00  0.00     0.116 C 
BRANCH  26  27
ATOM     27  N   UNL A   1      38.282  22.114  26.085  1.00  0.00    -0.352 N 
ATOM     28  C   UNL A   1      39.593  22.284  26.502  1.00  0.00     0.251 C 
ATOM     29  H   UNL A   1      37.932  21.195  26.126  1.00  0.00     0.163 HD
ATOM     30  O   UNL A   1      40.386  21.362  26.529  1.00  0.00    -0.269 OA
BRANCH  28  31
ATOM     31  C   UNL A   1      39.994  23.623  26.959  1.00  0.00     0.039 A 
ATOM     32  C   UNL A   1      39.222  24.762  26.704  1.00  0.00     0.014 A 
ATOM     33  C   UNL A   1      41.160  23.690  27.714  1.00  0.00     0.014 A 
ATOM     34  C   UNL A   1      39.598  25.970  27.289  1.00  0.00     0.010 A 
ATOM     35  C   UNL A   1      41.431  24.829  28.417  1.00  0.00     0.010 A 
ATOM     36  C   UNL A   1      40.700  25.986  28.151  1.00  0.00    -0.014 A 
BRANCH  36  37
ATOM     37  C   UNL A   1      41.105  27.182  28.875  1.00  0.00     0.031 A 
ATOM     38  C   UNL A   1      42.305  27.883  28.337  1.00  0.00     0.074 A 
ATOM     39  C   UNL A   1      40.228  27.769  29.719  1.00  0.00     0.049 A 
ATOM     40  N   UNL A   1      43.403  28.174  28.954  1.00  0.00    -0.248 NA
ATOM     41  C   UNL A   1      42.337  28.210  26.900  1.00  0.00     0.031 C 
ATOM     42  C   UNL A   1      38.856  27.341  30.031  1.00  0.00     0.029 A 
ATOM     43  N   UNL A   1      40.302  28.981  30.326  1.00  0.00    -0.354 N 
ATOM     44  C   UNL A   1      44.183  28.892  28.047  1.00  0.00     0.074 A 
ATOM     45  C   UNL A   1      43.569  28.706  26.760  1.00  0.00     0.031 C 
ATOM     46  C   UNL A   1      38.160  28.386  30.528  1.00  0.00     0.029 A 
ATOM     47  C   UNL A   1      39.070  29.497  30.718  1.00  0.00     0.049 A 
ATOM     48  H   UNL A   1      41.153  29.454  30.475  1.00  0.00     0.167 HD
ATOM     49  C   UNL A   1      45.120  29.787  28.471  1.00  0.00     0.037 A 
ATOM     50  C   UNL A   1      38.831  30.783  31.075  1.00  0.00     0.037 A 
ATOM     51  C   UNL A   1      45.419  29.593  29.870  1.00  0.00     0.049 A 
ATOM     52  C   UNL A   1      40.148  31.391  31.415  1.00  0.00     0.074 A 
ATOM     53  C   UNL A   1      45.863  28.522  30.622  1.00  0.00     0.029 A 
ATOM     54  N   UNL A   1      44.884  30.479  30.776  1.00  0.00    -0.354 N 
ATOM     55  N   UNL A   1      40.874  31.013  32.434  1.00  0.00    -0.248 NA
ATOM     56  C   UNL A   1      40.880  32.042  30.336  1.00  0.00     0.031 C 
ATOM     57  C   UNL A   1      45.091  28.578  31.821  1.00  0.00     0.029 A 
ATOM     58  C   UNL A   1      44.303  29.728  31.765  1.00  0.00     0.049 A 
ATOM     59  H   UNL A   1      44.912  31.462  30.724  1.00  0.00     0.167 HD
ATOM     60  C   UNL A   1      42.176  30.986  31.952  1.00  0.00     0.074 A 
ATOM     61  C   UNL A   1      42.124  31.688  30.670  1.00  0.00     0.031 C 
ATOM     62  C   UNL A   1      43.113  30.136  32.471  1.00  0.00     0.037 A 
BRANCH  49  63
ATOM     63  C   UNL A   1      45.488  31.072  27.757  1.00  0.00     0.064 A 
ATOM     64  C   UNL A   1      46.806  31.228  27.277  1.00  0.00     0.173 A 
ATOM     65  C   UNL A   1      44.721  32.257  27.799  1.00  0.00     0.173 A 
ATOM     66  F   UNL A   1      47.631  30.173  27.189  1.00  0.00    -0.203 F 
ATOM     67  C   UNL A   1      47.344  32.482  26.977  1.00  0.00     0.198 A 
ATOM     68  C   UNL A   1      45.245  33.499  27.442  1.00  0.00     0.198 A 
ATOM     69  F   UNL A   1      43.478  32.292  28.288  1.00  0.00    -0.203 F 
ATOM     70  F   UNL A   1      48.644  32.591  26.669  1.00  0.00    -0.200 F 
ATOM     71  C   UNL A   1      46.566  33.619  27.071  1.00  0.00     0.200 A 
ATOM     72  F   UNL A   1      44.474  34.591  27.551  1.00  0.00    -0.200 F 
ATOM     73  F   UNL A   1      47.096  34.830  26.855  1.00  0.00    -0.200 F 
ENDBRANCH  49  63
BRANCH  50  74
ATOM     74  C   UNL A   1      37.609  31.576  30.783  1.00  0.00     0.064 A 
ATOM     75  C   UNL A   1      37.268  31.934  29.469  1.00  0.00     0.173 A 
ATOM     76  C   UNL A   1      36.621  31.801  31.764  1.00  0.00     0.173 A 
ATOM     77  F   UNL A   1      38.126  31.704  28.465  1.00  0.00    -0.203 F 
ATOM     78  C   UNL A   1      36.014  32.478  29.158  1.00  0.00     0.198 A 
ATOM     79  C   UNL A   1      35.377  32.355  31.455  1.00  0.00     0.198 A 
ATOM     80  F   UNL A   1      36.804  31.407  33.033  1.00  0.00    -0.203 F 
ATOM     81  F   UNL A   1      35.704  32.759  27.884  1.00  0.00    -0.200 F 
ATOM     82  C   UNL A   1      35.070  32.683  30.150  1.00  0.00     0.200 A 
ATOM     83  F   UNL A   1      34.462  32.512  32.423  1.00  0.00    -0.200 F 
ATOM     84  F   UNL A   1      33.853  33.158  29.846  1.00  0.00    -0.200 F 
ENDBRANCH  50  74
BRANCH  62  85
ATOM     85  C   UNL A   1      42.793  29.378  33.730  1.00  0.00     0.064 A 
ATOM     86  C   UNL A   1      42.146  28.130  33.757  1.00  0.00     0.173 A 
ATOM     87  C   UNL A   1      43.339  29.841  34.934  1.00  0.00     0.173 A 
ATOM     88  F   UNL A   1      41.693  27.563  32.633  1.00  0.00    -0.203 F 
ATOM     89  C   UNL A   1      42.019  27.403  34.940  1.00  0.00     0.198 A 
ATOM     90  C   UNL A   1      43.245  29.096  36.107  1.00  0.00     0.198 A 
ATOM     91  F   UNL A   1      44.023  30.996  34.961  1.00  0.00    -0.203 F 
ATOM     92  F   UNL A   1      41.394  26.216  34.934  1.00  0.00    -0.200 F 
ATOM     93  C   UNL A   1      42.578  27.883  36.111  1.00  0.00     0.200 A 
ATOM     94  F   UNL A   1      43.836  29.539  37.225  1.00  0.00    -0.200 F 
ATOM     95  F   UNL A   1      42.500  27.161  37.239  1.00  0.00    -0.200 F 
ENDBRANCH  62  85
ENDBRANCH  36  37
ENDBRANCH  28  31
ENDBRANCH  26  27
ENDBRANCH  25  26
ENDBRANCH   1  25
TORSDOF 13
ENDMDL
