MODEL 1
REMARK VINA RESULT:     -13.5      0.000      0.000
REMARK SMILES Cc1ccc(O[C@H](C)C(=O)NNC(=O)[C@@H]2[C@@H](C(=O)NCCCCNC(=O)c3ccc(-c4c5nc(c(-c6c(F)c(F)c(F)c(F)c6F)c6ccc([nH]6)c(-c6c(F)c(F)c(F)c(F)c6F)c6nc(c(-c7c(F)c(F)c(F)c(F)c7F)c7ccc4[nH]7)C=C6)C=C5)cc3)[C@@H]3C=C[C@H]2C3)cc1C
REMARK SMILES IDX 20 1 19 2 17 3 18 4 16 6 15 7 93 8 90 9 92 10 94 11 91 12
REMARK SMILES IDX 13 13 12 14 14 16 11 17 9 18 10 19 7 21 8 22 6 23 5 24 1 25
REMARK SMILES IDX 2 26 3 27 96 28 4 29 95 30 97 31 21 32 22 33 23 34 24 35
REMARK SMILES IDX 25 36 26 38 27 39 28 40 89 41 29 42 88 43 30 44 31 45 32 46
REMARK SMILES IDX 82 47 33 48 87 49 81 50 83 51 34 52 86 53 80 54 79 55 35 57
REMARK SMILES IDX 67 58 47 59 66 60 48 61 51 62 65 63 84 64 49 65 50 66 64 68
REMARK SMILES IDX 85 69 52 70 36 71 37 72 45 73 38 74 39 75 43 76 46 77 40 78
REMARK SMILES IDX 41 79 44 80 42 81 68 82 69 83 77 84 70 85 71 86 75 87 78 88
REMARK SMILES IDX 72 89 73 90 76 91 74 92 53 93 54 94 62 95 55 96 56 97 60 98
REMARK SMILES IDX 63 99 57 100 58 101 61 102 59 103
REMARK H PARENT 19 5 12 15 11 20 24 37 83 56 51 67
REMARK Flexibility Score: inf
ROOT
ATOM      1  C   UNL A   1      33.116  29.873  26.195  1.00  0.00     0.116 C 
ENDROOT
BRANCH   1   2
ATOM      2  N   UNL A   1      33.614  29.219  25.005  1.00  0.00    -0.356 N 
ATOM      3  C   UNL A   1      32.999  28.316  24.195  1.00  0.00     0.224 C 
ATOM      4  O   UNL A   1      33.640  27.912  23.223  1.00  0.00    -0.275 OA
ATOM      5  H   UNL A   1      34.531  29.463  24.743  1.00  0.00     0.163 HD
BRANCH   3   6
ATOM      6  C   UNL A   1      31.571  27.850  24.489  1.00  0.00     0.098 C 
ATOM      7  C   UNL A   1      31.453  26.300  24.801  1.00  0.00     0.100 C 
ATOM      8  C   UNL A   1      30.552  25.809  23.634  1.00  0.00     0.025 C 
ATOM      9  C   UNL A   1      30.698  27.993  23.211  1.00  0.00     0.025 C 
ATOM     10  C   UNL A   1      29.169  26.378  23.814  1.00  0.00    -0.027 C 
ATOM     11  C   UNL A   1      31.015  26.692  22.474  1.00  0.00     0.017 C 
ATOM     12  C   UNL A   1      29.259  27.696  23.581  1.00  0.00    -0.027 C 
BRANCH   7  13
ATOM     13  C   UNL A   1      30.934  26.066  26.231  1.00  0.00     0.242 C 
ATOM     14  N   UNL A   1      30.657  24.826  26.734  1.00  0.00    -0.267 N 
ATOM     15  H   UNL A   1      30.620  24.746  27.714  1.00  0.00     0.191 HD
ATOM     16  O   UNL A   1      30.858  26.994  27.043  1.00  0.00    -0.273 OA
BRANCH  14  17
ATOM     17  N   UNL A   1      30.425  23.674  26.009  1.00  0.00    -0.264 N 
ATOM     18  C   UNL A   1      31.353  22.668  25.868  1.00  0.00     0.279 C 
ATOM     19  O   UNL A   1      30.981  21.581  25.419  1.00  0.00    -0.269 OA
ATOM     20  H   UNL A   1      29.550  23.566  25.571  1.00  0.00     0.191 HD
BRANCH  18  21
ATOM     21  C   UNL A   1      32.845  22.959  26.129  1.00  0.00     0.260 C 
ATOM     22  C   UNL A   1      33.225  22.284  27.453  1.00  0.00     0.064 C 
BRANCH  21  23
ATOM     23  O   UNL A   1      33.680  22.511  25.058  1.00  0.00    -0.481 OA
BRANCH  23  24
ATOM     24  C   UNL A   1      35.040  22.508  25.253  1.00  0.00     0.120 A 
ATOM     25  C   UNL A   1      39.299  22.106  25.955  1.00  0.00     0.044 C 
ATOM     26  C   UNL A   1      37.824  22.210  25.678  1.00  0.00    -0.048 A 
ATOM     27  C   UNL A   1      37.180  23.432  25.912  1.00  0.00     0.007 A 
ATOM     28  C   UNL A   1      37.068  21.128  25.193  1.00  0.00    -0.045 A 
ATOM     29  C   UNL A   1      35.807  23.583  25.693  1.00  0.00     0.047 A 
ATOM     30  C   UNL A   1      35.681  21.292  24.991  1.00  0.00     0.050 A 
ATOM     31  C   UNL A   1      37.677  19.790  24.868  1.00  0.00     0.045 C 
ENDBRANCH  23  24
ENDBRANCH  21  23
ENDBRANCH  18  21
ENDBRANCH  14  17
ENDBRANCH   7  13
ENDBRANCH   3   6
ENDBRANCH   1   2
BRANCH   1  32
ATOM     32  C   UNL A   1      31.935  30.783  25.865  1.00  0.00     0.023 C 
BRANCH  32  33
ATOM     33  C   UNL A   1      31.619  31.819  26.947  1.00  0.00     0.023 C 
BRANCH  33  34
ATOM     34  C   UNL A   1      32.797  32.694  27.359  1.00  0.00     0.116 C 
BRANCH  34  35
ATOM     35  N   UNL A   1      32.424  34.070  27.651  1.00  0.00    -0.352 N 
ATOM     36  C   UNL A   1      32.980  34.922  28.574  1.00  0.00     0.251 C 
ATOM     37  H   UNL A   1      31.681  34.437  27.120  1.00  0.00     0.163 HD
ATOM     38  O   UNL A   1      32.498  36.032  28.777  1.00  0.00    -0.269 OA
BRANCH  36  39
ATOM     39  C   UNL A   1      34.142  34.465  29.357  1.00  0.00     0.039 A 
ATOM     40  C   UNL A   1      33.921  33.839  30.586  1.00  0.00     0.014 A 
ATOM     41  C   UNL A   1      35.438  34.609  28.854  1.00  0.00     0.014 A 
ATOM     42  C   UNL A   1      34.998  33.290  31.281  1.00  0.00     0.010 A 
ATOM     43  C   UNL A   1      36.500  34.002  29.514  1.00  0.00     0.010 A 
ATOM     44  C   UNL A   1      36.290  33.336  30.730  1.00  0.00    -0.014 A 
BRANCH  44  45
ATOM     45  C   UNL A   1      37.437  32.689  31.410  1.00  0.00     0.031 A 
ATOM     46  C   UNL A   1      38.134  31.527  30.761  1.00  0.00     0.074 A 
ATOM     47  C   UNL A   1      37.797  33.097  32.641  1.00  0.00     0.049 A 
ATOM     48  N   UNL A   1      39.098  30.776  31.226  1.00  0.00    -0.248 NA
ATOM     49  C   UNL A   1      37.661  31.139  29.423  1.00  0.00     0.031 C 
ATOM     50  C   UNL A   1      37.157  34.176  33.395  1.00  0.00     0.029 A 
ATOM     51  N   UNL A   1      38.782  32.644  33.481  1.00  0.00    -0.354 N 
ATOM     52  C   UNL A   1      39.331  29.817  30.251  1.00  0.00     0.074 A 
ATOM     53  C   UNL A   1      38.376  30.049  29.189  1.00  0.00     0.031 C 
ATOM     54  C   UNL A   1      37.778  34.314  34.578  1.00  0.00     0.029 A 
ATOM     55  C   UNL A   1      38.838  33.316  34.677  1.00  0.00     0.049 A 
ATOM     56  H   UNL A   1      39.391  31.906  33.249  1.00  0.00     0.167 HD
ATOM     57  C   UNL A   1      40.272  28.843  30.234  1.00  0.00     0.037 A 
ATOM     58  C   UNL A   1      39.653  33.142  35.734  1.00  0.00     0.037 A 
ATOM     59  C   UNL A   1      41.243  28.640  31.274  1.00  0.00     0.049 A 
ATOM     60  C   UNL A   1      40.711  32.074  35.676  1.00  0.00     0.074 A 
ATOM     61  C   UNL A   1      42.281  27.726  31.321  1.00  0.00     0.029 A 
ATOM     62  N   UNL A   1      41.297  29.369  32.453  1.00  0.00    -0.354 N 
ATOM     63  N   UNL A   1      40.966  31.216  34.719  1.00  0.00    -0.248 NA
ATOM     64  C   UNL A   1      41.598  31.956  36.841  1.00  0.00     0.031 C 
ATOM     65  C   UNL A   1      42.943  27.881  32.544  1.00  0.00     0.029 A 
ATOM     66  C   UNL A   1      42.344  28.918  33.241  1.00  0.00     0.049 A 
ATOM     67  H   UNL A   1      40.683  30.100  32.695  1.00  0.00     0.167 HD
ATOM     68  C   UNL A   1      42.057  30.475  35.152  1.00  0.00     0.074 A 
ATOM     69  C   UNL A   1      42.423  30.994  36.453  1.00  0.00     0.031 C 
ATOM     70  C   UNL A   1      42.699  29.457  34.528  1.00  0.00     0.037 A 
BRANCH  57  71
ATOM     71  C   UNL A   1      40.299  27.931  29.043  1.00  0.00     0.064 A 
ATOM     72  C   UNL A   1      41.035  28.248  27.892  1.00  0.00     0.173 A 
ATOM     73  C   UNL A   1      39.602  26.713  29.063  1.00  0.00     0.173 A 
ATOM     74  F   UNL A   1      41.706  29.407  27.818  1.00  0.00    -0.203 F 
ATOM     75  C   UNL A   1      41.048  27.395  26.792  1.00  0.00     0.198 A 
ATOM     76  C   UNL A   1      39.640  25.849  27.971  1.00  0.00     0.198 A 
ATOM     77  F   UNL A   1      38.886  26.360  30.140  1.00  0.00    -0.203 F 
ATOM     78  F   UNL A   1      41.717  27.742  25.684  1.00  0.00    -0.200 F 
ATOM     79  C   UNL A   1      40.356  26.194  26.834  1.00  0.00     0.200 A 
ATOM     80  F   UNL A   1      38.980  24.683  28.018  1.00  0.00    -0.200 F 
ATOM     81  F   UNL A   1      40.373  25.372  25.777  1.00  0.00    -0.200 F 
ENDBRANCH  57  71
BRANCH  58  82
ATOM     82  C   UNL A   1      39.527  34.026  36.920  1.00  0.00     0.064 A 
ATOM     83  C   UNL A   1      38.780  33.625  38.037  1.00  0.00     0.173 A 
ATOM     84  C   UNL A   1      40.149  35.281  36.967  1.00  0.00     0.173 A 
ATOM     85  F   UNL A   1      38.152  32.439  38.030  1.00  0.00    -0.203 F 
ATOM     86  C   UNL A   1      38.642  34.454  39.146  1.00  0.00     0.198 A 
ATOM     87  C   UNL A   1      40.030  36.100  38.088  1.00  0.00     0.198 A 
ATOM     88  F   UNL A   1      40.880  35.708  35.927  1.00  0.00    -0.203 F 
ATOM     89  F   UNL A   1      37.889  34.062  40.184  1.00  0.00    -0.200 F 
ATOM     90  C   UNL A   1      39.272  35.688  39.174  1.00  0.00     0.200 A 
ATOM     91  F   UNL A   1      40.651  37.287  38.116  1.00  0.00    -0.200 F 
ATOM     92  F   UNL A   1      39.142  36.485  40.244  1.00  0.00    -0.200 F 
ENDBRANCH  58  82
BRANCH  70  93
ATOM     93  C   UNL A   1      43.882  28.861  35.229  1.00  0.00     0.064 A 
ATOM     94  C   UNL A   1      45.180  29.344  35.020  1.00  0.00     0.173 A 
ATOM     95  C   UNL A   1      43.706  27.819  36.153  1.00  0.00     0.173 A 
ATOM     96  F   UNL A   1      45.399  30.328  34.134  1.00  0.00    -0.203 F 
ATOM     97  C   UNL A   1      46.265  28.792  35.696  1.00  0.00     0.198 A 
ATOM     98  C   UNL A   1      44.789  27.288  36.845  1.00  0.00     0.198 A 
ATOM     99  F   UNL A   1      42.481  27.326  36.392  1.00  0.00    -0.203 F 
ATOM    100  F   UNL A   1      47.503  29.243  35.451  1.00  0.00    -0.200 F 
ATOM    101  C   UNL A   1      46.068  27.771  36.613  1.00  0.00     0.200 A 
ATOM    102  F   UNL A   1      44.596  26.308  37.740  1.00  0.00    -0.200 F 
ATOM    103  F   UNL A   1      47.113  27.246  37.267  1.00  0.00    -0.200 F 
ENDBRANCH  70  93
ENDBRANCH  44  45
ENDBRANCH  36  39
ENDBRANCH  34  35
ENDBRANCH  33  34
ENDBRANCH  32  33
ENDBRANCH   1  32
TORSDOF 16
ENDMDL
MODEL 2
REMARK VINA RESULT:     -13.5      1.628      2.757
REMARK SMILES Cc1ccc(O[C@H](C)C(=O)NNC(=O)[C@@H]2[C@@H](C(=O)NCCCCNC(=O)c3ccc(-c4c5nc(c(-c6c(F)c(F)c(F)c(F)c6F)c6ccc([nH]6)c(-c6c(F)c(F)c(F)c(F)c6F)c6nc(c(-c7c(F)c(F)c(F)c(F)c7F)c7ccc4[nH]7)C=C6)C=C5)cc3)[C@@H]3C=C[C@H]2C3)cc1C
REMARK SMILES IDX 20 1 19 2 17 3 18 4 16 6 15 7 93 8 90 9 92 10 94 11 91 12
REMARK SMILES IDX 13 13 12 14 14 16 11 17 9 18 10 19 7 21 8 22 6 23 5 24 1 25
REMARK SMILES IDX 2 26 3 27 96 28 4 29 95 30 97 31 21 32 22 33 23 34 24 35
REMARK SMILES IDX 25 36 26 38 27 39 28 40 89 41 29 42 88 43 30 44 31 45 32 46
REMARK SMILES IDX 82 47 33 48 87 49 81 50 83 51 34 52 86 53 80 54 79 55 35 57
REMARK SMILES IDX 67 58 47 59 66 60 48 61 51 62 65 63 84 64 49 65 50 66 64 68
REMARK SMILES IDX 85 69 52 70 36 71 37 72 45 73 38 74 39 75 43 76 46 77 40 78
REMARK SMILES IDX 41 79 44 80 42 81 68 82 69 83 77 84 70 85 71 86 75 87 78 88
REMARK SMILES IDX 72 89 73 90 76 91 74 92 53 93 54 94 62 95 55 96 56 97 60 98
REMARK SMILES IDX 63 99 57 100 58 101 61 102 59 103
REMARK H PARENT 19 5 12 15 11 20 24 37 83 56 51 67
REMARK Flexibility Score: inf
ROOT
ATOM      1  C   UNL A   1      33.132  29.861  26.605  1.00  0.00     0.116 C 
ENDROOT
BRANCH   1   2
ATOM      2  N   UNL A   1      33.501  29.716  25.215  1.00  0.00    -0.356 N 
ATOM      3  C   UNL A   1      33.260  28.685  24.361  1.00  0.00     0.224 C 
ATOM      4  O   UNL A   1      33.673  28.810  23.207  1.00  0.00    -0.275 OA
ATOM      5  H   UNL A   1      34.000  30.473  24.830  1.00  0.00     0.163 HD
BRANCH   3   6
ATOM      6  C   UNL A   1      32.495  27.445  24.831  1.00  0.00     0.098 C 
ATOM      7  C   UNL A   1      32.848  26.128  24.022  1.00  0.00     0.100 C 
ATOM      8  C   UNL A   1      31.482  25.779  23.371  1.00  0.00     0.025 C 
ATOM      9  C   UNL A   1      30.979  27.618  24.528  1.00  0.00     0.025 C 
ATOM     10  C   UNL A   1      30.519  25.361  24.451  1.00  0.00    -0.027 C 
ATOM     11  C   UNL A   1      30.903  27.163  23.071  1.00  0.00     0.017 C 
ATOM     12  C   UNL A   1      30.233  26.462  25.162  1.00  0.00    -0.027 C 
BRANCH   7  13
ATOM     13  C   UNL A   1      33.472  25.068  24.947  1.00  0.00     0.242 C 
ATOM     14  N   UNL A   1      33.795  23.808  24.531  1.00  0.00    -0.267 N 
ATOM     15  H   UNL A   1      34.442  23.312  25.084  1.00  0.00     0.191 HD
ATOM     16  O   UNL A   1      33.828  25.352  26.096  1.00  0.00    -0.273 OA
BRANCH  14  17
ATOM     17  N   UNL A   1      33.309  23.157  23.414  1.00  0.00    -0.264 N 
ATOM     18  C   UNL A   1      32.461  22.075  23.478  1.00  0.00     0.279 C 
ATOM     19  O   UNL A   1      31.887  21.714  22.448  1.00  0.00    -0.269 OA
ATOM     20  H   UNL A   1      33.583  23.482  22.527  1.00  0.00     0.191 HD
BRANCH  18  21
ATOM     21  C   UNL A   1      32.360  21.256  24.781  1.00  0.00     0.260 C 
ATOM     22  C   UNL A   1      31.408  22.001  25.726  1.00  0.00     0.064 C 
BRANCH  21  23
ATOM     23  O   UNL A   1      31.916  19.917  24.546  1.00  0.00    -0.481 OA
BRANCH  23  24
ATOM     24  C   UNL A   1      32.837  18.902  24.643  1.00  0.00     0.120 A 
ATOM     25  C   UNL A   1      35.508  15.538  25.234  1.00  0.00     0.044 C 
ATOM     26  C   UNL A   1      34.545  16.674  25.019  1.00  0.00    -0.048 A 
ATOM     27  C   UNL A   1      35.046  17.909  24.588  1.00  0.00     0.007 A 
ATOM     28  C   UNL A   1      33.161  16.542  25.235  1.00  0.00    -0.045 A 
ATOM     29  C   UNL A   1      34.202  19.007  24.393  1.00  0.00     0.047 A 
ATOM     30  C   UNL A   1      32.325  17.664  25.047  1.00  0.00     0.050 A 
ATOM     31  C   UNL A   1      32.522  15.245  25.653  1.00  0.00     0.045 C 
ENDBRANCH  23  24
ENDBRANCH  21  23
ENDBRANCH  18  21
ENDBRANCH  14  17
ENDBRANCH   7  13
ENDBRANCH   3   6
ENDBRANCH   1   2
BRANCH   1  32
ATOM     32  C   UNL A   1      31.727  30.447  26.740  1.00  0.00     0.023 C 
BRANCH  32  33
ATOM     33  C   UNL A   1      31.668  31.971  26.620  1.00  0.00     0.023 C 
BRANCH  33  34
ATOM     34  C   UNL A   1      32.731  32.718  27.417  1.00  0.00     0.116 C 
BRANCH  34  35
ATOM     35  N   UNL A   1      32.390  34.107  27.683  1.00  0.00    -0.352 N 
ATOM     36  C   UNL A   1      32.982  34.971  28.572  1.00  0.00     0.251 C 
ATOM     37  H   UNL A   1      31.642  34.475  27.160  1.00  0.00     0.163 HD
ATOM     38  O   UNL A   1      32.525  36.095  28.758  1.00  0.00    -0.269 OA
BRANCH  36  39
ATOM     39  C   UNL A   1      34.153  34.512  29.340  1.00  0.00     0.039 A 
ATOM     40  C   UNL A   1      33.954  33.978  30.615  1.00  0.00     0.014 A 
ATOM     41  C   UNL A   1      35.433  34.563  28.781  1.00  0.00     0.014 A 
ATOM     42  C   UNL A   1      35.033  33.425  31.304  1.00  0.00     0.010 A 
ATOM     43  C   UNL A   1      36.493  33.951  29.439  1.00  0.00     0.010 A 
ATOM     44  C   UNL A   1      36.302  33.376  30.704  1.00  0.00    -0.014 A 
BRANCH  44  45
ATOM     45  C   UNL A   1      37.446  32.721  31.382  1.00  0.00     0.031 A 
ATOM     46  C   UNL A   1      38.160  31.580  30.715  1.00  0.00     0.074 A 
ATOM     47  C   UNL A   1      37.789  33.104  32.626  1.00  0.00     0.049 A 
ATOM     48  N   UNL A   1      39.124  30.825  31.174  1.00  0.00    -0.248 NA
ATOM     49  C   UNL A   1      37.705  31.220  29.363  1.00  0.00     0.031 C 
ATOM     50  C   UNL A   1      37.133  34.161  33.398  1.00  0.00     0.029 A 
ATOM     51  N   UNL A   1      38.768  32.638  33.467  1.00  0.00    -0.354 N 
ATOM     52  C   UNL A   1      39.376  29.891  30.180  1.00  0.00     0.074 A 
ATOM     53  C   UNL A   1      38.431  30.141  29.112  1.00  0.00     0.031 C 
ATOM     54  C   UNL A   1      37.739  34.276  34.591  1.00  0.00     0.029 A 
ATOM     55  C   UNL A   1      38.805  33.283  34.679  1.00  0.00     0.049 A 
ATOM     56  H   UNL A   1      39.385  31.911  33.225  1.00  0.00     0.167 HD
ATOM     57  C   UNL A   1      40.324  28.924  30.151  1.00  0.00     0.037 A 
ATOM     58  C   UNL A   1      39.610  33.091  35.741  1.00  0.00     0.037 A 
ATOM     59  C   UNL A   1      41.285  28.704  31.198  1.00  0.00     0.049 A 
ATOM     60  C   UNL A   1      40.676  32.032  35.671  1.00  0.00     0.074 A 
ATOM     61  C   UNL A   1      42.328  27.797  31.236  1.00  0.00     0.029 A 
ATOM     62  N   UNL A   1      41.319  29.406  32.394  1.00  0.00    -0.354 N 
ATOM     63  N   UNL A   1      40.949  31.198  34.697  1.00  0.00    -0.248 NA
ATOM     64  C   UNL A   1      41.550  31.894  36.843  1.00  0.00     0.031 C 
ATOM     65  C   UNL A   1      42.976  27.929  32.470  1.00  0.00     0.029 A 
ATOM     66  C   UNL A   1      42.361  28.945  33.183  1.00  0.00     0.049 A 
ATOM     67  H   UNL A   1      40.697  30.127  32.645  1.00  0.00     0.167 HD
ATOM     68  C   UNL A   1      42.040  30.455  35.126  1.00  0.00     0.074 A 
ATOM     69  C   UNL A   1      42.387  30.947  36.443  1.00  0.00     0.031 C 
ATOM     70  C   UNL A   1      42.696  29.457  34.486  1.00  0.00     0.037 A 
BRANCH  57  71
ATOM     71  C   UNL A   1      40.371  28.040  28.940  1.00  0.00     0.064 A 
ATOM     72  C   UNL A   1      39.666  26.828  28.888  1.00  0.00     0.173 A 
ATOM     73  C   UNL A   1      41.107  28.421  27.808  1.00  0.00     0.173 A 
ATOM     74  F   UNL A   1      38.959  26.413  29.950  1.00  0.00    -0.203 F 
ATOM     75  C   UNL A   1      39.721  26.015  27.760  1.00  0.00     0.198 A 
ATOM     76  C   UNL A   1      41.137  27.618  26.671  1.00  0.00     0.198 A 
ATOM     77  F   UNL A   1      41.796  29.572  27.804  1.00  0.00    -0.203 F 
ATOM     78  F   UNL A   1      39.081  24.838  27.752  1.00  0.00    -0.200 F 
ATOM     79  C   UNL A   1      40.452  26.413  26.650  1.00  0.00     0.200 A 
ATOM     80  F   UNL A   1      41.835  28.010  25.595  1.00  0.00    -0.200 F 
ATOM     81  F   UNL A   1      40.500  25.631  25.563  1.00  0.00    -0.200 F 
ENDBRANCH  57  71
BRANCH  58  82
ATOM     82  C   UNL A   1      39.463  33.946  36.945  1.00  0.00     0.064 A 
ATOM     83  C   UNL A   1      40.061  35.213  37.002  1.00  0.00     0.173 A 
ATOM     84  C   UNL A   1      38.726  33.522  38.059  1.00  0.00     0.173 A 
ATOM     85  F   UNL A   1      40.792  35.655  35.967  1.00  0.00    -0.203 F 
ATOM     86  C   UNL A   1      39.943  36.015  38.134  1.00  0.00     0.198 A 
ATOM     87  C   UNL A   1      38.589  34.335  39.183  1.00  0.00     0.198 A 
ATOM     88  F   UNL A   1      38.130  32.320  38.053  1.00  0.00    -0.203 F 
ATOM     89  F   UNL A   1      40.558  37.205  38.177  1.00  0.00    -0.200 F 
ATOM     90  C   UNL A   1      39.203  35.578  39.222  1.00  0.00     0.200 A 
ATOM     91  F   UNL A   1      37.862  33.914  40.227  1.00  0.00    -0.200 F 
ATOM     92  F   UNL A   1      39.087  36.351  40.310  1.00  0.00    -0.200 F 
ENDBRANCH  58  82
BRANCH  70  93
ATOM     93  C   UNL A   1      43.875  28.853  35.187  1.00  0.00     0.064 A 
ATOM     94  C   UNL A   1      43.740  27.738  36.025  1.00  0.00     0.173 A 
ATOM     95  C   UNL A   1      45.163  29.374  34.983  1.00  0.00     0.173 A 
ATOM     96  F   UNL A   1      42.527  27.215  36.262  1.00  0.00    -0.203 F 
ATOM     97  C   UNL A   1      44.850  27.176  36.651  1.00  0.00     0.198 A 
ATOM     98  C   UNL A   1      46.272  28.793  35.591  1.00  0.00     0.198 A 
ATOM     99  F   UNL A   1      45.344  30.437  34.186  1.00  0.00    -0.203 F 
ATOM    100  F   UNL A   1      44.693  26.135  37.480  1.00  0.00    -0.200 F 
ATOM    101  C   UNL A   1      46.115  27.700  36.428  1.00  0.00     0.200 A 
ATOM    102  F   UNL A   1      47.495  29.293  35.365  1.00  0.00    -0.200 F 
ATOM    103  F   UNL A   1      47.181  27.153  37.026  1.00  0.00    -0.200 F 
ENDBRANCH  70  93
ENDBRANCH  44  45
ENDBRANCH  36  39
ENDBRANCH  34  35
ENDBRANCH  33  34
ENDBRANCH  32  33
ENDBRANCH   1  32
TORSDOF 16
ENDMDL
MODEL 3
REMARK VINA RESULT:     -13.4      1.361      2.257
REMARK SMILES Cc1ccc(O[C@H](C)C(=O)NNC(=O)[C@@H]2[C@@H](C(=O)NCCCCNC(=O)c3ccc(-c4c5nc(c(-c6c(F)c(F)c(F)c(F)c6F)c6ccc([nH]6)c(-c6c(F)c(F)c(F)c(F)c6F)c6nc(c(-c7c(F)c(F)c(F)c(F)c7F)c7ccc4[nH]7)C=C6)C=C5)cc3)[C@@H]3C=C[C@H]2C3)cc1C
REMARK SMILES IDX 20 1 19 2 17 3 18 4 16 6 15 7 93 8 90 9 92 10 94 11 91 12
REMARK SMILES IDX 13 13 12 14 14 16 11 17 9 18 10 19 7 21 8 22 6 23 5 24 1 25
REMARK SMILES IDX 2 26 3 27 96 28 4 29 95 30 97 31 21 32 22 33 23 34 24 35
REMARK SMILES IDX 25 36 26 38 27 39 28 40 89 41 29 42 88 43 30 44 31 45 32 46
REMARK SMILES IDX 82 47 33 48 87 49 81 50 83 51 34 52 86 53 80 54 79 55 35 57
REMARK SMILES IDX 67 58 47 59 66 60 48 61 51 62 65 63 84 64 49 65 50 66 64 68
REMARK SMILES IDX 85 69 52 70 36 71 37 72 45 73 38 74 39 75 43 76 46 77 40 78
REMARK SMILES IDX 41 79 44 80 42 81 68 82 69 83 77 84 70 85 71 86 75 87 78 88
REMARK SMILES IDX 72 89 73 90 76 91 74 92 53 93 54 94 62 95 55 96 56 97 60 98
REMARK SMILES IDX 63 99 57 100 58 101 61 102 59 103
REMARK H PARENT 19 5 12 15 11 20 24 37 83 56 51 67
REMARK Flexibility Score: inf
ROOT
ATOM      1  C   UNL A   1      33.100  29.719  26.453  1.00  0.00     0.116 C 
ENDROOT
BRANCH   1   2
ATOM      2  N   UNL A   1      33.289  29.756  25.020  1.00  0.00    -0.356 N 
ATOM      3  C   UNL A   1      32.893  28.861  24.075  1.00  0.00     0.224 C 
ATOM      4  O   UNL A   1      33.169  29.130  22.904  1.00  0.00    -0.275 OA
ATOM      5  H   UNL A   1      33.776  30.541  24.679  1.00  0.00     0.163 HD
BRANCH   3   6
ATOM      6  C   UNL A   1      32.128  27.596  24.469  1.00  0.00     0.098 C 
ATOM      7  C   UNL A   1      32.732  26.263  23.858  1.00  0.00     0.100 C 
ATOM      8  C   UNL A   1      31.563  25.766  22.964  1.00  0.00     0.025 C 
ATOM      9  C   UNL A   1      30.705  27.626  23.844  1.00  0.00     0.025 C 
ATOM     10  C   UNL A   1      30.420  25.339  23.848  1.00  0.00    -0.027 C 
ATOM     11  C   UNL A   1      30.973  27.077  22.443  1.00  0.00     0.017 C 
ATOM     12  C   UNL A   1      29.917  26.455  24.395  1.00  0.00    -0.027 C 
BRANCH   7  13
ATOM     13  C   UNL A   1      33.211  25.317  24.973  1.00  0.00     0.242 C 
ATOM     14  N   UNL A   1      34.394  24.636  24.920  1.00  0.00    -0.267 N 
ATOM     15  H   UNL A   1      34.750  24.301  25.774  1.00  0.00     0.191 HD
ATOM     16  O   UNL A   1      32.596  25.223  26.040  1.00  0.00    -0.273 OA
BRANCH  14  17
ATOM     17  N   UNL A   1      35.143  24.367  23.791  1.00  0.00    -0.264 N 
ATOM     18  C   UNL A   1      35.893  23.225  23.634  1.00  0.00     0.279 C 
ATOM     19  O   UNL A   1      36.326  22.953  22.512  1.00  0.00    -0.269 OA
ATOM     20  H   UNL A   1      35.140  25.027  23.060  1.00  0.00     0.191 HD
BRANCH  18  21
ATOM     21  C   UNL A   1      36.298  22.397  24.871  1.00  0.00     0.260 C 
ATOM     22  C   UNL A   1      37.198  23.279  25.746  1.00  0.00     0.064 C 
BRANCH  21  23
ATOM     23  O   UNL A   1      35.164  21.924  25.602  1.00  0.00    -0.481 OA
BRANCH  23  24
ATOM     24  C   UNL A   1      34.358  20.981  25.010  1.00  0.00     0.120 A 
ATOM     25  C   UNL A   1      32.153  17.806  23.048  1.00  0.00     0.044 C 
ATOM     26  C   UNL A   1      32.938  18.875  23.758  1.00  0.00    -0.048 A 
ATOM     27  C   UNL A   1      32.421  20.176  23.798  1.00  0.00     0.007 A 
ATOM     28  C   UNL A   1      34.172  18.616  24.383  1.00  0.00    -0.045 A 
ATOM     29  C   UNL A   1      33.117  21.215  24.425  1.00  0.00     0.047 A 
ATOM     30  C   UNL A   1      34.868  19.679  24.998  1.00  0.00     0.050 A 
ATOM     31  C   UNL A   1      34.787  17.243  24.434  1.00  0.00     0.045 C 
ENDBRANCH  23  24
ENDBRANCH  21  23
ENDBRANCH  18  21
ENDBRANCH  14  17
ENDBRANCH   7  13
ENDBRANCH   3   6
ENDBRANCH   1   2
BRANCH   1  32
ATOM     32  C   UNL A   1      31.775  30.372  26.847  1.00  0.00     0.023 C 
BRANCH  32  33
ATOM     33  C   UNL A   1      31.730  31.885  26.624  1.00  0.00     0.023 C 
BRANCH  33  34
ATOM     34  C   UNL A   1      32.824  32.670  27.337  1.00  0.00     0.116 C 
BRANCH  34  35
ATOM     35  N   UNL A   1      32.457  34.049  27.626  1.00  0.00    -0.352 N 
ATOM     36  C   UNL A   1      33.012  34.899  28.552  1.00  0.00     0.251 C 
ATOM     37  H   UNL A   1      31.719  34.419  27.090  1.00  0.00     0.163 HD
ATOM     38  O   UNL A   1      32.534  36.011  28.751  1.00  0.00    -0.269 OA
BRANCH  36  39
ATOM     39  C   UNL A   1      34.167  34.436  29.342  1.00  0.00     0.039 A 
ATOM     40  C   UNL A   1      33.936  33.827  30.578  1.00  0.00     0.014 A 
ATOM     41  C   UNL A   1      35.465  34.558  28.840  1.00  0.00     0.014 A 
ATOM     42  C   UNL A   1      35.005  33.273  31.281  1.00  0.00     0.010 A 
ATOM     43  C   UNL A   1      36.519  33.946  29.509  1.00  0.00     0.010 A 
ATOM     44  C   UNL A   1      36.298  33.297  30.732  1.00  0.00    -0.014 A 
BRANCH  44  45
ATOM     45  C   UNL A   1      37.436  32.644  31.421  1.00  0.00     0.031 A 
ATOM     46  C   UNL A   1      38.144  31.491  30.770  1.00  0.00     0.074 A 
ATOM     47  C   UNL A   1      37.777  33.038  32.662  1.00  0.00     0.049 A 
ATOM     48  N   UNL A   1      39.103  30.735  31.240  1.00  0.00    -0.248 NA
ATOM     49  C   UNL A   1      37.692  31.117  29.420  1.00  0.00     0.031 C 
ATOM     50  C   UNL A   1      37.124  34.108  33.420  1.00  0.00     0.029 A 
ATOM     51  N   UNL A   1      38.750  32.576  33.512  1.00  0.00    -0.354 N 
ATOM     52  C   UNL A   1      39.352  29.788  30.258  1.00  0.00     0.074 A 
ATOM     53  C   UNL A   1      38.412  30.032  29.185  1.00  0.00     0.031 C 
ATOM     54  C   UNL A   1      37.727  34.233  34.613  1.00  0.00     0.029 A 
ATOM     55  C   UNL A   1      38.787  33.235  34.716  1.00  0.00     0.049 A 
ATOM     56  H   UNL A   1      39.363  31.843  33.280  1.00  0.00     0.167 HD
ATOM     57  C   UNL A   1      40.295  28.815  30.243  1.00  0.00     0.037 A 
ATOM     58  C   UNL A   1      39.587  33.050  35.783  1.00  0.00     0.037 A 
ATOM     59  C   UNL A   1      41.251  28.602  31.296  1.00  0.00     0.049 A 
ATOM     60  C   UNL A   1      40.647  31.984  35.729  1.00  0.00     0.074 A 
ATOM     61  C   UNL A   1      42.289  27.689  31.348  1.00  0.00     0.029 A 
ATOM     62  N   UNL A   1      41.285  29.318  32.484  1.00  0.00    -0.354 N 
ATOM     63  N   UNL A   1      40.918  31.138  34.765  1.00  0.00    -0.248 NA
ATOM     64  C   UNL A   1      41.517  31.855  36.905  1.00  0.00     0.031 C 
ATOM     65  C   UNL A   1      42.933  27.831  32.583  1.00  0.00     0.029 A 
ATOM     66  C   UNL A   1      42.321  28.859  33.282  1.00  0.00     0.049 A 
ATOM     67  H   UNL A   1      40.666  30.045  32.725  1.00  0.00     0.167 HD
ATOM     68  C   UNL A   1      42.003  30.393  35.206  1.00  0.00     0.074 A 
ATOM     69  C   UNL A   1      42.349  30.898  36.519  1.00  0.00     0.031 C 
ATOM     70  C   UNL A   1      42.656  29.384  34.580  1.00  0.00     0.037 A 
BRANCH  57  71
ATOM     71  C   UNL A   1      40.340  27.918  29.043  1.00  0.00     0.064 A 
ATOM     72  C   UNL A   1      41.100  28.245  27.910  1.00  0.00     0.173 A 
ATOM     73  C   UNL A   1      39.639  26.703  29.034  1.00  0.00     0.173 A 
ATOM     74  F   UNL A   1      41.778  29.402  27.863  1.00  0.00    -0.203 F 
ATOM     75  C   UNL A   1      41.131  27.404  26.801  1.00  0.00     0.198 A 
ATOM     76  C   UNL A   1      39.694  25.852  27.934  1.00  0.00     0.198 A 
ATOM     77  F   UNL A   1      38.900  26.340  30.094  1.00  0.00    -0.203 F 
ATOM     78  F   UNL A   1      41.824  27.762  25.710  1.00  0.00    -0.200 F 
ATOM     79  C   UNL A   1      40.434  26.207  26.815  1.00  0.00     0.200 A 
ATOM     80  F   UNL A   1      39.028  24.689  27.954  1.00  0.00    -0.200 F 
ATOM     81  F   UNL A   1      40.468  25.397  25.749  1.00  0.00    -0.200 F 
ENDBRANCH  57  71
BRANCH  58  82
ATOM     82  C   UNL A   1      39.442  33.920  36.977  1.00  0.00     0.064 A 
ATOM     83  C   UNL A   1      38.696  33.496  38.087  1.00  0.00     0.173 A 
ATOM     84  C   UNL A   1      40.042  35.184  37.040  1.00  0.00     0.173 A 
ATOM     85  F   UNL A   1      38.086  32.300  38.065  1.00  0.00    -0.203 F 
ATOM     86  C   UNL A   1      38.540  34.312  39.204  1.00  0.00     0.198 A 
ATOM     87  C   UNL A   1      39.906  35.990  38.168  1.00  0.00     0.198 A 
ATOM     88  F   UNL A   1      40.771  35.633  36.007  1.00  0.00    -0.203 F 
ATOM     89  F   UNL A   1      37.789  33.898  40.234  1.00  0.00    -0.200 F 
ATOM     90  C   UNL A   1      39.150  35.556  39.247  1.00  0.00     0.200 A 
ATOM     91  F   UNL A   1      40.508  37.187  38.211  1.00  0.00    -0.200 F 
ATOM     92  F   UNL A   1      39.003  36.340  40.324  1.00  0.00    -0.200 F 
ENDBRANCH  58  82
BRANCH  70  93
ATOM     93  C   UNL A   1      43.829  28.781  35.292  1.00  0.00     0.064 A 
ATOM     94  C   UNL A   1      43.676  27.715  36.189  1.00  0.00     0.173 A 
ATOM     95  C   UNL A   1      45.127  29.251  35.040  1.00  0.00     0.173 A 
ATOM     96  F   UNL A   1      42.452  27.243  36.473  1.00  0.00    -0.203 F 
ATOM     97  C   UNL A   1      44.779  27.153  36.825  1.00  0.00     0.198 A 
ATOM     98  C   UNL A   1      46.230  28.669  35.658  1.00  0.00     0.198 A 
ATOM     99  F   UNL A   1      45.326  30.265  34.185  1.00  0.00    -0.203 F 
ATOM    100  F   UNL A   1      44.607  26.161  37.709  1.00  0.00    -0.200 F 
ATOM    101  C   UNL A   1      46.055  27.625  36.553  1.00  0.00     0.200 A 
ATOM    102  F   UNL A   1      47.463  29.119  35.386  1.00  0.00    -0.200 F 
ATOM    103  F   UNL A   1      47.116  27.078  37.162  1.00  0.00    -0.200 F 
ENDBRANCH  70  93
ENDBRANCH  44  45
ENDBRANCH  36  39
ENDBRANCH  34  35
ENDBRANCH  33  34
ENDBRANCH  32  33
ENDBRANCH   1  32
TORSDOF 16
ENDMDL
