MODEL 1
REMARK VINA RESULT:     -14.0      0.000      0.000
REMARK SMILES O=C(NCCCCNC(=O)[C@@H]1[C@H](C(=O)Nc2ccc(Cn3cncn3)cc2)[C@@H]2C=C[C@H]1CC2)c1ccc(-c2c3nc(c(-c4c(F)c(F)c(F)c(F)c4F)c4ccc([nH]4)c(-c4c(F)c(F)c(F)c(F)c4F)c4nc(c(-c5c(F)c(F)c(F)c(F)c5F)c5ccc2[nH]5)C=C4)C=C3)cc1
REMARK SMILES IDX 6 1 5 2 4 3 3 4 1 5 2 6 34 8 35 9 96 10 36 11 95 12 37 13
REMARK SMILES IDX 38 14 39 15 89 16 40 17 94 18 88 19 90 20 41 21 93 22 87 23
REMARK SMILES IDX 86 24 42 26 74 27 54 28 73 29 55 30 58 31 72 32 91 33 56 34
REMARK SMILES IDX 57 35 71 37 92 38 59 39 43 40 44 41 52 42 45 43 46 44 50 45
REMARK SMILES IDX 53 46 47 47 48 48 51 49 49 50 75 51 76 52 84 53 77 54 78 55
REMARK SMILES IDX 82 56 85 57 79 58 80 59 83 60 81 61 60 62 61 63 69 64 62 65
REMARK SMILES IDX 63 66 67 67 70 68 64 69 65 70 68 71 66 72 7 73 8 74 9 75
REMARK SMILES IDX 10 77 11 78 12 79 31 80 28 81 30 82 32 83 29 84 33 85 13 86
REMARK SMILES IDX 14 87 15 88 16 90 17 91 27 92 18 93 26 94 19 95 20 96 21 97
REMARK SMILES IDX 22 98 25 99 23 100 24 101
REMARK H PARENT 3 7 90 25 58 36 8 76 15 89
REMARK Flexibility Score: inf
ROOT
ATOM      1  C   UNL A   1      31.713  27.948  26.569  1.00  0.00     0.023 C 
ENDROOT
BRANCH   1   2
ATOM      2  C   UNL A   1      32.417  29.069  27.360  1.00  0.00     0.023 C 
BRANCH   2   3
ATOM      3  C   UNL A   1      33.198  30.079  26.522  1.00  0.00     0.116 C 
BRANCH   3   4
ATOM      4  N   UNL A   1      33.556  31.276  27.251  1.00  0.00    -0.352 N 
ATOM      5  O   UNL A   1      34.530  32.828  28.462  1.00  0.00    -0.269 OA
ATOM      6  C   UNL A   1      34.627  31.692  27.990  1.00  0.00     0.251 C 
ATOM      7  H   UNL A   1      32.851  31.962  27.202  1.00  0.00     0.163 HD
BRANCH   6   8
ATOM      8  C   UNL A   1      35.868  30.909  28.268  1.00  0.00     0.039 A 
ATOM      9  C   UNL A   1      36.039  29.537  28.092  1.00  0.00     0.014 A 
ATOM     10  C   UNL A   1      36.972  31.655  28.729  1.00  0.00     0.014 A 
ATOM     11  C   UNL A   1      37.270  28.930  28.370  1.00  0.00     0.010 A 
ATOM     12  C   UNL A   1      38.204  31.056  29.001  1.00  0.00     0.010 A 
ATOM     13  C   UNL A   1      38.356  29.683  28.831  1.00  0.00    -0.014 A 
BRANCH  13  14
ATOM     14  C   UNL A   1      39.637  29.000  29.059  1.00  0.00     0.031 A 
ATOM     15  C   UNL A   1      40.075  28.792  30.477  1.00  0.00     0.074 A 
ATOM     16  C   UNL A   1      40.370  28.397  28.100  1.00  0.00     0.049 A 
ATOM     17  N   UNL A   1      41.193  29.137  31.038  1.00  0.00    -0.248 NA
ATOM     18  C   UNL A   1      39.155  28.074  31.371  1.00  0.00     0.031 C 
ATOM     19  C   UNL A   1      40.005  28.134  26.708  1.00  0.00     0.029 A 
ATOM     20  N   UNL A   1      41.598  27.806  28.224  1.00  0.00    -0.354 N 
ATOM     21  C   UNL A   1      41.179  28.581  32.318  1.00  0.00     0.074 A 
ATOM     22  C   UNL A   1      39.881  27.974  32.486  1.00  0.00     0.031 C 
ATOM     23  C   UNL A   1      40.901  27.275  26.172  1.00  0.00     0.029 A 
ATOM     24  C   UNL A   1      41.969  27.041  27.132  1.00  0.00     0.049 A 
ATOM     25  H   UNL A   1      42.167  27.914  29.019  1.00  0.00     0.167 HD
ATOM     26  C   UNL A   1      42.275  28.545  33.128  1.00  0.00     0.037 A 
ATOM     27  C   UNL A   1      43.051  26.235  27.033  1.00  0.00     0.037 A 
ATOM     28  C   UNL A   1      43.295  29.467  32.720  1.00  0.00     0.049 A 
ATOM     29  C   UNL A   1      44.037  26.631  28.062  1.00  0.00     0.074 A 
ATOM     30  C   UNL A   1      43.373  30.839  32.583  1.00  0.00     0.029 A 
ATOM     31  N   UNL A   1      44.436  28.981  32.136  1.00  0.00    -0.354 N 
ATOM     32  N   UNL A   1      44.749  27.722  28.035  1.00  0.00    -0.248 NA
ATOM     33  C   UNL A   1      44.047  25.909  29.326  1.00  0.00     0.031 C 
ATOM     34  C   UNL A   1      44.293  31.060  31.516  1.00  0.00     0.029 A 
ATOM     35  C   UNL A   1      44.704  29.803  31.072  1.00  0.00     0.049 A 
ATOM     36  H   UNL A   1      44.958  28.198  32.424  1.00  0.00     0.167 HD
ATOM     37  C   UNL A   1      44.966  28.032  29.367  1.00  0.00     0.074 A 
ATOM     38  C   UNL A   1      44.647  26.816  30.100  1.00  0.00     0.031 C 
ATOM     39  C   UNL A   1      45.112  29.326  29.774  1.00  0.00     0.037 A 
BRANCH  26  40
ATOM     40  C   UNL A   1      42.523  27.513  34.195  1.00  0.00     0.064 A 
ATOM     41  C   UNL A   1      43.181  26.307  33.881  1.00  0.00     0.173 A 
ATOM     42  C   UNL A   1      41.902  27.562  35.460  1.00  0.00     0.173 A 
ATOM     43  F   UNL A   1      43.763  26.137  32.684  1.00  0.00    -0.203 F 
ATOM     44  C   UNL A   1      43.193  25.221  34.761  1.00  0.00     0.198 A 
ATOM     45  C   UNL A   1      41.956  26.493  36.356  1.00  0.00     0.198 A 
ATOM     46  F   UNL A   1      41.145  28.606  35.823  1.00  0.00    -0.203 F 
ATOM     47  F   UNL A   1      43.751  24.061  34.383  1.00  0.00    -0.200 F 
ATOM     48  C   UNL A   1      42.584  25.315  35.999  1.00  0.00     0.200 A 
ATOM     49  F   UNL A   1      41.339  26.591  37.542  1.00  0.00    -0.200 F 
ATOM     50  F   UNL A   1      42.562  24.263  36.827  1.00  0.00    -0.200 F 
ENDBRANCH  26  40
BRANCH  27  51
ATOM     51  C   UNL A   1      43.214  25.009  26.223  1.00  0.00     0.064 A 
ATOM     52  C   UNL A   1      44.285  24.860  25.329  1.00  0.00     0.173 A 
ATOM     53  C   UNL A   1      42.460  23.853  26.503  1.00  0.00     0.173 A 
ATOM     54  F   UNL A   1      45.082  25.901  25.050  1.00  0.00    -0.203 F 
ATOM     55  C   UNL A   1      44.591  23.623  24.755  1.00  0.00     0.198 A 
ATOM     56  C   UNL A   1      42.760  22.621  25.922  1.00  0.00     0.198 A 
ATOM     57  F   UNL A   1      41.476  23.879  27.414  1.00  0.00    -0.203 F 
ATOM     58  F   UNL A   1      45.655  23.505  23.949  1.00  0.00    -0.200 F 
ATOM     59  C   UNL A   1      43.832  22.503  25.057  1.00  0.00     0.200 A 
ATOM     60  F   UNL A   1      42.040  21.539  26.249  1.00  0.00    -0.200 F 
ATOM     61  F   UNL A   1      44.157  21.307  24.547  1.00  0.00    -0.200 F 
ENDBRANCH  27  51
BRANCH  39  62
ATOM     62  C   UNL A   1      45.389  30.361  28.724  1.00  0.00     0.064 A 
ATOM     63  C   UNL A   1      44.389  30.927  27.914  1.00  0.00     0.173 A 
ATOM     64  C   UNL A   1      46.680  30.898  28.632  1.00  0.00     0.173 A 
ATOM     65  F   UNL A   1      43.112  30.542  28.027  1.00  0.00    -0.203 F 
ATOM     66  C   UNL A   1      44.685  31.946  27.011  1.00  0.00     0.198 A 
ATOM     67  C   UNL A   1      46.964  31.943  27.755  1.00  0.00     0.198 A 
ATOM     68  F   UNL A   1      47.658  30.441  29.430  1.00  0.00    -0.203 F 
ATOM     69  F   UNL A   1      43.718  32.459  26.237  1.00  0.00    -0.200 F 
ATOM     70  C   UNL A   1      45.971  32.456  26.938  1.00  0.00     0.200 A 
ATOM     71  F   UNL A   1      48.196  32.471  27.724  1.00  0.00    -0.200 F 
ATOM     72  F   UNL A   1      46.247  33.465  26.099  1.00  0.00    -0.200 F 
ENDBRANCH  39  62
ENDBRANCH  13  14
ENDBRANCH   6   8
ENDBRANCH   3   4
ENDBRANCH   2   3
ENDBRANCH   1   2
BRANCH   1  73
ATOM     73  C   UNL A   1      32.626  26.876  25.951  1.00  0.00     0.116 C 
BRANCH  73  74
ATOM     74  N   UNL A   1      32.542  25.625  26.678  1.00  0.00    -0.356 N 
ATOM     75  C   UNL A   1      32.711  24.405  26.087  1.00  0.00     0.224 C 
ATOM     76  H   UNL A   1      32.354  25.655  27.644  1.00  0.00     0.163 HD
ATOM     77  O   UNL A   1      31.752  23.642  26.137  1.00  0.00    -0.275 OA
BRANCH  75  78
ATOM     78  C   UNL A   1      34.002  24.115  25.334  1.00  0.00     0.098 C 
ATOM     79  C   UNL A   1      33.843  23.479  23.928  1.00  0.00     0.098 C 
ATOM     80  C   UNL A   1      35.125  23.348  26.114  1.00  0.00     0.025 C 
ATOM     81  C   UNL A   1      35.045  22.529  23.640  1.00  0.00     0.025 C 
ATOM     82  C   UNL A   1      35.045  21.843  25.932  1.00  0.00    -0.027 C 
ATOM     83  C   UNL A   1      36.464  23.699  25.411  1.00  0.00     0.009 C 
ATOM     84  C   UNL A   1      35.046  21.421  24.657  1.00  0.00    -0.027 C 
ATOM     85  C   UNL A   1      36.365  23.315  23.905  1.00  0.00     0.009 C 
BRANCH  79  86
ATOM     86  C   UNL A   1      32.484  22.965  23.401  1.00  0.00     0.228 C 
ATOM     87  O   UNL A   1      32.316  21.731  23.387  1.00  0.00    -0.274 OA
ATOM     88  N   UNL A   1      31.377  23.697  23.092  1.00  0.00    -0.326 N 
ATOM     89  H   UNL A   1      30.587  23.139  22.910  1.00  0.00     0.169 HD
BRANCH  88  90
ATOM     90  C   UNL A   1      31.118  25.065  22.976  1.00  0.00     0.041 A 
ATOM     91  C   UNL A   1      29.979  25.563  23.611  1.00  0.00     0.026 A 
ATOM     92  C   UNL A   1      31.883  25.938  22.209  1.00  0.00     0.026 A 
ATOM     93  C   UNL A   1      29.748  26.941  23.665  1.00  0.00     0.008 A 
ATOM     94  C   UNL A   1      31.646  27.314  22.235  1.00  0.00     0.008 A 
ATOM     95  C   UNL A   1      30.621  27.833  23.030  1.00  0.00    -0.026 A 
BRANCH  95  96
ATOM     96  C   UNL A   1      30.497  29.321  23.221  1.00  0.00     0.181 C 
BRANCH  96  97
ATOM     97  N   UNL A   1      29.298  29.856  22.614  1.00  0.00    -0.249 N 
ATOM     98  C   UNL A   1      28.184  30.311  23.246  1.00  0.00     0.220 A 
ATOM     99  N   UNL A   1      29.227  30.078  21.286  1.00  0.00    -0.160 NA
ATOM    100  N   UNL A   1      27.358  30.824  22.364  1.00  0.00    -0.224 NA
ATOM    101  C   UNL A   1      28.028  30.658  21.185  1.00  0.00     0.246 A 
ENDBRANCH  96  97
ENDBRANCH  95  96
ENDBRANCH  88  90
ENDBRANCH  79  86
ENDBRANCH  75  78
ENDBRANCH  73  74
ENDBRANCH   1  73
TORSDOF 15
ENDMDL
MODEL 2
REMARK VINA RESULT:     -13.9      3.365      8.924
REMARK SMILES O=C(NCCCCNC(=O)[C@@H]1[C@H](C(=O)Nc2ccc(Cn3cncn3)cc2)[C@@H]2C=C[C@H]1CC2)c1ccc(-c2c3nc(c(-c4c(F)c(F)c(F)c(F)c4F)c4ccc([nH]4)c(-c4c(F)c(F)c(F)c(F)c4F)c4nc(c(-c5c(F)c(F)c(F)c(F)c5F)c5ccc2[nH]5)C=C4)C=C3)cc1
REMARK SMILES IDX 6 1 5 2 4 3 3 4 1 5 2 6 34 8 35 9 96 10 36 11 95 12 37 13
REMARK SMILES IDX 38 14 39 15 89 16 40 17 94 18 88 19 90 20 41 21 93 22 87 23
REMARK SMILES IDX 86 24 42 26 74 27 54 28 73 29 55 30 58 31 72 32 91 33 56 34
REMARK SMILES IDX 57 35 71 37 92 38 59 39 43 40 44 41 52 42 45 43 46 44 50 45
REMARK SMILES IDX 53 46 47 47 48 48 51 49 49 50 75 51 76 52 84 53 77 54 78 55
REMARK SMILES IDX 82 56 85 57 79 58 80 59 83 60 81 61 60 62 61 63 69 64 62 65
REMARK SMILES IDX 63 66 67 67 70 68 64 69 65 70 68 71 66 72 7 73 8 74 9 75
REMARK SMILES IDX 10 77 11 78 12 79 31 80 28 81 30 82 32 83 29 84 33 85 13 86
REMARK SMILES IDX 14 87 15 88 16 90 17 91 27 92 18 93 26 94 19 95 20 96 21 97
REMARK SMILES IDX 22 98 25 99 23 100 24 101
REMARK H PARENT 3 7 90 25 58 36 8 76 15 89
REMARK Flexibility Score: inf
ROOT
ATOM      1  C   UNL A   1      35.893  22.997  23.248  1.00  0.00     0.023 C 
ENDROOT
BRANCH   1   2
ATOM      2  C   UNL A   1      36.718  22.072  24.166  1.00  0.00     0.023 C 
BRANCH   2   3
ATOM      3  C   UNL A   1      37.371  22.748  25.370  1.00  0.00     0.116 C 
BRANCH   3   4
ATOM      4  N   UNL A   1      38.733  22.317  25.602  1.00  0.00    -0.352 N 
ATOM      5  O   UNL A   1      40.845  22.129  26.172  1.00  0.00    -0.269 OA
ATOM      6  C   UNL A   1      39.845  22.852  26.186  1.00  0.00     0.251 C 
ATOM      7  H   UNL A   1      38.898  21.412  25.250  1.00  0.00     0.163 HD
BRANCH   6   8
ATOM      8  C   UNL A   1      39.950  24.199  26.822  1.00  0.00     0.039 A 
ATOM      9  C   UNL A   1      39.506  24.551  28.096  1.00  0.00     0.014 A 
ATOM     10  C   UNL A   1      40.586  25.193  26.049  1.00  0.00     0.014 A 
ATOM     11  C   UNL A   1      39.689  25.853  28.581  1.00  0.00     0.010 A 
ATOM     12  C   UNL A   1      40.776  26.490  26.531  1.00  0.00     0.010 A 
ATOM     13  C   UNL A   1      40.319  26.830  27.801  1.00  0.00    -0.014 A 
BRANCH  13  14
ATOM     14  C   UNL A   1      40.527  28.163  28.381  1.00  0.00     0.031 A 
ATOM     15  C   UNL A   1      41.754  28.919  27.971  1.00  0.00     0.074 A 
ATOM     16  C   UNL A   1      39.620  28.830  29.124  1.00  0.00     0.049 A 
ATOM     17  N   UNL A   1      42.673  29.441  28.725  1.00  0.00    -0.248 NA
ATOM     18  C   UNL A   1      41.959  29.150  26.535  1.00  0.00     0.031 C 
ATOM     19  C   UNL A   1      38.219  28.488  29.371  1.00  0.00     0.029 A 
ATOM     20  N   UNL A   1      39.767  30.037  29.752  1.00  0.00    -0.354 N 
ATOM     21  C   UNL A   1      43.510  30.168  27.878  1.00  0.00     0.074 A 
ATOM     22  C   UNL A   1      43.049  29.919  26.535  1.00  0.00     0.031 C 
ATOM     23  C   UNL A   1      37.596  29.551  29.930  1.00  0.00     0.029 A 
ATOM     24  C   UNL A   1      38.581  30.586  30.206  1.00  0.00     0.049 A 
ATOM     25  H   UNL A   1      40.639  30.477  29.871  1.00  0.00     0.167 HD
ATOM     26  C   UNL A   1      44.462  31.031  28.332  1.00  0.00     0.037 A 
ATOM     27  C   UNL A   1      38.403  31.821  30.730  1.00  0.00     0.037 A 
ATOM     28  C   UNL A   1      44.792  30.817  29.712  1.00  0.00     0.049 A 
ATOM     29  C   UNL A   1      39.712  32.338  31.188  1.00  0.00     0.074 A 
ATOM     30  C   UNL A   1      45.318  29.768  30.439  1.00  0.00     0.029 A 
ATOM     31  N   UNL A   1      44.361  31.723  30.647  1.00  0.00    -0.354 N 
ATOM     32  N   UNL A   1      40.365  31.903  32.229  1.00  0.00    -0.248 NA
ATOM     33  C   UNL A   1      40.466  33.204  30.295  1.00  0.00     0.031 C 
ATOM     34  C   UNL A   1      44.740  29.881  31.737  1.00  0.00     0.029 A 
ATOM     35  C   UNL A   1      43.893  30.989  31.706  1.00  0.00     0.049 A 
ATOM     36  H   UNL A   1      44.382  32.704  30.572  1.00  0.00     0.167 HD
ATOM     37  C   UNL A   1      41.698  32.108  31.917  1.00  0.00     0.074 A 
ATOM     38  C   UNL A   1      41.691  33.037  30.798  1.00  0.00     0.031 C 
ATOM     39  C   UNL A   1      42.671  31.288  32.411  1.00  0.00     0.037 A 
BRANCH  26  40
ATOM     40  C   UNL A   1      44.968  32.231  27.576  1.00  0.00     0.064 A 
ATOM     41  C   UNL A   1      46.262  32.229  27.020  1.00  0.00     0.173 A 
ATOM     42  C   UNL A   1      44.315  33.481  27.606  1.00  0.00     0.173 A 
ATOM     43  F   UNL A   1      46.991  31.103  26.987  1.00  0.00    -0.203 F 
ATOM     44  C   UNL A   1      46.867  33.399  26.551  1.00  0.00     0.198 A 
ATOM     45  C   UNL A   1      44.902  34.638  27.095  1.00  0.00     0.198 A 
ATOM     46  F   UNL A   1      43.133  33.633  28.218  1.00  0.00    -0.203 F 
ATOM     47  F   UNL A   1      48.136  33.367  26.116  1.00  0.00    -0.200 F 
ATOM     48  C   UNL A   1      46.186  34.602  26.585  1.00  0.00     0.200 A 
ATOM     49  F   UNL A   1      44.239  35.801  27.158  1.00  0.00    -0.200 F 
ATOM     50  F   UNL A   1      46.778  35.730  26.173  1.00  0.00    -0.200 F 
ENDBRANCH  26  40
BRANCH  27  51
ATOM     51  C   UNL A   1      37.196  32.673  30.691  1.00  0.00     0.064 A 
ATOM     52  C   UNL A   1      36.856  33.407  29.545  1.00  0.00     0.173 A 
ATOM     53  C   UNL A   1      36.215  32.581  31.696  1.00  0.00     0.173 A 
ATOM     54  F   UNL A   1      37.717  33.500  28.521  1.00  0.00    -0.203 F 
ATOM     55  C   UNL A   1      35.601  34.007  29.407  1.00  0.00     0.198 A 
ATOM     56  C   UNL A   1      34.966  33.188  31.563  1.00  0.00     0.198 A 
ATOM     57  F   UNL A   1      36.417  31.826  32.786  1.00  0.00    -0.203 F 
ATOM     58  F   UNL A   1      35.290  34.653  28.275  1.00  0.00    -0.200 F 
ATOM     59  C   UNL A   1      34.655  33.891  30.413  1.00  0.00     0.200 A 
ATOM     60  F   UNL A   1      34.048  33.040  32.527  1.00  0.00    -0.200 F 
ATOM     61  F   UNL A   1      33.434  34.422  30.260  1.00  0.00    -0.200 F 
ENDBRANCH  27  51
BRANCH  39  62
ATOM     62  C   UNL A   1      42.315  30.397  33.564  1.00  0.00     0.064 A 
ATOM     63  C   UNL A   1      41.780  29.107  33.408  1.00  0.00     0.173 A 
ATOM     64  C   UNL A   1      42.655  30.806  34.860  1.00  0.00     0.173 A 
ATOM     65  F   UNL A   1      41.534  28.606  32.191  1.00  0.00    -0.203 F 
ATOM     66  C   UNL A   1      41.545  28.287  34.510  1.00  0.00     0.198 A 
ATOM     67  C   UNL A   1      42.454  29.969  35.956  1.00  0.00     0.198 A 
ATOM     68  F   UNL A   1      43.231  32.003  35.060  1.00  0.00    -0.203 F 
ATOM     69  F   UNL A   1      41.018  27.065  34.338  1.00  0.00    -0.200 F 
ATOM     70  C   UNL A   1      41.887  28.717  35.781  1.00  0.00     0.200 A 
ATOM     71  F   UNL A   1      42.835  30.367  37.178  1.00  0.00    -0.200 F 
ATOM     72  F   UNL A   1      41.699  27.913  36.837  1.00  0.00    -0.200 F 
ENDBRANCH  39  62
ENDBRANCH  13  14
ENDBRANCH   6   8
ENDBRANCH   3   4
ENDBRANCH   2   3
ENDBRANCH   1   2
BRANCH   1  73
ATOM     73  C   UNL A   1      34.867  23.906  23.945  1.00  0.00     0.116 C 
BRANCH  73  74
ATOM     74  N   UNL A   1      34.485  25.019  23.098  1.00  0.00    -0.356 N 
ATOM     75  C   UNL A   1      33.382  25.790  23.332  1.00  0.00     0.224 C 
ATOM     76  H   UNL A   1      35.047  25.230  22.319  1.00  0.00     0.163 HD
ATOM     77  O   UNL A   1      32.527  25.791  22.453  1.00  0.00    -0.275 OA
BRANCH  75  78
ATOM     78  C   UNL A   1      33.237  26.496  24.673  1.00  0.00     0.098 C 
ATOM     79  C   UNL A   1      31.870  26.331  25.386  1.00  0.00     0.098 C 
ATOM     80  C   UNL A   1      33.663  28.004  24.733  1.00  0.00     0.025 C 
ATOM     81  C   UNL A   1      31.537  27.622  26.196  1.00  0.00     0.025 C 
ATOM     82  C   UNL A   1      32.509  28.952  24.461  1.00  0.00    -0.027 C 
ATOM     83  C   UNL A   1      33.998  28.304  26.220  1.00  0.00     0.009 C 
ATOM     84  C   UNL A   1      31.431  28.781  25.243  1.00  0.00    -0.027 C 
ATOM     85  C   UNL A   1      32.761  27.960  27.101  1.00  0.00     0.009 C 
BRANCH  79  86
ATOM     86  C   UNL A   1      30.650  25.680  24.697  1.00  0.00     0.228 C 
ATOM     87  O   UNL A   1      29.742  26.444  24.319  1.00  0.00    -0.274 OA
ATOM     88  N   UNL A   1      30.505  24.382  24.305  1.00  0.00    -0.326 N 
ATOM     89  H   UNL A   1      29.698  24.233  23.761  1.00  0.00     0.169 HD
BRANCH  88  90
ATOM     90  C   UNL A   1      31.251  23.218  24.506  1.00  0.00     0.041 A 
ATOM     91  C   UNL A   1      31.499  22.410  23.396  1.00  0.00     0.026 A 
ATOM     92  C   UNL A   1      31.692  22.785  25.752  1.00  0.00     0.026 A 
ATOM     93  C   UNL A   1      32.366  21.318  23.499  1.00  0.00     0.008 A 
ATOM     94  C   UNL A   1      32.539  21.680  25.871  1.00  0.00     0.008 A 
ATOM     95  C   UNL A   1      32.945  20.984  24.730  1.00  0.00    -0.026 A 
BRANCH  95  96
ATOM     96  C   UNL A   1      34.015  19.930  24.832  1.00  0.00     0.181 C 
BRANCH  96  97
ATOM     97  N   UNL A   1      33.477  18.590  24.751  1.00  0.00    -0.249 N 
ATOM     98  C   UNL A   1      33.948  17.553  24.009  1.00  0.00     0.220 A 
ATOM     99  N   UNL A   1      32.467  18.193  25.553  1.00  0.00    -0.160 NA
ATOM    100  N   UNL A   1      33.264  16.468  24.288  1.00  0.00    -0.224 NA
ATOM    101  C   UNL A   1      32.372  16.901  25.227  1.00  0.00     0.246 A 
ENDBRANCH  96  97
ENDBRANCH  95  96
ENDBRANCH  88  90
ENDBRANCH  79  86
ENDBRANCH  75  78
ENDBRANCH  73  74
ENDBRANCH   1  73
TORSDOF 15
ENDMDL
MODEL 3
REMARK VINA RESULT:     -13.8      3.300      8.933
REMARK SMILES O=C(NCCCCNC(=O)[C@@H]1[C@H](C(=O)Nc2ccc(Cn3cncn3)cc2)[C@@H]2C=C[C@H]1CC2)c1ccc(-c2c3nc(c(-c4c(F)c(F)c(F)c(F)c4F)c4ccc([nH]4)c(-c4c(F)c(F)c(F)c(F)c4F)c4nc(c(-c5c(F)c(F)c(F)c(F)c5F)c5ccc2[nH]5)C=C4)C=C3)cc1
REMARK SMILES IDX 6 1 5 2 4 3 3 4 1 5 2 6 34 8 35 9 96 10 36 11 95 12 37 13
REMARK SMILES IDX 38 14 39 15 89 16 40 17 94 18 88 19 90 20 41 21 93 22 87 23
REMARK SMILES IDX 86 24 42 26 74 27 54 28 73 29 55 30 58 31 72 32 91 33 56 34
REMARK SMILES IDX 57 35 71 37 92 38 59 39 43 40 44 41 52 42 45 43 46 44 50 45
REMARK SMILES IDX 53 46 47 47 48 48 51 49 49 50 75 51 76 52 84 53 77 54 78 55
REMARK SMILES IDX 82 56 85 57 79 58 80 59 83 60 81 61 60 62 61 63 69 64 62 65
REMARK SMILES IDX 63 66 67 67 70 68 64 69 65 70 68 71 66 72 7 73 8 74 9 75
REMARK SMILES IDX 10 77 11 78 12 79 31 80 28 81 30 82 32 83 29 84 33 85 13 86
REMARK SMILES IDX 14 87 15 88 16 90 17 91 27 92 18 93 26 94 19 95 20 96 21 97
REMARK SMILES IDX 22 98 25 99 23 100 24 101
REMARK H PARENT 3 7 90 25 58 36 8 76 15 89
REMARK Flexibility Score: inf
ROOT
ATOM      1  C   UNL A   1      36.373  23.261  23.578  1.00  0.00     0.023 C 
ENDROOT
BRANCH   1   2
ATOM      2  C   UNL A   1      36.803  21.975  24.313  1.00  0.00     0.023 C 
BRANCH   2   3
ATOM      3  C   UNL A   1      37.235  22.158  25.766  1.00  0.00     0.116 C 
BRANCH   3   4
ATOM      4  N   UNL A   1      38.576  21.684  26.030  1.00  0.00    -0.352 N 
ATOM      5  O   UNL A   1      40.682  21.445  26.608  1.00  0.00    -0.269 OA
ATOM      6  C   UNL A   1      39.717  22.214  26.563  1.00  0.00     0.251 C 
ATOM      7  H   UNL A   1      38.696  20.745  25.758  1.00  0.00     0.163 HD
BRANCH   6   8
ATOM      8  C   UNL A   1      39.891  23.605  27.078  1.00  0.00     0.039 A 
ATOM      9  C   UNL A   1      39.023  24.677  26.876  1.00  0.00     0.014 A 
ATOM     10  C   UNL A   1      41.040  23.827  27.865  1.00  0.00     0.014 A 
ATOM     11  C   UNL A   1      39.296  25.931  27.438  1.00  0.00     0.010 A 
ATOM     12  C   UNL A   1      41.312  25.074  28.433  1.00  0.00     0.010 A 
ATOM     13  C   UNL A   1      40.442  26.138  28.214  1.00  0.00    -0.014 A 
BRANCH  13  14
ATOM     14  C   UNL A   1      40.650  27.461  28.819  1.00  0.00     0.031 A 
ATOM     15  C   UNL A   1      41.812  28.275  28.337  1.00  0.00     0.074 A 
ATOM     16  C   UNL A   1      39.783  28.070  29.654  1.00  0.00     0.049 A 
ATOM     17  N   UNL A   1      42.770  28.808  29.030  1.00  0.00    -0.248 NA
ATOM     18  C   UNL A   1      41.890  28.555  26.896  1.00  0.00     0.031 C 
ATOM     19  C   UNL A   1      38.420  27.668  30.002  1.00  0.00     0.029 A 
ATOM     20  N   UNL A   1      39.938  29.263  30.307  1.00  0.00    -0.354 N 
ATOM     21  C   UNL A   1      43.509  29.592  28.143  1.00  0.00     0.074 A 
ATOM     22  C   UNL A   1      42.949  29.365  26.833  1.00  0.00     0.031 C 
ATOM     23  C   UNL A   1      37.809  28.689  30.644  1.00  0.00     0.029 A 
ATOM     24  C   UNL A   1      38.775  29.753  30.873  1.00  0.00     0.049 A 
ATOM     25  H   UNL A   1      40.802  29.731  30.369  1.00  0.00     0.167 HD
ATOM     26  C   UNL A   1      44.464  30.476  28.546  1.00  0.00     0.037 A 
ATOM     27  C   UNL A   1      38.598  30.963  31.450  1.00  0.00     0.037 A 
ATOM     28  C   UNL A   1      44.912  30.234  29.887  1.00  0.00     0.049 A 
ATOM     29  C   UNL A   1      39.920  31.516  31.818  1.00  0.00     0.074 A 
ATOM     30  C   UNL A   1      45.533  29.184  30.534  1.00  0.00     0.029 A 
ATOM     31  N   UNL A   1      44.528  31.094  30.883  1.00  0.00    -0.354 N 
ATOM     32  N   UNL A   1      40.671  31.075  32.787  1.00  0.00    -0.248 NA
ATOM     33  C   UNL A   1      40.567  32.436  30.895  1.00  0.00     0.031 C 
ATOM     34  C   UNL A   1      45.060  29.237  31.878  1.00  0.00     0.029 A 
ATOM     35  C   UNL A   1      44.175  30.312  31.952  1.00  0.00     0.049 A 
ATOM     36  H   UNL A   1      44.508  32.078  30.838  1.00  0.00     0.167 HD
ATOM     37  C   UNL A   1      41.966  31.340  32.376  1.00  0.00     0.074 A 
ATOM     38  C   UNL A   1      41.834  32.302  31.292  1.00  0.00     0.031 C 
ATOM     39  C   UNL A   1      43.004  30.543  32.762  1.00  0.00     0.037 A 
BRANCH  26  40
ATOM     40  C   UNL A   1      44.863  31.716  27.791  1.00  0.00     0.064 A 
ATOM     41  C   UNL A   1      46.111  31.784  27.141  1.00  0.00     0.173 A 
ATOM     42  C   UNL A   1      44.165  32.936  27.908  1.00  0.00     0.173 A 
ATOM     43  F   UNL A   1      46.879  30.690  27.020  1.00  0.00    -0.203 F 
ATOM     44  C   UNL A   1      46.632  32.991  26.665  1.00  0.00     0.198 A 
ATOM     45  C   UNL A   1      44.666  34.131  27.389  1.00  0.00     0.198 A 
ATOM     46  F   UNL A   1      43.027  33.022  28.610  1.00  0.00    -0.203 F 
ATOM     47  F   UNL A   1      47.864  33.023  26.136  1.00  0.00    -0.200 F 
ATOM     48  C   UNL A   1      45.908  34.162  26.785  1.00  0.00     0.200 A 
ATOM     49  F   UNL A   1      43.963  35.263  27.537  1.00  0.00    -0.200 F 
ATOM     50  F   UNL A   1      46.422  35.325  26.364  1.00  0.00    -0.200 F 
ENDBRANCH  26  40
BRANCH  27  51
ATOM     51  C   UNL A   1      37.362  31.770  31.537  1.00  0.00     0.064 A 
ATOM     52  C   UNL A   1      36.707  31.978  32.761  1.00  0.00     0.173 A 
ATOM     53  C   UNL A   1      36.942  32.566  30.454  1.00  0.00     0.173 A 
ATOM     54  F   UNL A   1      37.083  31.295  33.851  1.00  0.00    -0.203 F 
ATOM     55  C   UNL A   1      35.697  32.934  32.896  1.00  0.00     0.198 A 
ATOM     56  C   UNL A   1      35.927  33.513  30.587  1.00  0.00     0.198 A 
ATOM     57  F   UNL A   1      37.570  32.502  29.271  1.00  0.00    -0.203 F 
ATOM     58  F   UNL A   1      35.133  33.144  34.093  1.00  0.00    -0.200 F 
ATOM     59  C   UNL A   1      35.313  33.705  31.811  1.00  0.00     0.200 A 
ATOM     60  F   UNL A   1      35.588  34.277  29.539  1.00  0.00    -0.200 F 
ATOM     61  F   UNL A   1      34.380  34.657  31.953  1.00  0.00    -0.200 F 
ENDBRANCH  27  51
BRANCH  39  62
ATOM     62  C   UNL A   1      42.776  29.606  33.911  1.00  0.00     0.064 A 
ATOM     63  C   UNL A   1      42.121  28.369  33.781  1.00  0.00     0.173 A 
ATOM     64  C   UNL A   1      43.360  29.904  35.149  1.00  0.00     0.173 A 
ATOM     65  F   UNL A   1      41.635  27.968  32.599  1.00  0.00    -0.203 F 
ATOM     66  C   UNL A   1      42.008  27.498  34.862  1.00  0.00     0.198 A 
ATOM     67  C   UNL A   1      43.278  29.013  36.217  1.00  0.00     0.198 A 
ATOM     68  F   UNL A   1      44.055  31.041  35.310  1.00  0.00    -0.203 F 
ATOM     69  F   UNL A   1      41.363  26.330  34.719  1.00  0.00    -0.200 F 
ATOM     70  C   UNL A   1      42.591  27.818  36.077  1.00  0.00     0.200 A 
ATOM     71  F   UNL A   1      43.889  29.302  37.375  1.00  0.00    -0.200 F 
ATOM     72  F   UNL A   1      42.518  26.961  37.105  1.00  0.00    -0.200 F 
ENDBRANCH  39  62
ENDBRANCH  13  14
ENDBRANCH   6   8
ENDBRANCH   3   4
ENDBRANCH   2   3
ENDBRANCH   1   2
BRANCH   1  73
ATOM     73  C   UNL A   1      34.977  23.804  23.920  1.00  0.00     0.116 C 
BRANCH  73  74
ATOM     74  N   UNL A   1      34.598  24.887  23.033  1.00  0.00    -0.356 N 
ATOM     75  C   UNL A   1      33.460  25.625  23.199  1.00  0.00     0.224 C 
ATOM     76  H   UNL A   1      35.189  25.102  22.276  1.00  0.00     0.163 HD
ATOM     77  O   UNL A   1      32.648  25.580  22.282  1.00  0.00    -0.275 OA
BRANCH  75  78
ATOM     78  C   UNL A   1      33.230  26.352  24.517  1.00  0.00     0.098 C 
ATOM     79  C   UNL A   1      31.820  26.196  25.145  1.00  0.00     0.098 C 
ATOM     80  C   UNL A   1      33.650  27.861  24.581  1.00  0.00     0.025 C 
ATOM     81  C   UNL A   1      31.436  27.498  25.911  1.00  0.00     0.025 C 
ATOM     82  C   UNL A   1      32.515  28.803  24.220  1.00  0.00    -0.027 C 
ATOM     83  C   UNL A   1      33.889  28.186  26.081  1.00  0.00     0.009 C 
ATOM     84  C   UNL A   1      31.389  28.642  24.935  1.00  0.00    -0.027 C 
ATOM     85  C   UNL A   1      32.599  27.853  26.887  1.00  0.00     0.009 C 
BRANCH  79  86
ATOM     86  C   UNL A   1      30.647  25.532  24.389  1.00  0.00     0.228 C 
ATOM     87  O   UNL A   1      29.767  26.289  23.938  1.00  0.00    -0.274 OA
ATOM     88  N   UNL A   1      30.527  24.227  24.014  1.00  0.00    -0.326 N 
ATOM     89  H   UNL A   1      29.757  24.067  23.421  1.00  0.00     0.169 HD
BRANCH  88  90
ATOM     90  C   UNL A   1      31.256  23.066  24.286  1.00  0.00     0.041 A 
ATOM     91  C   UNL A   1      31.648  22.281  23.202  1.00  0.00     0.026 A 
ATOM     92  C   UNL A   1      31.546  22.615  25.570  1.00  0.00     0.026 A 
ATOM     93  C   UNL A   1      32.509  21.195  23.393  1.00  0.00     0.008 A 
ATOM     94  C   UNL A   1      32.385  21.517  25.773  1.00  0.00     0.008 A 
ATOM     95  C   UNL A   1      32.937  20.846  24.680  1.00  0.00    -0.026 A 
BRANCH  95  96
ATOM     96  C   UNL A   1      33.998  19.800  24.896  1.00  0.00     0.181 C 
BRANCH  96  97
ATOM     97  N   UNL A   1      33.481  18.456  24.765  1.00  0.00    -0.249 N 
ATOM     98  C   UNL A   1      33.938  17.470  23.948  1.00  0.00     0.220 A 
ATOM     99  N   UNL A   1      32.515  17.996  25.587  1.00  0.00    -0.160 NA
ATOM    100  N   UNL A   1      33.287  16.358  24.196  1.00  0.00    -0.224 NA
ATOM    101  C   UNL A   1      32.429  16.722  25.196  1.00  0.00     0.246 A 
ENDBRANCH  96  97
ENDBRANCH  95  96
ENDBRANCH  88  90
ENDBRANCH  79  86
ENDBRANCH  75  78
ENDBRANCH  73  74
ENDBRANCH   1  73
TORSDOF 15
ENDMDL
