MODEL 1
REMARK VINA RESULT:     -11.5      0.000      0.000
REMARK SMILES CC[C@@H](Nc1ccn(C)n1)C(=O)NCCCCNC(=O)c1ccc(-c2c3nc(c(-c4c(F)c(F)c(F)c(F)c4F)c4ccc([nH]4)c(-c4c(F)c(F)c(F)c(F)c4F)c4nc(c(-c5c(F)c(F)c(F)c(F)c5F)c5ccc2[nH]5)C=C4)C=C3)cc1
REMARK SMILES IDX 15 1 14 2 13 3 11 4 12 5 3 7 2 8 1 9 4 10 5 12 6 13 10 14
REMARK SMILES IDX 7 15 8 16 9 17 16 18 17 19 18 20 19 21 20 23 21 24 22 25
REMARK SMILES IDX 83 26 23 27 82 28 24 29 25 30 26 31 76 32 27 33 81 34 75 35
REMARK SMILES IDX 77 36 28 37 80 38 74 39 73 40 29 42 61 43 41 44 60 45 42 46
REMARK SMILES IDX 45 47 59 48 78 49 43 50 44 51 58 53 79 54 46 55 30 56 31 57
REMARK SMILES IDX 39 58 32 59 33 60 37 61 40 62 34 63 35 64 38 65 36 66 62 67
REMARK SMILES IDX 63 68 71 69 64 70 65 71 69 72 72 73 66 74 67 75 70 76 68 77
REMARK SMILES IDX 47 78 48 79 56 80 49 81 50 82 54 83 57 84 51 85 52 86 55 87
REMARK SMILES IDX 53 88
REMARK H PARENT 13 6 4 11 18 22 77 41 45 52
REMARK Flexibility Score: inf
ROOT
ATOM      1  C   UNL A   1      31.824  30.516  26.800  1.00  0.00     0.023 C 
ENDROOT
BRANCH   1   2
ATOM      2  C   UNL A   1      31.677  29.890  25.421  1.00  0.00     0.116 C 
BRANCH   2   3
ATOM      3  N   UNL A   1      31.599  28.441  25.495  1.00  0.00    -0.354 N 
ATOM      4  C   UNL A   1      31.850  27.514  24.520  1.00  0.00     0.242 C 
ATOM      5  O   UNL A   1      31.808  26.321  24.841  1.00  0.00    -0.273 OA
ATOM      6  H   UNL A   1      31.327  28.075  26.368  1.00  0.00     0.163 HD
BRANCH   4   7
ATOM      7  C   UNL A   1      32.140  27.937  23.056  1.00  0.00     0.169 C 
BRANCH   7   8
ATOM      8  C   UNL A   1      33.278  27.034  22.529  1.00  0.00     0.031 C 
ATOM      9  C   UNL A   1      32.873  26.030  21.463  1.00  0.00     0.006 C 
ENDBRANCH   7   8
BRANCH   7  10
ATOM     10  N   UNL A   1      30.959  27.907  22.180  1.00  0.00    -0.357 N 
ATOM     11  H   UNL A   1      30.946  27.234  21.461  1.00  0.00     0.162 HD
BRANCH  10  12
ATOM     12  C   UNL A   1      29.896  28.726  22.280  1.00  0.00     0.148 A 
ATOM     13  C   UNL A   1      28.701  28.506  22.999  1.00  0.00     0.068 A 
ATOM     14  N   UNL A   1      29.837  29.851  21.569  1.00  0.00    -0.156 NA
ATOM     15  C   UNL A   1      27.852  29.514  22.597  1.00  0.00     0.110 A 
ATOM     16  N   UNL A   1      28.568  30.266  21.717  1.00  0.00    -0.274 N 
ATOM     17  C   UNL A   1      28.077  31.324  20.868  1.00  0.00     0.173 C 
ENDBRANCH  10  12
ENDBRANCH   7  10
ENDBRANCH   4   7
ENDBRANCH   2   3
ENDBRANCH   1   2
BRANCH   1  18
ATOM     18  C   UNL A   1      31.586  32.024  26.823  1.00  0.00     0.023 C 
BRANCH  18  19
ATOM     19  C   UNL A   1      32.797  32.861  27.224  1.00  0.00     0.116 C 
BRANCH  19  20
ATOM     20  N   UNL A   1      32.449  34.223  27.599  1.00  0.00    -0.352 N 
ATOM     21  C   UNL A   1      32.974  35.002  28.601  1.00  0.00     0.251 C 
ATOM     22  H   UNL A   1      31.740  34.645  27.062  1.00  0.00     0.163 HD
ATOM     23  O   UNL A   1      32.464  36.083  28.883  1.00  0.00    -0.269 OA
BRANCH  21  24
ATOM     24  C   UNL A   1      34.144  34.517  29.358  1.00  0.00     0.039 A 
ATOM     25  C   UNL A   1      33.941  33.912  30.600  1.00  0.00     0.014 A 
ATOM     26  C   UNL A   1      35.433  34.629  28.829  1.00  0.00     0.014 A 
ATOM     27  C   UNL A   1      35.025  33.354  31.279  1.00  0.00     0.010 A 
ATOM     28  C   UNL A   1      36.499  34.004  29.469  1.00  0.00     0.010 A 
ATOM     29  C   UNL A   1      36.306  33.358  30.698  1.00  0.00    -0.014 A 
BRANCH  29  30
ATOM     30  C   UNL A   1      37.442  32.667  31.359  1.00  0.00     0.031 A 
ATOM     31  C   UNL A   1      38.132  31.516  30.682  1.00  0.00     0.074 A 
ATOM     32  C   UNL A   1      37.819  33.048  32.595  1.00  0.00     0.049 A 
ATOM     33  N   UNL A   1      39.120  30.773  31.114  1.00  0.00    -0.248 NA
ATOM     34  C   UNL A   1      37.633  31.132  29.352  1.00  0.00     0.031 C 
ATOM     35  C   UNL A   1      37.191  34.113  33.380  1.00  0.00     0.029 A 
ATOM     36  N   UNL A   1      38.818  32.582  33.413  1.00  0.00    -0.354 N 
ATOM     37  C   UNL A   1      39.357  29.838  30.116  1.00  0.00     0.074 A 
ATOM     38  C   UNL A   1      38.371  30.065  29.081  1.00  0.00     0.031 C 
ATOM     39  C   UNL A   1      37.837  34.238  34.551  1.00  0.00     0.029 A 
ATOM     40  C   UNL A   1      38.896  33.238  34.617  1.00  0.00     0.049 A 
ATOM     41  H   UNL A   1      39.422  31.846  33.160  1.00  0.00     0.167 HD
ATOM     42  C   UNL A   1      40.326  28.895  30.054  1.00  0.00     0.037 A 
ATOM     43  C   UNL A   1      39.726  33.049  35.661  1.00  0.00     0.037 A 
ATOM     44  C   UNL A   1      41.315  28.681  31.079  1.00  0.00     0.049 A 
ATOM     45  C   UNL A   1      40.784  31.981  35.570  1.00  0.00     0.074 A 
ATOM     46  C   UNL A   1      42.368  27.784  31.088  1.00  0.00     0.029 A 
ATOM     47  N   UNL A   1      41.369  29.370  32.281  1.00  0.00    -0.354 N 
ATOM     48  N   UNL A   1      41.047  31.155  34.587  1.00  0.00    -0.248 NA
ATOM     49  C   UNL A   1      41.667  31.826  36.734  1.00  0.00     0.031 C 
ATOM     50  C   UNL A   1      43.028  27.894  32.316  1.00  0.00     0.029 A 
ATOM     51  C   UNL A   1      42.424  28.901  33.049  1.00  0.00     0.049 A 
ATOM     52  H   UNL A   1      40.750  30.088  32.550  1.00  0.00     0.167 HD
ATOM     53  C   UNL A   1      42.140  30.405  35.000  1.00  0.00     0.074 A 
ATOM     54  C   UNL A   1      42.506  30.891  36.313  1.00  0.00     0.031 C 
ATOM     55  C   UNL A   1      42.780  29.400  34.353  1.00  0.00     0.037 A 
BRANCH  42  56
ATOM     56  C   UNL A   1      40.377  28.025  28.831  1.00  0.00     0.064 A 
ATOM     57  C   UNL A   1      41.132  28.386  27.704  1.00  0.00     0.173 A 
ATOM     58  C   UNL A   1      39.716  26.787  28.807  1.00  0.00     0.173 A 
ATOM     59  F   UNL A   1      41.775  29.563  27.671  1.00  0.00    -0.203 F 
ATOM     60  C   UNL A   1      41.203  27.553  26.591  1.00  0.00     0.198 A 
ATOM     61  C   UNL A   1      39.815  25.942  27.704  1.00  0.00     0.198 A 
ATOM     62  F   UNL A   1      38.985  26.390  29.859  1.00  0.00    -0.203 F 
ATOM     63  F   UNL A   1      41.894  27.939  25.510  1.00  0.00    -0.200 F 
ATOM     64  C   UNL A   1      40.554  26.328  26.596  1.00  0.00     0.200 A 
ATOM     65  F   UNL A   1      39.199  24.752  27.717  1.00  0.00    -0.200 F 
ATOM     66  F   UNL A   1      40.636  25.520  25.530  1.00  0.00    -0.200 F 
ENDBRANCH  42  56
BRANCH  43  67
ATOM     67  C   UNL A   1      39.606  33.895  36.879  1.00  0.00     0.064 A 
ATOM     68  C   UNL A   1      38.828  33.484  37.970  1.00  0.00     0.173 A 
ATOM     69  C   UNL A   1      40.237  35.145  36.964  1.00  0.00     0.173 A 
ATOM     70  F   UNL A   1      38.188  32.306  37.931  1.00  0.00    -0.203 F 
ATOM     71  C   UNL A   1      38.657  34.304  39.084  1.00  0.00     0.198 A 
ATOM     72  C   UNL A   1      40.093  35.950  38.092  1.00  0.00     0.198 A 
ATOM     73  F   UNL A   1      40.998  35.584  35.951  1.00  0.00    -0.203 F 
ATOM     74  F   UNL A   1      37.856  33.913  40.085  1.00  0.00    -0.200 F 
ATOM     75  C   UNL A   1      39.293  35.535  39.146  1.00  0.00     0.200 A 
ATOM     76  F   UNL A   1      40.724  37.131  38.155  1.00  0.00    -0.200 F 
ATOM     77  F   UNL A   1      39.127  36.324  40.215  1.00  0.00    -0.200 F 
ENDBRANCH  43  67
BRANCH  55  78
ATOM     78  C   UNL A   1      43.964  28.785  35.044  1.00  0.00     0.064 A 
ATOM     79  C   UNL A   1      43.830  27.671  35.886  1.00  0.00     0.173 A 
ATOM     80  C   UNL A   1      45.252  29.306  34.845  1.00  0.00     0.173 A 
ATOM     81  F   UNL A   1      42.620  27.142  36.121  1.00  0.00    -0.203 F 
ATOM     82  C   UNL A   1      44.936  27.126  36.534  1.00  0.00     0.198 A 
ATOM     83  C   UNL A   1      46.360  28.736  35.464  1.00  0.00     0.198 A 
ATOM     84  F   UNL A   1      45.437  30.364  34.042  1.00  0.00    -0.203 F 
ATOM     85  F   UNL A   1      44.776  26.102  37.383  1.00  0.00    -0.200 F 
ATOM     86  C   UNL A   1      46.200  27.655  36.317  1.00  0.00     0.200 A 
ATOM     87  F   UNL A   1      47.583  29.237  35.241  1.00  0.00    -0.200 F 
ATOM     88  F   UNL A   1      47.263  27.127  36.939  1.00  0.00    -0.200 F 
ENDBRANCH  55  78
ENDBRANCH  29  30
ENDBRANCH  21  24
ENDBRANCH  19  20
ENDBRANCH  18  19
ENDBRANCH   1  18
TORSDOF 14
ENDMDL
MODEL 2
REMARK VINA RESULT:     -11.5      0.232      2.032
REMARK SMILES CC[C@@H](Nc1ccn(C)n1)C(=O)NCCCCNC(=O)c1ccc(-c2c3nc(c(-c4c(F)c(F)c(F)c(F)c4F)c4ccc([nH]4)c(-c4c(F)c(F)c(F)c(F)c4F)c4nc(c(-c5c(F)c(F)c(F)c(F)c5F)c5ccc2[nH]5)C=C4)C=C3)cc1
REMARK SMILES IDX 15 1 14 2 13 3 11 4 12 5 3 7 2 8 1 9 4 10 5 12 6 13 10 14
REMARK SMILES IDX 7 15 8 16 9 17 16 18 17 19 18 20 19 21 20 23 21 24 22 25
REMARK SMILES IDX 83 26 23 27 82 28 24 29 25 30 26 31 76 32 27 33 81 34 75 35
REMARK SMILES IDX 77 36 28 37 80 38 74 39 73 40 29 42 61 43 41 44 60 45 42 46
REMARK SMILES IDX 45 47 59 48 78 49 43 50 44 51 58 53 79 54 46 55 30 56 31 57
REMARK SMILES IDX 39 58 32 59 33 60 37 61 40 62 34 63 35 64 38 65 36 66 62 67
REMARK SMILES IDX 63 68 71 69 64 70 65 71 69 72 72 73 66 74 67 75 70 76 68 77
REMARK SMILES IDX 47 78 48 79 56 80 49 81 50 82 54 83 57 84 51 85 52 86 55 87
REMARK SMILES IDX 53 88
REMARK H PARENT 13 6 4 11 18 22 77 41 45 52
REMARK Flexibility Score: inf
ROOT
ATOM      1  C   UNL A   1      31.767  30.481  26.857  1.00  0.00     0.023 C 
ENDROOT
BRANCH   1   2
ATOM      2  C   UNL A   1      32.142  29.839  25.529  1.00  0.00     0.116 C 
BRANCH   2   3
ATOM      3  N   UNL A   1      31.914  28.405  25.543  1.00  0.00    -0.354 N 
ATOM      4  C   UNL A   1      31.993  27.510  24.510  1.00  0.00     0.242 C 
ATOM      5  O   UNL A   1      31.846  26.312  24.780  1.00  0.00    -0.273 OA
ATOM      6  H   UNL A   1      31.668  28.023  26.417  1.00  0.00     0.163 HD
BRANCH   4   7
ATOM      7  C   UNL A   1      32.221  27.977  23.049  1.00  0.00     0.169 C 
BRANCH   7   8
ATOM      8  C   UNL A   1      33.390  27.146  22.473  1.00  0.00     0.031 C 
ATOM      9  C   UNL A   1      32.988  26.026  21.527  1.00  0.00     0.006 C 
ENDBRANCH   7   8
BRANCH   7  10
ATOM     10  N   UNL A   1      31.019  27.904  22.203  1.00  0.00    -0.357 N 
ATOM     11  H   UNL A   1      31.001  27.212  21.504  1.00  0.00     0.162 HD
BRANCH  10  12
ATOM     12  C   UNL A   1      29.945  28.707  22.308  1.00  0.00     0.148 A 
ATOM     13  C   UNL A   1      28.769  28.483  23.056  1.00  0.00     0.068 A 
ATOM     14  N   UNL A   1      29.853  29.816  21.576  1.00  0.00    -0.156 NA
ATOM     15  C   UNL A   1      27.895  29.469  22.650  1.00  0.00     0.110 A 
ATOM     16  N   UNL A   1      28.581  30.214  21.741  1.00  0.00    -0.274 N 
ATOM     17  C   UNL A   1      28.056  31.246  20.880  1.00  0.00     0.173 C 
ENDBRANCH  10  12
ENDBRANCH   7  10
ENDBRANCH   4   7
ENDBRANCH   2   3
ENDBRANCH   1   2
BRANCH   1  18
ATOM     18  C   UNL A   1      31.605  31.998  26.786  1.00  0.00     0.023 C 
BRANCH  18  19
ATOM     19  C   UNL A   1      32.798  32.797  27.299  1.00  0.00     0.116 C 
BRANCH  19  20
ATOM     20  N   UNL A   1      32.462  34.176  27.624  1.00  0.00    -0.352 N 
ATOM     21  C   UNL A   1      32.989  34.983  28.602  1.00  0.00     0.251 C 
ATOM     22  H   UNL A   1      31.762  34.586  27.067  1.00  0.00     0.163 HD
ATOM     23  O   UNL A   1      32.489  36.079  28.843  1.00  0.00    -0.269 OA
BRANCH  21  24
ATOM     24  C   UNL A   1      34.148  34.513  29.384  1.00  0.00     0.039 A 
ATOM     25  C   UNL A   1      33.929  33.946  30.641  1.00  0.00     0.014 A 
ATOM     26  C   UNL A   1      35.443  34.600  28.864  1.00  0.00     0.014 A 
ATOM     27  C   UNL A   1      35.002  33.400  31.347  1.00  0.00     0.010 A 
ATOM     28  C   UNL A   1      36.498  33.987  29.533  1.00  0.00     0.010 A 
ATOM     29  C   UNL A   1      36.289  33.378  30.778  1.00  0.00    -0.014 A 
BRANCH  29  30
ATOM     30  C   UNL A   1      37.413  32.699  31.470  1.00  0.00     0.031 A 
ATOM     31  C   UNL A   1      38.111  31.532  30.826  1.00  0.00     0.074 A 
ATOM     32  C   UNL A   1      37.774  33.104  32.703  1.00  0.00     0.049 A 
ATOM     33  N   UNL A   1      39.091  30.797  31.289  1.00  0.00    -0.248 NA
ATOM     34  C   UNL A   1      37.631  31.122  29.497  1.00  0.00     0.031 C 
ATOM     35  C   UNL A   1      37.136  34.186  33.457  1.00  0.00     0.029 A 
ATOM     36  N   UNL A   1      38.759  32.653  33.545  1.00  0.00    -0.354 N 
ATOM     37  C   UNL A   1      39.341  29.841  30.313  1.00  0.00     0.074 A 
ATOM     38  C   UNL A   1      38.370  30.049  29.259  1.00  0.00     0.031 C 
ATOM     39  C   UNL A   1      37.765  34.334  34.634  1.00  0.00     0.029 A 
ATOM     40  C   UNL A   1      38.821  33.333  34.737  1.00  0.00     0.049 A 
ATOM     41  H   UNL A   1      39.365  31.911  33.316  1.00  0.00     0.167 HD
ATOM     42  C   UNL A   1      40.309  28.895  30.285  1.00  0.00     0.037 A 
ATOM     43  C   UNL A   1      39.635  33.165  35.797  1.00  0.00     0.037 A 
ATOM     44  C   UNL A   1      41.282  28.701  31.329  1.00  0.00     0.049 A 
ATOM     45  C   UNL A   1      40.691  32.093  35.743  1.00  0.00     0.074 A 
ATOM     46  C   UNL A   1      42.333  27.802  31.372  1.00  0.00     0.029 A 
ATOM     47  N   UNL A   1      41.319  29.414  32.517  1.00  0.00    -0.354 N 
ATOM     48  N   UNL A   1      40.967  31.246  34.781  1.00  0.00    -0.248 NA
ATOM     49  C   UNL A   1      41.557  31.960  36.923  1.00  0.00     0.031 C 
ATOM     50  C   UNL A   1      42.974  27.935  32.607  1.00  0.00     0.029 A 
ATOM     51  C   UNL A   1      42.362  28.959  33.310  1.00  0.00     0.049 A 
ATOM     52  H   UNL A   1      40.698  30.138  32.762  1.00  0.00     0.167 HD
ATOM     53  C   UNL A   1      42.052  30.503  35.225  1.00  0.00     0.074 A 
ATOM     54  C   UNL A   1      42.400  31.015  36.533  1.00  0.00     0.031 C 
ATOM     55  C   UNL A   1      42.699  29.484  34.609  1.00  0.00     0.037 A 
BRANCH  42  56
ATOM     56  C   UNL A   1      40.376  28.000  29.081  1.00  0.00     0.064 A 
ATOM     57  C   UNL A   1      39.658  26.795  29.021  1.00  0.00     0.173 A 
ATOM     58  C   UNL A   1      41.116  28.378  27.950  1.00  0.00     0.173 A 
ATOM     59  F   UNL A   1      38.942  26.382  30.078  1.00  0.00    -0.203 F 
ATOM     60  C   UNL A   1      39.697  25.992  27.884  1.00  0.00     0.198 A 
ATOM     61  C   UNL A   1      41.128  27.588  26.804  1.00  0.00     0.198 A 
ATOM     62  F   UNL A   1      41.818  29.522  27.952  1.00  0.00    -0.203 F 
ATOM     63  F   UNL A   1      39.038  24.827  27.867  1.00  0.00    -0.200 F 
ATOM     64  C   UNL A   1      40.423  26.394  26.774  1.00  0.00     0.200 A 
ATOM     65  F   UNL A   1      41.819  27.984  25.726  1.00  0.00    -0.200 F 
ATOM     66  F   UNL A   1      40.447  25.628  25.674  1.00  0.00    -0.200 F 
ENDBRANCH  42  56
BRANCH  43  67
ATOM     67  C   UNL A   1      39.499  34.035  36.995  1.00  0.00     0.064 A 
ATOM     68  C   UNL A   1      40.131  35.285  37.056  1.00  0.00     0.173 A 
ATOM     69  C   UNL A   1      38.763  33.622  38.116  1.00  0.00     0.173 A 
ATOM     70  F   UNL A   1      40.862  35.717  36.019  1.00  0.00    -0.203 F 
ATOM     71  C   UNL A   1      40.062  36.072  38.204  1.00  0.00     0.198 A 
ATOM     72  C   UNL A   1      38.666  34.426  39.250  1.00  0.00     0.198 A 
ATOM     73  F   UNL A   1      38.134  32.438  38.108  1.00  0.00    -0.203 F 
ATOM     74  F   UNL A   1      40.729  37.233  38.258  1.00  0.00    -0.200 F 
ATOM     75  C   UNL A   1      39.326  35.644  39.299  1.00  0.00     0.200 A 
ATOM     76  F   UNL A   1      37.940  34.015  40.299  1.00  0.00    -0.200 F 
ATOM     77  F   UNL A   1      39.263  36.399  40.403  1.00  0.00    -0.200 F 
ENDBRANCH  43  67
BRANCH  55  78
ATOM     78  C   UNL A   1      43.872  28.880  35.329  1.00  0.00     0.064 A 
ATOM     79  C   UNL A   1      45.181  29.338  35.121  1.00  0.00     0.173 A 
ATOM     80  C   UNL A   1      43.680  27.842  36.254  1.00  0.00     0.173 A 
ATOM     81  F   UNL A   1      45.422  30.319  34.237  1.00  0.00    -0.203 F 
ATOM     82  C   UNL A   1      46.258  28.754  35.782  1.00  0.00     0.198 A 
ATOM     83  C   UNL A   1      44.754  27.285  36.942  1.00  0.00     0.198 A 
ATOM     84  F   UNL A   1      42.447  27.373  36.498  1.00  0.00    -0.203 F 
ATOM     85  F   UNL A   1      47.507  29.165  35.520  1.00  0.00    -0.200 F 
ATOM     86  C   UNL A   1      46.043  27.733  36.696  1.00  0.00     0.200 A 
ATOM     87  F   UNL A   1      44.543  26.311  37.836  1.00  0.00    -0.200 F 
ATOM     88  F   UNL A   1      47.080  27.174  37.334  1.00  0.00    -0.200 F 
ENDBRANCH  55  78
ENDBRANCH  29  30
ENDBRANCH  21  24
ENDBRANCH  19  20
ENDBRANCH  18  19
ENDBRANCH   1  18
TORSDOF 14
ENDMDL
MODEL 3
REMARK VINA RESULT:     -11.4      0.947      7.568
REMARK SMILES CC[C@@H](Nc1ccn(C)n1)C(=O)NCCCCNC(=O)c1ccc(-c2c3nc(c(-c4c(F)c(F)c(F)c(F)c4F)c4ccc([nH]4)c(-c4c(F)c(F)c(F)c(F)c4F)c4nc(c(-c5c(F)c(F)c(F)c(F)c5F)c5ccc2[nH]5)C=C4)C=C3)cc1
REMARK SMILES IDX 15 1 14 2 13 3 11 4 12 5 3 7 2 8 1 9 4 10 5 12 6 13 10 14
REMARK SMILES IDX 7 15 8 16 9 17 16 18 17 19 18 20 19 21 20 23 21 24 22 25
REMARK SMILES IDX 83 26 23 27 82 28 24 29 25 30 26 31 76 32 27 33 81 34 75 35
REMARK SMILES IDX 77 36 28 37 80 38 74 39 73 40 29 42 61 43 41 44 60 45 42 46
REMARK SMILES IDX 45 47 59 48 78 49 43 50 44 51 58 53 79 54 46 55 30 56 31 57
REMARK SMILES IDX 39 58 32 59 33 60 37 61 40 62 34 63 35 64 38 65 36 66 62 67
REMARK SMILES IDX 63 68 71 69 64 70 65 71 69 72 72 73 66 74 67 75 70 76 68 77
REMARK SMILES IDX 47 78 48 79 56 80 49 81 50 82 54 83 57 84 51 85 52 86 55 87
REMARK SMILES IDX 53 88
REMARK H PARENT 13 6 4 11 18 22 77 41 45 52
REMARK Flexibility Score: inf
ROOT
ATOM      1  C   UNL A   1      31.657  30.748  26.080  1.00  0.00     0.023 C 
ENDROOT
BRANCH   1   2
ATOM      2  C   UNL A   1      32.348  29.796  27.046  1.00  0.00     0.116 C 
BRANCH   2   3
ATOM      3  N   UNL A   1      31.595  28.566  27.218  1.00  0.00    -0.354 N 
ATOM      4  C   UNL A   1      31.659  27.409  26.490  1.00  0.00     0.242 C 
ATOM      5  O   UNL A   1      30.982  26.450  26.881  1.00  0.00    -0.273 OA
ATOM      6  H   UNL A   1      30.948  28.565  27.960  1.00  0.00     0.163 HD
BRANCH   4   7
ATOM      7  C   UNL A   1      32.516  27.308  25.202  1.00  0.00     0.169 C 
BRANCH   7   8
ATOM      8  C   UNL A   1      33.678  26.330  25.493  1.00  0.00     0.031 C 
ATOM      9  C   UNL A   1      33.562  24.966  24.833  1.00  0.00     0.006 C 
ENDBRANCH   7   8
BRANCH   7  10
ATOM     10  N   UNL A   1      31.754  26.921  24.005  1.00  0.00    -0.357 N 
ATOM     11  H   UNL A   1      31.873  26.003  23.670  1.00  0.00     0.162 HD
BRANCH  10  12
ATOM     12  C   UNL A   1      30.908  27.721  23.330  1.00  0.00     0.148 A 
ATOM     13  C   UNL A   1      31.214  28.910  22.635  1.00  0.00     0.068 A 
ATOM     14  N   UNL A   1      29.595  27.494  23.353  1.00  0.00    -0.156 NA
ATOM     15  C   UNL A   1      29.993  29.467  22.325  1.00  0.00     0.110 A 
ATOM     16  N   UNL A   1      29.062  28.599  22.808  1.00  0.00    -0.274 N 
ATOM     17  C   UNL A   1      27.638  28.810  22.911  1.00  0.00     0.173 C 
ENDBRANCH  10  12
ENDBRANCH   7  10
ENDBRANCH   4   7
ENDBRANCH   2   3
ENDBRANCH   1   2
BRANCH   1  18
ATOM     18  C   UNL A   1      31.389  32.133  26.664  1.00  0.00     0.023 C 
BRANCH  18  19
ATOM     19  C   UNL A   1      32.610  32.828  27.259  1.00  0.00     0.116 C 
BRANCH  19  20
ATOM     20  N   UNL A   1      32.352  34.210  27.635  1.00  0.00    -0.352 N 
ATOM     21  C   UNL A   1      32.969  34.972  28.597  1.00  0.00     0.251 C 
ATOM     22  H   UNL A   1      31.637  34.662  27.130  1.00  0.00     0.163 HD
ATOM     23  O   UNL A   1      32.531  36.080  28.891  1.00  0.00    -0.269 OA
BRANCH  21  24
ATOM     24  C   UNL A   1      34.153  34.435  29.297  1.00  0.00     0.039 A 
ATOM     25  C   UNL A   1      33.971  33.745  30.497  1.00  0.00     0.014 A 
ATOM     26  C   UNL A   1      35.431  34.585  28.753  1.00  0.00     0.014 A 
ATOM     27  C   UNL A   1      35.067  33.141  31.115  1.00  0.00     0.010 A 
ATOM     28  C   UNL A   1      36.508  33.916  29.329  1.00  0.00     0.010 A 
ATOM     29  C   UNL A   1      36.337  33.185  30.513  1.00  0.00    -0.014 A 
BRANCH  29  30
ATOM     30  C   UNL A   1      37.484  32.450  31.103  1.00  0.00     0.031 A 
ATOM     31  C   UNL A   1      38.004  32.816  32.466  1.00  0.00     0.074 A 
ATOM     32  C   UNL A   1      38.089  31.483  30.386  1.00  0.00     0.049 A 
ATOM     33  N   UNL A   1      39.011  32.308  33.130  1.00  0.00    -0.248 NA
ATOM     34  C   UNL A   1      37.316  33.912  33.167  1.00  0.00     0.031 C 
ATOM     35  C   UNL A   1      37.715  31.076  29.030  1.00  0.00     0.029 A 
ATOM     36  N   UNL A   1      39.151  30.669  30.693  1.00  0.00    -0.354 N 
ATOM     37  C   UNL A   1      39.078  33.020  34.320  1.00  0.00     0.074 A 
ATOM     38  C   UNL A   1      38.051  34.038  34.262  1.00  0.00     0.031 C 
ATOM     39  C   UNL A   1      38.513  30.071  28.635  1.00  0.00     0.029 A 
ATOM     40  C   UNL A   1      39.480  29.790  29.690  1.00  0.00     0.049 A 
ATOM     41  H   UNL A   1      39.632  30.711  31.552  1.00  0.00     0.167 HD
ATOM     42  C   UNL A   1      39.903  32.826  35.376  1.00  0.00     0.037 A 
ATOM     43  C   UNL A   1      40.457  28.865  29.626  1.00  0.00     0.037 A 
ATOM     44  C   UNL A   1      40.915  31.803  35.436  1.00  0.00     0.049 A 
ATOM     45  C   UNL A   1      41.369  28.683  30.810  1.00  0.00     0.074 A 
ATOM     46  C   UNL A   1      41.768  31.494  36.481  1.00  0.00     0.029 A 
ATOM     47  N   UNL A   1      41.214  30.926  34.404  1.00  0.00    -0.354 N 
ATOM     48  N   UNL A   1      41.373  29.312  31.960  1.00  0.00    -0.248 NA
ATOM     49  C   UNL A   1      42.411  27.654  30.688  1.00  0.00     0.031 C 
ATOM     50  C   UNL A   1      42.617  30.465  36.064  1.00  0.00     0.029 A 
ATOM     51  C   UNL A   1      42.255  30.091  34.781  1.00  0.00     0.049 A 
ATOM     52  H   UNL A   1      40.754  30.899  33.534  1.00  0.00     0.167 HD
ATOM     53  C   UNL A   1      42.392  28.737  32.708  1.00  0.00     0.074 A 
ATOM     54  C   UNL A   1      42.969  27.692  31.890  1.00  0.00     0.031 C 
ATOM     55  C   UNL A   1      42.816  29.050  33.956  1.00  0.00     0.037 A 
BRANCH  42  56
ATOM     56  C   UNL A   1      39.742  33.730  36.564  1.00  0.00     0.064 A 
ATOM     57  C   UNL A   1      40.373  34.983  36.624  1.00  0.00     0.173 A 
ATOM     58  C   UNL A   1      38.898  33.371  37.627  1.00  0.00     0.173 A 
ATOM     59  F   UNL A   1      41.198  35.371  35.641  1.00  0.00    -0.203 F 
ATOM     60  C   UNL A   1      40.185  35.829  37.714  1.00  0.00     0.198 A 
ATOM     61  C   UNL A   1      38.688  34.233  38.699  1.00  0.00     0.198 A 
ATOM     62  F   UNL A   1      38.266  32.187  37.618  1.00  0.00    -0.203 F 
ATOM     63  F   UNL A   1      40.832  37.000  37.769  1.00  0.00    -0.200 F 
ATOM     64  C   UNL A   1      39.335  35.458  38.744  1.00  0.00     0.200 A 
ATOM     65  F   UNL A   1      37.855  33.879  39.688  1.00  0.00    -0.200 F 
ATOM     66  F   UNL A   1      39.143  36.281  39.785  1.00  0.00    -0.200 F 
ENDBRANCH  42  56
BRANCH  43  67
ATOM     67  C   UNL A   1      40.621  28.028  28.407  1.00  0.00     0.064 A 
ATOM     68  C   UNL A   1      40.027  26.761  28.316  1.00  0.00     0.173 A 
ATOM     69  C   UNL A   1      41.401  28.461  27.324  1.00  0.00     0.173 A 
ATOM     70  F   UNL A   1      39.289  26.292  29.333  1.00  0.00    -0.203 F 
ATOM     71  C   UNL A   1      40.235  25.946  27.205  1.00  0.00     0.198 A 
ATOM     72  C   UNL A   1      41.579  27.659  26.199  1.00  0.00     0.198 A 
ATOM     73  F   UNL A   1      41.985  29.667  27.358  1.00  0.00    -0.203 F 
ATOM     74  F   UNL A   1      39.709  24.714  27.173  1.00  0.00    -0.200 F 
ATOM     75  C   UNL A   1      41.008  26.397  26.146  1.00  0.00     0.200 A 
ATOM     76  F   UNL A   1      42.313  28.107  25.171  1.00  0.00    -0.200 F 
ATOM     77  F   UNL A   1      41.211  25.612  25.079  1.00  0.00    -0.200 F 
ENDBRANCH  43  67
BRANCH  55  78
ATOM     78  C   UNL A   1      43.936  28.227  34.526  1.00  0.00     0.064 A 
ATOM     79  C   UNL A   1      43.696  27.021  35.202  1.00  0.00     0.173 A 
ATOM     80  C   UNL A   1      45.269  28.641  34.378  1.00  0.00     0.173 A 
ATOM     81  F   UNL A   1      42.440  26.586  35.383  1.00  0.00    -0.203 F 
ATOM     82  C   UNL A   1      44.745  26.281  35.741  1.00  0.00     0.198 A 
ATOM     83  C   UNL A   1      46.318  27.880  34.886  1.00  0.00     0.198 A 
ATOM     84  F   UNL A   1      45.554  29.782  33.732  1.00  0.00    -0.203 F 
ATOM     85  F   UNL A   1      44.487  25.165  36.438  1.00  0.00    -0.200 F 
ATOM     86  C   UNL A   1      46.055  26.708  35.577  1.00  0.00     0.200 A 
ATOM     87  F   UNL A   1      47.583  28.285  34.712  1.00  0.00    -0.200 F 
ATOM     88  F   UNL A   1      47.063  25.993  36.094  1.00  0.00    -0.200 F 
ENDBRANCH  55  78
ENDBRANCH  29  30
ENDBRANCH  21  24
ENDBRANCH  19  20
ENDBRANCH  18  19
ENDBRANCH   1  18
TORSDOF 14
ENDMDL
