MODEL 1
REMARK VINA RESULT:     -11.8      0.000      0.000
REMARK SMILES Cc1n[nH]c(CN(C)C(=O)N[C@](C)(C(=O)NCCCCNC(=O)c2ccc(-c3c4nc(c(-c5c(F)c(F)c(F)c(F)c5F)c5ccc([nH]5)c(-c5c(F)c(F)c(F)c(F)c5F)c5nc(c(-c6c(F)c(F)c(F)c(F)c6F)c6ccc3[nH]6)C=C5)C=C4)cc2)C(F)(F)F)n1
REMARK SMILES IDX 17 1 16 2 14 3 15 4 12 6 13 7 11 8 9 9 10 10 7 12 8 13 6 14
REMARK SMILES IDX 5 15 1 16 2 17 3 18 91 19 4 20 87 22 88 23 89 24 90 25 18 26
REMARK SMILES IDX 19 27 20 28 21 29 22 30 23 32 24 33 25 34 86 35 26 36 85 37
REMARK SMILES IDX 27 38 28 39 29 40 79 41 30 42 84 43 78 44 80 45 31 46 83 47
REMARK SMILES IDX 77 48 76 49 32 51 64 52 44 53 63 54 45 55 48 56 62 57 81 58
REMARK SMILES IDX 46 59 47 60 61 62 82 63 49 64 33 65 34 66 42 67 35 68 36 69
REMARK SMILES IDX 40 70 43 71 37 72 38 73 41 74 39 75 65 76 66 77 74 78 67 79
REMARK SMILES IDX 68 80 72 81 75 82 69 83 70 84 73 85 71 86 50 87 51 88 59 89
REMARK SMILES IDX 52 90 53 91 57 92 60 93 54 94 55 95 58 96 56 97
REMARK H PARENT 16 5 11 11 4 21 21 31 80 50 48 61
REMARK Flexibility Score: inf
ROOT
ATOM      1  C   UNL A   1      36.037  20.712  24.936  1.00  0.00     0.116 C 
ENDROOT
BRANCH   1   2
ATOM      2  N   UNL A   1      35.417  21.033  26.215  1.00  0.00    -0.354 N 
ATOM      3  C   UNL A   1      34.535  22.023  26.578  1.00  0.00     0.255 C 
ATOM      4  O   UNL A   1      34.136  21.983  27.744  1.00  0.00    -0.272 OA
ATOM      5  H   UNL A   1      35.675  20.432  26.951  1.00  0.00     0.163 HD
BRANCH   3   6
ATOM      6  C   UNL A   1      34.197  23.197  25.625  1.00  0.00     0.213 C 
ATOM      7  C   UNL A   1      33.900  22.544  24.277  1.00  0.00     0.056 C 
BRANCH   6   8
ATOM      8  N   UNL A   1      33.137  24.029  26.301  1.00  0.00    -0.316 N 
ATOM      9  C   UNL A   1      31.979  24.673  26.147  1.00  0.00     0.318 C 
ATOM     10  O   UNL A   1      31.548  25.190  27.186  1.00  0.00    -0.249 OA
ATOM     11  H   UNL A   1      33.411  24.143  27.240  1.00  0.00     0.166 HD
BRANCH   9  12
ATOM     12  N   UNL A   1      31.261  24.735  25.000  1.00  0.00    -0.320 N 
ATOM     13  C   UNL A   1      30.634  23.645  24.292  1.00  0.00     0.149 C 
BRANCH  12  14
ATOM     14  C   UNL A   1      31.291  26.005  24.268  1.00  0.00     0.197 C 
BRANCH  14  15
ATOM     15  C   UNL A   1      31.997  25.892  22.961  1.00  0.00     0.144 A 
ATOM     16  C   UNL A   1      32.591  25.545  19.489  1.00  0.00     0.092 C 
ATOM     17  C   UNL A   1      32.633  25.659  20.961  1.00  0.00     0.147 A 
ATOM     18  N   UNL A   1      33.782  25.600  21.644  1.00  0.00    -0.159 NA
ATOM     19  N   UNL A   1      31.510  25.837  21.735  1.00  0.00    -0.215 NA
ATOM     20  N   UNL A   1      33.358  25.777  22.902  1.00  0.00    -0.262 N 
ATOM     21  H   UNL A   1      33.951  25.820  23.686  1.00  0.00     0.192 HD
ENDBRANCH  14  15
ENDBRANCH  12  14
ENDBRANCH   9  12
ENDBRANCH   6   8
BRANCH   6  22
ATOM     22  C   UNL A   1      35.470  24.058  25.463  1.00  0.00     0.420 C 
ATOM     23  F   UNL A   1      36.055  23.929  24.252  1.00  0.00    -0.168 F 
ATOM     24  F   UNL A   1      35.149  25.377  25.592  1.00  0.00    -0.168 F 
ATOM     25  F   UNL A   1      36.392  23.798  26.418  1.00  0.00    -0.168 F 
ENDBRANCH   6  22
ENDBRANCH   3   6
ENDBRANCH   1   2
BRANCH   1  26
ATOM     26  C   UNL A   1      37.550  20.944  24.878  1.00  0.00     0.023 C 
BRANCH  26  27
ATOM     27  C   UNL A   1      38.457  19.737  25.122  1.00  0.00     0.023 C 
BRANCH  27  28
ATOM     28  C   UNL A   1      39.593  19.976  26.102  1.00  0.00     0.116 C 
BRANCH  28  29
ATOM     29  N   UNL A   1      40.790  19.187  25.814  1.00  0.00    -0.352 N 
ATOM     30  C   UNL A   1      42.092  19.647  25.695  1.00  0.00     0.251 C 
ATOM     31  H   UNL A   1      40.656  18.219  25.692  1.00  0.00     0.163 HD
ATOM     32  O   UNL A   1      42.946  19.014  25.101  1.00  0.00    -0.269 OA
BRANCH  30  33
ATOM     33  C   UNL A   1      42.423  20.925  26.350  1.00  0.00     0.039 A 
ATOM     34  C   UNL A   1      42.694  22.087  25.624  1.00  0.00     0.014 A 
ATOM     35  C   UNL A   1      42.381  20.937  27.740  1.00  0.00     0.014 A 
ATOM     36  C   UNL A   1      42.835  23.286  26.322  1.00  0.00     0.010 A 
ATOM     37  C   UNL A   1      42.342  22.133  28.403  1.00  0.00     0.010 A 
ATOM     38  C   UNL A   1      42.632  23.302  27.712  1.00  0.00    -0.014 A 
BRANCH  38  39
ATOM     39  C   UNL A   1      42.570  24.552  28.461  1.00  0.00     0.031 A 
ATOM     40  C   UNL A   1      41.320  25.326  28.229  1.00  0.00     0.074 A 
ATOM     41  C   UNL A   1      43.444  24.850  29.449  1.00  0.00     0.049 A 
ATOM     42  N   UNL A   1      41.206  26.462  27.627  1.00  0.00    -0.248 NA
ATOM     43  C   UNL A   1      40.027  24.699  28.557  1.00  0.00     0.031 C 
ATOM     44  C   UNL A   1      44.530  24.017  29.982  1.00  0.00     0.029 A 
ATOM     45  N   UNL A   1      43.486  25.938  30.268  1.00  0.00    -0.354 N 
ATOM     46  C   UNL A   1      39.857  26.801  27.699  1.00  0.00     0.074 A 
ATOM     47  C   UNL A   1      39.164  25.604  28.090  1.00  0.00     0.031 C 
ATOM     48  C   UNL A   1      44.956  24.517  31.163  1.00  0.00     0.029 A 
ATOM     49  C   UNL A   1      44.304  25.792  31.387  1.00  0.00     0.049 A 
ATOM     50  H   UNL A   1      42.980  26.761  30.083  1.00  0.00     0.167 HD
ATOM     51  C   UNL A   1      39.478  28.110  27.700  1.00  0.00     0.037 A 
ATOM     52  C   UNL A   1      44.417  26.655  32.431  1.00  0.00     0.037 A 
ATOM     53  C   UNL A   1      40.566  28.952  27.264  1.00  0.00     0.049 A 
ATOM     54  C   UNL A   1      43.904  27.966  31.964  1.00  0.00     0.074 A 
ATOM     55  C   UNL A   1      41.311  29.069  26.107  1.00  0.00     0.029 A 
ATOM     56  N   UNL A   1      41.291  29.584  28.243  1.00  0.00    -0.354 N 
ATOM     57  N   UNL A   1      44.494  28.689  31.053  1.00  0.00    -0.248 NA
ATOM     58  C   UNL A   1      42.491  28.240  32.165  1.00  0.00     0.031 C 
ATOM     59  C   UNL A   1      42.639  29.347  26.548  1.00  0.00     0.029 A 
ATOM     60  C   UNL A   1      42.619  29.470  27.939  1.00  0.00     0.049 A 
ATOM     61  H   UNL A   1      40.917  30.044  29.029  1.00  0.00     0.167 HD
ATOM     62  C   UNL A   1      43.459  29.165  30.265  1.00  0.00     0.074 A 
ATOM     63  C   UNL A   1      42.246  28.931  31.049  1.00  0.00     0.031 C 
ATOM     64  C   UNL A   1      43.660  29.423  28.939  1.00  0.00     0.037 A 
BRANCH  51  65
ATOM     65  C   UNL A   1      38.321  28.677  28.496  1.00  0.00     0.064 A 
ATOM     66  C   UNL A   1      37.541  29.700  27.915  1.00  0.00     0.173 A 
ATOM     67  C   UNL A   1      38.155  28.508  29.887  1.00  0.00     0.173 A 
ATOM     68  F   UNL A   1      37.620  29.957  26.601  1.00  0.00    -0.203 F 
ATOM     69  C   UNL A   1      36.745  30.553  28.685  1.00  0.00     0.198 A 
ATOM     70  C   UNL A   1      37.318  29.328  30.644  1.00  0.00     0.198 A 
ATOM     71  F   UNL A   1      38.870  27.629  30.596  1.00  0.00    -0.203 F 
ATOM     72  F   UNL A   1      36.140  31.599  28.106  1.00  0.00    -0.200 F 
ATOM     73  C   UNL A   1      36.643  30.372  30.051  1.00  0.00     0.200 A 
ATOM     74  F   UNL A   1      37.247  29.148  31.971  1.00  0.00    -0.200 F 
ATOM     75  F   UNL A   1      35.940  31.229  30.801  1.00  0.00    -0.200 F 
ENDBRANCH  51  65
BRANCH  52  76
ATOM     76  C   UNL A   1      44.634  26.368  33.871  1.00  0.00     0.064 A 
ATOM     77  C   UNL A   1      45.786  26.824  34.535  1.00  0.00     0.173 A 
ATOM     78  C   UNL A   1      43.584  25.911  34.690  1.00  0.00     0.173 A 
ATOM     79  F   UNL A   1      46.817  27.320  33.835  1.00  0.00    -0.203 F 
ATOM     80  C   UNL A   1      45.869  26.855  35.933  1.00  0.00     0.198 A 
ATOM     81  C   UNL A   1      43.668  25.939  36.084  1.00  0.00     0.198 A 
ATOM     82  F   UNL A   1      42.417  25.524  34.155  1.00  0.00    -0.203 F 
ATOM     83  F   UNL A   1      46.956  27.363  36.529  1.00  0.00    -0.200 F 
ATOM     84  C   UNL A   1      44.803  26.424  36.706  1.00  0.00     0.200 A 
ATOM     85  F   UNL A   1      42.615  25.557  36.821  1.00  0.00    -0.200 F 
ATOM     86  F   UNL A   1      44.853  26.518  38.042  1.00  0.00    -0.200 F 
ENDBRANCH  52  76
BRANCH  64  87
ATOM     87  C   UNL A   1      45.079  29.465  28.442  1.00  0.00     0.064 A 
ATOM     88  C   UNL A   1      45.780  28.361  27.928  1.00  0.00     0.173 A 
ATOM     89  C   UNL A   1      45.704  30.716  28.362  1.00  0.00     0.173 A 
ATOM     90  F   UNL A   1      45.220  27.146  27.879  1.00  0.00    -0.203 F 
ATOM     91  C   UNL A   1      47.063  28.501  27.398  1.00  0.00     0.198 A 
ATOM     92  C   UNL A   1      46.967  30.860  27.799  1.00  0.00     0.198 A 
ATOM     93  F   UNL A   1      45.062  31.815  28.791  1.00  0.00    -0.203 F 
ATOM     94  F   UNL A   1      47.718  27.430  26.926  1.00  0.00    -0.200 F 
ATOM     95  C   UNL A   1      47.652  29.753  27.328  1.00  0.00     0.200 A 
ATOM     96  F   UNL A   1      47.510  32.080  27.690  1.00  0.00    -0.200 F 
ATOM     97  F   UNL A   1      48.867  29.896  26.782  1.00  0.00    -0.200 F 
ENDBRANCH  64  87
ENDBRANCH  38  39
ENDBRANCH  30  33
ENDBRANCH  28  29
ENDBRANCH  27  28
ENDBRANCH  26  27
ENDBRANCH   1  26
TORSDOF 16
ENDMDL
MODEL 2
REMARK VINA RESULT:     -11.7      2.572      7.341
REMARK SMILES Cc1n[nH]c(CN(C)C(=O)N[C@](C)(C(=O)NCCCCNC(=O)c2ccc(-c3c4nc(c(-c5c(F)c(F)c(F)c(F)c5F)c5ccc([nH]5)c(-c5c(F)c(F)c(F)c(F)c5F)c5nc(c(-c6c(F)c(F)c(F)c(F)c6F)c6ccc3[nH]6)C=C5)C=C4)cc2)C(F)(F)F)n1
REMARK SMILES IDX 17 1 16 2 14 3 15 4 12 6 13 7 11 8 9 9 10 10 7 12 8 13 6 14
REMARK SMILES IDX 5 15 1 16 2 17 3 18 91 19 4 20 87 22 88 23 89 24 90 25 18 26
REMARK SMILES IDX 19 27 20 28 21 29 22 30 23 32 24 33 25 34 86 35 26 36 85 37
REMARK SMILES IDX 27 38 28 39 29 40 79 41 30 42 84 43 78 44 80 45 31 46 83 47
REMARK SMILES IDX 77 48 76 49 32 51 64 52 44 53 63 54 45 55 48 56 62 57 81 58
REMARK SMILES IDX 46 59 47 60 61 62 82 63 49 64 33 65 34 66 42 67 35 68 36 69
REMARK SMILES IDX 40 70 43 71 37 72 38 73 41 74 39 75 65 76 66 77 74 78 67 79
REMARK SMILES IDX 68 80 72 81 75 82 69 83 70 84 73 85 71 86 50 87 51 88 59 89
REMARK SMILES IDX 52 90 53 91 57 92 60 93 54 94 55 95 58 96 56 97
REMARK H PARENT 16 5 11 11 4 21 21 31 80 50 48 61
REMARK Flexibility Score: inf
ROOT
ATOM      1  C   UNL A   1      36.749  23.467  24.867  1.00  0.00     0.116 C 
ENDROOT
BRANCH   1   2
ATOM      2  N   UNL A   1      35.786  24.472  25.299  1.00  0.00    -0.354 N 
ATOM      3  C   UNL A   1      34.451  24.635  25.019  1.00  0.00     0.255 C 
ATOM      4  O   UNL A   1      33.890  25.563  25.608  1.00  0.00    -0.272 OA
ATOM      5  H   UNL A   1      36.160  25.156  25.901  1.00  0.00     0.163 HD
BRANCH   3   6
ATOM      6  C   UNL A   1      33.746  23.806  23.917  1.00  0.00     0.213 C 
ATOM      7  C   UNL A   1      34.858  22.996  23.254  1.00  0.00     0.056 C 
BRANCH   6   8
ATOM      8  N   UNL A   1      32.587  23.092  24.567  1.00  0.00    -0.316 N 
ATOM      9  C   UNL A   1      32.194  22.350  25.603  1.00  0.00     0.318 C 
ATOM     10  O   UNL A   1      30.986  22.076  25.595  1.00  0.00    -0.249 OA
ATOM     11  H   UNL A   1      31.800  23.233  23.993  1.00  0.00     0.166 HD
BRANCH   9  12
ATOM     12  N   UNL A   1      32.981  21.956  26.632  1.00  0.00    -0.320 N 
ATOM     13  C   UNL A   1      33.007  22.484  27.975  1.00  0.00     0.149 C 
BRANCH  12  14
ATOM     14  C   UNL A   1      34.081  21.041  26.311  1.00  0.00     0.197 C 
BRANCH  14  15
ATOM     15  C   UNL A   1      33.606  19.783  25.668  1.00  0.00     0.144 A 
ATOM     16  C   UNL A   1      32.918  17.320  23.221  1.00  0.00     0.092 C 
ATOM     17  C   UNL A   1      33.040  18.181  24.416  1.00  0.00     0.147 A 
ATOM     18  N   UNL A   1      32.454  17.867  25.577  1.00  0.00    -0.159 NA
ATOM     19  N   UNL A   1      33.757  19.354  24.429  1.00  0.00    -0.215 NA
ATOM     20  N   UNL A   1      32.849  18.880  26.360  1.00  0.00    -0.262 N 
ATOM     21  H   UNL A   1      32.623  18.963  27.315  1.00  0.00     0.192 HD
ENDBRANCH  14  15
ENDBRANCH  12  14
ENDBRANCH   9  12
ENDBRANCH   6   8
BRANCH   6  22
ATOM     22  C   UNL A   1      33.189  24.792  22.865  1.00  0.00     0.420 C 
ATOM     23  F   UNL A   1      32.909  24.210  21.679  1.00  0.00    -0.168 F 
ATOM     24  F   UNL A   1      32.017  25.325  23.313  1.00  0.00    -0.168 F 
ATOM     25  F   UNL A   1      34.021  25.837  22.648  1.00  0.00    -0.168 F 
ENDBRANCH   6  22
ENDBRANCH   3   6
ENDBRANCH   1   2
BRANCH   1  26
ATOM     26  C   UNL A   1      37.701  22.975  25.962  1.00  0.00     0.023 C 
BRANCH  26  27
ATOM     27  C   UNL A   1      38.589  21.773  25.634  1.00  0.00     0.023 C 
BRANCH  27  28
ATOM     28  C   UNL A   1      39.740  21.544  26.600  1.00  0.00     0.116 C 
BRANCH  28  29
ATOM     29  N   UNL A   1      41.054  21.565  25.959  1.00  0.00    -0.352 N 
ATOM     30  C   UNL A   1      41.896  22.655  25.805  1.00  0.00     0.251 C 
ATOM     31  H   UNL A   1      41.377  20.709  25.596  1.00  0.00     0.163 HD
ATOM     32  O   UNL A   1      42.771  22.677  24.958  1.00  0.00    -0.269 OA
BRANCH  30  33
ATOM     33  C   UNL A   1      41.721  23.785  26.734  1.00  0.00     0.039 A 
ATOM     34  C   UNL A   1      42.460  23.902  27.914  1.00  0.00     0.014 A 
ATOM     35  C   UNL A   1      40.829  24.777  26.342  1.00  0.00     0.014 A 
ATOM     36  C   UNL A   1      42.350  25.082  28.649  1.00  0.00     0.010 A 
ATOM     37  C   UNL A   1      40.857  25.995  26.964  1.00  0.00     0.010 A 
ATOM     38  C   UNL A   1      41.564  26.134  28.151  1.00  0.00    -0.014 A 
BRANCH  38  39
ATOM     39  C   UNL A   1      41.571  27.453  28.773  1.00  0.00     0.031 A 
ATOM     40  C   UNL A   1      42.696  28.318  28.326  1.00  0.00     0.074 A 
ATOM     41  C   UNL A   1      40.524  27.924  29.487  1.00  0.00     0.049 A 
ATOM     42  N   UNL A   1      43.699  28.720  29.032  1.00  0.00    -0.248 NA
ATOM     43  C   UNL A   1      42.813  28.645  26.894  1.00  0.00     0.031 C 
ATOM     44  C   UNL A   1      39.225  27.280  29.728  1.00  0.00     0.029 A 
ATOM     45  N   UNL A   1      40.356  29.141  30.078  1.00  0.00    -0.354 N 
ATOM     46  C   UNL A   1      44.456  29.536  28.194  1.00  0.00     0.074 A 
ATOM     47  C   UNL A   1      43.984  29.287  26.859  1.00  0.00     0.031 C 
ATOM     48  C   UNL A   1      38.341  28.188  30.196  1.00  0.00     0.029 A 
ATOM     49  C   UNL A   1      39.045  29.429  30.455  1.00  0.00     0.049 A 
ATOM     50  H   UNL A   1      41.101  29.765  30.228  1.00  0.00     0.167 HD
ATOM     51  C   UNL A   1      45.209  30.545  28.717  1.00  0.00     0.037 A 
ATOM     52  C   UNL A   1      38.576  30.613  30.927  1.00  0.00     0.037 A 
ATOM     53  C   UNL A   1      45.368  30.373  30.140  1.00  0.00     0.049 A 
ATOM     54  C   UNL A   1      39.749  31.378  31.415  1.00  0.00     0.074 A 
ATOM     55  C   UNL A   1      45.925  29.406  30.954  1.00  0.00     0.029 A 
ATOM     56  N   UNL A   1      44.546  31.116  30.950  1.00  0.00    -0.354 N 
ATOM     57  N   UNL A   1      40.459  31.028  32.451  1.00  0.00    -0.248 NA
ATOM     58  C   UNL A   1      40.411  32.260  30.469  1.00  0.00     0.031 C 
ATOM     59  C   UNL A   1      45.058  29.330  32.085  1.00  0.00     0.029 A 
ATOM     60  C   UNL A   1      44.071  30.307  31.945  1.00  0.00     0.049 A 
ATOM     61  H   UNL A   1      44.335  32.071  30.834  1.00  0.00     0.167 HD
ATOM     62  C   UNL A   1      41.771  31.255  32.065  1.00  0.00     0.074 A 
ATOM     63  C   UNL A   1      41.674  32.096  30.872  1.00  0.00     0.031 C 
ATOM     64  C   UNL A   1      42.784  30.492  32.572  1.00  0.00     0.037 A 
BRANCH  51  65
ATOM     65  C   UNL A   1      45.423  31.895  28.064  1.00  0.00     0.064 A 
ATOM     66  C   UNL A   1      44.291  32.664  27.718  1.00  0.00     0.173 A 
ATOM     67  C   UNL A   1      46.637  32.308  27.474  1.00  0.00     0.173 A 
ATOM     68  F   UNL A   1      43.082  32.361  28.214  1.00  0.00    -0.203 F 
ATOM     69  C   UNL A   1      44.354  33.691  26.773  1.00  0.00     0.198 A 
ATOM     70  C   UNL A   1      46.703  33.369  26.570  1.00  0.00     0.198 A 
ATOM     71  F   UNL A   1      47.784  31.644  27.646  1.00  0.00    -0.203 F 
ATOM     72  F   UNL A   1      43.226  34.293  26.371  1.00  0.00    -0.200 F 
ATOM     73  C   UNL A   1      45.559  34.035  26.192  1.00  0.00     0.200 A 
ATOM     74  F   UNL A   1      47.880  33.676  26.004  1.00  0.00    -0.200 F 
ATOM     75  F   UNL A   1      45.612  34.970  25.234  1.00  0.00    -0.200 F 
ENDBRANCH  51  65
BRANCH  52  76
ATOM     76  C   UNL A   1      37.257  31.259  30.707  1.00  0.00     0.064 A 
ATOM     77  C   UNL A   1      36.365  31.465  31.774  1.00  0.00     0.173 A 
ATOM     78  C   UNL A   1      36.977  31.957  29.517  1.00  0.00     0.173 A 
ATOM     79  F   UNL A   1      36.582  30.876  32.959  1.00  0.00    -0.203 F 
ATOM     80  C   UNL A   1      35.279  32.343  31.668  1.00  0.00     0.198 A 
ATOM     81  C   UNL A   1      35.891  32.830  29.410  1.00  0.00     0.198 A 
ATOM     82  F   UNL A   1      37.808  31.884  28.468  1.00  0.00    -0.203 F 
ATOM     83  F   UNL A   1      34.492  32.567  32.729  1.00  0.00    -0.200 F 
ATOM     84  C   UNL A   1      35.051  33.035  30.489  1.00  0.00     0.200 A 
ATOM     85  F   UNL A   1      35.705  33.523  28.279  1.00  0.00    -0.200 F 
ATOM     86  F   UNL A   1      34.055  33.928  30.408  1.00  0.00    -0.200 F 
ENDBRANCH  52  76
BRANCH  64  87
ATOM     87  C   UNL A   1      42.479  29.625  33.762  1.00  0.00     0.064 A 
ATOM     88  C   UNL A   1      41.962  28.320  33.690  1.00  0.00     0.173 A 
ATOM     89  C   UNL A   1      42.857  30.097  35.026  1.00  0.00     0.173 A 
ATOM     90  F   UNL A   1      41.663  27.758  32.512  1.00  0.00    -0.203 F 
ATOM     91  C   UNL A   1      41.795  27.544  34.837  1.00  0.00     0.198 A 
ATOM     92  C   UNL A   1      42.725  29.308  36.163  1.00  0.00     0.198 A 
ATOM     93  F   UNL A   1      43.404  31.317  35.149  1.00  0.00    -0.203 F 
ATOM     94  F   UNL A   1      41.287  26.306  34.745  1.00  0.00    -0.200 F 
ATOM     95  C   UNL A   1      42.185  28.037  36.071  1.00  0.00     0.200 A 
ATOM     96  F   UNL A   1      43.149  29.772  37.346  1.00  0.00    -0.200 F 
ATOM     97  F   UNL A   1      42.063  27.278  37.169  1.00  0.00    -0.200 F 
ENDBRANCH  64  87
ENDBRANCH  38  39
ENDBRANCH  30  33
ENDBRANCH  28  29
ENDBRANCH  27  28
ENDBRANCH  26  27
ENDBRANCH   1  26
TORSDOF 16
ENDMDL
MODEL 3
REMARK VINA RESULT:     -11.6      2.556      7.138
REMARK SMILES Cc1n[nH]c(CN(C)C(=O)N[C@](C)(C(=O)NCCCCNC(=O)c2ccc(-c3c4nc(c(-c5c(F)c(F)c(F)c(F)c5F)c5ccc([nH]5)c(-c5c(F)c(F)c(F)c(F)c5F)c5nc(c(-c6c(F)c(F)c(F)c(F)c6F)c6ccc3[nH]6)C=C5)C=C4)cc2)C(F)(F)F)n1
REMARK SMILES IDX 17 1 16 2 14 3 15 4 12 6 13 7 11 8 9 9 10 10 7 12 8 13 6 14
REMARK SMILES IDX 5 15 1 16 2 17 3 18 91 19 4 20 87 22 88 23 89 24 90 25 18 26
REMARK SMILES IDX 19 27 20 28 21 29 22 30 23 32 24 33 25 34 86 35 26 36 85 37
REMARK SMILES IDX 27 38 28 39 29 40 79 41 30 42 84 43 78 44 80 45 31 46 83 47
REMARK SMILES IDX 77 48 76 49 32 51 64 52 44 53 63 54 45 55 48 56 62 57 81 58
REMARK SMILES IDX 46 59 47 60 61 62 82 63 49 64 33 65 34 66 42 67 35 68 36 69
REMARK SMILES IDX 40 70 43 71 37 72 38 73 41 74 39 75 65 76 66 77 74 78 67 79
REMARK SMILES IDX 68 80 72 81 75 82 69 83 70 84 73 85 71 86 50 87 51 88 59 89
REMARK SMILES IDX 52 90 53 91 57 92 60 93 54 94 55 95 58 96 56 97
REMARK H PARENT 16 5 11 11 4 21 21 31 80 50 48 61
REMARK Flexibility Score: inf
ROOT
ATOM      1  C   UNL A   1      36.538  23.336  25.761  1.00  0.00     0.116 C 
ENDROOT
BRANCH   1   2
ATOM      2  N   UNL A   1      35.706  22.580  26.688  1.00  0.00    -0.354 N 
ATOM      3  C   UNL A   1      34.407  22.140  26.596  1.00  0.00     0.255 C 
ATOM      4  O   UNL A   1      34.007  21.452  27.538  1.00  0.00    -0.272 OA
ATOM      5  H   UNL A   1      36.155  22.340  27.531  1.00  0.00     0.163 HD
BRANCH   3   6
ATOM      6  C   UNL A   1      33.468  22.614  25.459  1.00  0.00     0.213 C 
ATOM      7  C   UNL A   1      32.068  22.188  25.894  1.00  0.00     0.056 C 
BRANCH   6   8
ATOM      8  N   UNL A   1      33.763  24.072  25.214  1.00  0.00    -0.316 N 
ATOM      9  C   UNL A   1      33.437  25.158  24.511  1.00  0.00     0.318 C 
ATOM     10  O   UNL A   1      34.082  26.170  24.820  1.00  0.00    -0.249 OA
ATOM     11  H   UNL A   1      34.494  24.327  25.822  1.00  0.00     0.166 HD
BRANCH   9  12
ATOM     12  N   UNL A   1      32.456  25.226  23.580  1.00  0.00    -0.320 N 
ATOM     13  C   UNL A   1      32.603  25.241  22.144  1.00  0.00     0.149 C 
BRANCH  12  14
ATOM     14  C   UNL A   1      31.107  25.533  24.062  1.00  0.00     0.197 C 
BRANCH  14  15
ATOM     15  C   UNL A   1      30.727  26.955  23.826  1.00  0.00     0.144 A 
ATOM     16  C   UNL A   1      29.050  29.818  22.595  1.00  0.00     0.092 C 
ATOM     17  C   UNL A   1      29.938  28.816  23.219  1.00  0.00     0.147 A 
ATOM     18  N   UNL A   1      31.026  29.170  23.912  1.00  0.00    -0.159 NA
ATOM     19  N   UNL A   1      29.719  27.461  23.140  1.00  0.00    -0.215 NA
ATOM     20  N   UNL A   1      31.493  27.979  24.308  1.00  0.00    -0.262 N 
ATOM     21  H   UNL A   1      32.287  27.855  24.877  1.00  0.00     0.192 HD
ENDBRANCH  14  15
ENDBRANCH  12  14
ENDBRANCH   9  12
ENDBRANCH   6   8
BRANCH   6  22
ATOM     22  C   UNL A   1      33.828  21.818  24.184  1.00  0.00     0.420 C 
ATOM     23  F   UNL A   1      34.544  20.700  24.432  1.00  0.00    -0.168 F 
ATOM     24  F   UNL A   1      32.686  21.408  23.563  1.00  0.00    -0.168 F 
ATOM     25  F   UNL A   1      34.500  22.570  23.281  1.00  0.00    -0.168 F 
ENDBRANCH   6  22
ENDBRANCH   3   6
ENDBRANCH   1   2
BRANCH   1  26
ATOM     26  C   UNL A   1      37.347  22.482  24.779  1.00  0.00     0.023 C 
BRANCH  26  27
ATOM     27  C   UNL A   1      38.240  21.387  25.368  1.00  0.00     0.023 C 
BRANCH  27  28
ATOM     28  C   UNL A   1      39.270  21.873  26.373  1.00  0.00     0.116 C 
BRANCH  28  29
ATOM     29  N   UNL A   1      40.647  21.783  25.888  1.00  0.00    -0.352 N 
ATOM     30  C   UNL A   1      41.590  22.798  25.841  1.00  0.00     0.251 C 
ATOM     31  H   UNL A   1      40.937  20.902  25.558  1.00  0.00     0.163 HD
ATOM     32  O   UNL A   1      42.556  22.744  25.100  1.00  0.00    -0.269 OA
BRANCH  30  33
ATOM     33  C   UNL A   1      41.405  23.940  26.753  1.00  0.00     0.039 A 
ATOM     34  C   UNL A   1      42.068  24.031  27.979  1.00  0.00     0.014 A 
ATOM     35  C   UNL A   1      40.586  24.968  26.298  1.00  0.00     0.014 A 
ATOM     36  C   UNL A   1      41.962  25.218  28.702  1.00  0.00     0.010 A 
ATOM     37  C   UNL A   1      40.627  26.187  26.917  1.00  0.00     0.010 A 
ATOM     38  C   UNL A   1      41.258  26.302  28.149  1.00  0.00    -0.014 A 
BRANCH  38  39
ATOM     39  C   UNL A   1      41.283  27.623  28.765  1.00  0.00     0.031 A 
ATOM     40  C   UNL A   1      42.396  28.487  28.284  1.00  0.00     0.074 A 
ATOM     41  C   UNL A   1      40.257  28.097  29.507  1.00  0.00     0.049 A 
ATOM     42  N   UNL A   1      43.418  28.890  28.959  1.00  0.00    -0.248 NA
ATOM     43  C   UNL A   1      42.473  28.808  26.847  1.00  0.00     0.031 C 
ATOM     44  C   UNL A   1      38.966  27.454  29.787  1.00  0.00     0.029 A 
ATOM     45  N   UNL A   1      40.106  29.316  30.099  1.00  0.00    -0.354 N 
ATOM     46  C   UNL A   1      44.152  29.704  28.098  1.00  0.00     0.074 A 
ATOM     47  C   UNL A   1      43.641  29.450  26.778  1.00  0.00     0.031 C 
ATOM     48  C   UNL A   1      38.096  28.364  30.277  1.00  0.00     0.029 A 
ATOM     49  C   UNL A   1      38.807  29.606  30.511  1.00  0.00     0.049 A 
ATOM     50  H   UNL A   1      40.856  29.940  30.225  1.00  0.00     0.167 HD
ATOM     51  C   UNL A   1      44.919  30.714  28.595  1.00  0.00     0.037 A 
ATOM     52  C   UNL A   1      38.352  30.792  30.993  1.00  0.00     0.037 A 
ATOM     53  C   UNL A   1      45.118  30.547  30.014  1.00  0.00     0.049 A 
ATOM     54  C   UNL A   1      39.538  31.558  31.444  1.00  0.00     0.074 A 
ATOM     55  C   UNL A   1      45.698  29.583  30.815  1.00  0.00     0.029 A 
ATOM     56  N   UNL A   1      44.320  31.293  30.845  1.00  0.00    -0.354 N 
ATOM     57  N   UNL A   1      40.278  31.211  32.461  1.00  0.00    -0.248 NA
ATOM     58  C   UNL A   1      40.174  32.437  30.477  1.00  0.00     0.031 C 
ATOM     59  C   UNL A   1      44.864  29.510  31.971  1.00  0.00     0.029 A 
ATOM     60  C   UNL A   1      43.874  30.487  31.855  1.00  0.00     0.049 A 
ATOM     61  H   UNL A   1      44.106  32.248  30.731  1.00  0.00     0.167 HD
ATOM     62  C   UNL A   1      41.577  31.436  32.037  1.00  0.00     0.074 A 
ATOM     63  C   UNL A   1      41.447  32.274  30.845  1.00  0.00     0.031 C 
ATOM     64  C   UNL A   1      42.604  30.675  32.518  1.00  0.00     0.037 A 
BRANCH  51  65
ATOM     65  C   UNL A   1      45.115  32.061  27.932  1.00  0.00     0.064 A 
ATOM     66  C   UNL A   1      46.422  32.446  27.561  1.00  0.00     0.173 A 
ATOM     67  C   UNL A   1      44.161  33.101  27.948  1.00  0.00     0.173 A 
ATOM     68  F   UNL A   1      47.413  31.544  27.516  1.00  0.00    -0.203 F 
ATOM     69  C   UNL A   1      46.764  33.782  27.335  1.00  0.00     0.198 A 
ATOM     70  C   UNL A   1      44.498  34.426  27.669  1.00  0.00     0.198 A 
ATOM     71  F   UNL A   1      42.898  32.914  28.342  1.00  0.00    -0.203 F 
ATOM     72  F   UNL A   1      48.047  34.113  27.131  1.00  0.00    -0.200 F 
ATOM     73  C   UNL A   1      45.804  34.772  27.400  1.00  0.00     0.200 A 
ATOM     74  F   UNL A   1      43.554  35.375  27.756  1.00  0.00    -0.200 F 
ATOM     75  F   UNL A   1      46.141  36.060  27.255  1.00  0.00    -0.200 F 
ENDBRANCH  51  65
BRANCH  52  76
ATOM     76  C   UNL A   1      37.027  31.437  30.808  1.00  0.00     0.064 A 
ATOM     77  C   UNL A   1      36.189  31.698  31.906  1.00  0.00     0.173 A 
ATOM     78  C   UNL A   1      36.693  32.083  29.602  1.00  0.00     0.173 A 
ATOM     79  F   UNL A   1      36.460  31.160  33.105  1.00  0.00    -0.203 F 
ATOM     80  C   UNL A   1      35.104  32.578  31.813  1.00  0.00     0.198 A 
ATOM     81  C   UNL A   1      35.608  32.959  29.509  1.00  0.00     0.198 A 
ATOM     82  F   UNL A   1      37.472  31.957  28.519  1.00  0.00    -0.203 F 
ATOM     83  F   UNL A   1      34.371  32.855  32.900  1.00  0.00    -0.200 F 
ATOM     84  C   UNL A   1      34.823  33.218  30.617  1.00  0.00     0.200 A 
ATOM     85  F   UNL A   1      35.371  33.602  28.358  1.00  0.00    -0.200 F 
ATOM     86  F   UNL A   1      33.829  34.114  30.544  1.00  0.00    -0.200 F 
ENDBRANCH  52  76
BRANCH  64  87
ATOM     87  C   UNL A   1      42.333  29.812  33.719  1.00  0.00     0.064 A 
ATOM     88  C   UNL A   1      41.843  28.496  33.665  1.00  0.00     0.173 A 
ATOM     89  C   UNL A   1      42.717  30.303  34.974  1.00  0.00     0.173 A 
ATOM     90  F   UNL A   1      41.541  27.917  32.496  1.00  0.00    -0.203 F 
ATOM     91  C   UNL A   1      41.708  27.726  34.820  1.00  0.00     0.198 A 
ATOM     92  C   UNL A   1      42.617  29.521  36.119  1.00  0.00     0.198 A 
ATOM     93  F   UNL A   1      43.240  31.535  35.080  1.00  0.00    -0.203 F 
ATOM     94  F   UNL A   1      41.225  26.477  34.745  1.00  0.00    -0.200 F 
ATOM     95  C   UNL A   1      42.102  28.238  36.045  1.00  0.00     0.200 A 
ATOM     96  F   UNL A   1      43.046  30.004  37.293  1.00  0.00    -0.200 F 
ATOM     97  F   UNL A   1      42.011  27.486  37.151  1.00  0.00    -0.200 F 
ENDBRANCH  64  87
ENDBRANCH  38  39
ENDBRANCH  30  33
ENDBRANCH  28  29
ENDBRANCH  27  28
ENDBRANCH  26  27
ENDBRANCH   1  26
TORSDOF 16
ENDMDL
