MODEL 1
REMARK VINA RESULT:     -14.0      0.000      0.000
REMARK SMILES Cc1cc(C(=O)NCCCCNC(=O)c2ccc(-c3c4nc(c(-c5c(F)c(F)c(F)c(F)c5F)c5ccc([nH]5)c(-c5c(F)c(F)c(F)c(F)c5F)c5nc(c(-c6c(F)c(F)c(F)c(F)c6F)c6ccc3[nH]6)C=C5)C=C4)cc2)ccc1NS(=O)(=O)c1c(F)cccc1F
REMARK SMILES IDX 9 1 8 2 7 3 5 4 6 5 4 7 1 8 2 9 3 10 80 11 79 12 78 13 81 14
REMARK SMILES IDX 82 16 83 17 84 18 85 19 86 20 91 21 87 22 88 23 90 24 92 25
REMARK SMILES IDX 89 26 10 27 11 28 12 29 13 30 14 32 15 33 16 34 77 35 17 36
REMARK SMILES IDX 76 37 18 38 19 39 20 40 70 41 21 42 75 43 69 44 71 45 22 46
REMARK SMILES IDX 74 47 68 48 67 49 23 51 55 52 35 53 54 54 36 55 39 56 53 57
REMARK SMILES IDX 72 58 37 59 38 60 52 62 73 63 40 64 24 65 25 66 33 67 26 68
REMARK SMILES IDX 27 69 31 70 34 71 28 72 29 73 32 74 30 75 56 76 57 77 65 78
REMARK SMILES IDX 58 79 59 80 63 81 66 82 60 83 61 84 64 85 62 86 41 87 42 88
REMARK SMILES IDX 50 89 43 90 44 91 48 92 51 93 45 94 46 95 49 96 47 97
REMARK H PARENT 7 6 81 15 12 31 71 50 39 61
REMARK Flexibility Score: inf
ROOT
ATOM      1  C   UNL A   1      37.307  21.126  24.643  1.00  0.00     0.023 C 
ENDROOT
BRANCH   1   2
ATOM      2  C   UNL A   1      35.945  21.143  25.351  1.00  0.00     0.116 C 
BRANCH   2   3
ATOM      3  N   UNL A   1      35.113  19.976  25.087  1.00  0.00    -0.352 N 
ATOM      4  C   UNL A   1      33.807  19.813  24.682  1.00  0.00     0.251 C 
ATOM      5  O   UNL A   1      33.377  18.664  24.580  1.00  0.00    -0.269 OA
ATOM      6  H   UNL A   1      35.584  19.124  25.230  1.00  0.00     0.163 HD
BRANCH   4   7
ATOM      7  C   UNL A   1      32.876  20.949  24.448  1.00  0.00     0.040 A 
ATOM      8  C   UNL A   1      30.705  23.164  26.644  1.00  0.00     0.046 C 
ATOM      9  C   UNL A   1      31.499  22.699  25.453  1.00  0.00    -0.026 A 
ATOM     10  C   UNL A   1      32.237  21.508  25.564  1.00  0.00     0.019 A 
ATOM     11  C   UNL A   1      31.496  23.371  24.223  1.00  0.00     0.052 A 
ATOM     12  C   UNL A   1      31.870  22.667  23.077  1.00  0.00     0.028 A 
ATOM     13  C   UNL A   1      32.558  21.453  23.192  1.00  0.00     0.016 A 
BRANCH  11  14
ATOM     14  N   UNL A   1      31.259  24.777  24.235  1.00  0.00    -0.279 N 
ATOM     15  H   UNL A   1      30.384  25.069  24.581  1.00  0.00     0.180 HD
BRANCH  14  16
ATOM     16  S   UNL A   1      32.294  25.987  23.728  1.00  0.00     0.267 S 
ATOM     17  O   UNL A   1      33.630  25.415  23.781  1.00  0.00    -0.201 OA
ATOM     18  O   UNL A   1      31.737  26.481  22.492  1.00  0.00    -0.201 OA
BRANCH  16  19
ATOM     19  C   UNL A   1      32.246  27.318  24.868  1.00  0.00     0.158 A 
ATOM     20  C   UNL A   1      32.460  27.023  26.210  1.00  0.00     0.146 A 
ATOM     21  C   UNL A   1      31.885  28.609  24.514  1.00  0.00     0.146 A 
ATOM     22  F   UNL A   1      32.901  25.817  26.593  1.00  0.00    -0.205 F 
ATOM     23  C   UNL A   1      32.227  27.976  27.201  1.00  0.00     0.041 A 
ATOM     24  C   UNL A   1      31.625  29.566  25.498  1.00  0.00     0.041 A 
ATOM     25  F   UNL A   1      31.742  28.975  23.233  1.00  0.00    -0.205 F 
ATOM     26  C   UNL A   1      31.776  29.246  26.848  1.00  0.00     0.006 A 
ENDBRANCH  16  19
ENDBRANCH  14  16
ENDBRANCH  11  14
ENDBRANCH   4   7
ENDBRANCH   2   3
ENDBRANCH   1   2
BRANCH   1  27
ATOM     27  C   UNL A   1      38.539  21.127  25.555  1.00  0.00     0.023 C 
BRANCH  27  28
ATOM     28  C   UNL A   1      38.894  22.486  26.155  1.00  0.00     0.116 C 
BRANCH  28  29
ATOM     29  N   UNL A   1      40.305  22.692  26.464  1.00  0.00    -0.352 N 
ATOM     30  C   UNL A   1      41.005  23.872  26.673  1.00  0.00     0.251 C 
ATOM     31  H   UNL A   1      40.842  21.869  26.536  1.00  0.00     0.163 HD
ATOM     32  O   UNL A   1      42.224  23.838  26.817  1.00  0.00    -0.269 OA
BRANCH  30  33
ATOM     33  C   UNL A   1      40.278  25.153  26.879  1.00  0.00     0.039 A 
ATOM     34  C   UNL A   1      40.694  26.269  26.139  1.00  0.00     0.014 A 
ATOM     35  C   UNL A   1      39.397  25.318  27.939  1.00  0.00     0.014 A 
ATOM     36  C   UNL A   1      40.484  27.546  26.653  1.00  0.00     0.010 A 
ATOM     37  C   UNL A   1      39.290  26.566  28.516  1.00  0.00     0.010 A 
ATOM     38  C   UNL A   1      39.914  27.666  27.918  1.00  0.00    -0.014 A 
BRANCH  38  39
ATOM     39  C   UNL A   1      40.096  28.832  28.774  1.00  0.00     0.031 A 
ATOM     40  C   UNL A   1      39.053  29.871  28.876  1.00  0.00     0.074 A 
ATOM     41  C   UNL A   1      41.153  28.840  29.618  1.00  0.00     0.049 A 
ATOM     42  N   UNL A   1      39.237  31.044  29.382  1.00  0.00    -0.248 NA
ATOM     43  C   UNL A   1      37.707  29.679  28.357  1.00  0.00     0.031 C 
ATOM     44  C   UNL A   1      41.340  29.669  30.806  1.00  0.00     0.029 A 
ATOM     45  N   UNL A   1      42.387  28.184  29.456  1.00  0.00    -0.354 N 
ATOM     46  C   UNL A   1      38.002  31.638  29.534  1.00  0.00     0.074 A 
ATOM     47  C   UNL A   1      37.103  30.789  28.789  1.00  0.00     0.031 C 
ATOM     48  C   UNL A   1      42.648  29.715  31.102  1.00  0.00     0.029 A 
ATOM     49  C   UNL A   1      43.352  29.052  30.018  1.00  0.00     0.049 A 
ATOM     50  H   UNL A   1      42.546  27.307  29.039  1.00  0.00     0.167 HD
ATOM     51  C   UNL A   1      37.884  32.693  30.396  1.00  0.00     0.037 A 
ATOM     52  C   UNL A   1      44.311  29.640  29.244  1.00  0.00     0.037 A 
ATOM     53  C   UNL A   1      39.206  33.125  30.864  1.00  0.00     0.049 A 
ATOM     54  C   UNL A   1      44.267  31.151  29.253  1.00  0.00     0.074 A 
ATOM     55  C   UNL A   1      39.903  32.917  32.044  1.00  0.00     0.029 A 
ATOM     56  N   UNL A   1      40.127  33.631  29.949  1.00  0.00    -0.354 N 
ATOM     57  N   UNL A   1      43.225  31.842  29.622  1.00  0.00    -0.248 NA
ATOM     58  C   UNL A   1      45.372  31.999  28.816  1.00  0.00     0.031 C 
ATOM     59  C   UNL A   1      41.265  33.237  31.812  1.00  0.00     0.029 A 
ATOM     60  C   UNL A   1      41.393  33.662  30.501  1.00  0.00     0.049 A 
ATOM     61  H   UNL A   1      39.906  33.926  29.036  1.00  0.00     0.167 HD
ATOM     62  C   UNL A   1      43.481  33.178  29.460  1.00  0.00     0.074 A 
ATOM     63  C   UNL A   1      44.845  33.226  28.971  1.00  0.00     0.031 C 
ATOM     64  C   UNL A   1      42.536  34.128  29.730  1.00  0.00     0.037 A 
BRANCH  51  65
ATOM     65  C   UNL A   1      36.586  33.144  31.058  1.00  0.00     0.064 A 
ATOM     66  C   UNL A   1      35.640  33.909  30.335  1.00  0.00     0.173 A 
ATOM     67  C   UNL A   1      36.244  32.949  32.410  1.00  0.00     0.173 A 
ATOM     68  F   UNL A   1      35.744  34.083  29.011  1.00  0.00    -0.203 F 
ATOM     69  C   UNL A   1      34.538  34.527  30.940  1.00  0.00     0.198 A 
ATOM     70  C   UNL A   1      35.165  33.595  33.025  1.00  0.00     0.198 A 
ATOM     71  F   UNL A   1      36.891  32.078  33.185  1.00  0.00    -0.203 F 
ATOM     72  F   UNL A   1      33.696  35.259  30.197  1.00  0.00    -0.200 F 
ATOM     73  C   UNL A   1      34.321  34.400  32.293  1.00  0.00     0.200 A 
ATOM     74  F   UNL A   1      34.953  33.423  34.338  1.00  0.00    -0.200 F 
ATOM     75  F   UNL A   1      33.290  35.019  32.883  1.00  0.00    -0.200 F 
ENDBRANCH  51  65
BRANCH  52  76
ATOM     76  C   UNL A   1      44.719  28.805  28.083  1.00  0.00     0.064 A 
ATOM     77  C   UNL A   1      45.564  27.704  28.320  1.00  0.00     0.173 A 
ATOM     78  C   UNL A   1      44.009  28.829  26.878  1.00  0.00     0.173 A 
ATOM     79  F   UNL A   1      46.260  27.625  29.467  1.00  0.00    -0.203 F 
ATOM     80  C   UNL A   1      45.609  26.622  27.444  1.00  0.00     0.198 A 
ATOM     81  C   UNL A   1      44.066  27.748  25.994  1.00  0.00     0.198 A 
ATOM     82  F   UNL A   1      43.167  29.836  26.606  1.00  0.00    -0.203 F 
ATOM     83  F   UNL A   1      46.334  25.539  27.759  1.00  0.00    -0.200 F 
ATOM     84  C   UNL A   1      44.838  26.633  26.294  1.00  0.00     0.200 A 
ATOM     85  F   UNL A   1      43.292  27.740  24.900  1.00  0.00    -0.200 F 
ATOM     86  F   UNL A   1      44.801  25.555  25.500  1.00  0.00    -0.200 F 
ENDBRANCH  52  76
BRANCH  64  87
ATOM     87  C   UNL A   1      42.628  35.590  29.374  1.00  0.00     0.064 A 
ATOM     88  C   UNL A   1      43.415  36.520  30.073  1.00  0.00     0.173 A 
ATOM     89  C   UNL A   1      42.026  36.073  28.186  1.00  0.00     0.173 A 
ATOM     90  F   UNL A   1      44.128  36.158  31.149  1.00  0.00    -0.203 F 
ATOM     91  C   UNL A   1      43.544  37.846  29.650  1.00  0.00     0.198 A 
ATOM     92  C   UNL A   1      42.205  37.380  27.736  1.00  0.00     0.198 A 
ATOM     93  F   UNL A   1      41.268  35.281  27.414  1.00  0.00    -0.203 F 
ATOM     94  F   UNL A   1      44.277  38.704  30.374  1.00  0.00    -0.200 F 
ATOM     95  C   UNL A   1      42.951  38.272  28.476  1.00  0.00     0.200 A 
ATOM     96  F   UNL A   1      41.666  37.762  26.570  1.00  0.00    -0.200 F 
ATOM     97  F   UNL A   1      43.119  39.530  28.049  1.00  0.00    -0.200 F 
ENDBRANCH  64  87
ENDBRANCH  38  39
ENDBRANCH  30  33
ENDBRANCH  28  29
ENDBRANCH  27  28
ENDBRANCH   1  27
TORSDOF 14
ENDMDL
MODEL 2
REMARK VINA RESULT:     -14.0      1.210      1.819
REMARK SMILES Cc1cc(C(=O)NCCCCNC(=O)c2ccc(-c3c4nc(c(-c5c(F)c(F)c(F)c(F)c5F)c5ccc([nH]5)c(-c5c(F)c(F)c(F)c(F)c5F)c5nc(c(-c6c(F)c(F)c(F)c(F)c6F)c6ccc3[nH]6)C=C5)C=C4)cc2)ccc1NS(=O)(=O)c1c(F)cccc1F
REMARK SMILES IDX 9 1 8 2 7 3 5 4 6 5 4 7 1 8 2 9 3 10 80 11 79 12 78 13 81 14
REMARK SMILES IDX 82 16 83 17 84 18 85 19 86 20 91 21 87 22 88 23 90 24 92 25
REMARK SMILES IDX 89 26 10 27 11 28 12 29 13 30 14 32 15 33 16 34 77 35 17 36
REMARK SMILES IDX 76 37 18 38 19 39 20 40 70 41 21 42 75 43 69 44 71 45 22 46
REMARK SMILES IDX 74 47 68 48 67 49 23 51 55 52 35 53 54 54 36 55 39 56 53 57
REMARK SMILES IDX 72 58 37 59 38 60 52 62 73 63 40 64 24 65 25 66 33 67 26 68
REMARK SMILES IDX 27 69 31 70 34 71 28 72 29 73 32 74 30 75 56 76 57 77 65 78
REMARK SMILES IDX 58 79 59 80 63 81 66 82 60 83 61 84 64 85 62 86 41 87 42 88
REMARK SMILES IDX 50 89 43 90 44 91 48 92 51 93 45 94 46 95 49 96 47 97
REMARK H PARENT 7 6 81 15 12 31 71 50 39 61
REMARK Flexibility Score: inf
ROOT
ATOM      1  C   UNL A   1      36.878  21.392  24.612  1.00  0.00     0.023 C 
ENDROOT
BRANCH   1   2
ATOM      2  C   UNL A   1      35.675  20.737  25.303  1.00  0.00     0.116 C 
BRANCH   2   3
ATOM      3  N   UNL A   1      35.201  21.440  26.488  1.00  0.00    -0.352 N 
ATOM      4  C   UNL A   1      34.420  22.558  26.681  1.00  0.00     0.251 C 
ATOM      5  O   UNL A   1      34.223  22.928  27.839  1.00  0.00    -0.269 OA
ATOM      6  H   UNL A   1      35.505  21.030  27.330  1.00  0.00     0.163 HD
BRANCH   4   7
ATOM      7  C   UNL A   1      33.881  23.380  25.566  1.00  0.00     0.040 A 
ATOM      8  C   UNL A   1      30.989  23.060  23.122  1.00  0.00     0.046 C 
ATOM      9  C   UNL A   1      32.079  23.691  23.945  1.00  0.00    -0.026 A 
ATOM     10  C   UNL A   1      32.763  22.890  24.876  1.00  0.00     0.019 A 
ATOM     11  C   UNL A   1      32.479  25.026  23.792  1.00  0.00     0.052 A 
ATOM     12  C   UNL A   1      33.745  25.399  24.243  1.00  0.00     0.028 A 
ATOM     13  C   UNL A   1      34.447  24.573  25.129  1.00  0.00     0.016 A 
BRANCH  11  14
ATOM     14  N   UNL A   1      31.508  25.959  23.321  1.00  0.00    -0.279 N 
ATOM     15  H   UNL A   1      31.490  26.117  22.350  1.00  0.00     0.180 HD
BRANCH  14  16
ATOM     16  S   UNL A   1      30.398  26.817  24.231  1.00  0.00     0.267 S 
ATOM     17  O   UNL A   1      29.634  27.609  23.282  1.00  0.00    -0.201 OA
ATOM     18  O   UNL A   1      29.759  25.842  25.081  1.00  0.00    -0.201 OA
BRANCH  16  19
ATOM     19  C   UNL A   1      31.242  27.931  25.289  1.00  0.00     0.158 A 
ATOM     20  C   UNL A   1      31.665  27.449  26.524  1.00  0.00     0.146 A 
ATOM     21  C   UNL A   1      31.392  29.280  25.008  1.00  0.00     0.146 A 
ATOM     22  F   UNL A   1      31.628  26.140  26.807  1.00  0.00    -0.205 F 
ATOM     23  C   UNL A   1      32.147  28.314  27.505  1.00  0.00     0.041 A 
ATOM     24  C   UNL A   1      31.850  30.161  25.991  1.00  0.00     0.041 A 
ATOM     25  F   UNL A   1      31.077  29.790  23.810  1.00  0.00    -0.205 F 
ATOM     26  C   UNL A   1      32.210  29.683  27.251  1.00  0.00     0.006 A 
ENDBRANCH  16  19
ENDBRANCH  14  16
ENDBRANCH  11  14
ENDBRANCH   4   7
ENDBRANCH   2   3
ENDBRANCH   1   2
BRANCH   1  27
ATOM     27  C   UNL A   1      38.200  21.356  25.387  1.00  0.00     0.023 C 
BRANCH  27  28
ATOM     28  C   UNL A   1      38.668  22.707  25.923  1.00  0.00     0.116 C 
BRANCH  28  29
ATOM     29  N   UNL A   1      40.020  22.736  26.472  1.00  0.00    -0.352 N 
ATOM     30  C   UNL A   1      40.756  23.806  26.962  1.00  0.00     0.251 C 
ATOM     31  H   UNL A   1      40.479  21.866  26.499  1.00  0.00     0.163 HD
ATOM     32  O   UNL A   1      41.929  23.640  27.285  1.00  0.00    -0.269 OA
BRANCH  30  33
ATOM     33  C   UNL A   1      40.096  25.107  27.248  1.00  0.00     0.039 A 
ATOM     34  C   UNL A   1      40.401  26.194  26.415  1.00  0.00     0.014 A 
ATOM     35  C   UNL A   1      39.406  25.320  28.434  1.00  0.00     0.014 A 
ATOM     36  C   UNL A   1      40.300  27.488  26.918  1.00  0.00     0.010 A 
ATOM     37  C   UNL A   1      39.418  26.586  28.982  1.00  0.00     0.010 A 
ATOM     38  C   UNL A   1      39.952  27.655  28.255  1.00  0.00    -0.014 A 
BRANCH  38  39
ATOM     39  C   UNL A   1      40.294  28.840  29.033  1.00  0.00     0.031 A 
ATOM     40  C   UNL A   1      39.290  29.886  29.307  1.00  0.00     0.074 A 
ATOM     41  C   UNL A   1      41.492  28.863  29.660  1.00  0.00     0.049 A 
ATOM     42  N   UNL A   1      39.567  31.069  29.741  1.00  0.00    -0.248 NA
ATOM     43  C   UNL A   1      37.869  29.689  29.059  1.00  0.00     0.031 C 
ATOM     44  C   UNL A   1      41.902  29.718  30.771  1.00  0.00     0.029 A 
ATOM     45  N   UNL A   1      42.673  28.197  29.282  1.00  0.00    -0.354 N 
ATOM     46  C   UNL A   1      38.383  31.673  30.111  1.00  0.00     0.074 A 
ATOM     47  C   UNL A   1      37.359  30.811  29.571  1.00  0.00     0.031 C 
ATOM     48  C   UNL A   1      43.243  29.765  30.811  1.00  0.00     0.029 A 
ATOM     49  C   UNL A   1      43.728  29.074  29.630  1.00  0.00     0.049 A 
ATOM     50  H   UNL A   1      42.749  27.310  28.863  1.00  0.00     0.167 HD
ATOM     51  C   UNL A   1      38.432  32.749  30.954  1.00  0.00     0.037 A 
ATOM     52  C   UNL A   1      44.522  29.639  28.674  1.00  0.00     0.037 A 
ATOM     53  C   UNL A   1      39.819  33.185  31.151  1.00  0.00     0.049 A 
ATOM     54  C   UNL A   1      44.480  31.149  28.655  1.00  0.00     0.074 A 
ATOM     55  C   UNL A   1      40.728  33.001  32.182  1.00  0.00     0.029 A 
ATOM     56  N   UNL A   1      40.549  33.665  30.067  1.00  0.00    -0.354 N 
ATOM     57  N   UNL A   1      43.527  31.854  29.198  1.00  0.00    -0.248 NA
ATOM     58  C   UNL A   1      45.482  31.982  27.996  1.00  0.00     0.031 C 
ATOM     59  C   UNL A   1      42.021  33.309  31.688  1.00  0.00     0.029 A 
ATOM     60  C   UNL A   1      41.897  33.703  30.367  1.00  0.00     0.049 A 
ATOM     61  H   UNL A   1      40.158  33.940  29.206  1.00  0.00     0.167 HD
ATOM     62  C   UNL A   1      43.748  33.184  28.959  1.00  0.00     0.074 A 
ATOM     63  C   UNL A   1      44.995  33.214  28.219  1.00  0.00     0.031 C 
ATOM     64  C   UNL A   1      42.873  34.145  29.381  1.00  0.00     0.037 A 
BRANCH  51  65
ATOM     65  C   UNL A   1      37.284  33.221  31.840  1.00  0.00     0.064 A 
ATOM     66  C   UNL A   1      36.224  33.984  31.295  1.00  0.00     0.173 A 
ATOM     67  C   UNL A   1      37.200  33.049  33.235  1.00  0.00     0.173 A 
ATOM     68  F   UNL A   1      36.079  34.137  29.972  1.00  0.00    -0.203 F 
ATOM     69  C   UNL A   1      35.259  34.620  32.085  1.00  0.00     0.198 A 
ATOM     70  C   UNL A   1      36.260  33.714  34.032  1.00  0.00     0.198 A 
ATOM     71  F   UNL A   1      37.976  32.183  33.889  1.00  0.00    -0.203 F 
ATOM     72  F   UNL A   1      34.297  35.349  31.502  1.00  0.00    -0.200 F 
ATOM     73  C   UNL A   1      35.299  34.515  33.457  1.00  0.00     0.200 A 
ATOM     74  F   UNL A   1      36.296  33.563  35.363  1.00  0.00    -0.200 F 
ATOM     75  F   UNL A   1      34.400  35.152  34.220  1.00  0.00    -0.200 F 
ENDBRANCH  51  65
BRANCH  52  76
ATOM     76  C   UNL A   1      44.700  28.775  27.476  1.00  0.00     0.064 A 
ATOM     77  C   UNL A   1      45.592  27.688  27.567  1.00  0.00     0.173 A 
ATOM     78  C   UNL A   1      43.764  28.760  26.437  1.00  0.00     0.173 A 
ATOM     79  F   UNL A   1      46.503  27.647  28.553  1.00  0.00    -0.203 F 
ATOM     80  C   UNL A   1      45.475  26.582  26.728  1.00  0.00     0.198 A 
ATOM     81  C   UNL A   1      43.659  27.655  25.588  1.00  0.00     0.198 A 
ATOM     82  F   UNL A   1      42.870  29.751  26.313  1.00  0.00    -0.203 F 
ATOM     83  F   UNL A   1      46.263  25.514  26.919  1.00  0.00    -0.200 F 
ATOM     84  C   UNL A   1      44.490  26.555  25.756  1.00  0.00     0.200 A 
ATOM     85  F   UNL A   1      42.682  27.609  24.672  1.00  0.00    -0.200 F 
ATOM     86  F   UNL A   1      44.310  25.454  25.013  1.00  0.00    -0.200 F 
ENDBRANCH  52  76
BRANCH  64  87
ATOM     87  C   UNL A   1      42.895  35.598  28.979  1.00  0.00     0.064 A 
ATOM     88  C   UNL A   1      42.200  36.117  27.874  1.00  0.00     0.173 A 
ATOM     89  C   UNL A   1      43.513  36.560  29.816  1.00  0.00     0.173 A 
ATOM     90  F   UNL A   1      41.480  35.323  27.070  1.00  0.00    -0.203 F 
ATOM     91  C   UNL A   1      42.173  37.486  27.594  1.00  0.00     0.198 A 
ATOM     92  C   UNL A   1      43.434  37.929  29.567  1.00  0.00     0.198 A 
ATOM     93  F   UNL A   1      44.188  36.197  30.916  1.00  0.00    -0.203 F 
ATOM     94  F   UNL A   1      41.527  37.927  26.506  1.00  0.00    -0.200 F 
ATOM     95  C   UNL A   1      42.777  38.392  28.447  1.00  0.00     0.200 A 
ATOM     96  F   UNL A   1      43.981  38.796  30.430  1.00  0.00    -0.200 F 
ATOM     97  F   UNL A   1      42.705  39.707  28.200  1.00  0.00    -0.200 F 
ENDBRANCH  64  87
ENDBRANCH  38  39
ENDBRANCH  30  33
ENDBRANCH  28  29
ENDBRANCH  27  28
ENDBRANCH   1  27
TORSDOF 14
ENDMDL
MODEL 3
REMARK VINA RESULT:     -13.9      3.969     10.206
REMARK SMILES Cc1cc(C(=O)NCCCCNC(=O)c2ccc(-c3c4nc(c(-c5c(F)c(F)c(F)c(F)c5F)c5ccc([nH]5)c(-c5c(F)c(F)c(F)c(F)c5F)c5nc(c(-c6c(F)c(F)c(F)c(F)c6F)c6ccc3[nH]6)C=C5)C=C4)cc2)ccc1NS(=O)(=O)c1c(F)cccc1F
REMARK SMILES IDX 9 1 8 2 7 3 5 4 6 5 4 7 1 8 2 9 3 10 80 11 79 12 78 13 81 14
REMARK SMILES IDX 82 16 83 17 84 18 85 19 86 20 91 21 87 22 88 23 90 24 92 25
REMARK SMILES IDX 89 26 10 27 11 28 12 29 13 30 14 32 15 33 16 34 77 35 17 36
REMARK SMILES IDX 76 37 18 38 19 39 20 40 70 41 21 42 75 43 69 44 71 45 22 46
REMARK SMILES IDX 74 47 68 48 67 49 23 51 55 52 35 53 54 54 36 55 39 56 53 57
REMARK SMILES IDX 72 58 37 59 38 60 52 62 73 63 40 64 24 65 25 66 33 67 26 68
REMARK SMILES IDX 27 69 31 70 34 71 28 72 29 73 32 74 30 75 56 76 57 77 65 78
REMARK SMILES IDX 58 79 59 80 63 81 66 82 60 83 61 84 64 85 62 86 41 87 42 88
REMARK SMILES IDX 50 89 43 90 44 91 48 92 51 93 45 94 46 95 49 96 47 97
REMARK H PARENT 7 6 81 15 12 31 71 50 39 61
REMARK Flexibility Score: inf
ROOT
ATOM      1  C   UNL A   1      32.203  29.481  26.853  1.00  0.00     0.023 C 
ENDROOT
BRANCH   1   2
ATOM      2  C   UNL A   1      32.383  29.662  25.340  1.00  0.00     0.116 C 
BRANCH   2   3
ATOM      3  N   UNL A   1      31.164  30.012  24.624  1.00  0.00    -0.352 N 
ATOM      4  C   UNL A   1      30.288  29.299  23.834  1.00  0.00     0.251 C 
ATOM      5  O   UNL A   1      29.343  29.908  23.332  1.00  0.00    -0.269 OA
ATOM      6  H   UNL A   1      30.913  30.958  24.724  1.00  0.00     0.163 HD
BRANCH   4   7
ATOM      7  C   UNL A   1      30.478  27.865  23.494  1.00  0.00     0.040 A 
ATOM      8  C   UNL A   1      32.197  25.953  20.695  1.00  0.00     0.046 C 
ATOM      9  C   UNL A   1      31.578  26.242  22.036  1.00  0.00    -0.026 A 
ATOM     10  C   UNL A   1      31.190  27.561  22.325  1.00  0.00     0.019 A 
ATOM     11  C   UNL A   1      31.324  25.247  22.991  1.00  0.00     0.052 A 
ATOM     12  C   UNL A   1      30.372  25.499  23.980  1.00  0.00     0.028 A 
ATOM     13  C   UNL A   1      29.948  26.810  24.229  1.00  0.00     0.016 A 
BRANCH  11  14
ATOM     14  N   UNL A   1      32.163  24.093  22.987  1.00  0.00    -0.279 N 
ATOM     15  H   UNL A   1      31.752  23.257  22.668  1.00  0.00     0.180 HD
BRANCH  14  16
ATOM     16  S   UNL A   1      33.762  23.998  23.464  1.00  0.00     0.267 S 
ATOM     17  O   UNL A   1      34.461  23.331  22.378  1.00  0.00    -0.201 OA
ATOM     18  O   UNL A   1      34.121  25.332  23.882  1.00  0.00    -0.201 OA
BRANCH  16  19
ATOM     19  C   UNL A   1      33.892  22.975  24.882  1.00  0.00     0.158 A 
ATOM     20  C   UNL A   1      33.177  21.783  24.882  1.00  0.00     0.146 A 
ATOM     21  C   UNL A   1      34.565  23.356  26.033  1.00  0.00     0.146 A 
ATOM     22  F   UNL A   1      32.589  21.326  23.768  1.00  0.00    -0.205 F 
ATOM     23  C   UNL A   1      33.052  21.021  26.043  1.00  0.00     0.041 A 
ATOM     24  C   UNL A   1      34.428  22.614  27.210  1.00  0.00     0.041 A 
ATOM     25  F   UNL A   1      35.334  24.451  26.072  1.00  0.00    -0.205 F 
ATOM     26  C   UNL A   1      33.653  21.453  27.223  1.00  0.00     0.006 A 
ENDBRANCH  16  19
ENDBRANCH  14  16
ENDBRANCH  11  14
ENDBRANCH   4   7
ENDBRANCH   2   3
ENDBRANCH   1   2
BRANCH   1  27
ATOM     27  C   UNL A   1      33.464  29.657  27.707  1.00  0.00     0.023 C 
BRANCH  27  28
ATOM     28  C   UNL A   1      34.414  30.755  27.232  1.00  0.00     0.116 C 
BRANCH  28  29
ATOM     29  N   UNL A   1      35.070  31.523  28.285  1.00  0.00    -0.352 N 
ATOM     30  C   UNL A   1      36.144  31.181  29.096  1.00  0.00     0.251 C 
ATOM     31  H   UNL A   1      34.695  32.419  28.444  1.00  0.00     0.163 HD
ATOM     32  O   UNL A   1      36.483  31.934  30.004  1.00  0.00    -0.269 OA
BRANCH  30  33
ATOM     33  C   UNL A   1      36.981  29.995  28.776  1.00  0.00     0.039 A 
ATOM     34  C   UNL A   1      37.032  28.956  29.717  1.00  0.00     0.014 A 
ATOM     35  C   UNL A   1      37.881  30.012  27.719  1.00  0.00     0.014 A 
ATOM     36  C   UNL A   1      38.158  28.139  29.772  1.00  0.00     0.010 A 
ATOM     37  C   UNL A   1      39.051  29.291  27.841  1.00  0.00     0.010 A 
ATOM     38  C   UNL A   1      39.224  28.422  28.923  1.00  0.00    -0.014 A 
BRANCH  38  39
ATOM     39  C   UNL A   1      40.599  28.021  29.198  1.00  0.00     0.031 A 
ATOM     40  C   UNL A   1      41.157  26.778  28.634  1.00  0.00     0.074 A 
ATOM     41  C   UNL A   1      41.406  28.912  29.818  1.00  0.00     0.049 A 
ATOM     42  N   UNL A   1      42.247  26.217  29.036  1.00  0.00    -0.248 NA
ATOM     43  C   UNL A   1      40.485  26.027  27.583  1.00  0.00     0.031 C 
ATOM     44  C   UNL A   1      42.866  28.915  29.860  1.00  0.00     0.029 A 
ATOM     45  N   UNL A   1      41.033  29.938  30.707  1.00  0.00    -0.354 N 
ATOM     46  C   UNL A   1      42.578  25.233  28.129  1.00  0.00     0.074 A 
ATOM     47  C   UNL A   1      41.399  25.093  27.309  1.00  0.00     0.031 C 
ATOM     48  C   UNL A   1      43.270  29.656  30.904  1.00  0.00     0.029 A 
ATOM     49  C   UNL A   1      42.079  30.014  31.656  1.00  0.00     0.049 A 
ATOM     50  H   UNL A   1      40.215  30.485  30.675  1.00  0.00     0.167 HD
ATOM     51  C   UNL A   1      43.865  24.771  28.103  1.00  0.00     0.037 A 
ATOM     52  C   UNL A   1      41.869  29.701  32.967  1.00  0.00     0.037 A 
ATOM     53  C   UNL A   1      44.626  25.308  29.237  1.00  0.00     0.049 A 
ATOM     54  C   UNL A   1      42.716  28.554  33.469  1.00  0.00     0.074 A 
ATOM     55  C   UNL A   1      45.553  26.332  29.350  1.00  0.00     0.029 A 
ATOM     56  N   UNL A   1      44.251  24.974  30.536  1.00  0.00    -0.354 N 
ATOM     57  N   UNL A   1      43.299  27.689  32.686  1.00  0.00    -0.248 NA
ATOM     58  C   UNL A   1      42.943  28.269  34.882  1.00  0.00     0.031 C 
ATOM     59  C   UNL A   1      45.680  26.660  30.723  1.00  0.00     0.029 A 
ATOM     60  C   UNL A   1      44.852  25.820  31.448  1.00  0.00     0.049 A 
ATOM     61  H   UNL A   1      43.642  24.237  30.771  1.00  0.00     0.167 HD
ATOM     62  C   UNL A   1      43.939  26.745  33.444  1.00  0.00     0.074 A 
ATOM     63  C   UNL A   1      43.703  27.162  34.813  1.00  0.00     0.031 C 
ATOM     64  C   UNL A   1      44.595  25.690  32.874  1.00  0.00     0.037 A 
BRANCH  51  65
ATOM     65  C   UNL A   1      44.529  24.091  26.910  1.00  0.00     0.064 A 
ATOM     66  C   UNL A   1      44.272  22.728  26.627  1.00  0.00     0.173 A 
ATOM     67  C   UNL A   1      45.490  24.675  26.063  1.00  0.00     0.173 A 
ATOM     68  F   UNL A   1      43.297  22.055  27.251  1.00  0.00    -0.203 F 
ATOM     69  C   UNL A   1      45.004  21.996  25.683  1.00  0.00     0.198 A 
ATOM     70  C   UNL A   1      46.249  23.938  25.146  1.00  0.00     0.198 A 
ATOM     71  F   UNL A   1      45.699  25.992  26.032  1.00  0.00    -0.203 F 
ATOM     72  F   UNL A   1      44.724  20.700  25.485  1.00  0.00    -0.200 F 
ATOM     73  C   UNL A   1      46.018  22.592  24.969  1.00  0.00     0.200 A 
ATOM     74  F   UNL A   1      47.204  24.552  24.434  1.00  0.00    -0.200 F 
ATOM     75  F   UNL A   1      46.745  21.887  24.092  1.00  0.00    -0.200 F 
ENDBRANCH  51  65
BRANCH  52  76
ATOM     76  C   UNL A   1      40.489  30.008  33.428  1.00  0.00     0.064 A 
ATOM     77  C   UNL A   1      40.164  31.349  33.712  1.00  0.00     0.173 A 
ATOM     78  C   UNL A   1      39.431  29.115  33.219  1.00  0.00     0.173 A 
ATOM     79  F   UNL A   1      41.141  32.249  33.909  1.00  0.00    -0.203 F 
ATOM     80  C   UNL A   1      38.847  31.800  33.673  1.00  0.00     0.198 A 
ATOM     81  C   UNL A   1      38.110  29.569  33.194  1.00  0.00     0.198 A 
ATOM     82  F   UNL A   1      39.675  27.832  32.918  1.00  0.00    -0.203 F 
ATOM     83  F   UNL A   1      38.585  33.105  33.831  1.00  0.00    -0.200 F 
ATOM     84  C   UNL A   1      37.822  30.914  33.387  1.00  0.00     0.200 A 
ATOM     85  F   UNL A   1      37.120  28.722  32.880  1.00  0.00    -0.200 F 
ATOM     86  F   UNL A   1      36.567  31.361  33.251  1.00  0.00    -0.200 F 
ENDBRANCH  52  76
BRANCH  64  87
ATOM     87  C   UNL A   1      45.128  24.483  33.604  1.00  0.00     0.064 A 
ATOM     88  C   UNL A   1      44.368  23.334  33.879  1.00  0.00     0.173 A 
ATOM     89  C   UNL A   1      46.507  24.391  33.917  1.00  0.00     0.173 A 
ATOM     90  F   UNL A   1      43.078  23.252  33.526  1.00  0.00    -0.203 F 
ATOM     91  C   UNL A   1      44.930  22.201  34.474  1.00  0.00     0.198 A 
ATOM     92  C   UNL A   1      47.075  23.238  34.455  1.00  0.00     0.198 A 
ATOM     93  F   UNL A   1      47.346  25.409  33.682  1.00  0.00    -0.203 F 
ATOM     94  F   UNL A   1      44.154  21.144  34.750  1.00  0.00    -0.200 F 
ATOM     95  C   UNL A   1      46.284  22.147  34.749  1.00  0.00     0.200 A 
ATOM     96  F   UNL A   1      48.397  23.184  34.668  1.00  0.00    -0.200 F 
ATOM     97  F   UNL A   1      46.826  21.041  35.273  1.00  0.00    -0.200 F 
ENDBRANCH  64  87
ENDBRANCH  38  39
ENDBRANCH  30  33
ENDBRANCH  28  29
ENDBRANCH  27  28
ENDBRANCH   1  27
TORSDOF 14
ENDMDL
