MODEL 1
REMARK VINA RESULT:     -13.3      0.000      0.000
REMARK SMILES Cc1cc(Cl)c2c(c1)C=C(C(=O)NCCCCNC(=O)c1ccc(-c3c4nc(c(-c5c(F)c(F)c(F)c(F)c5F)c5ccc([nH]5)c(-c5c(F)c(F)c(F)c(F)c5F)c5nc(c(-c6c(F)c(F)c(F)c(F)c6F)c6ccc3[nH]6)C=C5)C=C4)cc1)[C@@H](C(F)(F)F)O2
REMARK SMILES IDX 16 1 15 2 14 3 13 4 11 5 12 6 10 8 1 9 2 10 3 11 8 12 4 13
REMARK SMILES IDX 7 14 5 15 6 16 9 17 89 18 84 19 85 20 86 21 87 22 88 23
REMARK SMILES IDX 17 24 18 25 19 26 20 28 21 29 22 30 83 31 23 32 82 33 24 34
REMARK SMILES IDX 25 35 26 36 76 37 27 38 81 39 75 40 77 41 28 42 80 43 74 44
REMARK SMILES IDX 73 45 29 47 61 48 41 49 60 50 42 51 45 52 59 53 78 54 43 55
REMARK SMILES IDX 44 56 58 58 79 59 46 60 30 61 31 62 39 63 32 64 33 65 37 66
REMARK SMILES IDX 40 67 34 68 35 69 38 70 36 71 62 72 63 73 71 74 64 75 65 76
REMARK SMILES IDX 69 77 72 78 66 79 67 80 70 81 68 82 47 83 48 84 56 85 49 86
REMARK SMILES IDX 50 87 54 88 57 89 51 90 52 91 55 92 53 93
REMARK H PARENT 13 7 18 27 77 46 45 57
REMARK Flexibility Score: inf
ROOT
ATOM      1  C   UNL A   1      31.586  32.024  26.832  1.00  0.00     0.023 C 
ENDROOT
BRANCH   1   2
ATOM      2  C   UNL A   1      31.818  30.511  26.823  1.00  0.00     0.023 C 
BRANCH   2   3
ATOM      3  C   UNL A   1      33.287  30.107  26.742  1.00  0.00     0.116 C 
BRANCH   3   4
ATOM      4  N   UNL A   1      33.661  29.685  25.404  1.00  0.00    -0.352 N 
ATOM      5  C   UNL A   1      33.581  28.551  24.670  1.00  0.00     0.251 C 
ATOM      6  O   UNL A   1      34.050  28.634  23.530  1.00  0.00    -0.270 OA
ATOM      7  H   UNL A   1      34.084  30.415  24.899  1.00  0.00     0.163 HD
BRANCH   5   8
ATOM      8  C   UNL A   1      32.988  27.260  25.132  1.00  0.00     0.067 C 
ATOM      9  C   UNL A   1      34.723  21.545  26.781  1.00  0.00     0.044 C 
ATOM     10  C   UNL A   1      33.788  22.702  26.585  1.00  0.00    -0.049 A 
ATOM     11  C   UNL A   1      32.421  22.545  26.841  1.00  0.00     0.028 A 
ATOM     12  C   UNL A   1      34.258  23.937  26.116  1.00  0.00     0.015 A 
ATOM     13  C   UNL A   1      31.542  23.612  26.651  1.00  0.00     0.084 A 
ATOM     14  C   UNL A   1      33.377  25.008  25.922  1.00  0.00     0.019 A 
ATOM     15  Cl  UNL A   1      29.866  23.370  26.994  1.00  0.00    -0.080 Cl
ATOM     16  C   UNL A   1      32.016  24.841  26.186  1.00  0.00     0.146 A 
ATOM     17  C   UNL A   1      33.872  26.309  25.485  1.00  0.00     0.025 C 
ATOM     18  O   UNL A   1      31.129  25.873  26.050  1.00  0.00    -0.474 OA
ATOM     19  C   UNL A   1      31.515  26.967  25.175  1.00  0.00     0.314 C 
BRANCH  19  20
ATOM     20  C   UNL A   1      30.915  26.735  23.775  1.00  0.00     0.429 C 
ATOM     21  F   UNL A   1      31.720  25.928  23.040  1.00  0.00    -0.167 F 
ATOM     22  F   UNL A   1      29.707  26.122  23.826  1.00  0.00    -0.167 F 
ATOM     23  F   UNL A   1      30.745  27.884  23.084  1.00  0.00    -0.167 F 
ENDBRANCH  19  20
ENDBRANCH   5   8
ENDBRANCH   3   4
ENDBRANCH   2   3
ENDBRANCH   1   2
BRANCH   1  24
ATOM     24  C   UNL A   1      32.766  32.864  27.316  1.00  0.00     0.116 C 
BRANCH  24  25
ATOM     25  N   UNL A   1      32.411  34.226  27.686  1.00  0.00    -0.352 N 
ATOM     26  C   UNL A   1      33.008  35.031  28.627  1.00  0.00     0.251 C 
ATOM     27  H   UNL A   1      31.648  34.619  27.203  1.00  0.00     0.163 HD
ATOM     28  O   UNL A   1      32.559  36.141  28.886  1.00  0.00    -0.269 OA
BRANCH  26  29
ATOM     29  C   UNL A   1      34.178  34.510  29.357  1.00  0.00     0.039 A 
ATOM     30  C   UNL A   1      33.967  33.803  30.542  1.00  0.00     0.014 A 
ATOM     31  C   UNL A   1      35.462  34.654  28.824  1.00  0.00     0.014 A 
ATOM     32  C   UNL A   1      35.044  33.169  31.158  1.00  0.00     0.010 A 
ATOM     33  C   UNL A   1      36.522  33.972  29.406  1.00  0.00     0.010 A 
ATOM     34  C   UNL A   1      36.320  33.218  30.573  1.00  0.00    -0.014 A 
BRANCH  34  35
ATOM     35  C   UNL A   1      37.459  32.483  31.170  1.00  0.00     0.031 A 
ATOM     36  C   UNL A   1      37.945  32.845  32.541  1.00  0.00     0.074 A 
ATOM     37  C   UNL A   1      38.082  31.527  30.455  1.00  0.00     0.049 A 
ATOM     38  N   UNL A   1      38.953  32.355  33.217  1.00  0.00    -0.248 NA
ATOM     39  C   UNL A   1      37.216  33.918  33.237  1.00  0.00     0.031 C 
ATOM     40  C   UNL A   1      37.721  31.118  29.097  1.00  0.00     0.029 A 
ATOM     41  N   UNL A   1      39.150  30.727  30.773  1.00  0.00    -0.354 N 
ATOM     42  C   UNL A   1      38.980  33.061  34.411  1.00  0.00     0.074 A 
ATOM     43  C   UNL A   1      37.928  34.052  34.346  1.00  0.00     0.031 C 
ATOM     44  C   UNL A   1      38.530  30.117  28.712  1.00  0.00     0.029 A 
ATOM     45  C   UNL A   1      39.484  29.837  29.782  1.00  0.00     0.049 A 
ATOM     46  H   UNL A   1      39.630  30.784  31.630  1.00  0.00     0.167 HD
ATOM     47  C   UNL A   1      39.793  32.879  35.478  1.00  0.00     0.037 A 
ATOM     48  C   UNL A   1      40.446  28.896  29.748  1.00  0.00     0.037 A 
ATOM     49  C   UNL A   1      40.822  31.877  35.548  1.00  0.00     0.049 A 
ATOM     50  C   UNL A   1      41.347  28.724  30.939  1.00  0.00     0.074 A 
ATOM     51  C   UNL A   1      41.671  31.584  36.600  1.00  0.00     0.029 A 
ATOM     52  N   UNL A   1      41.138  31.001  34.520  1.00  0.00    -0.354 N 
ATOM     53  N   UNL A   1      41.339  29.368  32.080  1.00  0.00    -0.248 NA
ATOM     54  C   UNL A   1      42.393  27.697  30.836  1.00  0.00     0.031 C 
ATOM     55  C   UNL A   1      42.521  30.549  36.199  1.00  0.00     0.029 A 
ATOM     56  C   UNL A   1      42.179  30.174  34.908  1.00  0.00     0.049 A 
ATOM     57  H   UNL A   1      40.688  30.970  33.645  1.00  0.00     0.167 HD
ATOM     58  C   UNL A   1      42.360  28.816  32.839  1.00  0.00     0.074 A 
ATOM     59  C   UNL A   1      42.963  27.774  32.032  1.00  0.00     0.031 C 
ATOM     60  C   UNL A   1      42.763  29.142  34.090  1.00  0.00     0.037 A 
BRANCH  47  61
ATOM     61  C   UNL A   1      39.583  33.773  36.662  1.00  0.00     0.064 A 
ATOM     62  C   UNL A   1      38.785  33.373  37.744  1.00  0.00     0.173 A 
ATOM     63  C   UNL A   1      40.199  35.031  36.727  1.00  0.00     0.173 A 
ATOM     64  F   UNL A   1      38.163  32.185  37.720  1.00  0.00    -0.203 F 
ATOM     65  C   UNL A   1      38.592  34.209  38.839  1.00  0.00     0.198 A 
ATOM     66  C   UNL A   1      40.023  35.855  37.836  1.00  0.00     0.198 A 
ATOM     67  F   UNL A   1      40.971  35.460  35.718  1.00  0.00    -0.203 F 
ATOM     68  F   UNL A   1      37.790  33.824  39.841  1.00  0.00    -0.200 F 
ATOM     69  C   UNL A   1      39.216  35.447  38.887  1.00  0.00     0.200 A 
ATOM     70  F   UNL A   1      40.633  37.047  37.885  1.00  0.00    -0.200 F 
ATOM     71  F   UNL A   1      39.031  36.250  39.944  1.00  0.00    -0.200 F 
ENDBRANCH  47  61
BRANCH  48  72
ATOM     72  C   UNL A   1      40.569  28.015  28.561  1.00  0.00     0.064 A 
ATOM     73  C   UNL A   1      39.893  26.787  28.514  1.00  0.00     0.173 A 
ATOM     74  C   UNL A   1      41.334  28.384  27.445  1.00  0.00     0.173 A 
ATOM     75  F   UNL A   1      39.165  26.385  29.566  1.00  0.00    -0.203 F 
ATOM     76  C   UNL A   1      39.980  25.960  27.396  1.00  0.00     0.198 A 
ATOM     77  C   UNL A   1      41.405  27.564  26.320  1.00  0.00     0.198 A 
ATOM     78  F   UNL A   1      41.997  29.549  27.442  1.00  0.00    -0.203 F 
ATOM     79  F   UNL A   1      39.343  24.782  27.386  1.00  0.00    -0.200 F 
ATOM     80  C   UNL A   1      40.731  26.352  26.298  1.00  0.00     0.200 A 
ATOM     81  F   UNL A   1      42.121  27.950  25.256  1.00  0.00    -0.200 F 
ATOM     82  F   UNL A   1      40.806  25.561  25.219  1.00  0.00    -0.200 F 
ENDBRANCH  48  72
BRANCH  60  83
ATOM     83  C   UNL A   1      43.901  28.363  34.675  1.00  0.00     0.064 A 
ATOM     84  C   UNL A   1      43.685  27.155  35.350  1.00  0.00     0.173 A 
ATOM     85  C   UNL A   1      45.224  28.791  34.489  1.00  0.00     0.173 A 
ATOM     86  F   UNL A   1      42.436  26.714  35.562  1.00  0.00    -0.203 F 
ATOM     87  C   UNL A   1      44.755  26.403  35.826  1.00  0.00     0.198 A 
ATOM     88  C   UNL A   1      46.292  28.026  34.948  1.00  0.00     0.198 A 
ATOM     89  F   UNL A   1      45.480  29.939  33.845  1.00  0.00    -0.203 F 
ATOM     90  F   UNL A   1      44.527  25.262  36.491  1.00  0.00    -0.200 F 
ATOM     91  C   UNL A   1      46.057  26.834  35.618  1.00  0.00     0.200 A 
ATOM     92  F   UNL A   1      47.550  28.437  34.735  1.00  0.00    -0.200 F 
ATOM     93  F   UNL A   1      47.086  26.100  36.063  1.00  0.00    -0.200 F 
ENDBRANCH  60  83
ENDBRANCH  34  35
ENDBRANCH  26  29
ENDBRANCH  24  25
ENDBRANCH   1  24
TORSDOF 12
ENDMDL
MODEL 2
REMARK VINA RESULT:     -13.3      0.154      2.002
REMARK SMILES Cc1cc(Cl)c2c(c1)C=C(C(=O)NCCCCNC(=O)c1ccc(-c3c4nc(c(-c5c(F)c(F)c(F)c(F)c5F)c5ccc([nH]5)c(-c5c(F)c(F)c(F)c(F)c5F)c5nc(c(-c6c(F)c(F)c(F)c(F)c6F)c6ccc3[nH]6)C=C5)C=C4)cc1)[C@@H](C(F)(F)F)O2
REMARK SMILES IDX 16 1 15 2 14 3 13 4 11 5 12 6 10 8 1 9 2 10 3 11 8 12 4 13
REMARK SMILES IDX 7 14 5 15 6 16 9 17 89 18 84 19 85 20 86 21 87 22 88 23
REMARK SMILES IDX 17 24 18 25 19 26 20 28 21 29 22 30 83 31 23 32 82 33 24 34
REMARK SMILES IDX 25 35 26 36 76 37 27 38 81 39 75 40 77 41 28 42 80 43 74 44
REMARK SMILES IDX 73 45 29 47 61 48 41 49 60 50 42 51 45 52 59 53 78 54 43 55
REMARK SMILES IDX 44 56 58 58 79 59 46 60 30 61 31 62 39 63 32 64 33 65 37 66
REMARK SMILES IDX 40 67 34 68 35 69 38 70 36 71 62 72 63 73 71 74 64 75 65 76
REMARK SMILES IDX 69 77 72 78 66 79 67 80 70 81 68 82 47 83 48 84 56 85 49 86
REMARK SMILES IDX 50 87 54 88 57 89 51 90 52 91 55 92 53 93
REMARK H PARENT 13 7 18 27 77 46 45 57
REMARK Flexibility Score: inf
ROOT
ATOM      1  C   UNL A   1      31.519  31.973  26.869  1.00  0.00     0.023 C 
ENDROOT
BRANCH   1   2
ATOM      2  C   UNL A   1      31.806  30.477  26.731  1.00  0.00     0.023 C 
BRANCH   2   3
ATOM      3  C   UNL A   1      33.290  30.131  26.669  1.00  0.00     0.116 C 
BRANCH   3   4
ATOM      4  N   UNL A   1      33.692  29.695  25.343  1.00  0.00    -0.352 N 
ATOM      5  C   UNL A   1      33.637  28.551  24.622  1.00  0.00     0.251 C 
ATOM      6  O   UNL A   1      34.124  28.625  23.489  1.00  0.00    -0.270 OA
ATOM      7  H   UNL A   1      34.115  30.424  24.835  1.00  0.00     0.163 HD
BRANCH   5   8
ATOM      8  C   UNL A   1      33.050  27.259  25.091  1.00  0.00     0.067 C 
ATOM      9  C   UNL A   1      34.805  21.533  26.676  1.00  0.00     0.044 C 
ATOM     10  C   UNL A   1      33.869  22.693  26.506  1.00  0.00    -0.049 A 
ATOM     11  C   UNL A   1      32.507  22.538  26.791  1.00  0.00     0.028 A 
ATOM     12  C   UNL A   1      34.332  23.929  26.033  1.00  0.00     0.015 A 
ATOM     13  C   UNL A   1      31.627  23.608  26.625  1.00  0.00     0.084 A 
ATOM     14  C   UNL A   1      33.450  25.003  25.862  1.00  0.00     0.019 A 
ATOM     15  Cl  UNL A   1      29.958  23.370  27.002  1.00  0.00    -0.080 Cl
ATOM     16  C   UNL A   1      32.095  24.839  26.154  1.00  0.00     0.146 A 
ATOM     17  C   UNL A   1      33.939  26.305  25.420  1.00  0.00     0.025 C 
ATOM     18  O   UNL A   1      31.207  25.874  26.043  1.00  0.00    -0.474 OA
ATOM     19  C   UNL A   1      31.578  26.970  25.164  1.00  0.00     0.314 C 
BRANCH  19  20
ATOM     20  C   UNL A   1      30.947  26.746  23.777  1.00  0.00     0.429 C 
ATOM     21  F   UNL A   1      30.337  27.878  23.343  1.00  0.00    -0.167 F 
ATOM     22  F   UNL A   1      31.867  26.427  22.835  1.00  0.00    -0.167 F 
ATOM     23  F   UNL A   1      30.024  25.759  23.777  1.00  0.00    -0.167 F 
ENDBRANCH  19  20
ENDBRANCH   5   8
ENDBRANCH   3   4
ENDBRANCH   2   3
ENDBRANCH   1   2
BRANCH   1  24
ATOM     24  C   UNL A   1      32.711  32.833  27.285  1.00  0.00     0.116 C 
BRANCH  24  25
ATOM     25  N   UNL A   1      32.358  34.193  27.661  1.00  0.00    -0.352 N 
ATOM     26  C   UNL A   1      32.962  34.996  28.600  1.00  0.00     0.251 C 
ATOM     27  H   UNL A   1      31.591  34.587  27.186  1.00  0.00     0.163 HD
ATOM     28  O   UNL A   1      32.514  36.105  28.866  1.00  0.00    -0.269 OA
BRANCH  26  29
ATOM     29  C   UNL A   1      34.137  34.474  29.319  1.00  0.00     0.039 A 
ATOM     30  C   UNL A   1      33.934  33.736  30.487  1.00  0.00     0.014 A 
ATOM     31  C   UNL A   1      35.420  34.648  28.792  1.00  0.00     0.014 A 
ATOM     32  C   UNL A   1      35.020  33.102  31.090  1.00  0.00     0.010 A 
ATOM     33  C   UNL A   1      36.489  33.967  29.360  1.00  0.00     0.010 A 
ATOM     34  C   UNL A   1      36.295  33.183  30.508  1.00  0.00    -0.014 A 
BRANCH  34  35
ATOM     35  C   UNL A   1      37.444  32.449  31.089  1.00  0.00     0.031 A 
ATOM     36  C   UNL A   1      37.948  32.812  32.454  1.00  0.00     0.074 A 
ATOM     37  C   UNL A   1      38.058  31.495  30.366  1.00  0.00     0.049 A 
ATOM     38  N   UNL A   1      38.966  32.323  33.116  1.00  0.00    -0.248 NA
ATOM     39  C   UNL A   1      37.227  33.884  33.159  1.00  0.00     0.031 C 
ATOM     40  C   UNL A   1      37.679  31.084  29.013  1.00  0.00     0.029 A 
ATOM     41  N   UNL A   1      39.131  30.696  30.669  1.00  0.00    -0.354 N 
ATOM     42  C   UNL A   1      39.009  33.029  34.309  1.00  0.00     0.074 A 
ATOM     43  C   UNL A   1      37.955  34.019  34.258  1.00  0.00     0.031 C 
ATOM     44  C   UNL A   1      38.484  30.085  28.617  1.00  0.00     0.029 A 
ATOM     45  C   UNL A   1      39.453  29.806  29.673  1.00  0.00     0.049 A 
ATOM     46  H   UNL A   1      39.624  30.753  31.519  1.00  0.00     0.167 HD
ATOM     47  C   UNL A   1      39.836  32.849  35.364  1.00  0.00     0.037 A 
ATOM     48  C   UNL A   1      40.417  28.867  29.625  1.00  0.00     0.037 A 
ATOM     49  C   UNL A   1      40.867  31.848  35.420  1.00  0.00     0.049 A 
ATOM     50  C   UNL A   1      41.334  28.696  30.804  1.00  0.00     0.074 A 
ATOM     51  C   UNL A   1      41.732  31.557  36.460  1.00  0.00     0.029 A 
ATOM     52  N   UNL A   1      41.171  30.973  34.388  1.00  0.00    -0.354 N 
ATOM     53  N   UNL A   1      41.340  29.340  31.945  1.00  0.00    -0.248 NA
ATOM     54  C   UNL A   1      42.380  27.670  30.687  1.00  0.00     0.031 C 
ATOM     55  C   UNL A   1      42.578  30.523  36.047  1.00  0.00     0.029 A 
ATOM     56  C   UNL A   1      42.218  30.147  34.762  1.00  0.00     0.049 A 
ATOM     57  H   UNL A   1      40.709  30.941  33.519  1.00  0.00     0.167 HD
ATOM     58  C   UNL A   1      42.373  28.789  32.690  1.00  0.00     0.074 A 
ATOM     59  C   UNL A   1      42.966  27.748  31.875  1.00  0.00     0.031 C 
ATOM     60  C   UNL A   1      42.792  29.116  33.935  1.00  0.00     0.037 A 
BRANCH  47  61
ATOM     61  C   UNL A   1      39.641  33.742  36.551  1.00  0.00     0.064 A 
ATOM     62  C   UNL A   1      40.243  35.007  36.617  1.00  0.00     0.173 A 
ATOM     63  C   UNL A   1      38.828  33.342  37.622  1.00  0.00     0.173 A 
ATOM     64  F   UNL A   1      41.041  35.427  35.624  1.00  0.00    -0.203 F 
ATOM     65  C   UNL A   1      40.059  35.831  37.724  1.00  0.00     0.198 A 
ATOM     66  C   UNL A   1      38.627  34.180  38.717  1.00  0.00     0.198 A 
ATOM     67  F   UNL A   1      38.230  32.142  37.606  1.00  0.00    -0.203 F 
ATOM     68  F   UNL A   1      40.681  37.016  37.785  1.00  0.00    -0.200 F 
ATOM     69  C   UNL A   1      39.246  35.420  38.769  1.00  0.00     0.200 A 
ATOM     70  F   UNL A   1      37.835  33.785  39.722  1.00  0.00    -0.200 F 
ATOM     71  F   UNL A   1      39.069  36.215  39.833  1.00  0.00    -0.200 F 
ENDBRANCH  47  61
BRANCH  48  72
ATOM     72  C   UNL A   1      40.524  27.985  28.437  1.00  0.00     0.064 A 
ATOM     73  C   UNL A   1      41.285  28.379  27.327  1.00  0.00     0.173 A 
ATOM     74  C   UNL A   1      39.901  26.731  28.392  1.00  0.00     0.173 A 
ATOM     75  F   UNL A   1      41.884  29.579  27.319  1.00  0.00    -0.203 F 
ATOM     76  C   UNL A   1      41.415  27.552  26.214  1.00  0.00     0.198 A 
ATOM     77  C   UNL A   1      40.047  25.896  27.286  1.00  0.00     0.198 A 
ATOM     78  F   UNL A   1      39.165  26.309  29.431  1.00  0.00    -0.203 F 
ATOM     79  F   UNL A   1      42.128  27.961  25.156  1.00  0.00    -0.200 F 
ATOM     80  C   UNL A   1      40.801  26.308  26.197  1.00  0.00     0.200 A 
ATOM     81  F   UNL A   1      39.463  24.690  27.277  1.00  0.00    -0.200 F 
ATOM     82  F   UNL A   1      40.934  25.508  25.130  1.00  0.00    -0.200 F 
ENDBRANCH  48  72
BRANCH  60  83
ATOM     83  C   UNL A   1      43.939  28.339  34.505  1.00  0.00     0.064 A 
ATOM     84  C   UNL A   1      45.255  28.814  34.418  1.00  0.00     0.173 A 
ATOM     85  C   UNL A   1      43.710  27.148  35.210  1.00  0.00     0.173 A 
ATOM     86  F   UNL A   1      45.522  29.941  33.742  1.00  0.00    -0.203 F 
ATOM     87  C   UNL A   1      46.304  28.120  35.013  1.00  0.00     0.198 A 
ATOM     88  C   UNL A   1      44.759  26.469  35.822  1.00  0.00     0.198 A 
ATOM     89  F   UNL A   1      42.468  26.658  35.324  1.00  0.00    -0.203 F 
ATOM     90  F   UNL A   1      47.558  28.578  34.899  1.00  0.00    -0.200 F 
ATOM     91  C   UNL A   1      46.055  26.953  35.721  1.00  0.00     0.200 A 
ATOM     92  F   UNL A   1      44.516  25.349  36.517  1.00  0.00    -0.200 F 
ATOM     93  F   UNL A   1      47.065  26.296  36.307  1.00  0.00    -0.200 F 
ENDBRANCH  60  83
ENDBRANCH  34  35
ENDBRANCH  26  29
ENDBRANCH  24  25
ENDBRANCH   1  24
TORSDOF 12
ENDMDL
MODEL 3
REMARK VINA RESULT:     -13.2      0.539      7.427
REMARK SMILES Cc1cc(Cl)c2c(c1)C=C(C(=O)NCCCCNC(=O)c1ccc(-c3c4nc(c(-c5c(F)c(F)c(F)c(F)c5F)c5ccc([nH]5)c(-c5c(F)c(F)c(F)c(F)c5F)c5nc(c(-c6c(F)c(F)c(F)c(F)c6F)c6ccc3[nH]6)C=C5)C=C4)cc1)[C@@H](C(F)(F)F)O2
REMARK SMILES IDX 16 1 15 2 14 3 13 4 11 5 12 6 10 8 1 9 2 10 3 11 8 12 4 13
REMARK SMILES IDX 7 14 5 15 6 16 9 17 89 18 84 19 85 20 86 21 87 22 88 23
REMARK SMILES IDX 17 24 18 25 19 26 20 28 21 29 22 30 83 31 23 32 82 33 24 34
REMARK SMILES IDX 25 35 26 36 76 37 27 38 81 39 75 40 77 41 28 42 80 43 74 44
REMARK SMILES IDX 73 45 29 47 61 48 41 49 60 50 42 51 45 52 59 53 78 54 43 55
REMARK SMILES IDX 44 56 58 58 79 59 46 60 30 61 31 62 39 63 32 64 33 65 37 66
REMARK SMILES IDX 40 67 34 68 35 69 38 70 36 71 62 72 63 73 71 74 64 75 65 76
REMARK SMILES IDX 69 77 72 78 66 79 67 80 70 81 68 82 47 83 48 84 56 85 49 86
REMARK SMILES IDX 50 87 54 88 57 89 51 90 52 91 55 92 53 93
REMARK H PARENT 13 7 18 27 77 46 45 57
REMARK Flexibility Score: inf
ROOT
ATOM      1  C   UNL A   1      31.702  31.947  26.835  1.00  0.00     0.023 C 
ENDROOT
BRANCH   1   2
ATOM      2  C   UNL A   1      31.957  30.439  26.893  1.00  0.00     0.023 C 
BRANCH   2   3
ATOM      3  C   UNL A   1      33.416  30.046  26.683  1.00  0.00     0.116 C 
BRANCH   3   4
ATOM      4  N   UNL A   1      33.679  29.651  25.310  1.00  0.00    -0.352 N 
ATOM      5  C   UNL A   1      33.535  28.533  24.561  1.00  0.00     0.251 C 
ATOM      6  O   UNL A   1      33.911  28.639  23.389  1.00  0.00    -0.270 OA
ATOM      7  H   UNL A   1      34.063  30.391  24.788  1.00  0.00     0.163 HD
BRANCH   5   8
ATOM      8  C   UNL A   1      32.975  27.234  25.042  1.00  0.00     0.067 C 
ATOM      9  C   UNL A   1      34.849  21.559  26.679  1.00  0.00     0.044 C 
ATOM     10  C   UNL A   1      33.889  22.698  26.499  1.00  0.00    -0.049 A 
ATOM     11  C   UNL A   1      32.531  22.519  26.787  1.00  0.00     0.028 A 
ATOM     12  C   UNL A   1      34.326  23.939  26.014  1.00  0.00     0.015 A 
ATOM     13  C   UNL A   1      31.629  23.569  26.612  1.00  0.00     0.084 A 
ATOM     14  C   UNL A   1      33.422  24.994  25.834  1.00  0.00     0.019 A 
ATOM     15  Cl  UNL A   1      29.966  23.300  26.993  1.00  0.00    -0.080 Cl
ATOM     16  C   UNL A   1      32.071  24.804  26.130  1.00  0.00     0.146 A 
ATOM     17  C   UNL A   1      33.884  26.301  25.380  1.00  0.00     0.025 C 
ATOM     18  O   UNL A   1      31.163  25.820  26.009  1.00  0.00    -0.474 OA
ATOM     19  C   UNL A   1      31.510  26.915  25.120  1.00  0.00     0.314 C 
BRANCH  19  20
ATOM     20  C   UNL A   1      30.882  26.666  23.736  1.00  0.00     0.429 C 
ATOM     21  F   UNL A   1      30.369  27.816  23.232  1.00  0.00    -0.167 F 
ATOM     22  F   UNL A   1      31.787  26.225  22.829  1.00  0.00    -0.167 F 
ATOM     23  F   UNL A   1      29.884  25.755  23.772  1.00  0.00    -0.167 F 
ENDBRANCH  19  20
ENDBRANCH   5   8
ENDBRANCH   3   4
ENDBRANCH   2   3
ENDBRANCH   1   2
BRANCH   1  24
ATOM     24  C   UNL A   1      32.830  32.823  27.376  1.00  0.00     0.116 C 
BRANCH  24  25
ATOM     25  N   UNL A   1      32.429  34.191  27.667  1.00  0.00    -0.352 N 
ATOM     26  C   UNL A   1      32.971  35.054  28.590  1.00  0.00     0.251 C 
ATOM     27  H   UNL A   1      31.677  34.542  27.138  1.00  0.00     0.163 HD
ATOM     28  O   UNL A   1      32.487  36.163  28.779  1.00  0.00    -0.269 OA
BRANCH  26  29
ATOM     29  C   UNL A   1      34.123  34.597  29.388  1.00  0.00     0.039 A 
ATOM     30  C   UNL A   1      33.888  34.042  30.647  1.00  0.00     0.014 A 
ATOM     31  C   UNL A   1      35.413  34.646  28.853  1.00  0.00     0.014 A 
ATOM     32  C   UNL A   1      34.946  33.462  31.345  1.00  0.00     0.010 A 
ATOM     33  C   UNL A   1      36.453  34.013  29.523  1.00  0.00     0.010 A 
ATOM     34  C   UNL A   1      36.226  33.410  30.770  1.00  0.00    -0.014 A 
BRANCH  34  35
ATOM     35  C   UNL A   1      37.343  32.725  31.460  1.00  0.00     0.031 A 
ATOM     36  C   UNL A   1      38.048  31.584  30.789  1.00  0.00     0.074 A 
ATOM     37  C   UNL A   1      37.684  33.100  32.707  1.00  0.00     0.049 A 
ATOM     38  N   UNL A   1      39.014  30.828  31.243  1.00  0.00    -0.248 NA
ATOM     39  C   UNL A   1      37.590  31.232  29.436  1.00  0.00     0.031 C 
ATOM     40  C   UNL A   1      37.044  34.169  33.473  1.00  0.00     0.029 A 
ATOM     41  N   UNL A   1      38.656  32.622  33.549  1.00  0.00    -0.354 N 
ATOM     42  C   UNL A   1      39.275  29.910  30.236  1.00  0.00     0.074 A 
ATOM     43  C   UNL A   1      38.329  30.164  29.171  1.00  0.00     0.031 C 
ATOM     44  C   UNL A   1      37.664  34.292  34.658  1.00  0.00     0.029 A 
ATOM     45  C   UNL A   1      38.723  33.290  34.747  1.00  0.00     0.049 A 
ATOM     46  H   UNL A   1      39.251  31.873  33.316  1.00  0.00     0.167 HD
ATOM     47  C   UNL A   1      40.237  28.959  30.192  1.00  0.00     0.037 A 
ATOM     48  C   UNL A   1      39.552  33.117  35.793  1.00  0.00     0.037 A 
ATOM     49  C   UNL A   1      41.190  28.726  31.243  1.00  0.00     0.049 A 
ATOM     50  C   UNL A   1      40.601  32.042  35.728  1.00  0.00     0.074 A 
ATOM     51  C   UNL A   1      42.230  27.814  31.278  1.00  0.00     0.029 A 
ATOM     52  N   UNL A   1      41.219  29.415  32.446  1.00  0.00    -0.354 N 
ATOM     53  N   UNL A   1      40.868  31.207  34.754  1.00  0.00    -0.248 NA
ATOM     54  C   UNL A   1      41.464  31.885  36.907  1.00  0.00     0.031 C 
ATOM     55  C   UNL A   1      42.872  27.932  32.515  1.00  0.00     0.029 A 
ATOM     56  C   UNL A   1      42.252  28.941  33.237  1.00  0.00     0.049 A 
ATOM     57  H   UNL A   1      40.598  30.135  32.700  1.00  0.00     0.167 HD
ATOM     58  C   UNL A   1      41.937  30.439  35.191  1.00  0.00     0.074 A 
ATOM     59  C   UNL A   1      42.279  30.914  36.516  1.00  0.00     0.031 C 
ATOM     60  C   UNL A   1      42.576  29.430  34.553  1.00  0.00     0.037 A 
BRANCH  47  61
ATOM     61  C   UNL A   1      40.313  28.116  28.956  1.00  0.00     0.064 A 
ATOM     62  C   UNL A   1      41.068  28.521  27.845  1.00  0.00     0.173 A 
ATOM     63  C   UNL A   1      39.646  26.885  28.887  1.00  0.00     0.173 A 
ATOM     64  F   UNL A   1      41.711  29.698  27.858  1.00  0.00    -0.203 F 
ATOM     65  C   UNL A   1      41.132  27.734  26.699  1.00  0.00     0.198 A 
ATOM     66  C   UNL A   1      39.734  26.088  27.747  1.00  0.00     0.198 A 
ATOM     67  F   UNL A   1      38.913  26.453  29.923  1.00  0.00    -0.203 F 
ATOM     68  F   UNL A   1      41.822  28.162  25.632  1.00  0.00    -0.200 F 
ATOM     69  C   UNL A   1      40.471  26.516  26.653  1.00  0.00     0.200 A 
ATOM     70  F   UNL A   1      39.101  24.908  27.707  1.00  0.00    -0.200 F 
ATOM     71  F   UNL A   1      40.536  25.759  25.549  1.00  0.00    -0.200 F 
ENDBRANCH  47  61
BRANCH  48  72
ATOM     72  C   UNL A   1      39.450  34.017  36.968  1.00  0.00     0.064 A 
ATOM     73  C   UNL A   1      38.726  33.626  38.103  1.00  0.00     0.173 A 
ATOM     74  C   UNL A   1      40.088  35.264  36.997  1.00  0.00     0.173 A 
ATOM     75  F   UNL A   1      38.083  32.449  38.112  1.00  0.00    -0.203 F 
ATOM     76  C   UNL A   1      38.641  34.451  39.222  1.00  0.00     0.198 A 
ATOM     77  C   UNL A   1      40.019  36.081  38.124  1.00  0.00     0.198 A 
ATOM     78  F   UNL A   1      40.795  35.682  35.936  1.00  0.00    -0.203 F 
ATOM     79  F   UNL A   1      37.924  34.064  40.285  1.00  0.00    -0.200 F 
ATOM     80  C   UNL A   1      39.293  35.675  39.234  1.00  0.00     0.200 A 
ATOM     81  F   UNL A   1      40.660  37.257  38.138  1.00  0.00    -0.200 F 
ATOM     82  F   UNL A   1      39.220  36.464  40.315  1.00  0.00    -0.200 F 
ENDBRANCH  48  72
BRANCH  60  83
ATOM     83  C   UNL A   1      43.718  28.774  35.267  1.00  0.00     0.064 A 
ATOM     84  C   UNL A   1      45.026  29.265  35.155  1.00  0.00     0.173 A 
ATOM     85  C   UNL A   1      43.489  27.693  36.132  1.00  0.00     0.173 A 
ATOM     86  F   UNL A   1      45.293  30.288  34.330  1.00  0.00    -0.203 F 
ATOM     87  C   UNL A   1      46.067  28.693  35.880  1.00  0.00     0.198 A 
ATOM     88  C   UNL A   1      44.529  27.138  36.871  1.00  0.00     0.198 A 
ATOM     89  F   UNL A   1      42.253  27.193  36.276  1.00  0.00    -0.203 F 
ATOM     90  F   UNL A   1      47.314  29.162  35.741  1.00  0.00    -0.200 F 
ATOM     91  C   UNL A   1      45.817  27.637  36.743  1.00  0.00     0.200 A 
ATOM     92  F   UNL A   1      44.284  26.126  37.714  1.00  0.00    -0.200 F 
ATOM     93  F   UNL A   1      46.819  27.098  37.452  1.00  0.00    -0.200 F 
ENDBRANCH  60  83
ENDBRANCH  34  35
ENDBRANCH  26  29
ENDBRANCH  24  25
ENDBRANCH   1  24
TORSDOF 12
ENDMDL
