MODEL 1
REMARK VINA RESULT:     -12.1      0.000      0.000
REMARK SMILES CC(C)[C@@H](CC(=O)NCCCCNC(=O)c1ccc(-c2c3nc(c(-c4c(F)c(F)c(F)c(F)c4F)c4ccc([nH]4)c(-c4c(F)c(F)c(F)c(F)c4F)c4nc(c(-c5c(F)c(F)c(F)c(F)c5F)c5ccc2[nH]5)C=C4)C=C3)cc1)NC(=O)OCc1ccccc1
REMARK SMILES IDX 9 1 8 2 6 3 7 4 5 6 4 7 2 8 1 9 3 10 79 11 80 12 81 14 82 15
REMARK SMILES IDX 83 16 84 17 85 18 89 19 86 20 88 21 87 22 10 23 11 24 12 25
REMARK SMILES IDX 13 26 14 27 15 29 16 30 17 31 78 32 18 33 77 34 19 35 20 36
REMARK SMILES IDX 21 37 71 38 22 39 76 40 70 41 72 42 23 43 75 44 69 45 68 46
REMARK SMILES IDX 24 48 56 49 36 50 55 51 37 52 40 53 54 54 73 55 38 56 39 57
REMARK SMILES IDX 53 59 74 60 41 61 25 62 26 63 34 64 27 65 28 66 32 67 35 68
REMARK SMILES IDX 29 69 30 70 33 71 31 72 57 73 58 74 66 75 59 76 60 77 64 78
REMARK SMILES IDX 67 79 61 80 62 81 65 82 63 83 42 84 43 85 51 86 44 87 45 88
REMARK SMILES IDX 49 89 52 90 46 91 47 92 50 93 48 94
REMARK H PARENT 8 5 79 13 13 28 72 47 40 58
REMARK Flexibility Score: inf
ROOT
ATOM      1  C   UNL A   1      33.398  30.005  26.841  1.00  0.00     0.116 C 
ENDROOT
BRANCH   1   2
ATOM      2  N   UNL A   1      33.757  29.565  25.512  1.00  0.00    -0.356 N 
ATOM      3  C   UNL A   1      33.673  28.333  24.942  1.00  0.00     0.222 C 
ATOM      4  O   UNL A   1      34.161  28.200  23.818  1.00  0.00    -0.275 OA
ATOM      5  H   UNL A   1      34.119  30.268  24.926  1.00  0.00     0.163 HD
BRANCH   3   6
ATOM      6  C   UNL A   1      32.991  27.165  25.637  1.00  0.00     0.125 C 
BRANCH   6   7
ATOM      7  C   UNL A   1      31.645  26.678  25.047  1.00  0.00     0.097 C 
BRANCH   7   8
ATOM      8  C   UNL A   1      31.252  25.230  25.443  1.00  0.00     0.006 C 
ATOM      9  C   UNL A   1      31.101  24.283  24.249  1.00  0.00     0.009 C 
ATOM     10  C   UNL A   1      32.131  24.560  26.503  1.00  0.00     0.009 C 
ENDBRANCH   7   8
BRANCH   7  11
ATOM     11  N   UNL A   1      31.626  26.849  23.597  1.00  0.00    -0.318 N 
ATOM     12  C   UNL A   1      30.708  27.553  22.875  1.00  0.00     0.407 C 
ATOM     13  H   UNL A   1      32.348  26.413  23.091  1.00  0.00     0.167 HD
ATOM     14  O   UNL A   1      30.674  27.492  21.655  1.00  0.00    -0.225 OA
BRANCH  12  15
ATOM     15  O   UNL A   1      29.871  28.271  23.661  1.00  0.00    -0.445 OA
BRANCH  15  16
ATOM     16  C   UNL A   1      28.602  28.577  23.075  1.00  0.00     0.270 C 
BRANCH  16  17
ATOM     17  C   UNL A   1      28.506  30.029  22.679  1.00  0.00    -0.011 A 
ATOM     18  C   UNL A   1      28.821  31.049  23.590  1.00  0.00     0.007 A 
ATOM     19  C   UNL A   1      28.110  30.376  21.381  1.00  0.00     0.007 A 
ATOM     20  C   UNL A   1      28.766  32.387  23.199  1.00  0.00     0.000 A 
ATOM     21  C   UNL A   1      28.052  31.714  20.994  1.00  0.00     0.000 A 
ATOM     22  C   UNL A   1      28.383  32.719  21.901  1.00  0.00     0.000 A 
ENDBRANCH  16  17
ENDBRANCH  15  16
ENDBRANCH  12  15
ENDBRANCH   7  11
ENDBRANCH   6   7
ENDBRANCH   3   6
ENDBRANCH   1   2
BRANCH   1  23
ATOM     23  C   UNL A   1      31.931  30.452  26.882  1.00  0.00     0.023 C 
BRANCH  23  24
ATOM     24  C   UNL A   1      31.699  31.945  26.777  1.00  0.00     0.023 C 
BRANCH  24  25
ATOM     25  C   UNL A   1      32.780  32.781  27.431  1.00  0.00     0.116 C 
BRANCH  25  26
ATOM     26  N   UNL A   1      32.395  34.165  27.679  1.00  0.00    -0.352 N 
ATOM     27  C   UNL A   1      32.964  35.047  28.570  1.00  0.00     0.251 C 
ATOM     28  H   UNL A   1      31.640  34.509  27.148  1.00  0.00     0.163 HD
ATOM     29  O   UNL A   1      32.494  36.162  28.753  1.00  0.00    -0.269 OA
BRANCH  27  30
ATOM     30  C   UNL A   1      34.134  34.584  29.340  1.00  0.00     0.039 A 
ATOM     31  C   UNL A   1      33.932  33.963  30.573  1.00  0.00     0.014 A 
ATOM     32  C   UNL A   1      35.403  34.632  28.759  1.00  0.00     0.014 A 
ATOM     33  C   UNL A   1      35.000  33.310  31.185  1.00  0.00     0.010 A 
ATOM     34  C   UNL A   1      36.428  33.878  29.307  1.00  0.00     0.010 A 
ATOM     35  C   UNL A   1      36.242  33.218  30.532  1.00  0.00    -0.014 A 
BRANCH  35  36
ATOM     36  C   UNL A   1      37.373  32.459  31.121  1.00  0.00     0.031 A 
ATOM     37  C   UNL A   1      37.865  32.814  32.497  1.00  0.00     0.074 A 
ATOM     38  C   UNL A   1      37.993  31.506  30.400  1.00  0.00     0.049 A 
ATOM     39  N   UNL A   1      38.877  32.326  33.167  1.00  0.00    -0.248 NA
ATOM     40  C   UNL A   1      37.146  33.889  33.202  1.00  0.00     0.031 C 
ATOM     41  C   UNL A   1      37.646  31.112  29.032  1.00  0.00     0.029 A 
ATOM     42  N   UNL A   1      39.054  30.693  30.717  1.00  0.00    -0.354 N 
ATOM     43  C   UNL A   1      38.920  33.041  34.355  1.00  0.00     0.074 A 
ATOM     44  C   UNL A   1      37.887  34.049  34.285  1.00  0.00     0.031 C 
ATOM     45  C   UNL A   1      38.450  30.108  28.645  1.00  0.00     0.029 A 
ATOM     46  C   UNL A   1      39.398  29.818  29.716  1.00  0.00     0.049 A 
ATOM     47  H   UNL A   1      39.524  30.734  31.581  1.00  0.00     0.167 HD
ATOM     48  C   UNL A   1      39.723  32.851  35.427  1.00  0.00     0.037 A 
ATOM     49  C   UNL A   1      40.371  28.887  29.670  1.00  0.00     0.037 A 
ATOM     50  C   UNL A   1      40.731  31.828  35.503  1.00  0.00     0.049 A 
ATOM     51  C   UNL A   1      41.263  28.707  30.869  1.00  0.00     0.074 A 
ATOM     52  C   UNL A   1      41.563  31.514  36.561  1.00  0.00     0.029 A 
ATOM     53  N   UNL A   1      41.043  30.953  34.473  1.00  0.00    -0.354 N 
ATOM     54  N   UNL A   1      41.247  29.340  32.018  1.00  0.00    -0.248 NA
ATOM     55  C   UNL A   1      42.307  27.677  30.769  1.00  0.00     0.031 C 
ATOM     56  C   UNL A   1      42.418  30.485  36.153  1.00  0.00     0.029 A 
ATOM     57  C   UNL A   1      42.074  30.114  34.862  1.00  0.00     0.049 A 
ATOM     58  H   UNL A   1      40.598  30.931  33.595  1.00  0.00     0.167 HD
ATOM     59  C   UNL A   1      42.250  28.765  32.787  1.00  0.00     0.074 A 
ATOM     60  C   UNL A   1      42.845  27.719  31.979  1.00  0.00     0.031 C 
ATOM     61  C   UNL A   1      42.644  29.072  34.048  1.00  0.00     0.037 A 
BRANCH  48  62
ATOM     62  C   UNL A   1      39.535  33.763  36.606  1.00  0.00     0.064 A 
ATOM     63  C   UNL A   1      38.731  33.400  37.698  1.00  0.00     0.173 A 
ATOM     64  C   UNL A   1      40.185  35.004  36.657  1.00  0.00     0.173 A 
ATOM     65  F   UNL A   1      38.073  32.230  37.694  1.00  0.00    -0.203 F 
ATOM     66  C   UNL A   1      38.559  34.258  38.780  1.00  0.00     0.198 A 
ATOM     67  C   UNL A   1      40.040  35.845  37.758  1.00  0.00     0.198 A 
ATOM     68  F   UNL A   1      40.966  35.402  35.641  1.00  0.00    -0.203 F 
ATOM     69  F   UNL A   1      37.739  33.914  39.783  1.00  0.00    -0.200 F 
ATOM     70  C   UNL A   1      39.220  35.476  38.813  1.00  0.00     0.200 A 
ATOM     71  F   UNL A   1      40.690  37.016  37.793  1.00  0.00    -0.200 F 
ATOM     72  F   UNL A   1      39.061  36.299  39.859  1.00  0.00    -0.200 F 
ENDBRANCH  48  62
BRANCH  49  73
ATOM     73  C   UNL A   1      40.537  28.035  28.462  1.00  0.00     0.064 A 
ATOM     74  C   UNL A   1      41.299  28.476  27.370  1.00  0.00     0.173 A 
ATOM     75  C   UNL A   1      39.928  26.776  28.364  1.00  0.00     0.173 A 
ATOM     76  F   UNL A   1      41.887  29.680  27.406  1.00  0.00    -0.203 F 
ATOM     77  C   UNL A   1      41.424  27.701  26.217  1.00  0.00     0.198 A 
ATOM     78  C   UNL A   1      40.079  25.988  27.223  1.00  0.00     0.198 A 
ATOM     79  F   UNL A   1      39.192  26.304  29.380  1.00  0.00    -0.203 F 
ATOM     80  F   UNL A   1      42.113  28.171  25.169  1.00  0.00    -0.200 F 
ATOM     81  C   UNL A   1      40.818  26.456  26.147  1.00  0.00     0.200 A 
ATOM     82  F   UNL A   1      39.505  24.780  27.166  1.00  0.00    -0.200 F 
ATOM     83  F   UNL A   1      40.938  25.712  25.040  1.00  0.00    -0.200 F 
ENDBRANCH  49  73
BRANCH  61  84
ATOM     84  C   UNL A   1      43.740  28.240  34.650  1.00  0.00     0.064 A 
ATOM     85  C   UNL A   1      45.084  28.637  34.598  1.00  0.00     0.173 A 
ATOM     86  C   UNL A   1      43.432  27.051  35.330  1.00  0.00     0.173 A 
ATOM     87  F   UNL A   1      45.432  29.758  33.950  1.00  0.00    -0.203 F 
ATOM     88  C   UNL A   1      46.082  27.859  35.179  1.00  0.00     0.198 A 
ATOM     89  C   UNL A   1      44.429  26.295  35.940  1.00  0.00     0.198 A 
ATOM     90  F   UNL A   1      42.160  26.631  35.418  1.00  0.00    -0.203 F 
ATOM     91  F   UNL A   1      47.365  28.230  35.070  1.00  0.00    -0.200 F 
ATOM     92  C   UNL A   1      45.754  26.695  35.855  1.00  0.00     0.200 A 
ATOM     93  F   UNL A   1      44.105  25.180  36.610  1.00  0.00    -0.200 F 
ATOM     94  F   UNL A   1      46.715  25.953  36.423  1.00  0.00    -0.200 F 
ENDBRANCH  61  84
ENDBRANCH  35  36
ENDBRANCH  27  30
ENDBRANCH  25  26
ENDBRANCH  24  25
ENDBRANCH  23  24
ENDBRANCH   1  23
TORSDOF 17
ENDMDL
MODEL 2
REMARK VINA RESULT:     -12.0      0.194      1.712
REMARK SMILES CC(C)[C@@H](CC(=O)NCCCCNC(=O)c1ccc(-c2c3nc(c(-c4c(F)c(F)c(F)c(F)c4F)c4ccc([nH]4)c(-c4c(F)c(F)c(F)c(F)c4F)c4nc(c(-c5c(F)c(F)c(F)c(F)c5F)c5ccc2[nH]5)C=C4)C=C3)cc1)NC(=O)OCc1ccccc1
REMARK SMILES IDX 9 1 8 2 6 3 7 4 5 6 4 7 2 8 1 9 3 10 79 11 80 12 81 14 82 15
REMARK SMILES IDX 83 16 84 17 85 18 89 19 86 20 88 21 87 22 10 23 11 24 12 25
REMARK SMILES IDX 13 26 14 27 15 29 16 30 17 31 78 32 18 33 77 34 19 35 20 36
REMARK SMILES IDX 21 37 71 38 22 39 76 40 70 41 72 42 23 43 75 44 69 45 68 46
REMARK SMILES IDX 24 48 56 49 36 50 55 51 37 52 40 53 54 54 73 55 38 56 39 57
REMARK SMILES IDX 53 59 74 60 41 61 25 62 26 63 34 64 27 65 28 66 32 67 35 68
REMARK SMILES IDX 29 69 30 70 33 71 31 72 57 73 58 74 66 75 59 76 60 77 64 78
REMARK SMILES IDX 67 79 61 80 62 81 65 82 63 83 42 84 43 85 51 86 44 87 45 88
REMARK SMILES IDX 49 89 52 90 46 91 47 92 50 93 48 94
REMARK H PARENT 8 5 79 13 13 28 72 47 40 58
REMARK Flexibility Score: inf
ROOT
ATOM      1  C   UNL A   1      33.433  30.076  26.789  1.00  0.00     0.116 C 
ENDROOT
BRANCH   1   2
ATOM      2  N   UNL A   1      33.752  29.588  25.467  1.00  0.00    -0.356 N 
ATOM      3  C   UNL A   1      33.629  28.342  24.936  1.00  0.00     0.222 C 
ATOM      4  O   UNL A   1      34.090  28.164  23.807  1.00  0.00    -0.275 OA
ATOM      5  H   UNL A   1      34.118  30.265  24.852  1.00  0.00     0.163 HD
BRANCH   3   6
ATOM      6  C   UNL A   1      32.936  27.211  25.681  1.00  0.00     0.125 C 
BRANCH   6   7
ATOM      7  C   UNL A   1      31.602  26.691  25.095  1.00  0.00     0.097 C 
BRANCH   7   8
ATOM      8  C   UNL A   1      31.197  25.270  25.569  1.00  0.00     0.006 C 
ATOM      9  C   UNL A   1      29.830  25.216  26.258  1.00  0.00     0.009 C 
ATOM     10  C   UNL A   1      31.268  24.163  24.513  1.00  0.00     0.009 C 
ENDBRANCH   7   8
BRANCH   7  11
ATOM     11  N   UNL A   1      31.612  26.774  23.637  1.00  0.00    -0.318 N 
ATOM     12  C   UNL A   1      30.764  27.506  22.859  1.00  0.00     0.407 C 
ATOM     13  H   UNL A   1      32.301  26.248  23.169  1.00  0.00     0.167 HD
ATOM     14  O   UNL A   1      30.738  27.373  21.645  1.00  0.00    -0.225 OA
BRANCH  12  15
ATOM     15  O   UNL A   1      29.983  28.338  23.587  1.00  0.00    -0.445 OA
BRANCH  15  16
ATOM     16  C   UNL A   1      28.698  28.615  23.019  1.00  0.00     0.270 C 
BRANCH  16  17
ATOM     17  C   UNL A   1      28.573  30.061  22.606  1.00  0.00    -0.011 A 
ATOM     18  C   UNL A   1      28.265  30.411  21.283  1.00  0.00     0.007 A 
ATOM     19  C   UNL A   1      28.752  31.077  23.554  1.00  0.00     0.007 A 
ATOM     20  C   UNL A   1      28.113  31.750  20.924  1.00  0.00     0.000 A 
ATOM     21  C   UNL A   1      28.604  32.415  23.192  1.00  0.00     0.000 A 
ATOM     22  C   UNL A   1      28.282  32.752  21.879  1.00  0.00     0.000 A 
ENDBRANCH  16  17
ENDBRANCH  15  16
ENDBRANCH  12  15
ENDBRANCH   7  11
ENDBRANCH   6   7
ENDBRANCH   3   6
ENDBRANCH   1   2
BRANCH   1  23
ATOM     23  C   UNL A   1      31.952  30.467  26.874  1.00  0.00     0.023 C 
BRANCH  23  24
ATOM     24  C   UNL A   1      31.666  31.955  26.853  1.00  0.00     0.023 C 
BRANCH  24  25
ATOM     25  C   UNL A   1      32.775  32.800  27.446  1.00  0.00     0.116 C 
BRANCH  25  26
ATOM     26  N   UNL A   1      32.403  34.189  27.686  1.00  0.00    -0.352 N 
ATOM     27  C   UNL A   1      32.979  35.071  28.573  1.00  0.00     0.251 C 
ATOM     28  H   UNL A   1      31.651  34.536  27.153  1.00  0.00     0.163 HD
ATOM     29  O   UNL A   1      32.519  36.191  28.749  1.00  0.00    -0.269 OA
BRANCH  27  30
ATOM     30  C   UNL A   1      34.144  34.601  29.347  1.00  0.00     0.039 A 
ATOM     31  C   UNL A   1      33.933  33.954  30.564  1.00  0.00     0.014 A 
ATOM     32  C   UNL A   1      35.419  34.671  28.781  1.00  0.00     0.014 A 
ATOM     33  C   UNL A   1      35.000  33.297  31.175  1.00  0.00     0.010 A 
ATOM     34  C   UNL A   1      36.444  33.914  29.325  1.00  0.00     0.010 A 
ATOM     35  C   UNL A   1      36.250  33.228  30.534  1.00  0.00    -0.014 A 
BRANCH  35  36
ATOM     36  C   UNL A   1      37.380  32.467  31.120  1.00  0.00     0.031 A 
ATOM     37  C   UNL A   1      37.878  32.821  32.494  1.00  0.00     0.074 A 
ATOM     38  C   UNL A   1      37.995  31.510  30.398  1.00  0.00     0.049 A 
ATOM     39  N   UNL A   1      38.891  32.331  33.161  1.00  0.00    -0.248 NA
ATOM     40  C   UNL A   1      37.165  33.899  33.200  1.00  0.00     0.031 C 
ATOM     41  C   UNL A   1      37.642  31.116  29.032  1.00  0.00     0.029 A 
ATOM     42  N   UNL A   1      39.054  30.694  30.712  1.00  0.00    -0.354 N 
ATOM     43  C   UNL A   1      38.940  33.047  34.348  1.00  0.00     0.074 A 
ATOM     44  C   UNL A   1      37.910  34.058  34.280  1.00  0.00     0.031 C 
ATOM     45  C   UNL A   1      38.442  30.109  28.643  1.00  0.00     0.029 A 
ATOM     46  C   UNL A   1      39.392  29.817  29.711  1.00  0.00     0.049 A 
ATOM     47  H   UNL A   1      39.528  30.735  31.575  1.00  0.00     0.167 HD
ATOM     48  C   UNL A   1      39.746  32.856  35.418  1.00  0.00     0.037 A 
ATOM     49  C   UNL A   1      40.363  28.884  29.663  1.00  0.00     0.037 A 
ATOM     50  C   UNL A   1      40.751  31.830  35.491  1.00  0.00     0.049 A 
ATOM     51  C   UNL A   1      41.258  28.702  30.860  1.00  0.00     0.074 A 
ATOM     52  C   UNL A   1      41.586  31.514  36.547  1.00  0.00     0.029 A 
ATOM     53  N   UNL A   1      41.057  30.952  34.461  1.00  0.00    -0.354 N 
ATOM     54  N   UNL A   1      41.248  29.336  32.008  1.00  0.00    -0.248 NA
ATOM     55  C   UNL A   1      42.298  27.669  30.757  1.00  0.00     0.031 C 
ATOM     56  C   UNL A   1      42.436  30.482  36.137  1.00  0.00     0.029 A 
ATOM     57  C   UNL A   1      42.087  30.111  34.848  1.00  0.00     0.049 A 
ATOM     58  H   UNL A   1      40.609  30.931  33.585  1.00  0.00     0.167 HD
ATOM     59  C   UNL A   1      42.251  28.758  32.774  1.00  0.00     0.074 A 
ATOM     60  C   UNL A   1      42.840  27.710  31.965  1.00  0.00     0.031 C 
ATOM     61  C   UNL A   1      42.651  29.066  34.033  1.00  0.00     0.037 A 
BRANCH  48  62
ATOM     62  C   UNL A   1      39.565  33.770  36.596  1.00  0.00     0.064 A 
ATOM     63  C   UNL A   1      40.176  35.033  36.650  1.00  0.00     0.173 A 
ATOM     64  C   UNL A   1      38.755  33.389  37.676  1.00  0.00     0.173 A 
ATOM     65  F   UNL A   1      40.974  35.441  35.651  1.00  0.00    -0.203 F 
ATOM     66  C   UNL A   1      40.007  35.866  37.752  1.00  0.00     0.198 A 
ATOM     67  C   UNL A   1      38.559  34.239  38.761  1.00  0.00     0.198 A 
ATOM     68  F   UNL A   1      38.148  32.192  37.678  1.00  0.00    -0.203 F 
ATOM     69  F   UNL A   1      40.646  37.043  37.805  1.00  0.00    -0.200 F 
ATOM     70  C   UNL A   1      39.192  35.473  38.802  1.00  0.00     0.200 A 
ATOM     71  F   UNL A   1      37.762  33.862  39.769  1.00  0.00    -0.200 F 
ATOM     72  F   UNL A   1      39.023  36.278  39.860  1.00  0.00    -0.200 F 
ENDBRANCH  48  62
BRANCH  49  73
ATOM     73  C   UNL A   1      40.521  28.029  28.456  1.00  0.00     0.064 A 
ATOM     74  C   UNL A   1      41.280  28.467  27.359  1.00  0.00     0.173 A 
ATOM     75  C   UNL A   1      39.910  26.771  28.362  1.00  0.00     0.173 A 
ATOM     76  F   UNL A   1      41.869  29.671  27.392  1.00  0.00    -0.203 F 
ATOM     77  C   UNL A   1      41.398  27.691  26.207  1.00  0.00     0.198 A 
ATOM     78  C   UNL A   1      40.055  25.982  27.222  1.00  0.00     0.198 A 
ATOM     79  F   UNL A   1      39.178  26.302  29.382  1.00  0.00    -0.203 F 
ATOM     80  F   UNL A   1      42.083  28.159  25.156  1.00  0.00    -0.200 F 
ATOM     81  C   UNL A   1      40.789  26.447  26.141  1.00  0.00     0.200 A 
ATOM     82  F   UNL A   1      39.478  24.774  27.168  1.00  0.00    -0.200 F 
ATOM     83  F   UNL A   1      40.904  25.701  25.035  1.00  0.00    -0.200 F 
ENDBRANCH  49  73
BRANCH  61  84
ATOM     84  C   UNL A   1      43.746  28.232  34.632  1.00  0.00     0.064 A 
ATOM     85  C   UNL A   1      43.481  27.026  35.297  1.00  0.00     0.173 A 
ATOM     86  C   UNL A   1      45.087  28.624  34.496  1.00  0.00     0.173 A 
ATOM     87  F   UNL A   1      42.215  26.613  35.464  1.00  0.00    -0.203 F 
ATOM     88  C   UNL A   1      44.513  26.261  35.830  1.00  0.00     0.198 A 
ATOM     89  C   UNL A   1      46.120  27.838  34.999  1.00  0.00     0.198 A 
ATOM     90  F   UNL A   1      45.398  29.765  33.859  1.00  0.00    -0.203 F 
ATOM     91  F   UNL A   1      44.231  25.140  36.508  1.00  0.00    -0.200 F 
ATOM     92  C   UNL A   1      45.831  26.661  35.673  1.00  0.00     0.200 A 
ATOM     93  F   UNL A   1      47.394  28.219  34.828  1.00  0.00    -0.200 F 
ATOM     94  F   UNL A   1      46.825  25.917  36.177  1.00  0.00    -0.200 F 
ENDBRANCH  61  84
ENDBRANCH  35  36
ENDBRANCH  27  30
ENDBRANCH  25  26
ENDBRANCH  24  25
ENDBRANCH  23  24
ENDBRANCH   1  23
TORSDOF 17
ENDMDL
MODEL 3
REMARK VINA RESULT:     -11.8      1.461      8.102
REMARK SMILES CC(C)[C@@H](CC(=O)NCCCCNC(=O)c1ccc(-c2c3nc(c(-c4c(F)c(F)c(F)c(F)c4F)c4ccc([nH]4)c(-c4c(F)c(F)c(F)c(F)c4F)c4nc(c(-c5c(F)c(F)c(F)c(F)c5F)c5ccc2[nH]5)C=C4)C=C3)cc1)NC(=O)OCc1ccccc1
REMARK SMILES IDX 9 1 8 2 6 3 7 4 5 6 4 7 2 8 1 9 3 10 79 11 80 12 81 14 82 15
REMARK SMILES IDX 83 16 84 17 85 18 89 19 86 20 88 21 87 22 10 23 11 24 12 25
REMARK SMILES IDX 13 26 14 27 15 29 16 30 17 31 78 32 18 33 77 34 19 35 20 36
REMARK SMILES IDX 21 37 71 38 22 39 76 40 70 41 72 42 23 43 75 44 69 45 68 46
REMARK SMILES IDX 24 48 56 49 36 50 55 51 37 52 40 53 54 54 73 55 38 56 39 57
REMARK SMILES IDX 53 59 74 60 41 61 25 62 26 63 34 64 27 65 28 66 32 67 35 68
REMARK SMILES IDX 29 69 30 70 33 71 31 72 57 73 58 74 66 75 59 76 60 77 64 78
REMARK SMILES IDX 67 79 61 80 62 81 65 82 63 83 42 84 43 85 51 86 44 87 45 88
REMARK SMILES IDX 49 89 52 90 46 91 47 92 50 93 48 94
REMARK H PARENT 8 5 79 13 13 28 72 47 40 58
REMARK Flexibility Score: inf
ROOT
ATOM      1  C   UNL A   1      32.854  29.426  25.933  1.00  0.00     0.116 C 
ENDROOT
BRANCH   1   2
ATOM      2  N   UNL A   1      31.998  29.650  24.790  1.00  0.00    -0.356 N 
ATOM      3  C   UNL A   1      31.120  28.815  24.173  1.00  0.00     0.222 C 
ATOM      4  O   UNL A   1      30.595  29.220  23.134  1.00  0.00    -0.275 OA
ATOM      5  H   UNL A   1      32.060  30.550  24.397  1.00  0.00     0.163 HD
BRANCH   3   6
ATOM      6  C   UNL A   1      30.773  27.446  24.737  1.00  0.00     0.125 C 
BRANCH   6   7
ATOM      7  C   UNL A   1      31.726  26.276  24.393  1.00  0.00     0.097 C 
BRANCH   7   8
ATOM      8  C   UNL A   1      32.624  25.806  25.568  1.00  0.00     0.006 C 
ATOM      9  C   UNL A   1      32.227  24.442  26.140  1.00  0.00     0.009 C 
ATOM     10  C   UNL A   1      34.133  25.818  25.307  1.00  0.00     0.009 C 
ENDBRANCH   7   8
BRANCH   7  11
ATOM     11  N   UNL A   1      32.528  26.594  23.215  1.00  0.00    -0.318 N 
ATOM     12  C   UNL A   1      32.935  25.720  22.250  1.00  0.00     0.407 C 
ATOM     13  H   UNL A   1      32.802  27.533  23.107  1.00  0.00     0.167 HD
ATOM     14  O   UNL A   1      33.749  26.044  21.399  1.00  0.00    -0.225 OA
BRANCH  12  15
ATOM     15  O   UNL A   1      32.356  24.502  22.377  1.00  0.00    -0.445 OA
BRANCH  15  16
ATOM     16  C   UNL A   1      33.209  23.392  22.081  1.00  0.00     0.270 C 
BRANCH  16  17
ATOM     17  C   UNL A   1      33.295  22.431  23.241  1.00  0.00    -0.011 A 
ATOM     18  C   UNL A   1      32.201  21.630  23.599  1.00  0.00     0.007 A 
ATOM     19  C   UNL A   1      34.486  22.320  23.969  1.00  0.00     0.007 A 
ATOM     20  C   UNL A   1      32.307  20.718  24.648  1.00  0.00     0.000 A 
ATOM     21  C   UNL A   1      34.589  21.409  25.021  1.00  0.00     0.000 A 
ATOM     22  C   UNL A   1      33.501  20.607  25.358  1.00  0.00     0.000 A 
ENDBRANCH  16  17
ENDBRANCH  15  16
ENDBRANCH  12  15
ENDBRANCH   7  11
ENDBRANCH   6   7
ENDBRANCH   3   6
ENDBRANCH   1   2
BRANCH   1  23
ATOM     23  C   UNL A   1      32.375  30.251  27.134  1.00  0.00     0.023 C 
BRANCH  23  24
ATOM     24  C   UNL A   1      32.100  31.715  26.853  1.00  0.00     0.023 C 
BRANCH  24  25
ATOM     25  C   UNL A   1      33.094  32.659  27.498  1.00  0.00     0.116 C 
BRANCH  25  26
ATOM     26  N   UNL A   1      32.586  34.011  27.701  1.00  0.00    -0.352 N 
ATOM     27  C   UNL A   1      33.029  34.945  28.610  1.00  0.00     0.251 C 
ATOM     28  H   UNL A   1      31.839  34.287  27.121  1.00  0.00     0.163 HD
ATOM     29  O   UNL A   1      32.461  36.021  28.748  1.00  0.00    -0.269 OA
BRANCH  27  30
ATOM     30  C   UNL A   1      34.183  34.586  29.455  1.00  0.00     0.039 A 
ATOM     31  C   UNL A   1      33.955  34.058  30.726  1.00  0.00     0.014 A 
ATOM     32  C   UNL A   1      35.471  34.632  28.916  1.00  0.00     0.014 A 
ATOM     33  C   UNL A   1      35.021  33.494  31.425  1.00  0.00     0.010 A 
ATOM     34  C   UNL A   1      36.498  33.961  29.558  1.00  0.00     0.010 A 
ATOM     35  C   UNL A   1      36.289  33.394  30.825  1.00  0.00    -0.014 A 
BRANCH  35  36
ATOM     36  C   UNL A   1      37.420  32.724  31.512  1.00  0.00     0.031 A 
ATOM     37  C   UNL A   1      38.121  31.577  30.836  1.00  0.00     0.074 A 
ATOM     38  C   UNL A   1      37.773  33.101  32.756  1.00  0.00     0.049 A 
ATOM     39  N   UNL A   1      39.082  30.813  31.286  1.00  0.00    -0.248 NA
ATOM     40  C   UNL A   1      37.651  31.215  29.489  1.00  0.00     0.031 C 
ATOM     41  C   UNL A   1      37.132  34.160  33.538  1.00  0.00     0.029 A 
ATOM     42  N   UNL A   1      38.760  32.630  33.587  1.00  0.00    -0.354 N 
ATOM     43  C   UNL A   1      39.318  29.881  30.285  1.00  0.00     0.074 A 
ATOM     44  C   UNL A   1      38.349  30.120  29.241  1.00  0.00     0.031 C 
ATOM     45  C   UNL A   1      37.766  34.285  34.715  1.00  0.00     0.029 A 
ATOM     46  C   UNL A   1      38.827  33.286  34.791  1.00  0.00     0.049 A 
ATOM     47  H   UNL A   1      39.362  31.890  33.342  1.00  0.00     0.167 HD
ATOM     48  C   UNL A   1      40.282  28.933  30.224  1.00  0.00     0.037 A 
ATOM     49  C   UNL A   1      39.655  33.100  35.838  1.00  0.00     0.037 A 
ATOM     50  C   UNL A   1      41.262  28.718  31.254  1.00  0.00     0.049 A 
ATOM     51  C   UNL A   1      40.707  32.026  35.753  1.00  0.00     0.074 A 
ATOM     52  C   UNL A   1      42.314  27.821  31.270  1.00  0.00     0.029 A 
ATOM     53  N   UNL A   1      41.306  29.410  32.456  1.00  0.00    -0.354 N 
ATOM     54  N   UNL A   1      40.969  31.198  34.771  1.00  0.00    -0.248 NA
ATOM     55  C   UNL A   1      41.585  31.866  36.920  1.00  0.00     0.031 C 
ATOM     56  C   UNL A   1      42.962  27.932  32.504  1.00  0.00     0.029 A 
ATOM     57  C   UNL A   1      42.354  28.942  33.232  1.00  0.00     0.049 A 
ATOM     58  H   UNL A   1      40.685  30.127  32.718  1.00  0.00     0.167 HD
ATOM     59  C   UNL A   1      42.059  30.444  35.185  1.00  0.00     0.074 A 
ATOM     60  C   UNL A   1      42.420  30.925  36.503  1.00  0.00     0.031 C 
ATOM     61  C   UNL A   1      42.704  29.443  34.536  1.00  0.00     0.037 A 
BRANCH  48  62
ATOM     62  C   UNL A   1      40.326  28.065  28.998  1.00  0.00     0.064 A 
ATOM     63  C   UNL A   1      39.623  26.852  28.928  1.00  0.00     0.173 A 
ATOM     64  C   UNL A   1      41.062  28.461  27.872  1.00  0.00     0.173 A 
ATOM     65  F   UNL A   1      38.916  26.419  29.983  1.00  0.00    -0.203 F 
ATOM     66  C   UNL A   1      39.680  26.054  27.789  1.00  0.00     0.198 A 
ATOM     67  C   UNL A   1      41.088  27.677  26.721  1.00  0.00     0.198 A 
ATOM     68  F   UNL A   1      41.754  29.610  27.884  1.00  0.00    -0.203 F 
ATOM     69  F   UNL A   1      39.047  24.873  27.768  1.00  0.00    -0.200 F 
ATOM     70  C   UNL A   1      40.405  26.471  26.684  1.00  0.00     0.200 A 
ATOM     71  F   UNL A   1      41.779  28.088  25.649  1.00  0.00    -0.200 F 
ATOM     72  F   UNL A   1      40.453  25.706  25.584  1.00  0.00    -0.200 F 
ENDBRANCH  48  62
BRANCH  49  73
ATOM     73  C   UNL A   1      39.543  33.964  37.044  1.00  0.00     0.064 A 
ATOM     74  C   UNL A   1      38.804  33.548  38.161  1.00  0.00     0.173 A 
ATOM     75  C   UNL A   1      40.156  35.224  37.103  1.00  0.00     0.173 A 
ATOM     76  F   UNL A   1      38.184  32.359  38.148  1.00  0.00    -0.203 F 
ATOM     77  C   UNL A   1      38.659  34.370  39.278  1.00  0.00     0.198 A 
ATOM     78  C   UNL A   1      40.037  36.032  38.233  1.00  0.00     0.198 A 
ATOM     79  F   UNL A   1      40.878  35.669  36.065  1.00  0.00    -0.203 F 
ATOM     80  F   UNL A   1      37.902  33.969  40.307  1.00  0.00    -0.200 F 
ATOM     81  C   UNL A   1      39.280  35.609  39.315  1.00  0.00     0.200 A 
ATOM     82  F   UNL A   1      40.651  37.221  38.270  1.00  0.00    -0.200 F 
ATOM     83  F   UNL A   1      39.142  36.399  40.388  1.00  0.00    -0.200 F 
ENDBRANCH  49  73
BRANCH  61  84
ATOM     84  C   UNL A   1      43.893  28.832  35.219  1.00  0.00     0.064 A 
ATOM     85  C   UNL A   1      43.768  27.736  36.085  1.00  0.00     0.173 A 
ATOM     86  C   UNL A   1      45.184  29.323  34.963  1.00  0.00     0.173 A 
ATOM     87  F   UNL A   1      42.556  27.237  36.371  1.00  0.00    -0.203 F 
ATOM     88  C   UNL A   1      44.887  27.174  36.693  1.00  0.00     0.198 A 
ATOM     89  C   UNL A   1      46.303  28.735  35.546  1.00  0.00     0.198 A 
ATOM     90  F   UNL A   1      45.361  30.363  34.134  1.00  0.00    -0.203 F 
ATOM     91  F   UNL A   1      44.737  26.162  37.559  1.00  0.00    -0.200 F 
ATOM     92  C   UNL A   1      46.153  27.667  36.418  1.00  0.00     0.200 A 
ATOM     93  F   UNL A   1      47.527  29.202  35.262  1.00  0.00    -0.200 F 
ATOM     94  F   UNL A   1      47.229  27.117  36.996  1.00  0.00    -0.200 F 
ENDBRANCH  61  84
ENDBRANCH  35  36
ENDBRANCH  27  30
ENDBRANCH  25  26
ENDBRANCH  24  25
ENDBRANCH  23  24
ENDBRANCH   1  23
TORSDOF 17
ENDMDL
