MODEL 1
REMARK VINA RESULT:     -12.9      0.000      0.000
REMARK SMILES O=C(NCCCCNC(=O)c1cnccc1C(=O)Nc1ccc(Cl)c(Cl)c1)c1ccc(-c2c3nc(c(-c4c(F)c(F)c(F)c(F)c4F)c4ccc([nH]4)c(-c4c(F)c(F)c(F)c(F)c4F)c4nc(c(-c5c(F)c(F)c(F)c(F)c5F)c5ccc2[nH]5)C=C4)C=C3)cc1
REMARK SMILES IDX 5 1 4 2 3 3 1 4 2 5 28 7 29 8 90 9 30 10 89 11 31 12 32 13
REMARK SMILES IDX 33 14 83 15 34 16 88 17 82 18 84 19 35 20 87 21 81 22 80 23
REMARK SMILES IDX 36 25 68 26 48 27 67 28 49 29 52 30 66 31 85 32 50 33 51 34
REMARK SMILES IDX 65 36 86 37 53 38 37 39 38 40 46 41 39 42 40 43 44 44 47 45
REMARK SMILES IDX 41 46 42 47 45 48 43 49 69 50 70 51 78 52 71 53 72 54 76 55
REMARK SMILES IDX 79 56 73 57 74 58 77 59 75 60 54 61 55 62 63 63 56 64 57 65
REMARK SMILES IDX 61 66 64 67 58 68 59 69 62 70 60 71 6 72 7 73 8 74 9 75
REMARK SMILES IDX 10 77 11 78 12 79 16 80 13 81 15 82 14 83 17 84 18 85 19 86
REMARK SMILES IDX 20 88 21 89 27 90 22 91 25 92 23 93 26 94 24 95
REMARK H PARENT 3 6 84 24 52 35 8 76 19 87
REMARK Flexibility Score: inf
ROOT
ATOM      1  C   UNL A   1      31.264  32.359  26.556  1.00  0.00     0.023 C 
ENDROOT
BRANCH   1   2
ATOM      2  C   UNL A   1      32.556  32.904  27.155  1.00  0.00     0.116 C 
BRANCH   2   3
ATOM      3  N   UNL A   1      32.406  34.264  27.647  1.00  0.00    -0.352 N 
ATOM      4  O   UNL A   1      32.613  35.983  29.086  1.00  0.00    -0.269 OA
ATOM      5  C   UNL A   1      33.041  34.906  28.682  1.00  0.00     0.251 C 
ATOM      6  H   UNL A   1      31.745  34.809  27.163  1.00  0.00     0.163 HD
BRANCH   5   7
ATOM      7  C   UNL A   1      34.228  34.304  29.329  1.00  0.00     0.039 A 
ATOM      8  C   UNL A   1      35.520  34.602  28.888  1.00  0.00     0.014 A 
ATOM      9  C   UNL A   1      34.046  33.463  30.433  1.00  0.00     0.014 A 
ATOM     10  C   UNL A   1      36.613  33.947  29.449  1.00  0.00     0.010 A 
ATOM     11  C   UNL A   1      35.153  32.869  31.048  1.00  0.00     0.010 A 
ATOM     12  C   UNL A   1      36.442  33.076  30.536  1.00  0.00    -0.014 A 
BRANCH  12  13
ATOM     13  C   UNL A   1      37.629  32.414  31.139  1.00  0.00     0.031 A 
ATOM     14  C   UNL A   1      38.082  32.760  32.531  1.00  0.00     0.074 A 
ATOM     15  C   UNL A   1      38.285  31.473  30.433  1.00  0.00     0.049 A 
ATOM     16  N   UNL A   1      39.074  32.260  33.226  1.00  0.00    -0.248 NA
ATOM     17  C   UNL A   1      37.332  33.812  33.232  1.00  0.00     0.031 C 
ATOM     18  C   UNL A   1      37.951  31.060  29.071  1.00  0.00     0.029 A 
ATOM     19  N   UNL A   1      39.353  30.682  30.770  1.00  0.00    -0.354 N 
ATOM     20  C   UNL A   1      39.082  32.949  34.431  1.00  0.00     0.074 A 
ATOM     21  C   UNL A   1      38.011  33.922  34.365  1.00  0.00     0.031 C 
ATOM     22  C   UNL A   1      38.765  30.058  28.704  1.00  0.00     0.029 A 
ATOM     23  C   UNL A   1      39.708  29.792  29.785  1.00  0.00     0.049 A 
ATOM     24  H   UNL A   1      39.822  30.745  31.634  1.00  0.00     0.167 HD
ATOM     25  C   UNL A   1      39.901  32.781  35.497  1.00  0.00     0.037 A 
ATOM     26  C   UNL A   1      40.685  28.867  29.755  1.00  0.00     0.037 A 
ATOM     27  C   UNL A   1      40.947  31.794  35.573  1.00  0.00     0.049 A 
ATOM     28  C   UNL A   1      41.578  28.703  30.951  1.00  0.00     0.074 A 
ATOM     29  C   UNL A   1      41.796  31.513  36.630  1.00  0.00     0.029 A 
ATOM     30  N   UNL A   1      41.287  30.923  34.547  1.00  0.00    -0.354 N 
ATOM     31  N   UNL A   1      41.548  29.332  32.100  1.00  0.00    -0.248 NA
ATOM     32  C   UNL A   1      42.644  27.696  30.844  1.00  0.00     0.031 C 
ATOM     33  C   UNL A   1      42.677  30.502  36.229  1.00  0.00     0.029 A 
ATOM     34  C   UNL A   1      42.347  30.120  34.939  1.00  0.00     0.049 A 
ATOM     35  H   UNL A   1      40.842  30.882  33.670  1.00  0.00     0.167 HD
ATOM     36  C   UNL A   1      42.569  28.783  32.862  1.00  0.00     0.074 A 
ATOM     37  C   UNL A   1      43.193  27.760  32.049  1.00  0.00     0.031 C 
ATOM     38  C   UNL A   1      42.953  29.099  34.123  1.00  0.00     0.037 A 
BRANCH  25  39
ATOM     39  C   UNL A   1      39.713  33.701  36.669  1.00  0.00     0.064 A 
ATOM     40  C   UNL A   1      40.337  34.956  36.731  1.00  0.00     0.173 A 
ATOM     41  C   UNL A   1      38.869  33.335  37.729  1.00  0.00     0.173 A 
ATOM     42  F   UNL A   1      41.162  35.350  35.750  1.00  0.00    -0.203 F 
ATOM     43  C   UNL A   1      40.146  35.797  37.826  1.00  0.00     0.198 A 
ATOM     44  C   UNL A   1      38.659  34.189  38.808  1.00  0.00     0.198 A 
ATOM     45  F   UNL A   1      38.243  32.149  37.715  1.00  0.00    -0.203 F 
ATOM     46  F   UNL A   1      40.789  36.971  37.886  1.00  0.00    -0.200 F 
ATOM     47  C   UNL A   1      39.304  35.416  38.859  1.00  0.00     0.200 A 
ATOM     48  F   UNL A   1      37.837  33.824  39.800  1.00  0.00    -0.200 F 
ATOM     49  F   UNL A   1      39.119  36.228  39.909  1.00  0.00    -0.200 F 
ENDBRANCH  25  39
BRANCH  26  50
ATOM     50  C   UNL A   1      40.845  28.006  28.557  1.00  0.00     0.064 A 
ATOM     51  C   UNL A   1      40.216  26.757  28.482  1.00  0.00     0.173 A 
ATOM     52  C   UNL A   1      41.607  28.422  27.456  1.00  0.00     0.173 A 
ATOM     53  F   UNL A   1      39.492  26.309  29.519  1.00  0.00    -0.203 F 
ATOM     54  C   UNL A   1      40.353  25.949  27.356  1.00  0.00     0.198 A 
ATOM     55  C   UNL A   1      41.723  27.625  26.320  1.00  0.00     0.198 A 
ATOM     56  F   UNL A   1      42.224  29.612  27.478  1.00  0.00    -0.203 F 
ATOM     57  F   UNL A   1      39.770  24.742  27.324  1.00  0.00    -0.200 F 
ATOM     58  C   UNL A   1      41.100  26.387  26.273  1.00  0.00     0.200 A 
ATOM     59  F   UNL A   1      42.433  28.057  25.269  1.00  0.00    -0.200 F 
ATOM     60  F   UNL A   1      41.223  25.614  25.186  1.00  0.00    -0.200 F 
ENDBRANCH  26  50
BRANCH  38  61
ATOM     61  C   UNL A   1      44.076  28.300  34.715  1.00  0.00     0.064 A 
ATOM     62  C   UNL A   1      45.410  28.719  34.616  1.00  0.00     0.173 A 
ATOM     63  C   UNL A   1      43.808  27.110  35.410  1.00  0.00     0.173 A 
ATOM     64  F   UNL A   1      45.717  29.840  33.947  1.00  0.00    -0.203 F 
ATOM     65  C   UNL A   1      46.439  27.961  35.168  1.00  0.00     0.198 A 
ATOM     66  C   UNL A   1      44.838  26.369  35.983  1.00  0.00     0.198 A 
ATOM     67  F   UNL A   1      42.548  26.669  35.536  1.00  0.00    -0.203 F 
ATOM     68  F   UNL A   1      47.713  28.354  35.018  1.00  0.00    -0.200 F 
ATOM     69  C   UNL A   1      46.153  26.791  35.854  1.00  0.00     0.200 A 
ATOM     70  F   UNL A   1      44.558  25.244  36.654  1.00  0.00    -0.200 F 
ATOM     71  F   UNL A   1      47.145  26.063  36.385  1.00  0.00    -0.200 F 
ENDBRANCH  38  61
ENDBRANCH  12  13
ENDBRANCH   5   7
ENDBRANCH   2   3
ENDBRANCH   1   2
BRANCH   1  72
ATOM     72  C   UNL A   1      31.391  30.983  25.891  1.00  0.00     0.023 C 
BRANCH  72  73
ATOM     73  C   UNL A   1      32.417  30.050  26.534  1.00  0.00     0.116 C 
BRANCH  73  74
ATOM     74  N   UNL A   1      33.402  29.596  25.574  1.00  0.00    -0.352 N 
ATOM     75  C   UNL A   1      33.256  28.736  24.522  1.00  0.00     0.253 C 
ATOM     76  H   UNL A   1      34.308  29.959  25.697  1.00  0.00     0.163 HD
ATOM     77  O   UNL A   1      34.256  28.311  23.953  1.00  0.00    -0.269 OA
BRANCH  75  78
ATOM     78  C   UNL A   1      31.939  28.245  24.100  1.00  0.00     0.070 A 
ATOM     79  C   UNL A   1      31.466  28.816  22.921  1.00  0.00     0.125 A 
ATOM     80  C   UNL A   1      31.123  27.310  24.743  1.00  0.00     0.056 A 
ATOM     81  N   UNL A   1      30.311  28.469  22.309  1.00  0.00    -0.264 NA
ATOM     82  C   UNL A   1      29.930  26.923  24.105  1.00  0.00     0.035 A 
ATOM     83  C   UNL A   1      29.576  27.513  22.905  1.00  0.00     0.112 A 
BRANCH  80  84
ATOM     84  C   UNL A   1      31.422  26.562  25.987  1.00  0.00     0.256 C 
ATOM     85  O   UNL A   1      30.761  26.853  26.988  1.00  0.00    -0.269 OA
ATOM     86  N   UNL A   1      32.298  25.513  26.101  1.00  0.00    -0.322 N 
ATOM     87  H   UNL A   1      32.224  25.031  26.956  1.00  0.00     0.170 HD
BRANCH  86  88
ATOM     88  C   UNL A   1      33.272  24.989  25.249  1.00  0.00     0.043 A 
ATOM     89  C   UNL A   1      33.016  24.546  23.955  1.00  0.00     0.028 A 
ATOM     90  C   UNL A   1      34.563  24.883  25.779  1.00  0.00     0.048 A 
ATOM     91  C   UNL A   1      34.029  23.904  23.232  1.00  0.00     0.024 A 
ATOM     92  C   UNL A   1      35.560  24.201  25.077  1.00  0.00     0.061 A 
ATOM     93  C   UNL A   1      35.290  23.698  23.802  1.00  0.00     0.059 A 
ATOM     94  Cl  UNL A   1      37.075  23.971  25.877  1.00  0.00    -0.083 Cl
ATOM     95  Cl  UNL A   1      36.458  22.809  22.896  1.00  0.00    -0.083 Cl
ENDBRANCH  86  88
ENDBRANCH  80  84
ENDBRANCH  75  78
ENDBRANCH  73  74
ENDBRANCH  72  73
ENDBRANCH   1  72
TORSDOF 13
ENDMDL
MODEL 2
REMARK VINA RESULT:     -12.7      5.517     10.710
REMARK SMILES O=C(NCCCCNC(=O)c1cnccc1C(=O)Nc1ccc(Cl)c(Cl)c1)c1ccc(-c2c3nc(c(-c4c(F)c(F)c(F)c(F)c4F)c4ccc([nH]4)c(-c4c(F)c(F)c(F)c(F)c4F)c4nc(c(-c5c(F)c(F)c(F)c(F)c5F)c5ccc2[nH]5)C=C4)C=C3)cc1
REMARK SMILES IDX 5 1 4 2 3 3 1 4 2 5 28 7 29 8 90 9 30 10 89 11 31 12 32 13
REMARK SMILES IDX 33 14 83 15 34 16 88 17 82 18 84 19 35 20 87 21 81 22 80 23
REMARK SMILES IDX 36 25 68 26 48 27 67 28 49 29 52 30 66 31 85 32 50 33 51 34
REMARK SMILES IDX 65 36 86 37 53 38 37 39 38 40 46 41 39 42 40 43 44 44 47 45
REMARK SMILES IDX 41 46 42 47 45 48 43 49 69 50 70 51 78 52 71 53 72 54 76 55
REMARK SMILES IDX 79 56 73 57 74 58 77 59 75 60 54 61 55 62 63 63 56 64 57 65
REMARK SMILES IDX 61 66 64 67 58 68 59 69 62 70 60 71 6 72 7 73 8 74 9 75
REMARK SMILES IDX 10 77 11 78 12 79 16 80 13 81 15 82 14 83 17 84 18 85 19 86
REMARK SMILES IDX 20 88 21 89 27 90 22 91 25 92 23 93 26 94 24 95
REMARK H PARENT 3 6 84 24 52 35 8 76 19 87
REMARK Flexibility Score: inf
ROOT
ATOM      1  C   UNL A   1      38.162  19.258  25.038  1.00  0.00     0.023 C 
ENDROOT
BRANCH   1   2
ATOM      2  C   UNL A   1      39.330  19.871  25.804  1.00  0.00     0.116 C 
BRANCH   2   3
ATOM      3  N   UNL A   1      40.467  18.969  25.891  1.00  0.00    -0.352 N 
ATOM      4  O   UNL A   1      42.634  18.359  25.896  1.00  0.00    -0.269 OA
ATOM      5  C   UNL A   1      41.800  19.241  26.080  1.00  0.00     0.251 C 
ATOM      6  H   UNL A   1      40.246  18.014  25.800  1.00  0.00     0.163 HD
BRANCH   5   7
ATOM      7  C   UNL A   1      42.244  20.593  26.484  1.00  0.00     0.039 A 
ATOM      8  C   UNL A   1      42.321  20.955  27.831  1.00  0.00     0.014 A 
ATOM      9  C   UNL A   1      42.642  21.500  25.495  1.00  0.00     0.014 A 
ATOM     10  C   UNL A   1      42.648  22.263  28.180  1.00  0.00     0.010 A 
ATOM     11  C   UNL A   1      43.048  22.790  25.854  1.00  0.00     0.010 A 
ATOM     12  C   UNL A   1      43.017  23.194  27.197  1.00  0.00    -0.014 A 
BRANCH  12  13
ATOM     13  C   UNL A   1      43.393  24.575  27.598  1.00  0.00     0.031 A 
ATOM     14  C   UNL A   1      44.829  25.022  27.573  1.00  0.00     0.074 A 
ATOM     15  C   UNL A   1      42.426  25.439  27.961  1.00  0.00     0.049 A 
ATOM     16  N   UNL A   1      45.333  26.197  27.857  1.00  0.00    -0.248 NA
ATOM     17  C   UNL A   1      45.831  24.018  27.187  1.00  0.00     0.031 C 
ATOM     18  C   UNL A   1      41.001  25.121  28.040  1.00  0.00     0.029 A 
ATOM     19  N   UNL A   1      42.492  26.763  28.314  1.00  0.00    -0.354 N 
ATOM     20  C   UNL A   1      46.708  26.068  27.710  1.00  0.00     0.074 A 
ATOM     21  C   UNL A   1      46.963  24.693  27.334  1.00  0.00     0.031 C 
ATOM     22  C   UNL A   1      40.321  26.230  28.368  1.00  0.00     0.029 A 
ATOM     23  C   UNL A   1      41.265  27.323  28.571  1.00  0.00     0.049 A 
ATOM     24  H   UNL A   1      43.338  27.264  28.376  1.00  0.00     0.167 HD
ATOM     25  C   UNL A   1      47.669  27.011  27.865  1.00  0.00     0.037 A 
ATOM     26  C   UNL A   1      40.937  28.578  28.931  1.00  0.00     0.037 A 
ATOM     27  C   UNL A   1      47.412  28.386  28.211  1.00  0.00     0.049 A 
ATOM     28  C   UNL A   1      42.022  29.603  29.097  1.00  0.00     0.074 A 
ATOM     29  C   UNL A   1      48.314  29.427  28.342  1.00  0.00     0.029 A 
ATOM     30  N   UNL A   1      46.157  28.911  28.482  1.00  0.00    -0.354 N 
ATOM     31  N   UNL A   1      43.314  29.478  28.914  1.00  0.00    -0.248 NA
ATOM     32  C   UNL A   1      41.602  30.945  29.521  1.00  0.00     0.031 C 
ATOM     33  C   UNL A   1      47.610  30.572  28.733  1.00  0.00     0.029 A 
ATOM     34  C   UNL A   1      46.264  30.256  28.799  1.00  0.00     0.049 A 
ATOM     35  H   UNL A   1      45.314  28.403  28.452  1.00  0.00     0.167 HD
ATOM     36  C   UNL A   1      43.858  30.728  29.173  1.00  0.00     0.074 A 
ATOM     37  C   UNL A   1      42.754  31.601  29.515  1.00  0.00     0.031 C 
ATOM     38  C   UNL A   1      45.156  31.116  29.129  1.00  0.00     0.037 A 
BRANCH  25  39
ATOM     39  C   UNL A   1      49.097  26.584  27.682  1.00  0.00     0.064 A 
ATOM     40  C   UNL A   1      49.928  26.295  28.774  1.00  0.00     0.173 A 
ATOM     41  C   UNL A   1      49.630  26.431  26.393  1.00  0.00     0.173 A 
ATOM     42  F   UNL A   1      49.471  26.436  30.026  1.00  0.00    -0.203 F 
ATOM     43  C   UNL A   1      51.250  25.896  28.582  1.00  0.00     0.198 A 
ATOM     44  C   UNL A   1      50.943  26.007  26.203  1.00  0.00     0.198 A 
ATOM     45  F   UNL A   1      48.875  26.689  25.314  1.00  0.00    -0.203 F 
ATOM     46  F   UNL A   1      52.040  25.670  29.640  1.00  0.00    -0.200 F 
ATOM     47  C   UNL A   1      51.753  25.747  27.299  1.00  0.00     0.200 A 
ATOM     48  F   UNL A   1      51.424  25.853  24.963  1.00  0.00    -0.200 F 
ATOM     49  F   UNL A   1      53.023  25.360  27.116  1.00  0.00    -0.200 F 
ENDBRANCH  25  39
BRANCH  26  50
ATOM     50  C   UNL A   1      39.511  28.935  29.131  1.00  0.00     0.064 A 
ATOM     51  C   UNL A   1      38.905  28.796  30.387  1.00  0.00     0.173 A 
ATOM     52  C   UNL A   1      38.732  29.444  28.082  1.00  0.00     0.173 A 
ATOM     53  F   UNL A   1      39.605  28.295  31.415  1.00  0.00    -0.203 F 
ATOM     54  C   UNL A   1      37.570  29.140  30.583  1.00  0.00     0.198 A 
ATOM     55  C   UNL A   1      37.405  29.812  28.286  1.00  0.00     0.198 A 
ATOM     56  F   UNL A   1      39.269  29.601  26.863  1.00  0.00    -0.203 F 
ATOM     57  F   UNL A   1      37.005  28.964  31.785  1.00  0.00    -0.200 F 
ATOM     58  C   UNL A   1      36.823  29.655  29.534  1.00  0.00     0.200 A 
ATOM     59  F   UNL A   1      36.690  30.324  27.273  1.00  0.00    -0.200 F 
ATOM     60  F   UNL A   1      35.542  29.996  29.726  1.00  0.00    -0.200 F 
ENDBRANCH  26  50
BRANCH  38  61
ATOM     61  C   UNL A   1      45.448  32.558  29.421  1.00  0.00     0.064 A 
ATOM     62  C   UNL A   1      45.761  32.999  30.714  1.00  0.00     0.173 A 
ATOM     63  C   UNL A   1      45.433  33.506  28.386  1.00  0.00     0.173 A 
ATOM     64  F   UNL A   1      45.770  32.133  31.739  1.00  0.00    -0.203 F 
ATOM     65  C   UNL A   1      46.024  34.343  30.966  1.00  0.00     0.198 A 
ATOM     66  C   UNL A   1      45.722  34.844  28.638  1.00  0.00     0.198 A 
ATOM     67  F   UNL A   1      45.143  33.133  27.131  1.00  0.00    -0.203 F 
ATOM     68  F   UNL A   1      46.273  34.752  32.219  1.00  0.00    -0.200 F 
ATOM     69  C   UNL A   1      46.009  35.263  29.928  1.00  0.00     0.200 A 
ATOM     70  F   UNL A   1      45.718  35.729  27.632  1.00  0.00    -0.200 F 
ATOM     71  F   UNL A   1      46.263  36.556  30.173  1.00  0.00    -0.200 F 
ENDBRANCH  38  61
ENDBRANCH  12  13
ENDBRANCH   5   7
ENDBRANCH   2   3
ENDBRANCH   1   2
BRANCH   1  72
ATOM     72  C   UNL A   1      36.889  20.113  25.009  1.00  0.00     0.023 C 
BRANCH  72  73
ATOM     73  C   UNL A   1      37.126  21.621  25.083  1.00  0.00     0.116 C 
BRANCH  73  74
ATOM     74  N   UNL A   1      36.404  22.222  26.186  1.00  0.00    -0.352 N 
ATOM     75  C   UNL A   1      35.060  22.415  26.340  1.00  0.00     0.253 C 
ATOM     76  H   UNL A   1      36.962  22.536  26.933  1.00  0.00     0.163 HD
ATOM     77  O   UNL A   1      34.659  23.132  27.251  1.00  0.00    -0.269 OA
BRANCH  75  78
ATOM     78  C   UNL A   1      34.084  21.851  25.402  1.00  0.00     0.070 A 
ATOM     79  C   UNL A   1      33.412  20.729  25.882  1.00  0.00     0.125 A 
ATOM     80  C   UNL A   1      33.778  22.289  24.111  1.00  0.00     0.056 A 
ATOM     81  N   UNL A   1      32.424  20.084  25.220  1.00  0.00    -0.264 NA
ATOM     82  C   UNL A   1      32.736  21.641  23.421  1.00  0.00     0.035 A 
ATOM     83  C   UNL A   1      32.092  20.568  24.010  1.00  0.00     0.112 A 
BRANCH  80  84
ATOM     84  C   UNL A   1      34.345  23.461  23.403  1.00  0.00     0.256 C 
ATOM     85  O   UNL A   1      35.091  23.233  22.447  1.00  0.00    -0.269 OA
ATOM     86  N   UNL A   1      34.039  24.775  23.655  1.00  0.00    -0.322 N 
ATOM     87  H   UNL A   1      34.371  25.394  22.966  1.00  0.00     0.170 HD
BRANCH  86  88
ATOM     88  C   UNL A   1      33.350  25.411  24.689  1.00  0.00     0.043 A 
ATOM     89  C   UNL A   1      32.035  25.121  25.041  1.00  0.00     0.028 A 
ATOM     90  C   UNL A   1      34.044  26.421  25.363  1.00  0.00     0.048 A 
ATOM     91  C   UNL A   1      31.385  25.913  25.996  1.00  0.00     0.024 A 
ATOM     92  C   UNL A   1      33.383  27.241  26.281  1.00  0.00     0.061 A 
ATOM     93  C   UNL A   1      32.043  26.994  26.591  1.00  0.00     0.059 A 
ATOM     94  Cl  UNL A   1      34.271  28.569  26.940  1.00  0.00    -0.083 Cl
ATOM     95  Cl  UNL A   1      31.151  27.990  27.682  1.00  0.00    -0.083 Cl
ENDBRANCH  86  88
ENDBRANCH  80  84
ENDBRANCH  75  78
ENDBRANCH  73  74
ENDBRANCH  72  73
ENDBRANCH   1  72
TORSDOF 13
ENDMDL
MODEL 3
REMARK VINA RESULT:     -12.7      5.478     10.966
REMARK SMILES O=C(NCCCCNC(=O)c1cnccc1C(=O)Nc1ccc(Cl)c(Cl)c1)c1ccc(-c2c3nc(c(-c4c(F)c(F)c(F)c(F)c4F)c4ccc([nH]4)c(-c4c(F)c(F)c(F)c(F)c4F)c4nc(c(-c5c(F)c(F)c(F)c(F)c5F)c5ccc2[nH]5)C=C4)C=C3)cc1
REMARK SMILES IDX 5 1 4 2 3 3 1 4 2 5 28 7 29 8 90 9 30 10 89 11 31 12 32 13
REMARK SMILES IDX 33 14 83 15 34 16 88 17 82 18 84 19 35 20 87 21 81 22 80 23
REMARK SMILES IDX 36 25 68 26 48 27 67 28 49 29 52 30 66 31 85 32 50 33 51 34
REMARK SMILES IDX 65 36 86 37 53 38 37 39 38 40 46 41 39 42 40 43 44 44 47 45
REMARK SMILES IDX 41 46 42 47 45 48 43 49 69 50 70 51 78 52 71 53 72 54 76 55
REMARK SMILES IDX 79 56 73 57 74 58 77 59 75 60 54 61 55 62 63 63 56 64 57 65
REMARK SMILES IDX 61 66 64 67 58 68 59 69 62 70 60 71 6 72 7 73 8 74 9 75
REMARK SMILES IDX 10 77 11 78 12 79 16 80 13 81 15 82 14 83 17 84 18 85 19 86
REMARK SMILES IDX 20 88 21 89 27 90 22 91 25 92 23 93 26 94 24 95
REMARK H PARENT 3 6 84 24 52 35 8 76 19 87
REMARK Flexibility Score: inf
ROOT
ATOM      1  C   UNL A   1      38.100  19.410  25.001  1.00  0.00     0.023 C 
ENDROOT
BRANCH   1   2
ATOM      2  C   UNL A   1      39.239  19.993  25.832  1.00  0.00     0.116 C 
BRANCH   2   3
ATOM      3  N   UNL A   1      40.360  19.075  25.951  1.00  0.00    -0.352 N 
ATOM      4  O   UNL A   1      42.516  18.426  25.960  1.00  0.00    -0.269 OA
ATOM      5  C   UNL A   1      41.701  19.332  26.108  1.00  0.00     0.251 C 
ATOM      6  H   UNL A   1      40.122  18.122  25.912  1.00  0.00     0.163 HD
BRANCH   5   7
ATOM      7  C   UNL A   1      42.175  20.694  26.437  1.00  0.00     0.039 A 
ATOM      8  C   UNL A   1      42.401  21.080  27.761  1.00  0.00     0.014 A 
ATOM      9  C   UNL A   1      42.448  21.587  25.395  1.00  0.00     0.014 A 
ATOM     10  C   UNL A   1      42.753  22.396  28.050  1.00  0.00     0.010 A 
ATOM     11  C   UNL A   1      42.879  22.886  25.685  1.00  0.00     0.010 A 
ATOM     12  C   UNL A   1      42.998  23.313  27.016  1.00  0.00    -0.014 A 
BRANCH  12  13
ATOM     13  C   UNL A   1      43.403  24.703  27.349  1.00  0.00     0.031 A 
ATOM     14  C   UNL A   1      44.791  25.197  27.044  1.00  0.00     0.074 A 
ATOM     15  C   UNL A   1      42.502  25.535  27.906  1.00  0.00     0.049 A 
ATOM     16  N   UNL A   1      45.306  26.386  27.235  1.00  0.00    -0.248 NA
ATOM     17  C   UNL A   1      45.728  24.228  26.457  1.00  0.00     0.031 C 
ATOM     18  C   UNL A   1      41.131  25.170  28.262  1.00  0.00     0.029 A 
ATOM     19  N   UNL A   1      42.596  26.858  28.252  1.00  0.00    -0.354 N 
ATOM     20  C   UNL A   1      46.627  26.302  26.817  1.00  0.00     0.074 A 
ATOM     21  C   UNL A   1      46.844  24.938  26.383  1.00  0.00     0.031 C 
ATOM     22  C   UNL A   1      40.496  26.256  28.730  1.00  0.00     0.029 A 
ATOM     23  C   UNL A   1      41.428  27.378  28.753  1.00  0.00     0.049 A 
ATOM     24  H   UNL A   1      43.422  27.386  28.151  1.00  0.00     0.167 HD
ATOM     25  C   UNL A   1      47.570  27.275  26.789  1.00  0.00     0.037 A 
ATOM     26  C   UNL A   1      41.139  28.619  29.185  1.00  0.00     0.037 A 
ATOM     27  C   UNL A   1      47.345  28.639  27.193  1.00  0.00     0.049 A 
ATOM     28  C   UNL A   1      42.204  29.678  29.144  1.00  0.00     0.074 A 
ATOM     29  C   UNL A   1      48.223  29.709  27.154  1.00  0.00     0.029 A 
ATOM     30  N   UNL A   1      46.153  29.123  27.713  1.00  0.00    -0.354 N 
ATOM     31  N   UNL A   1      43.436  29.596  28.706  1.00  0.00    -0.248 NA
ATOM     32  C   UNL A   1      41.834  31.004  29.657  1.00  0.00     0.031 C 
ATOM     33  C   UNL A   1      47.576  30.829  27.688  1.00  0.00     0.029 A 
ATOM     34  C   UNL A   1      46.279  30.469  28.017  1.00  0.00     0.049 A 
ATOM     35  H   UNL A   1      45.337  28.588  27.846  1.00  0.00     0.167 HD
ATOM     36  C   UNL A   1      43.982  30.861  28.865  1.00  0.00     0.074 A 
ATOM     37  C   UNL A   1      42.942  31.697  29.429  1.00  0.00     0.031 C 
ATOM     38  C   UNL A   1      45.233  31.291  28.570  1.00  0.00     0.037 A 
BRANCH  25  39
ATOM     39  C   UNL A   1      48.946  26.896  26.321  1.00  0.00     0.064 A 
ATOM     40  C   UNL A   1      49.329  27.016  24.977  1.00  0.00     0.173 A 
ATOM     41  C   UNL A   1      49.904  26.436  27.238  1.00  0.00     0.173 A 
ATOM     42  F   UNL A   1      48.449  27.439  24.059  1.00  0.00    -0.203 F 
ATOM     43  C   UNL A   1      50.613  26.663  24.565  1.00  0.00     0.198 A 
ATOM     44  C   UNL A   1      51.193  26.110  26.827  1.00  0.00     0.198 A 
ATOM     45  F   UNL A   1      49.590  26.310  28.537  1.00  0.00    -0.203 F 
ATOM     46  F   UNL A   1      50.943  26.742  23.269  1.00  0.00    -0.200 F 
ATOM     47  C   UNL A   1      51.544  26.217  25.489  1.00  0.00     0.200 A 
ATOM     48  F   UNL A   1      52.095  25.690  27.724  1.00  0.00    -0.200 F 
ATOM     49  F   UNL A   1      52.779  25.881  25.091  1.00  0.00    -0.200 F 
ENDBRANCH  25  39
BRANCH  26  50
ATOM     50  C   UNL A   1      39.771  28.930  29.668  1.00  0.00     0.064 A 
ATOM     51  C   UNL A   1      38.800  29.436  28.793  1.00  0.00     0.173 A 
ATOM     52  C   UNL A   1      39.398  28.707  31.001  1.00  0.00     0.173 A 
ATOM     53  F   UNL A   1      39.116  29.684  27.513  1.00  0.00    -0.203 F 
ATOM     54  C   UNL A   1      37.511  29.719  29.237  1.00  0.00     0.198 A 
ATOM     55  C   UNL A   1      38.101  28.965  31.437  1.00  0.00     0.198 A 
ATOM     56  F   UNL A   1      40.290  28.218  31.874  1.00  0.00    -0.203 F 
ATOM     57  F   UNL A   1      36.610  30.236  28.388  1.00  0.00    -0.200 F 
ATOM     58  C   UNL A   1      37.160  29.477  30.556  1.00  0.00     0.200 A 
ATOM     59  F   UNL A   1      37.762  28.716  32.709  1.00  0.00    -0.200 F 
ATOM     60  F   UNL A   1      35.917  29.739  30.980  1.00  0.00    -0.200 F 
ENDBRANCH  26  50
BRANCH  38  61
ATOM     61  C   UNL A   1      45.532  32.741  28.813  1.00  0.00     0.064 A 
ATOM     62  C   UNL A   1      46.096  33.185  30.017  1.00  0.00     0.173 A 
ATOM     63  C   UNL A   1      45.270  33.694  27.817  1.00  0.00     0.173 A 
ATOM     64  F   UNL A   1      46.348  32.313  31.005  1.00  0.00    -0.203 F 
ATOM     65  C   UNL A   1      46.362  34.535  30.227  1.00  0.00     0.198 A 
ATOM     66  C   UNL A   1      45.562  35.040  28.020  1.00  0.00     0.198 A 
ATOM     67  F   UNL A   1      44.735  33.319  26.646  1.00  0.00    -0.203 F 
ATOM     68  F   UNL A   1      46.855  34.944  31.404  1.00  0.00    -0.200 F 
ATOM     69  C   UNL A   1      46.100  35.460  29.228  1.00  0.00     0.200 A 
ATOM     70  F   UNL A   1      45.317  35.931  27.050  1.00  0.00    -0.200 F 
ATOM     71  F   UNL A   1      46.357  36.760  29.431  1.00  0.00    -0.200 F 
ENDBRANCH  38  61
ENDBRANCH  12  13
ENDBRANCH   5   7
ENDBRANCH   2   3
ENDBRANCH   1   2
BRANCH   1  72
ATOM     72  C   UNL A   1      36.808  20.237  25.008  1.00  0.00     0.023 C 
BRANCH  72  73
ATOM     73  C   UNL A   1      37.012  21.748  25.118  1.00  0.00     0.116 C 
BRANCH  73  74
ATOM     74  N   UNL A   1      36.252  22.311  26.215  1.00  0.00    -0.352 N 
ATOM     75  C   UNL A   1      34.902  22.483  26.336  1.00  0.00     0.253 C 
ATOM     76  H   UNL A   1      36.785  22.613  26.985  1.00  0.00     0.163 HD
ATOM     77  O   UNL A   1      34.466  23.172  27.253  1.00  0.00    -0.269 OA
BRANCH  75  78
ATOM     78  C   UNL A   1      33.959  21.930  25.357  1.00  0.00     0.070 A 
ATOM     79  C   UNL A   1      33.263  20.809  25.803  1.00  0.00     0.125 A 
ATOM     80  C   UNL A   1      33.707  22.378  24.058  1.00  0.00     0.056 A 
ATOM     81  N   UNL A   1      32.298  20.174  25.099  1.00  0.00    -0.264 NA
ATOM     82  C   UNL A   1      32.689  21.741  23.324  1.00  0.00     0.035 A 
ATOM     83  C   UNL A   1      32.017  20.668  23.881  1.00  0.00     0.112 A 
BRANCH  80  84
ATOM     84  C   UNL A   1      34.307  23.552  23.380  1.00  0.00     0.256 C 
ATOM     85  O   UNL A   1      35.056  23.326  22.426  1.00  0.00    -0.269 OA
ATOM     86  N   UNL A   1      34.030  24.866  23.657  1.00  0.00    -0.322 N 
ATOM     87  H   UNL A   1      34.383  25.492  22.985  1.00  0.00     0.170 HD
BRANCH  86  88
ATOM     88  C   UNL A   1      33.348  25.496  24.700  1.00  0.00     0.043 A 
ATOM     89  C   UNL A   1      32.024  25.229  25.036  1.00  0.00     0.028 A 
ATOM     90  C   UNL A   1      34.059  26.477  25.400  1.00  0.00     0.048 A 
ATOM     91  C   UNL A   1      31.384  26.015  26.001  1.00  0.00     0.024 A 
ATOM     92  C   UNL A   1      33.408  27.292  26.329  1.00  0.00     0.061 A 
ATOM     93  C   UNL A   1      32.061  27.069  26.624  1.00  0.00     0.059 A 
ATOM     94  Cl  UNL A   1      34.321  28.586  27.022  1.00  0.00    -0.083 Cl
ATOM     95  Cl  UNL A   1      31.183  28.062  27.728  1.00  0.00    -0.083 Cl
ENDBRANCH  86  88
ENDBRANCH  80  84
ENDBRANCH  75  78
ENDBRANCH  73  74
ENDBRANCH  72  73
ENDBRANCH   1  72
TORSDOF 13
ENDMDL
