MODEL 1
REMARK VINA RESULT:     -13.4      0.000      0.000
REMARK SMILES Cc1ccc(S(=O)(=O)N(CC(=O)NCCCCNC(=O)c2ccc(-c3c4nc(c(-c5c(F)c(F)c(F)c(F)c5F)c5ccc([nH]5)c(-c5c(F)c(F)c(F)c(F)c5F)c5nc(c(-c6c(F)c(F)c(F)c(F)c6F)c6ccc3[nH]6)C=C5)C=C4)cc2)c2cc(Cl)cc(Cl)c2)cc1
REMARK SMILES IDX 15 1 14 2 13 3 11 4 12 5 10 7 9 8 6 9 7 10 8 11 5 12 1 13
REMARK SMILES IDX 2 14 3 15 93 16 4 17 92 18 84 19 85 20 91 21 86 22 89 23
REMARK SMILES IDX 87 24 88 25 90 26 16 27 17 28 18 29 19 30 20 32 21 33 22 34
REMARK SMILES IDX 83 35 23 36 82 37 24 38 25 39 26 40 76 41 27 42 81 43 75 44
REMARK SMILES IDX 77 45 28 46 80 47 74 48 73 49 29 51 61 52 41 53 60 54 42 55
REMARK SMILES IDX 45 56 59 57 78 58 43 59 44 60 58 62 79 63 46 64 30 65 31 66
REMARK SMILES IDX 39 67 32 68 33 69 37 70 40 71 34 72 35 73 38 74 36 75 62 76
REMARK SMILES IDX 63 77 71 78 64 79 65 80 69 81 72 82 66 83 67 84 70 85 68 86
REMARK SMILES IDX 47 87 48 88 56 89 49 90 50 91 54 92 57 93 51 94 52 95 55 96
REMARK SMILES IDX 53 97
REMARK H PARENT 13 6 18 31 77 50 45 61
REMARK Flexibility Score: inf
ROOT
ATOM      1  C   UNL A   1      31.456  30.831  25.940  1.00  0.00     0.023 C 
ENDROOT
BRANCH   1   2
ATOM      2  C   UNL A   1      32.142  29.506  25.582  1.00  0.00     0.116 C 
BRANCH   2   3
ATOM      3  N   UNL A   1      31.534  28.282  26.091  1.00  0.00    -0.355 N 
ATOM      4  C   UNL A   1      31.935  26.976  26.086  1.00  0.00     0.240 C 
ATOM      5  O   UNL A   1      31.353  26.223  26.877  1.00  0.00    -0.273 OA
ATOM      6  H   UNL A   1      30.662  28.427  26.525  1.00  0.00     0.163 HD
BRANCH   4   7
ATOM      7  C   UNL A   1      33.007  26.398  25.162  1.00  0.00     0.235 C 
BRANCH   7   8
ATOM      8  N   UNL A   1      32.450  25.684  23.991  1.00  0.00    -0.257 N 
BRANCH   8   9
ATOM      9  S   UNL A   1      32.229  26.608  22.555  1.00  0.00     0.264 S 
ATOM     10  O   UNL A   1      31.961  25.636  21.509  1.00  0.00    -0.201 OA
ATOM     11  O   UNL A   1      33.350  27.518  22.447  1.00  0.00    -0.201 OA
BRANCH   9  12
ATOM     12  C   UNL A   1      30.765  27.662  22.620  1.00  0.00     0.088 A 
ATOM     13  C   UNL A   1      27.631  30.569  23.311  1.00  0.00     0.044 C 
ATOM     14  C   UNL A   1      28.695  29.553  23.012  1.00  0.00    -0.051 A 
ATOM     15  C   UNL A   1      29.895  29.929  22.398  1.00  0.00     0.005 A 
ATOM     16  C   UNL A   1      28.519  28.220  23.376  1.00  0.00     0.005 A 
ATOM     17  C   UNL A   1      30.918  28.992  22.198  1.00  0.00     0.022 A 
ATOM     18  C   UNL A   1      29.546  27.286  23.191  1.00  0.00     0.022 A 
ENDBRANCH   9  12
ENDBRANCH   8   9
BRANCH   8  19
ATOM     19  C   UNL A   1      33.095  24.357  23.843  1.00  0.00     0.055 A 
ATOM     20  C   UNL A   1      32.374  23.228  24.281  1.00  0.00     0.047 A 
ATOM     21  C   UNL A   1      34.434  24.174  23.488  1.00  0.00     0.047 A 
ATOM     22  C   UNL A   1      32.988  21.981  24.413  1.00  0.00     0.044 A 
ATOM     23  C   UNL A   1      35.031  22.910  23.590  1.00  0.00     0.044 A 
ATOM     24  Cl  UNL A   1      32.096  20.660  25.059  1.00  0.00    -0.084 Cl
ATOM     25  C   UNL A   1      34.321  21.815  24.072  1.00  0.00     0.041 A 
ATOM     26  Cl  UNL A   1      36.685  22.712  23.157  1.00  0.00    -0.084 Cl
ENDBRANCH   8  19
ENDBRANCH   7   8
ENDBRANCH   4   7
ENDBRANCH   2   3
ENDBRANCH   1   2
BRANCH   1  27
ATOM     27  C   UNL A   1      32.140  31.667  27.016  1.00  0.00     0.023 C 
BRANCH  27  28
ATOM     28  C   UNL A   1      33.446  31.078  27.532  1.00  0.00     0.116 C 
BRANCH  28  29
ATOM     29  N   UNL A   1      34.255  31.968  28.364  1.00  0.00    -0.352 N 
ATOM     30  C   UNL A   1      35.425  31.692  29.064  1.00  0.00     0.251 C 
ATOM     31  H   UNL A   1      33.925  32.893  28.438  1.00  0.00     0.163 HD
ATOM     32  O   UNL A   1      35.958  32.552  29.757  1.00  0.00    -0.269 OA
BRANCH  30  33
ATOM     33  C   UNL A   1      36.120  30.402  28.826  1.00  0.00     0.039 A 
ATOM     34  C   UNL A   1      36.370  29.606  29.950  1.00  0.00     0.014 A 
ATOM     35  C   UNL A   1      36.851  30.218  27.662  1.00  0.00     0.014 A 
ATOM     36  C   UNL A   1      37.574  28.917  30.029  1.00  0.00     0.010 A 
ATOM     37  C   UNL A   1      38.105  29.671  27.788  1.00  0.00     0.010 A 
ATOM     38  C   UNL A   1      38.494  29.106  29.007  1.00  0.00    -0.014 A 
BRANCH  38  39
ATOM     39  C   UNL A   1      39.891  28.727  29.087  1.00  0.00     0.031 A 
ATOM     40  C   UNL A   1      40.230  27.327  28.794  1.00  0.00     0.074 A 
ATOM     41  C   UNL A   1      40.847  29.663  29.279  1.00  0.00     0.049 A 
ATOM     42  N   UNL A   1      41.383  26.810  29.017  1.00  0.00    -0.248 NA
ATOM     43  C   UNL A   1      39.253  26.364  28.292  1.00  0.00     0.031 C 
ATOM     44  C   UNL A   1      42.283  29.533  29.043  1.00  0.00     0.029 A 
ATOM     45  N   UNL A   1      40.723  30.904  29.925  1.00  0.00    -0.354 N 
ATOM     46  C   UNL A   1      41.401  25.570  28.430  1.00  0.00     0.074 A 
ATOM     47  C   UNL A   1      40.024  25.285  28.127  1.00  0.00     0.031 C 
ATOM     48  C   UNL A   1      42.932  30.450  29.777  1.00  0.00     0.029 A 
ATOM     49  C   UNL A   1      41.949  31.095  30.622  1.00  0.00     0.049 A 
ATOM     50  H   UNL A   1      39.950  31.515  29.900  1.00  0.00     0.167 HD
ATOM     51  C   UNL A   1      42.617  25.017  28.165  1.00  0.00     0.037 A 
ATOM     52  C   UNL A   1      41.971  31.108  31.991  1.00  0.00     0.037 A 
ATOM     53  C   UNL A   1      43.665  25.735  28.907  1.00  0.00     0.049 A 
ATOM     54  C   UNL A   1      42.702  29.931  32.604  1.00  0.00     0.074 A 
ATOM     55  C   UNL A   1      44.653  26.650  28.588  1.00  0.00     0.029 A 
ATOM     56  N   UNL A   1      43.559  25.768  30.290  1.00  0.00    -0.354 N 
ATOM     57  N   UNL A   1      43.287  28.989  31.916  1.00  0.00    -0.248 NA
ATOM     58  C   UNL A   1      42.750  29.677  34.043  1.00  0.00     0.031 C 
ATOM     59  C   UNL A   1      45.097  27.264  29.805  1.00  0.00     0.029 A 
ATOM     60  C   UNL A   1      44.413  26.690  30.862  1.00  0.00     0.049 A 
ATOM     61  H   UNL A   1      42.944  25.198  30.805  1.00  0.00     0.167 HD
ATOM     62  C   UNL A   1      43.739  28.009  32.759  1.00  0.00     0.074 A 
ATOM     63  C   UNL A   1      43.360  28.480  34.082  1.00  0.00     0.031 C 
ATOM     64  C   UNL A   1      44.359  26.875  32.309  1.00  0.00     0.037 A 
BRANCH  51  65
ATOM     65  C   UNL A   1      42.892  23.949  27.123  1.00  0.00     0.064 A 
ATOM     66  C   UNL A   1      42.583  22.600  27.408  1.00  0.00     0.173 A 
ATOM     67  C   UNL A   1      43.558  24.142  25.892  1.00  0.00     0.173 A 
ATOM     68  F   UNL A   1      41.940  22.257  28.531  1.00  0.00    -0.203 F 
ATOM     69  C   UNL A   1      42.946  21.547  26.558  1.00  0.00     0.198 A 
ATOM     70  C   UNL A   1      43.891  23.092  25.030  1.00  0.00     0.198 A 
ATOM     71  F   UNL A   1      43.964  25.338  25.468  1.00  0.00    -0.203 F 
ATOM     72  F   UNL A   1      42.673  20.283  26.914  1.00  0.00    -0.200 F 
ATOM     73  C   UNL A   1      43.600  21.792  25.370  1.00  0.00     0.200 A 
ATOM     74  F   UNL A   1      44.523  23.360  23.878  1.00  0.00    -0.200 F 
ATOM     75  F   UNL A   1      43.962  20.786  24.563  1.00  0.00    -0.200 F 
ENDBRANCH  51  65
BRANCH  52  76
ATOM     76  C   UNL A   1      40.753  31.783  32.536  1.00  0.00     0.064 A 
ATOM     77  C   UNL A   1      39.782  30.923  33.091  1.00  0.00     0.173 A 
ATOM     78  C   UNL A   1      40.834  33.085  33.040  1.00  0.00     0.173 A 
ATOM     79  F   UNL A   1      39.615  29.692  32.586  1.00  0.00    -0.203 F 
ATOM     80  C   UNL A   1      39.167  31.239  34.298  1.00  0.00     0.198 A 
ATOM     81  C   UNL A   1      40.148  33.425  34.206  1.00  0.00     0.198 A 
ATOM     82  F   UNL A   1      41.691  33.969  32.511  1.00  0.00    -0.203 F 
ATOM     83  F   UNL A   1      38.469  30.301  34.954  1.00  0.00    -0.200 F 
ATOM     84  C   UNL A   1      39.394  32.473  34.881  1.00  0.00     0.200 A 
ATOM     85  F   UNL A   1      40.323  34.640  34.745  1.00  0.00    -0.200 F 
ATOM     86  F   UNL A   1      38.938  32.723  36.115  1.00  0.00    -0.200 F 
ENDBRANCH  52  76
BRANCH  64  87
ATOM     87  C   UNL A   1      44.925  25.811  33.224  1.00  0.00     0.064 A 
ATOM     88  C   UNL A   1      46.280  25.439  33.209  1.00  0.00     0.173 A 
ATOM     89  C   UNL A   1      44.104  25.056  34.094  1.00  0.00     0.173 A 
ATOM     90  F   UNL A   1      47.132  25.970  32.319  1.00  0.00    -0.203 F 
ATOM     91  C   UNL A   1      46.796  24.484  34.088  1.00  0.00     0.198 A 
ATOM     92  C   UNL A   1      44.611  24.059  34.927  1.00  0.00     0.198 A 
ATOM     93  F   UNL A   1      42.785  25.261  34.187  1.00  0.00    -0.203 F 
ATOM     94  F   UNL A   1      48.112  24.230  34.091  1.00  0.00    -0.200 F 
ATOM     95  C   UNL A   1      45.962  23.795  34.948  1.00  0.00     0.200 A 
ATOM     96  F   UNL A   1      43.776  23.368  35.716  1.00  0.00    -0.200 F 
ATOM     97  F   UNL A   1      46.456  22.875  35.785  1.00  0.00    -0.200 F 
ENDBRANCH  64  87
ENDBRANCH  38  39
ENDBRANCH  30  33
ENDBRANCH  28  29
ENDBRANCH  27  28
ENDBRANCH   1  27
TORSDOF 15
ENDMDL
MODEL 2
REMARK VINA RESULT:     -13.2      1.347      2.114
REMARK SMILES Cc1ccc(S(=O)(=O)N(CC(=O)NCCCCNC(=O)c2ccc(-c3c4nc(c(-c5c(F)c(F)c(F)c(F)c5F)c5ccc([nH]5)c(-c5c(F)c(F)c(F)c(F)c5F)c5nc(c(-c6c(F)c(F)c(F)c(F)c6F)c6ccc3[nH]6)C=C5)C=C4)cc2)c2cc(Cl)cc(Cl)c2)cc1
REMARK SMILES IDX 15 1 14 2 13 3 11 4 12 5 10 7 9 8 6 9 7 10 8 11 5 12 1 13
REMARK SMILES IDX 2 14 3 15 93 16 4 17 92 18 84 19 85 20 91 21 86 22 89 23
REMARK SMILES IDX 87 24 88 25 90 26 16 27 17 28 18 29 19 30 20 32 21 33 22 34
REMARK SMILES IDX 83 35 23 36 82 37 24 38 25 39 26 40 76 41 27 42 81 43 75 44
REMARK SMILES IDX 77 45 28 46 80 47 74 48 73 49 29 51 61 52 41 53 60 54 42 55
REMARK SMILES IDX 45 56 59 57 78 58 43 59 44 60 58 62 79 63 46 64 30 65 31 66
REMARK SMILES IDX 39 67 32 68 33 69 37 70 40 71 34 72 35 73 38 74 36 75 62 76
REMARK SMILES IDX 63 77 71 78 64 79 65 80 69 81 72 82 66 83 67 84 70 85 68 86
REMARK SMILES IDX 47 87 48 88 56 89 49 90 50 91 54 92 57 93 51 94 52 95 55 96
REMARK SMILES IDX 53 97
REMARK H PARENT 13 6 18 31 77 50 45 61
REMARK Flexibility Score: inf
ROOT
ATOM      1  C   UNL A   1      32.419  28.235  27.271  1.00  0.00     0.023 C 
ENDROOT
BRANCH   1   2
ATOM      2  C   UNL A   1      31.392  27.531  26.373  1.00  0.00     0.116 C 
BRANCH   2   3
ATOM      3  N   UNL A   1      31.101  26.132  26.665  1.00  0.00    -0.355 N 
ATOM      4  C   UNL A   1      31.878  25.007  26.681  1.00  0.00     0.240 C 
ATOM      5  O   UNL A   1      31.410  24.029  27.277  1.00  0.00    -0.273 OA
ATOM      6  H   UNL A   1      30.159  25.965  26.896  1.00  0.00     0.163 HD
BRANCH   4   7
ATOM      7  C   UNL A   1      33.238  24.879  25.996  1.00  0.00     0.235 C 
BRANCH   7   8
ATOM      8  N   UNL A   1      33.274  23.827  24.955  1.00  0.00    -0.257 N 
BRANCH   8   9
ATOM      9  S   UNL A   1      33.101  24.349  23.322  1.00  0.00     0.264 S 
ATOM     10  O   UNL A   1      32.164  23.417  22.718  1.00  0.00    -0.201 OA
ATOM     11  O   UNL A   1      34.432  24.514  22.776  1.00  0.00    -0.201 OA
BRANCH   9  12
ATOM     12  C   UNL A   1      32.325  25.972  23.185  1.00  0.00     0.088 A 
ATOM     13  C   UNL A   1      30.272  29.643  22.157  1.00  0.00     0.044 C 
ATOM     14  C   UNL A   1      30.971  28.382  22.575  1.00  0.00    -0.051 A 
ATOM     15  C   UNL A   1      30.257  27.195  22.770  1.00  0.00     0.005 A 
ATOM     16  C   UNL A   1      32.354  28.365  22.740  1.00  0.00     0.005 A 
ATOM     17  C   UNL A   1      30.926  26.002  23.077  1.00  0.00     0.022 A 
ATOM     18  C   UNL A   1      33.025  27.172  23.034  1.00  0.00     0.022 A 
ENDBRANCH   9  12
ENDBRANCH   8   9
BRANCH   8  19
ATOM     19  C   UNL A   1      34.360  22.859  25.238  1.00  0.00     0.055 A 
ATOM     20  C   UNL A   1      35.607  23.376  25.643  1.00  0.00     0.047 A 
ATOM     21  C   UNL A   1      34.289  21.495  24.939  1.00  0.00     0.047 A 
ATOM     22  C   UNL A   1      36.747  22.570  25.687  1.00  0.00     0.044 A 
ATOM     23  C   UNL A   1      35.432  20.689  25.022  1.00  0.00     0.044 A 
ATOM     24  Cl  UNL A   1      38.268  23.273  26.078  1.00  0.00    -0.084 Cl
ATOM     25  C   UNL A   1      36.668  21.222  25.374  1.00  0.00     0.041 A 
ATOM     26  Cl  UNL A   1      35.321  19.014  24.639  1.00  0.00    -0.084 Cl
ENDBRANCH   8  19
ENDBRANCH   7   8
ENDBRANCH   4   7
ENDBRANCH   2   3
ENDBRANCH   1   2
BRANCH   1  27
ATOM     27  C   UNL A   1      32.263  29.745  27.406  1.00  0.00     0.023 C 
BRANCH  27  28
ATOM     28  C   UNL A   1      33.389  30.551  26.774  1.00  0.00     0.116 C 
BRANCH  28  29
ATOM     29  N   UNL A   1      33.985  31.578  27.627  1.00  0.00    -0.352 N 
ATOM     30  C   UNL A   1      35.034  31.465  28.534  1.00  0.00     0.251 C 
ATOM     31  H   UNL A   1      33.589  32.476  27.548  1.00  0.00     0.163 HD
ATOM     32  O   UNL A   1      35.385  32.427  29.209  1.00  0.00    -0.269 OA
BRANCH  30  33
ATOM     33  C   UNL A   1      35.841  30.219  28.553  1.00  0.00     0.039 A 
ATOM     34  C   UNL A   1      36.115  29.666  29.808  1.00  0.00     0.014 A 
ATOM     35  C   UNL A   1      36.624  29.890  27.457  1.00  0.00     0.014 A 
ATOM     36  C   UNL A   1      37.368  29.111  30.036  1.00  0.00     0.010 A 
ATOM     37  C   UNL A   1      37.914  29.487  27.706  1.00  0.00     0.010 A 
ATOM     38  C   UNL A   1      38.305  29.190  29.016  1.00  0.00    -0.014 A 
BRANCH  38  39
ATOM     39  C   UNL A   1      39.724  28.955  29.191  1.00  0.00     0.031 A 
ATOM     40  C   UNL A   1      40.212  27.582  28.996  1.00  0.00     0.074 A 
ATOM     41  C   UNL A   1      40.574  29.989  29.381  1.00  0.00     0.049 A 
ATOM     42  N   UNL A   1      41.395  27.193  29.309  1.00  0.00    -0.248 NA
ATOM     43  C   UNL A   1      39.363  26.503  28.498  1.00  0.00     0.031 C 
ATOM     44  C   UNL A   1      42.027  29.989  29.231  1.00  0.00     0.029 A 
ATOM     45  N   UNL A   1      40.294  31.243  29.949  1.00  0.00    -0.354 N 
ATOM     46  C   UNL A   1      41.565  25.933  28.795  1.00  0.00     0.074 A 
ATOM     47  C   UNL A   1      40.242  25.499  28.436  1.00  0.00     0.031 C 
ATOM     48  C   UNL A   1      42.542  31.002  29.945  1.00  0.00     0.029 A 
ATOM     49  C   UNL A   1      41.453  31.589  30.699  1.00  0.00     0.049 A 
ATOM     50  H   UNL A   1      39.469  31.772  29.848  1.00  0.00     0.167 HD
ATOM     51  C   UNL A   1      42.842  25.490  28.626  1.00  0.00     0.037 A 
ATOM     52  C   UNL A   1      41.393  31.674  32.064  1.00  0.00     0.037 A 
ATOM     53  C   UNL A   1      43.772  26.343  29.382  1.00  0.00     0.049 A 
ATOM     54  C   UNL A   1      42.197  30.607  32.781  1.00  0.00     0.074 A 
ATOM     55  C   UNL A   1      44.685  27.335  29.066  1.00  0.00     0.029 A 
ATOM     56  N   UNL A   1      43.582  26.437  30.753  1.00  0.00    -0.354 N 
ATOM     57  N   UNL A   1      42.908  29.693  32.179  1.00  0.00    -0.248 NA
ATOM     58  C   UNL A   1      42.184  30.432  34.232  1.00  0.00     0.031 C 
ATOM     59  C   UNL A   1      44.996  28.050  30.268  1.00  0.00     0.029 A 
ATOM     60  C   UNL A   1      44.309  27.466  31.318  1.00  0.00     0.049 A 
ATOM     61  H   UNL A   1      42.995  25.836  31.267  1.00  0.00     0.167 HD
ATOM     62  C   UNL A   1      43.401  28.807  33.099  1.00  0.00     0.074 A 
ATOM     63  C   UNL A   1      42.902  29.304  34.371  1.00  0.00     0.031 C 
ATOM     64  C   UNL A   1      44.153  27.718  32.748  1.00  0.00     0.037 A 
BRANCH  51  65
ATOM     65  C   UNL A   1      43.278  24.402  27.663  1.00  0.00     0.064 A 
ATOM     66  C   UNL A   1      43.984  24.750  26.489  1.00  0.00     0.173 A 
ATOM     67  C   UNL A   1      42.945  23.032  27.752  1.00  0.00     0.173 A 
ATOM     68  F   UNL A   1      44.383  26.009  26.266  1.00  0.00    -0.203 F 
ATOM     69  C   UNL A   1      44.285  23.820  25.486  1.00  0.00     0.198 A 
ATOM     70  C   UNL A   1      43.274  22.099  26.764  1.00  0.00     0.198 A 
ATOM     71  F   UNL A   1      42.248  22.521  28.767  1.00  0.00    -0.203 F 
ATOM     72  F   UNL A   1      44.907  24.226  24.370  1.00  0.00    -0.200 F 
ATOM     73  C   UNL A   1      43.930  22.494  25.622  1.00  0.00     0.200 A 
ATOM     74  F   UNL A   1      42.920  20.815  26.925  1.00  0.00    -0.200 F 
ATOM     75  F   UNL A   1      44.202  21.607  24.657  1.00  0.00    -0.200 F 
ENDBRANCH  51  65
BRANCH  52  76
ATOM     76  C   UNL A   1      40.087  32.252  32.504  1.00  0.00     0.064 A 
ATOM     77  C   UNL A   1      39.196  31.342  33.113  1.00  0.00     0.173 A 
ATOM     78  C   UNL A   1      40.000  33.596  32.879  1.00  0.00     0.173 A 
ATOM     79  F   UNL A   1      39.189  30.057  32.727  1.00  0.00    -0.203 F 
ATOM     80  C   UNL A   1      38.502  31.698  34.265  1.00  0.00     0.198 A 
ATOM     81  C   UNL A   1      39.235  33.964  33.986  1.00  0.00     0.198 A 
ATOM     82  F   UNL A   1      40.774  34.519  32.291  1.00  0.00    -0.203 F 
ATOM     83  F   UNL A   1      37.888  30.752  34.990  1.00  0.00    -0.200 F 
ATOM     84  C   UNL A   1      38.566  33.000  34.729  1.00  0.00     0.200 A 
ATOM     85  F   UNL A   1      39.251  35.237  34.406  1.00  0.00    -0.200 F 
ATOM     86  F   UNL A   1      38.036  33.311  35.919  1.00  0.00    -0.200 F 
ENDBRANCH  52  76
BRANCH  64  87
ATOM     87  C   UNL A   1      44.762  26.763  33.750  1.00  0.00     0.064 A 
ATOM     88  C   UNL A   1      46.150  26.629  33.923  1.00  0.00     0.173 A 
ATOM     89  C   UNL A   1      43.972  25.874  34.516  1.00  0.00     0.173 A 
ATOM     90  F   UNL A   1      47.012  27.302  33.145  1.00  0.00    -0.203 F 
ATOM     91  C   UNL A   1      46.698  25.773  34.881  1.00  0.00     0.198 A 
ATOM     92  C   UNL A   1      44.524  24.976  35.428  1.00  0.00     0.198 A 
ATOM     93  F   UNL A   1      42.637  25.850  34.428  1.00  0.00    -0.203 F 
ATOM     94  F   UNL A   1      48.026  25.748  35.065  1.00  0.00    -0.200 F 
ATOM     95  C   UNL A   1      45.886  24.947  35.635  1.00  0.00     0.200 A 
ATOM     96  F   UNL A   1      43.721  24.148  36.111  1.00  0.00    -0.200 F 
ATOM     97  F   UNL A   1      46.411  24.122  36.547  1.00  0.00    -0.200 F 
ENDBRANCH  64  87
ENDBRANCH  38  39
ENDBRANCH  30  33
ENDBRANCH  28  29
ENDBRANCH  27  28
ENDBRANCH   1  27
TORSDOF 15
ENDMDL
MODEL 3
REMARK VINA RESULT:     -13.0      1.587      2.984
REMARK SMILES Cc1ccc(S(=O)(=O)N(CC(=O)NCCCCNC(=O)c2ccc(-c3c4nc(c(-c5c(F)c(F)c(F)c(F)c5F)c5ccc([nH]5)c(-c5c(F)c(F)c(F)c(F)c5F)c5nc(c(-c6c(F)c(F)c(F)c(F)c6F)c6ccc3[nH]6)C=C5)C=C4)cc2)c2cc(Cl)cc(Cl)c2)cc1
REMARK SMILES IDX 15 1 14 2 13 3 11 4 12 5 10 7 9 8 6 9 7 10 8 11 5 12 1 13
REMARK SMILES IDX 2 14 3 15 93 16 4 17 92 18 84 19 85 20 91 21 86 22 89 23
REMARK SMILES IDX 87 24 88 25 90 26 16 27 17 28 18 29 19 30 20 32 21 33 22 34
REMARK SMILES IDX 83 35 23 36 82 37 24 38 25 39 26 40 76 41 27 42 81 43 75 44
REMARK SMILES IDX 77 45 28 46 80 47 74 48 73 49 29 51 61 52 41 53 60 54 42 55
REMARK SMILES IDX 45 56 59 57 78 58 43 59 44 60 58 62 79 63 46 64 30 65 31 66
REMARK SMILES IDX 39 67 32 68 33 69 37 70 40 71 34 72 35 73 38 74 36 75 62 76
REMARK SMILES IDX 63 77 71 78 64 79 65 80 69 81 72 82 66 83 67 84 70 85 68 86
REMARK SMILES IDX 47 87 48 88 56 89 49 90 50 91 54 92 57 93 51 94 52 95 55 96
REMARK SMILES IDX 53 97
REMARK H PARENT 13 6 18 31 77 50 45 61
REMARK Flexibility Score: inf
ROOT
ATOM      1  C   UNL A   1      31.751  29.042  27.645  1.00  0.00     0.023 C 
ENDROOT
BRANCH   1   2
ATOM      2  C   UNL A   1      32.123  27.755  26.896  1.00  0.00     0.116 C 
BRANCH   2   3
ATOM      3  N   UNL A   1      31.086  27.138  26.077  1.00  0.00    -0.355 N 
ATOM      4  C   UNL A   1      30.873  25.852  25.665  1.00  0.00     0.240 C 
ATOM      5  O   UNL A   1      29.737  25.593  25.249  1.00  0.00    -0.273 OA
ATOM      6  H   UNL A   1      30.406  27.774  25.759  1.00  0.00     0.163 HD
BRANCH   4   7
ATOM      7  C   UNL A   1      31.936  24.754  25.654  1.00  0.00     0.235 C 
BRANCH   7   8
ATOM      8  N   UNL A   1      32.392  24.391  24.294  1.00  0.00    -0.257 N 
BRANCH   8   9
ATOM      9  S   UNL A   1      33.864  25.104  23.755  1.00  0.00     0.264 S 
ATOM     10  O   UNL A   1      33.951  26.379  24.448  1.00  0.00    -0.201 OA
ATOM     11  O   UNL A   1      33.869  25.050  22.308  1.00  0.00    -0.201 OA
BRANCH   9  12
ATOM     12  C   UNL A   1      35.322  24.174  24.271  1.00  0.00     0.088 A 
ATOM     13  C   UNL A   1      38.359  21.344  25.501  1.00  0.00     0.044 C 
ATOM     14  C   UNL A   1      37.352  22.362  25.050  1.00  0.00    -0.051 A 
ATOM     15  C   UNL A   1      36.834  22.333  23.751  1.00  0.00     0.005 A 
ATOM     16  C   UNL A   1      36.889  23.334  25.934  1.00  0.00     0.005 A 
ATOM     17  C   UNL A   1      35.832  23.233  23.362  1.00  0.00     0.022 A 
ATOM     18  C   UNL A   1      35.879  24.225  25.552  1.00  0.00     0.022 A 
ENDBRANCH   9  12
ENDBRANCH   8   9
BRANCH   8  19
ATOM     19  C   UNL A   1      32.230  22.935  24.067  1.00  0.00     0.055 A 
ATOM     20  C   UNL A   1      32.535  22.070  25.138  1.00  0.00     0.047 A 
ATOM     21  C   UNL A   1      31.992  22.359  22.816  1.00  0.00     0.047 A 
ATOM     22  C   UNL A   1      32.654  20.692  24.946  1.00  0.00     0.044 A 
ATOM     23  C   UNL A   1      32.080  20.972  22.643  1.00  0.00     0.044 A 
ATOM     24  Cl  UNL A   1      33.139  19.691  26.259  1.00  0.00    -0.084 Cl
ATOM     25  C   UNL A   1      32.431  20.134  23.697  1.00  0.00     0.041 A 
ATOM     26  Cl  UNL A   1      31.792  20.288  21.090  1.00  0.00    -0.084 Cl
ENDBRANCH   8  19
ENDBRANCH   7   8
ENDBRANCH   4   7
ENDBRANCH   2   3
ENDBRANCH   1   2
BRANCH   1  27
ATOM     27  C   UNL A   1      32.125  30.348  26.952  1.00  0.00     0.023 C 
BRANCH  27  28
ATOM     28  C   UNL A   1      33.623  30.569  26.798  1.00  0.00     0.116 C 
BRANCH  28  29
ATOM     29  N   UNL A   1      34.218  31.534  27.721  1.00  0.00    -0.352 N 
ATOM     30  C   UNL A   1      35.203  31.336  28.683  1.00  0.00     0.251 C 
ATOM     31  H   UNL A   1      33.872  32.453  27.653  1.00  0.00     0.163 HD
ATOM     32  O   UNL A   1      35.560  32.255  29.413  1.00  0.00    -0.269 OA
BRANCH  30  33
ATOM     33  C   UNL A   1      35.945  30.050  28.702  1.00  0.00     0.039 A 
ATOM     34  C   UNL A   1      36.315  29.555  29.958  1.00  0.00     0.014 A 
ATOM     35  C   UNL A   1      36.599  29.616  27.559  1.00  0.00     0.014 A 
ATOM     36  C   UNL A   1      37.555  28.945  30.099  1.00  0.00     0.010 A 
ATOM     37  C   UNL A   1      37.886  29.156  27.708  1.00  0.00     0.010 A 
ATOM     38  C   UNL A   1      38.389  28.914  28.990  1.00  0.00    -0.014 A 
BRANCH  38  39
ATOM     39  C   UNL A   1      39.805  28.610  29.044  1.00  0.00     0.031 A 
ATOM     40  C   UNL A   1      40.213  27.228  28.754  1.00  0.00     0.074 A 
ATOM     41  C   UNL A   1      40.714  29.598  29.209  1.00  0.00     0.049 A 
ATOM     42  N   UNL A   1      41.397  26.775  28.956  1.00  0.00    -0.248 NA
ATOM     43  C   UNL A   1      39.279  26.210  28.279  1.00  0.00     0.031 C 
ATOM     44  C   UNL A   1      42.150  29.543  28.944  1.00  0.00     0.029 A 
ATOM     45  N   UNL A   1      40.536  30.836  29.848  1.00  0.00    -0.354 N 
ATOM     46  C   UNL A   1      41.469  25.533  28.378  1.00  0.00     0.074 A 
ATOM     47  C   UNL A   1      40.103  25.173  28.106  1.00  0.00     0.031 C 
ATOM     48  C   UNL A   1      42.764  30.499  29.658  1.00  0.00     0.029 A 
ATOM     49  C   UNL A   1      41.764  31.097  30.518  1.00  0.00     0.049 A 
ATOM     50  H   UNL A   1      39.732  31.404  29.835  1.00  0.00     0.167 HD
ATOM     51  C   UNL A   1      42.707  25.044  28.091  1.00  0.00     0.037 A 
ATOM     52  C   UNL A   1      41.814  31.124  31.886  1.00  0.00     0.037 A 
ATOM     53  C   UNL A   1      43.731  25.823  28.806  1.00  0.00     0.049 A 
ATOM     54  C   UNL A   1      42.620  29.992  32.493  1.00  0.00     0.074 A 
ATOM     55  C   UNL A   1      44.661  26.787  28.460  1.00  0.00     0.029 A 
ATOM     56  N   UNL A   1      43.651  25.862  30.190  1.00  0.00    -0.354 N 
ATOM     57  N   UNL A   1      43.240  29.077  31.799  1.00  0.00    -0.248 NA
ATOM     58  C   UNL A   1      42.710  29.753  33.931  1.00  0.00     0.031 C 
ATOM     59  C   UNL A   1      45.096  27.434  29.663  1.00  0.00     0.029 A 
ATOM     60  C   UNL A   1      44.466  26.833  30.739  1.00  0.00     0.049 A 
ATOM     61  H   UNL A   1      43.078  25.264  30.723  1.00  0.00     0.167 HD
ATOM     62  C   UNL A   1      43.761  28.130  32.640  1.00  0.00     0.074 A 
ATOM     63  C   UNL A   1      43.384  28.590  33.967  1.00  0.00     0.031 C 
ATOM     64  C   UNL A   1      44.432  27.027  32.185  1.00  0.00     0.037 A 
BRANCH  51  65
ATOM     65  C   UNL A   1      43.018  23.984  27.052  1.00  0.00     0.064 A 
ATOM     66  C   UNL A   1      42.674  22.637  27.304  1.00  0.00     0.173 A 
ATOM     67  C   UNL A   1      43.747  24.180  25.857  1.00  0.00     0.173 A 
ATOM     68  F   UNL A   1      41.970  22.291  28.390  1.00  0.00    -0.203 F 
ATOM     69  C   UNL A   1      43.063  21.588  26.461  1.00  0.00     0.198 A 
ATOM     70  C   UNL A   1      44.107  23.135  25.001  1.00  0.00     0.198 A 
ATOM     71  F   UNL A   1      44.193  25.375  25.469  1.00  0.00    -0.203 F 
ATOM     72  F   UNL A   1      42.754  20.325  26.787  1.00  0.00    -0.200 F 
ATOM     73  C   UNL A   1      43.780  21.836  25.310  1.00  0.00     0.200 A 
ATOM     74  F   UNL A   1      44.801  23.406  23.886  1.00  0.00    -0.200 F 
ATOM     75  F   UNL A   1      44.167  20.833  24.511  1.00  0.00    -0.200 F 
ENDBRANCH  51  65
BRANCH  52  76
ATOM     76  C   UNL A   1      40.573  31.736  32.452  1.00  0.00     0.064 A 
ATOM     77  C   UNL A   1      39.686  30.837  33.080  1.00  0.00     0.173 A 
ATOM     78  C   UNL A   1      40.581  33.061  32.898  1.00  0.00     0.173 A 
ATOM     79  F   UNL A   1      39.587  29.576  32.633  1.00  0.00    -0.203 F 
ATOM     80  C   UNL A   1      39.095  31.163  34.297  1.00  0.00     0.198 A 
ATOM     81  C   UNL A   1      39.917  33.405  34.076  1.00  0.00     0.198 A 
ATOM     82  F   UNL A   1      41.354  33.978  32.300  1.00  0.00    -0.203 F 
ATOM     83  F   UNL A   1      38.490  30.208  35.019  1.00  0.00    -0.200 F 
ATOM     84  C   UNL A   1      39.257  32.434  34.819  1.00  0.00     0.200 A 
ATOM     85  F   UNL A   1      40.027  34.651  34.557  1.00  0.00    -0.200 F 
ATOM     86  F   UNL A   1      38.832  32.706  36.059  1.00  0.00    -0.200 F 
ENDBRANCH  52  76
BRANCH  64  87
ATOM     87  C   UNL A   1      45.073  26.002  33.095  1.00  0.00     0.064 A 
ATOM     88  C   UNL A   1      46.448  25.718  33.069  1.00  0.00     0.173 A 
ATOM     89  C   UNL A   1      44.309  25.196  33.973  1.00  0.00     0.173 A 
ATOM     90  F   UNL A   1      47.257  26.301  32.171  1.00  0.00    -0.203 F 
ATOM     91  C   UNL A   1      47.032  24.799  33.944  1.00  0.00     0.198 A 
ATOM     92  C   UNL A   1      44.886  24.235  34.801  1.00  0.00     0.198 A 
ATOM     93  F   UNL A   1      42.980  25.317  34.077  1.00  0.00    -0.203 F 
ATOM     94  F   UNL A   1      48.362  24.630  33.936  1.00  0.00    -0.200 F 
ATOM     95  C   UNL A   1      46.252  24.059  34.811  1.00  0.00     0.200 A 
ATOM     96  F   UNL A   1      44.104  23.492  35.598  1.00  0.00    -0.200 F 
ATOM     97  F   UNL A   1      46.811  23.173  35.644  1.00  0.00    -0.200 F 
ENDBRANCH  64  87
ENDBRANCH  38  39
ENDBRANCH  30  33
ENDBRANCH  28  29
ENDBRANCH  27  28
ENDBRANCH   1  27
TORSDOF 15
ENDMDL
