MODEL 1
REMARK VINA RESULT:     -14.0      0.000      0.000
REMARK SMILES Cc1cc(C)c(S(=O)(=O)Nc2ccc(N3CC[NH+](C)CC3)c(C(=O)NCCCCNC(=O)c3ccc(-c4c5nc(c(-c6c(F)c(F)c(F)c(F)c6F)c6ccc([nH]6)c(-c6c(F)c(F)c(F)c(F)c6F)c6nc(c(-c7c(F)c(F)c(F)c(F)c7F)c7ccc4[nH]7)C=C6)C=C5)cc3)c2)c(C)c1
REMARK SMILES IDX 27 1 26 2 25 3 23 4 24 5 22 7 11 8 12 9 96 10 13 11 14 12
REMARK SMILES IDX 10 13 7 15 8 16 9 17 6 18 1 19 2 20 3 21 99 22 4 23 97 24
REMARK SMILES IDX 5 25 98 26 15 27 16 28 21 29 17 30 20 31 18 32 19 33 28 35
REMARK SMILES IDX 29 36 30 37 31 38 32 40 33 41 34 42 95 43 35 44 94 45 36 46
REMARK SMILES IDX 37 47 38 48 88 49 39 50 93 51 87 52 89 53 40 54 92 55 86 56
REMARK SMILES IDX 85 57 41 59 73 60 53 61 72 62 54 63 57 64 71 65 90 66 55 67
REMARK SMILES IDX 56 68 70 70 91 71 58 72 42 73 43 74 51 75 44 76 45 77 49 78
REMARK SMILES IDX 52 79 46 80 47 81 50 82 48 83 74 84 75 85 83 86 76 87 77 88
REMARK SMILES IDX 81 89 84 90 78 91 79 92 82 93 80 94 59 95 60 96 68 97 61 98
REMARK SMILES IDX 62 99 66 100 69 101 63 102 64 103 67 104 65 105
REMARK H PARENT 25 6 10 14 18 34 30 39 89 58 57 69
REMARK Flexibility Score: inf
ROOT
ATOM      1  C   UNL A   1      31.806  30.192  26.853  1.00  0.00     0.023 C 
ENDROOT
BRANCH   1   2
ATOM      2  C   UNL A   1      33.245  29.739  26.591  1.00  0.00     0.116 C 
BRANCH   2   3
ATOM      3  N   UNL A   1      33.502  29.701  25.169  1.00  0.00    -0.352 N 
ATOM      4  C   UNL A   1      33.110  28.853  24.160  1.00  0.00     0.253 C 
ATOM      5  O   UNL A   1      33.738  29.004  23.111  1.00  0.00    -0.269 OA
ATOM      6  H   UNL A   1      34.078  30.436  24.858  1.00  0.00     0.163 HD
BRANCH   4   7
ATOM      7  C   UNL A   1      32.020  27.816  24.293  1.00  0.00     0.065 A 
ATOM      8  C   UNL A   1      31.182  25.807  25.387  1.00  0.00     0.050 A 
ATOM      9  C   UNL A   1      29.995  25.896  24.674  1.00  0.00     0.029 A 
ATOM     10  C   UNL A   1      32.235  26.651  25.052  1.00  0.00     0.042 A 
ATOM     11  C   UNL A   1      29.780  26.991  23.847  1.00  0.00     0.029 A 
ATOM     12  C   UNL A   1      30.727  28.030  23.739  1.00  0.00     0.050 A 
BRANCH   8  13
ATOM     13  N   UNL A   1      31.188  24.930  26.504  1.00  0.00    -0.280 N 
ATOM     14  H   UNL A   1      30.999  25.334  27.382  1.00  0.00     0.180 HD
BRANCH  13  15
ATOM     15  S   UNL A   1      31.481  23.283  26.486  1.00  0.00     0.262 S 
ATOM     16  O   UNL A   1      30.364  22.683  25.775  1.00  0.00    -0.201 OA
ATOM     17  O   UNL A   1      31.761  22.940  27.862  1.00  0.00    -0.201 OA
BRANCH  15  18
ATOM     18  C   UNL A   1      32.964  22.845  25.550  1.00  0.00     0.093 A 
ATOM     19  C   UNL A   1      36.570  22.971  23.144  1.00  0.00     0.044 C 
ATOM     20  C   UNL A   1      35.318  22.889  23.967  1.00  0.00    -0.051 A 
ATOM     21  C   UNL A   1      34.068  23.013  23.368  1.00  0.00     0.008 A 
ATOM     22  C   UNL A   1      35.371  22.590  25.327  1.00  0.00     0.008 A 
ATOM     23  C   UNL A   1      32.886  22.994  24.137  1.00  0.00    -0.030 A 
ATOM     24  C   UNL A   1      34.205  22.510  26.125  1.00  0.00    -0.030 A 
ATOM     25  C   UNL A   1      31.598  23.012  23.347  1.00  0.00     0.046 C 
ATOM     26  C   UNL A   1      34.425  21.996  27.516  1.00  0.00     0.046 C 
ENDBRANCH  15  18
ENDBRANCH  13  15
ENDBRANCH   8  13
BRANCH  12  27
ATOM     27  N   UNL A   1      30.284  29.247  23.248  1.00  0.00    -0.360 N 
ATOM     28  C   UNL A   1      30.069  30.405  24.125  1.00  0.00     0.178 C 
ATOM     29  C   UNL A   1      30.562  29.613  21.851  1.00  0.00     0.178 C 
ATOM     30  C   UNL A   1      28.904  31.252  23.553  1.00  0.00     0.283 C 
ATOM     31  C   UNL A   1      29.425  30.503  21.306  1.00  0.00     0.283 C 
ATOM     32  N   UNL A   1      29.153  31.688  22.151  1.00  0.00    -0.334 N 
ATOM     33  C   UNL A   1      27.997  32.416  21.630  1.00  0.00     0.332 C 
ATOM     34  H   UNL A   1      29.960  32.312  22.136  1.00  0.00     0.347 HD
ENDBRANCH  12  27
ENDBRANCH   4   7
ENDBRANCH   2   3
ENDBRANCH   1   2
BRANCH   1  35
ATOM     35  C   UNL A   1      31.611  31.708  26.788  1.00  0.00     0.023 C 
BRANCH  35  36
ATOM     36  C   UNL A   1      32.877  32.515  27.044  1.00  0.00     0.116 C 
BRANCH  36  37
ATOM     37  N   UNL A   1      32.611  33.836  27.586  1.00  0.00    -0.352 N 
ATOM     38  C   UNL A   1      33.255  34.477  28.614  1.00  0.00     0.251 C 
ATOM     39  H   UNL A   1      31.876  34.336  27.163  1.00  0.00     0.163 HD
ATOM     40  O   UNL A   1      32.856  35.558  29.029  1.00  0.00    -0.269 OA
BRANCH  38  41
ATOM     41  C   UNL A   1      34.423  33.829  29.241  1.00  0.00     0.039 A 
ATOM     42  C   UNL A   1      34.209  32.761  30.115  1.00  0.00     0.014 A 
ATOM     43  C   UNL A   1      35.719  34.270  28.960  1.00  0.00     0.014 A 
ATOM     44  C   UNL A   1      35.302  32.108  30.683  1.00  0.00     0.010 A 
ATOM     45  C   UNL A   1      36.809  33.581  29.480  1.00  0.00     0.010 A 
ATOM     46  C   UNL A   1      36.609  32.506  30.357  1.00  0.00    -0.014 A 
BRANCH  46  47
ATOM     47  C   UNL A   1      37.781  31.839  30.967  1.00  0.00     0.031 A 
ATOM     48  C   UNL A   1      38.198  32.201  32.363  1.00  0.00     0.074 A 
ATOM     49  C   UNL A   1      38.498  30.953  30.250  1.00  0.00     0.049 A 
ATOM     50  N   UNL A   1      39.222  31.779  33.060  1.00  0.00    -0.248 NA
ATOM     51  C   UNL A   1      37.367  33.196  33.061  1.00  0.00     0.031 C 
ATOM     52  C   UNL A   1      38.219  30.561  28.867  1.00  0.00     0.029 A 
ATOM     53  N   UNL A   1      39.612  30.228  30.586  1.00  0.00    -0.354 N 
ATOM     54  C   UNL A   1      39.174  32.475  34.260  1.00  0.00     0.074 A 
ATOM     55  C   UNL A   1      38.044  33.375  34.185  1.00  0.00     0.031 C 
ATOM     56  C   UNL A   1      39.125  29.647  28.480  1.00  0.00     0.029 A 
ATOM     57  C   UNL A   1      40.057  29.408  29.579  1.00  0.00     0.049 A 
ATOM     58  H   UNL A   1      40.050  30.290  31.465  1.00  0.00     0.167 HD
ATOM     59  C   UNL A   1      39.987  32.358  35.335  1.00  0.00     0.037 A 
ATOM     60  C   UNL A   1      41.096  28.552  29.554  1.00  0.00     0.037 A 
ATOM     61  C   UNL A   1      41.080  31.428  35.424  1.00  0.00     0.049 A 
ATOM     62  C   UNL A   1      41.944  28.394  30.787  1.00  0.00     0.074 A 
ATOM     63  C   UNL A   1      41.934  31.194  36.488  1.00  0.00     0.029 A 
ATOM     64  N   UNL A   1      41.459  30.564  34.407  1.00  0.00    -0.354 N 
ATOM     65  N   UNL A   1      41.857  29.017  31.936  1.00  0.00    -0.248 NA
ATOM     66  C   UNL A   1      43.025  27.401  30.722  1.00  0.00     0.031 C 
ATOM     67  C   UNL A   1      42.843  30.200  36.107  1.00  0.00     0.029 A 
ATOM     68  C   UNL A   1      42.534  29.794  34.818  1.00  0.00     0.049 A 
ATOM     69  H   UNL A   1      41.029  30.508  33.524  1.00  0.00     0.167 HD
ATOM     70  C   UNL A   1      42.845  28.469  32.742  1.00  0.00     0.074 A 
ATOM     71  C   UNL A   1      43.517  27.458  31.952  1.00  0.00     0.031 C 
ATOM     72  C   UNL A   1      43.166  28.775  34.023  1.00  0.00     0.037 A 
BRANCH  59  73
ATOM     73  C   UNL A   1      39.717  33.258  36.503  1.00  0.00     0.064 A 
ATOM     74  C   UNL A   1      40.351  34.503  36.632  1.00  0.00     0.173 A 
ATOM     75  C   UNL A   1      38.804  32.878  37.498  1.00  0.00     0.173 A 
ATOM     76  F   UNL A   1      41.246  34.903  35.716  1.00  0.00    -0.203 F 
ATOM     77  C   UNL A   1      40.101  35.323  37.729  1.00  0.00     0.198 A 
ATOM     78  C   UNL A   1      38.537  33.713  38.580  1.00  0.00     0.198 A 
ATOM     79  F   UNL A   1      38.172  31.698  37.421  1.00  0.00    -0.203 F 
ATOM     80  F   UNL A   1      40.755  36.486  37.856  1.00  0.00    -0.200 F 
ATOM     81  C   UNL A   1      39.191  34.930  38.699  1.00  0.00     0.200 A 
ATOM     82  F   UNL A   1      37.652  33.335  39.514  1.00  0.00    -0.200 F 
ATOM     83  F   UNL A   1      38.950  35.722  39.753  1.00  0.00    -0.200 F 
ENDBRANCH  59  73
BRANCH  60  84
ATOM     84  C   UNL A   1      41.353  27.734  28.344  1.00  0.00     0.064 A 
ATOM     85  C   UNL A   1      40.713  26.500  28.167  1.00  0.00     0.173 A 
ATOM     86  C   UNL A   1      42.242  28.160  27.348  1.00  0.00     0.173 A 
ATOM     87  F   UNL A   1      39.869  26.044  29.105  1.00  0.00    -0.203 F 
ATOM     88  C   UNL A   1      40.965  25.713  27.047  1.00  0.00     0.198 A 
ATOM     89  C   UNL A   1      42.476  27.382  26.217  1.00  0.00     0.198 A 
ATOM     90  F   UNL A   1      42.874  29.336  27.470  1.00  0.00    -0.203 F 
ATOM     91  F   UNL A   1      40.369  24.519  26.921  1.00  0.00    -0.200 F 
ATOM     92  C   UNL A   1      41.845  26.156  26.070  1.00  0.00     0.200 A 
ATOM     93  F   UNL A   1      43.320  27.816  25.270  1.00  0.00    -0.200 F 
ATOM     94  F   UNL A   1      42.089  25.398  24.992  1.00  0.00    -0.200 F 
ENDBRANCH  60  84
BRANCH  72  95
ATOM     95  C   UNL A   1      44.254  27.969  34.665  1.00  0.00     0.064 A 
ATOM     96  C   UNL A   1      45.593  28.385  34.634  1.00  0.00     0.173 A 
ATOM     97  C   UNL A   1      43.945  26.784  35.348  1.00  0.00     0.173 A 
ATOM     98  F   UNL A   1      45.937  29.505  33.979  1.00  0.00    -0.203 F 
ATOM     99  C   UNL A   1      46.588  27.628  35.244  1.00  0.00     0.198 A 
ATOM    100  C   UNL A   1      44.940  26.041  35.977  1.00  0.00     0.198 A 
ATOM    101  F   UNL A   1      42.677  26.349  35.408  1.00  0.00    -0.203 F 
ATOM    102  F   UNL A   1      47.867  28.021  35.169  1.00  0.00    -0.200 F 
ATOM    103  C   UNL A   1      46.261  26.461  35.920  1.00  0.00     0.200 A 
ATOM    104  F   UNL A   1      44.622  24.919  36.635  1.00  0.00    -0.200 F 
ATOM    105  F   UNL A   1      47.221  25.735  36.510  1.00  0.00    -0.200 F 
ENDBRANCH  72  95
ENDBRANCH  46  47
ENDBRANCH  38  41
ENDBRANCH  36  37
ENDBRANCH  35  36
ENDBRANCH   1  35
TORSDOF 15
ENDMDL
MODEL 2
REMARK VINA RESULT:     -13.9      5.177      9.743
REMARK SMILES Cc1cc(C)c(S(=O)(=O)Nc2ccc(N3CC[NH+](C)CC3)c(C(=O)NCCCCNC(=O)c3ccc(-c4c5nc(c(-c6c(F)c(F)c(F)c(F)c6F)c6ccc([nH]6)c(-c6c(F)c(F)c(F)c(F)c6F)c6nc(c(-c7c(F)c(F)c(F)c(F)c7F)c7ccc4[nH]7)C=C6)C=C5)cc3)c2)c(C)c1
REMARK SMILES IDX 27 1 26 2 25 3 23 4 24 5 22 7 11 8 12 9 96 10 13 11 14 12
REMARK SMILES IDX 10 13 7 15 8 16 9 17 6 18 1 19 2 20 3 21 99 22 4 23 97 24
REMARK SMILES IDX 5 25 98 26 15 27 16 28 21 29 17 30 20 31 18 32 19 33 28 35
REMARK SMILES IDX 29 36 30 37 31 38 32 40 33 41 34 42 95 43 35 44 94 45 36 46
REMARK SMILES IDX 37 47 38 48 88 49 39 50 93 51 87 52 89 53 40 54 92 55 86 56
REMARK SMILES IDX 85 57 41 59 73 60 53 61 72 62 54 63 57 64 71 65 90 66 55 67
REMARK SMILES IDX 56 68 70 70 91 71 58 72 42 73 43 74 51 75 44 76 45 77 49 78
REMARK SMILES IDX 52 79 46 80 47 81 50 82 48 83 74 84 75 85 83 86 76 87 77 88
REMARK SMILES IDX 81 89 84 90 78 91 79 92 82 93 80 94 59 95 60 96 68 97 61 98
REMARK SMILES IDX 62 99 66 100 69 101 63 102 64 103 67 104 65 105
REMARK H PARENT 25 6 10 14 18 34 30 39 89 58 57 69
REMARK Flexibility Score: inf
ROOT
ATOM      1  C   UNL A   1      37.386  21.183  24.495  1.00  0.00     0.023 C 
ENDROOT
BRANCH   1   2
ATOM      2  C   UNL A   1      37.199  22.244  25.584  1.00  0.00     0.116 C 
BRANCH   2   3
ATOM      3  N   UNL A   1      36.176  21.823  26.515  1.00  0.00    -0.352 N 
ATOM      4  C   UNL A   1      34.802  21.817  26.470  1.00  0.00     0.253 C 
ATOM      5  O   UNL A   1      34.270  21.612  27.562  1.00  0.00    -0.269 OA
ATOM      6  H   UNL A   1      36.540  21.467  27.357  1.00  0.00     0.163 HD
BRANCH   4   7
ATOM      7  C   UNL A   1      33.989  22.044  25.219  1.00  0.00     0.065 A 
ATOM      8  C   UNL A   1      33.432  23.480  23.331  1.00  0.00     0.050 A 
ATOM      9  C   UNL A   1      32.583  22.508  22.822  1.00  0.00     0.029 A 
ATOM     10  C   UNL A   1      33.970  23.309  24.601  1.00  0.00     0.042 A 
ATOM     11  C   UNL A   1      32.509  21.273  23.453  1.00  0.00     0.029 A 
ATOM     12  C   UNL A   1      33.300  20.974  24.582  1.00  0.00     0.050 A 
BRANCH   8  13
ATOM     13  N   UNL A   1      33.790  24.534  22.450  1.00  0.00    -0.280 N 
ATOM     14  H   UNL A   1      34.663  24.457  22.000  1.00  0.00     0.180 HD
BRANCH  13  15
ATOM     15  S   UNL A   1      32.884  25.896  22.093  1.00  0.00     0.262 S 
ATOM     16  O   UNL A   1      31.661  25.415  21.472  1.00  0.00    -0.201 OA
ATOM     17  O   UNL A   1      33.790  26.769  21.380  1.00  0.00    -0.201 OA
BRANCH  15  18
ATOM     18  C   UNL A   1      32.373  26.804  23.569  1.00  0.00     0.093 A 
ATOM     19  C   UNL A   1      31.650  28.057  27.658  1.00  0.00     0.044 C 
ATOM     20  C   UNL A   1      31.871  27.648  26.231  1.00  0.00    -0.051 A 
ATOM     21  C   UNL A   1      31.072  26.672  25.642  1.00  0.00     0.008 A 
ATOM     22  C   UNL A   1      32.810  28.300  25.435  1.00  0.00     0.008 A 
ATOM     23  C   UNL A   1      31.305  26.238  24.321  1.00  0.00    -0.030 A 
ATOM     24  C   UNL A   1      33.040  27.931  24.088  1.00  0.00    -0.030 A 
ATOM     25  C   UNL A   1      30.288  25.268  23.767  1.00  0.00     0.046 C 
ATOM     26  C   UNL A   1      33.944  28.853  23.326  1.00  0.00     0.046 C 
ENDBRANCH  15  18
ENDBRANCH  13  15
ENDBRANCH   8  13
BRANCH  12  27
ATOM     27  N   UNL A   1      33.485  19.637  24.894  1.00  0.00    -0.360 N 
ATOM     28  C   UNL A   1      34.744  18.940  24.600  1.00  0.00     0.178 C 
ATOM     29  C   UNL A   1      32.726  19.035  26.000  1.00  0.00     0.178 C 
ATOM     30  C   UNL A   1      34.428  17.456  24.286  1.00  0.00     0.283 C 
ATOM     31  C   UNL A   1      32.463  17.543  25.706  1.00  0.00     0.283 C 
ATOM     32  N   UNL A   1      33.696  16.783  25.395  1.00  0.00    -0.334 N 
ATOM     33  C   UNL A   1      33.352  15.411  25.022  1.00  0.00     0.332 C 
ATOM     34  H   UNL A   1      34.296  16.752  26.218  1.00  0.00     0.347 HD
ENDBRANCH  12  27
ENDBRANCH   4   7
ENDBRANCH   2   3
ENDBRANCH   1   2
BRANCH   1  35
ATOM     35  C   UNL A   1      38.109  19.923  24.975  1.00  0.00     0.023 C 
BRANCH  35  36
ATOM     36  C   UNL A   1      39.220  20.182  25.984  1.00  0.00     0.116 C 
BRANCH  36  37
ATOM     37  N   UNL A   1      40.276  19.185  25.938  1.00  0.00    -0.352 N 
ATOM     38  C   UNL A   1      41.627  19.374  26.076  1.00  0.00     0.251 C 
ATOM     39  H   UNL A   1      39.985  18.256  25.789  1.00  0.00     0.163 HD
ATOM     40  O   UNL A   1      42.412  18.446  25.918  1.00  0.00    -0.269 OA
BRANCH  38  41
ATOM     41  C   UNL A   1      42.133  20.724  26.390  1.00  0.00     0.039 A 
ATOM     42  C   UNL A   1      42.269  21.647  25.350  1.00  0.00     0.014 A 
ATOM     43  C   UNL A   1      42.461  21.076  27.702  1.00  0.00     0.014 A 
ATOM     44  C   UNL A   1      42.704  22.941  25.632  1.00  0.00     0.010 A 
ATOM     45  C   UNL A   1      42.838  22.383  27.990  1.00  0.00     0.010 A 
ATOM     46  C   UNL A   1      42.977  23.321  26.956  1.00  0.00    -0.014 A 
BRANCH  46  47
ATOM     47  C   UNL A   1      43.459  24.683  27.273  1.00  0.00     0.031 A 
ATOM     48  C   UNL A   1      42.511  25.688  27.863  1.00  0.00     0.074 A 
ATOM     49  C   UNL A   1      44.727  25.031  26.983  1.00  0.00     0.049 A 
ATOM     50  N   UNL A   1      42.714  26.945  28.162  1.00  0.00    -0.248 NA
ATOM     51  C   UNL A   1      41.139  25.223  28.125  1.00  0.00     0.031 C 
ATOM     52  C   UNL A   1      45.723  24.156  26.363  1.00  0.00     0.029 A 
ATOM     53  N   UNL A   1      45.391  26.217  27.167  1.00  0.00    -0.354 N 
ATOM     54  C   UNL A   1      41.495  27.427  28.617  1.00  0.00     0.074 A 
ATOM     55  C   UNL A   1      40.546  26.339  28.520  1.00  0.00     0.031 C 
ATOM     56  C   UNL A   1      46.880  24.829  26.239  1.00  0.00     0.029 A 
ATOM     57  C   UNL A   1      46.698  26.184  26.751  1.00  0.00     0.049 A 
ATOM     58  H   UNL A   1      44.969  27.015  27.560  1.00  0.00     0.167 HD
ATOM     59  C   UNL A   1      41.199  28.659  29.092  1.00  0.00     0.037 A 
ATOM     60  C   UNL A   1      47.644  27.141  26.791  1.00  0.00     0.037 A 
ATOM     61  C   UNL A   1      42.156  29.722  29.232  1.00  0.00     0.049 A 
ATOM     62  C   UNL A   1      47.305  28.482  27.385  1.00  0.00     0.074 A 
ATOM     63  C   UNL A   1      41.972  30.992  29.750  1.00  0.00     0.029 A 
ATOM     64  N   UNL A   1      43.490  29.630  28.862  1.00  0.00    -0.354 N 
ATOM     65  N   UNL A   1      46.163  28.909  27.864  1.00  0.00    -0.248 NA
ATOM     66  C   UNL A   1      48.394  29.466  27.458  1.00  0.00     0.031 C 
ATOM     67  C   UNL A   1      43.191  31.675  29.676  1.00  0.00     0.029 A 
ATOM     68  C   UNL A   1      44.141  30.819  29.141  1.00  0.00     0.049 A 
ATOM     69  H   UNL A   1      43.911  28.836  28.459  1.00  0.00     0.167 HD
ATOM     70  C   UNL A   1      46.401  30.195  28.327  1.00  0.00     0.074 A 
ATOM     71  C   UNL A   1      47.800  30.477  28.077  1.00  0.00     0.031 C 
ATOM     72  C   UNL A   1      45.539  31.065  28.909  1.00  0.00     0.037 A 
BRANCH  59  73
ATOM     73  C   UNL A   1      39.780  28.916  29.502  1.00  0.00     0.064 A 
ATOM     74  C   UNL A   1      39.343  28.686  30.815  1.00  0.00     0.173 A 
ATOM     75  C   UNL A   1      38.851  29.411  28.576  1.00  0.00     0.173 A 
ATOM     76  F   UNL A   1      40.190  28.195  31.733  1.00  0.00    -0.203 F 
ATOM     77  C   UNL A   1      38.019  28.916  31.179  1.00  0.00     0.198 A 
ATOM     78  C   UNL A   1      37.534  29.665  28.951  1.00  0.00     0.198 A 
ATOM     79  F   UNL A   1      39.219  29.648  27.309  1.00  0.00    -0.203 F 
ATOM     80  F   UNL A   1      37.612  28.642  32.426  1.00  0.00    -0.200 F 
ATOM     81  C   UNL A   1      37.117  29.410  30.249  1.00  0.00     0.200 A 
ATOM     82  F   UNL A   1      36.664  30.150  28.052  1.00  0.00    -0.200 F 
ATOM     83  F   UNL A   1      35.844  29.633  30.601  1.00  0.00    -0.200 F 
ENDBRANCH  59  73
BRANCH  60  84
ATOM     84  C   UNL A   1      49.016  26.848  26.311  1.00  0.00     0.064 A 
ATOM     85  C   UNL A   1      49.368  27.078  24.974  1.00  0.00     0.173 A 
ATOM     86  C   UNL A   1      49.997  26.330  27.167  1.00  0.00     0.173 A 
ATOM     87  F   UNL A   1      48.455  27.555  24.114  1.00  0.00    -0.203 F 
ATOM     88  C   UNL A   1      50.646  26.784  24.505  1.00  0.00     0.198 A 
ATOM     89  C   UNL A   1      51.281  26.057  26.702  1.00  0.00     0.198 A 
ATOM     90  F   UNL A   1      49.709  26.098  28.455  1.00  0.00    -0.203 F 
ATOM     91  F   UNL A   1      50.945  26.977  23.213  1.00  0.00    -0.200 F 
ATOM     92  C   UNL A   1      51.603  26.276  25.371  1.00  0.00     0.200 A 
ATOM     93  F   UNL A   1      52.208  25.575  27.543  1.00  0.00    -0.200 F 
ATOM     94  F   UNL A   1      52.833  25.992  24.920  1.00  0.00    -0.200 F 
ENDBRANCH  60  84
BRANCH  72  95
ATOM     95  C   UNL A   1      46.099  32.378  29.364  1.00  0.00     0.064 A 
ATOM     96  C   UNL A   1      46.639  32.541  30.648  1.00  0.00     0.173 A 
ATOM     97  C   UNL A   1      46.125  33.475  28.491  1.00  0.00     0.173 A 
ATOM     98  F   UNL A   1      46.623  31.524  31.522  1.00  0.00    -0.203 F 
ATOM     99  C   UNL A   1      47.164  33.766  31.049  1.00  0.00     0.198 A 
ATOM    100  C   UNL A   1      46.672  34.692  28.888  1.00  0.00     0.198 A 
ATOM    101  F   UNL A   1      45.623  33.365  27.251  1.00  0.00    -0.203 F 
ATOM    102  F   UNL A   1      47.639  33.914  32.293  1.00  0.00    -0.200 F 
ATOM    103  C   UNL A   1      47.185  34.838  30.168  1.00  0.00     0.200 A 
ATOM    104  F   UNL A   1      46.698  35.724  28.034  1.00  0.00    -0.200 F 
ATOM    105  F   UNL A   1      47.694  36.016  30.556  1.00  0.00    -0.200 F 
ENDBRANCH  72  95
ENDBRANCH  46  47
ENDBRANCH  38  41
ENDBRANCH  36  37
ENDBRANCH  35  36
ENDBRANCH   1  35
TORSDOF 15
ENDMDL
MODEL 3
REMARK VINA RESULT:     -13.9      0.796      6.967
REMARK SMILES Cc1cc(C)c(S(=O)(=O)Nc2ccc(N3CC[NH+](C)CC3)c(C(=O)NCCCCNC(=O)c3ccc(-c4c5nc(c(-c6c(F)c(F)c(F)c(F)c6F)c6ccc([nH]6)c(-c6c(F)c(F)c(F)c(F)c6F)c6nc(c(-c7c(F)c(F)c(F)c(F)c7F)c7ccc4[nH]7)C=C6)C=C5)cc3)c2)c(C)c1
REMARK SMILES IDX 27 1 26 2 25 3 23 4 24 5 22 7 11 8 12 9 96 10 13 11 14 12
REMARK SMILES IDX 10 13 7 15 8 16 9 17 6 18 1 19 2 20 3 21 99 22 4 23 97 24
REMARK SMILES IDX 5 25 98 26 15 27 16 28 21 29 17 30 20 31 18 32 19 33 28 35
REMARK SMILES IDX 29 36 30 37 31 38 32 40 33 41 34 42 95 43 35 44 94 45 36 46
REMARK SMILES IDX 37 47 38 48 88 49 39 50 93 51 87 52 89 53 40 54 92 55 86 56
REMARK SMILES IDX 85 57 41 59 73 60 53 61 72 62 54 63 57 64 71 65 90 66 55 67
REMARK SMILES IDX 56 68 70 70 91 71 58 72 42 73 43 74 51 75 44 76 45 77 49 78
REMARK SMILES IDX 52 79 46 80 47 81 50 82 48 83 74 84 75 85 83 86 76 87 77 88
REMARK SMILES IDX 81 89 84 90 78 91 79 92 82 93 80 94 59 95 60 96 68 97 61 98
REMARK SMILES IDX 62 99 66 100 69 101 63 102 64 103 67 104 65 105
REMARK H PARENT 25 6 10 14 18 34 30 39 89 58 57 69
REMARK Flexibility Score: inf
ROOT
ATOM      1  C   UNL A   1      31.784  30.316  26.777  1.00  0.00     0.023 C 
ENDROOT
BRANCH   1   2
ATOM      2  C   UNL A   1      33.207  29.794  26.551  1.00  0.00     0.116 C 
BRANCH   2   3
ATOM      3  N   UNL A   1      33.487  29.715  25.135  1.00  0.00    -0.352 N 
ATOM      4  C   UNL A   1      33.111  28.839  24.145  1.00  0.00     0.253 C 
ATOM      5  O   UNL A   1      33.756  28.960  23.103  1.00  0.00    -0.269 OA
ATOM      6  H   UNL A   1      34.070  30.440  24.813  1.00  0.00     0.163 HD
BRANCH   4   7
ATOM      7  C   UNL A   1      32.017  27.809  24.289  1.00  0.00     0.065 A 
ATOM      8  C   UNL A   1      31.177  25.806  25.393  1.00  0.00     0.050 A 
ATOM      9  C   UNL A   1      29.985  25.899  24.690  1.00  0.00     0.029 A 
ATOM     10  C   UNL A   1      32.231  26.643  25.048  1.00  0.00     0.042 A 
ATOM     11  C   UNL A   1      29.768  26.994  23.863  1.00  0.00     0.029 A 
ATOM     12  C   UNL A   1      30.720  28.028  23.745  1.00  0.00     0.050 A 
BRANCH   8  13
ATOM     13  N   UNL A   1      31.188  24.931  26.511  1.00  0.00    -0.280 N 
ATOM     14  H   UNL A   1      31.002  25.335  27.390  1.00  0.00     0.180 HD
BRANCH  13  15
ATOM     15  S   UNL A   1      31.482  23.284  26.495  1.00  0.00     0.262 S 
ATOM     16  O   UNL A   1      30.363  22.681  25.789  1.00  0.00    -0.201 OA
ATOM     17  O   UNL A   1      31.767  22.943  27.871  1.00  0.00    -0.201 OA
BRANCH  15  18
ATOM     18  C   UNL A   1      32.962  22.845  25.555  1.00  0.00     0.093 A 
ATOM     19  C   UNL A   1      36.563  22.970  23.141  1.00  0.00     0.044 C 
ATOM     20  C   UNL A   1      35.313  22.889  23.966  1.00  0.00    -0.051 A 
ATOM     21  C   UNL A   1      34.061  23.015  23.371  1.00  0.00     0.008 A 
ATOM     22  C   UNL A   1      35.368  22.587  25.326  1.00  0.00     0.008 A 
ATOM     23  C   UNL A   1      32.881  22.997  24.142  1.00  0.00    -0.030 A 
ATOM     24  C   UNL A   1      34.205  22.508  26.126  1.00  0.00    -0.030 A 
ATOM     25  C   UNL A   1      31.591  23.018  23.355  1.00  0.00     0.046 C 
ATOM     26  C   UNL A   1      34.427  21.991  27.516  1.00  0.00     0.046 C 
ENDBRANCH  15  18
ENDBRANCH  13  15
ENDBRANCH   8  13
BRANCH  12  27
ATOM     27  N   UNL A   1      30.279  29.247  23.255  1.00  0.00    -0.360 N 
ATOM     28  C   UNL A   1      30.018  30.388  24.140  1.00  0.00     0.178 C 
ATOM     29  C   UNL A   1      30.602  29.636  21.875  1.00  0.00     0.178 C 
ATOM     30  C   UNL A   1      28.863  31.229  23.539  1.00  0.00     0.283 C 
ATOM     31  C   UNL A   1      29.474  30.520  21.301  1.00  0.00     0.283 C 
ATOM     32  N   UNL A   1      29.157  31.689  22.153  1.00  0.00    -0.334 N 
ATOM     33  C   UNL A   1      28.010  32.410  21.601  1.00  0.00     0.332 C 
ATOM     34  H   UNL A   1      29.956  32.323  22.177  1.00  0.00     0.347 HD
ENDBRANCH  12  27
ENDBRANCH   4   7
ENDBRANCH   2   3
ENDBRANCH   1   2
BRANCH   1  35
ATOM     35  C   UNL A   1      31.667  31.841  26.718  1.00  0.00     0.023 C 
BRANCH  35  36
ATOM     36  C   UNL A   1      32.887  32.585  27.245  1.00  0.00     0.116 C 
BRANCH  36  37
ATOM     37  N   UNL A   1      32.593  33.950  27.645  1.00  0.00    -0.352 N 
ATOM     38  C   UNL A   1      33.188  34.692  28.633  1.00  0.00     0.251 C 
ATOM     39  H   UNL A   1      31.875  34.401  27.143  1.00  0.00     0.163 HD
ATOM     40  O   UNL A   1      32.768  35.806  28.924  1.00  0.00    -0.269 OA
BRANCH  38  41
ATOM     41  C   UNL A   1      34.330  34.118  29.369  1.00  0.00     0.039 A 
ATOM     42  C   UNL A   1      34.073  33.244  30.429  1.00  0.00     0.014 A 
ATOM     43  C   UNL A   1      35.643  34.434  29.010  1.00  0.00     0.014 A 
ATOM     44  C   UNL A   1      35.139  32.656  31.109  1.00  0.00     0.010 A 
ATOM     45  C   UNL A   1      36.703  33.802  29.650  1.00  0.00     0.010 A 
ATOM     46  C   UNL A   1      36.460  32.921  30.714  1.00  0.00    -0.014 A 
BRANCH  46  47
ATOM     47  C   UNL A   1      37.605  32.324  31.437  1.00  0.00     0.031 A 
ATOM     48  C   UNL A   1      38.385  31.210  30.800  1.00  0.00     0.074 A 
ATOM     49  C   UNL A   1      37.906  32.744  32.680  1.00  0.00     0.049 A 
ATOM     50  N   UNL A   1      39.383  30.515  31.282  1.00  0.00    -0.248 NA
ATOM     51  C   UNL A   1      37.968  30.804  29.447  1.00  0.00     0.031 C 
ATOM     52  C   UNL A   1      37.187  33.782  33.420  1.00  0.00     0.029 A 
ATOM     53  N   UNL A   1      38.895  32.341  33.541  1.00  0.00    -0.354 N 
ATOM     54  C   UNL A   1      39.692  29.574  30.309  1.00  0.00     0.074 A 
ATOM     55  C   UNL A   1      38.753  29.761  29.225  1.00  0.00     0.031 C 
ATOM     56  C   UNL A   1      37.774  33.952  34.617  1.00  0.00     0.029 A 
ATOM     57  C   UNL A   1      38.893  33.021  34.734  1.00  0.00     0.049 A 
ATOM     58  H   UNL A   1      39.543  31.633  33.325  1.00  0.00     0.167 HD
ATOM     59  C   UNL A   1      40.683  28.653  30.311  1.00  0.00     0.037 A 
ATOM     60  C   UNL A   1      39.714  32.909  35.795  1.00  0.00     0.037 A 
ATOM     61  C   UNL A   1      41.644  28.503  31.370  1.00  0.00     0.049 A 
ATOM     62  C   UNL A   1      40.847  31.921  35.744  1.00  0.00     0.074 A 
ATOM     63  C   UNL A   1      42.719  27.635  31.448  1.00  0.00     0.029 A 
ATOM     64  N   UNL A   1      41.652  29.257  32.534  1.00  0.00    -0.354 N 
ATOM     65  N   UNL A   1      41.164  31.074  34.796  1.00  0.00    -0.248 NA
ATOM     66  C   UNL A   1      41.746  31.887  36.906  1.00  0.00     0.031 C 
ATOM     67  C   UNL A   1      43.366  27.850  32.669  1.00  0.00     0.029 A 
ATOM     68  C   UNL A   1      42.713  28.875  33.337  1.00  0.00     0.049 A 
ATOM     69  H   UNL A   1      40.998  29.958  32.757  1.00  0.00     0.167 HD
ATOM     70  C   UNL A   1      42.316  30.432  35.228  1.00  0.00     0.074 A 
ATOM     71  C   UNL A   1      42.646  30.992  36.523  1.00  0.00     0.031 C 
ATOM     72  C   UNL A   1      43.037  29.466  34.608  1.00  0.00     0.037 A 
BRANCH  59  73
ATOM     73  C   UNL A   1      40.777  27.740  29.126  1.00  0.00     0.064 A 
ATOM     74  C   UNL A   1      41.713  27.961  28.103  1.00  0.00     0.173 A 
ATOM     75  C   UNL A   1      39.933  26.625  29.017  1.00  0.00     0.173 A 
ATOM     76  F   UNL A   1      42.529  29.024  28.153  1.00  0.00    -0.203 F 
ATOM     77  C   UNL A   1      41.780  27.113  27.001  1.00  0.00     0.198 A 
ATOM     78  C   UNL A   1      40.022  25.765  27.926  1.00  0.00     0.198 A 
ATOM     79  F   UNL A   1      39.023  26.371  29.968  1.00  0.00    -0.203 F 
ATOM     80  F   UNL A   1      42.648  27.371  26.012  1.00  0.00    -0.200 F 
ATOM     81  C   UNL A   1      40.940  26.013  26.915  1.00  0.00     0.200 A 
ATOM     82  F   UNL A   1      39.214  24.698  27.847  1.00  0.00    -0.200 F 
ATOM     83  F   UNL A   1      41.007  25.197  25.855  1.00  0.00    -0.200 F 
ENDBRANCH  59  73
BRANCH  60  84
ATOM     84  C   UNL A   1      39.531  33.797  36.969  1.00  0.00     0.064 A 
ATOM     85  C   UNL A   1      38.795  33.367  38.082  1.00  0.00     0.173 A 
ATOM     86  C   UNL A   1      40.079  35.086  37.005  1.00  0.00     0.173 A 
ATOM     87  F   UNL A   1      38.236  32.146  38.082  1.00  0.00    -0.203 F 
ATOM     88  C   UNL A   1      38.596  34.200  39.179  1.00  0.00     0.198 A 
ATOM     89  C   UNL A   1      39.898  35.911  38.113  1.00  0.00     0.198 A 
ATOM     90  F   UNL A   1      40.795  35.540  35.967  1.00  0.00    -0.203 F 
ATOM     91  F   UNL A   1      37.855  33.778  40.213  1.00  0.00    -0.200 F 
ATOM     92  C   UNL A   1      39.151  35.471  39.196  1.00  0.00     0.200 A 
ATOM     93  F   UNL A   1      40.443  37.135  38.131  1.00  0.00    -0.200 F 
ATOM     94  F   UNL A   1      38.959  36.274  40.252  1.00  0.00    -0.200 F 
ENDBRANCH  60  84
BRANCH  72  95
ATOM     95  C   UNL A   1      44.282  28.996  35.296  1.00  0.00     0.064 A 
ATOM     96  C   UNL A   1      44.259  27.937  36.214  1.00  0.00     0.173 A 
ATOM     97  C   UNL A   1      45.517  29.593  35.004  1.00  0.00     0.173 A 
ATOM     98  F   UNL A   1      43.098  27.347  36.535  1.00  0.00    -0.203 F 
ATOM     99  C   UNL A   1      45.428  27.508  36.836  1.00  0.00     0.198 A 
ATOM    100  C   UNL A   1      46.688  29.146  35.610  1.00  0.00     0.198 A 
ATOM    101  F   UNL A   1      45.589  30.607  34.128  1.00  0.00    -0.203 F 
ATOM    102  F   UNL A   1      45.380  26.521  37.741  1.00  0.00    -0.200 F 
ATOM    103  C   UNL A   1      46.641  28.108  36.529  1.00  0.00     0.200 A 
ATOM    104  F   UNL A   1      47.859  29.721  35.308  1.00  0.00    -0.200 F 
ATOM    105  F   UNL A   1      47.766  27.691  37.127  1.00  0.00    -0.200 F 
ENDBRANCH  72  95
ENDBRANCH  46  47
ENDBRANCH  38  41
ENDBRANCH  36  37
ENDBRANCH  35  36
ENDBRANCH   1  35
TORSDOF 15
ENDMDL
