MODEL 1
REMARK VINA RESULT:     -12.5      0.000      0.000
REMARK SMILES CC(C)Cc1cc2c(cc1Cl)C=C(C(=O)NCCCCNC(=O)c1ccc(-c3c4nc(c(-c5c(F)c(F)c(F)c(F)c5F)c5ccc([nH]5)c(-c5c(F)c(F)c(F)c(F)c5F)c5nc(c(-c6c(F)c(F)c(F)c(F)c6F)c6ccc3[nH]6)C=C5)C=C4)cc1)[C@@H](C(F)(F)F)O2
REMARK SMILES IDX 18 1 17 2 16 3 14 4 15 5 13 7 5 8 6 9 10 10 7 11 9 12 11 13
REMARK SMILES IDX 8 14 92 15 12 16 87 17 4 18 2 19 1 20 3 21 88 22 89 23 90 24
REMARK SMILES IDX 91 25 19 26 20 27 21 28 22 29 23 31 24 32 25 33 86 34 26 35
REMARK SMILES IDX 85 36 27 37 28 38 29 39 79 40 30 41 84 42 78 43 80 44 31 45
REMARK SMILES IDX 83 46 77 47 76 48 32 50 64 51 44 52 63 53 45 54 48 55 62 56
REMARK SMILES IDX 81 57 46 58 47 59 61 61 82 62 49 63 33 64 34 65 42 66 35 67
REMARK SMILES IDX 36 68 40 69 43 70 37 71 38 72 41 73 39 74 65 75 66 76 74 77
REMARK SMILES IDX 67 78 68 79 72 80 75 81 69 82 70 83 73 84 71 85 50 86 51 87
REMARK SMILES IDX 59 88 52 89 53 90 57 91 60 92 54 93 55 94 58 95 56 96
REMARK H PARENT 16 6 21 30 80 49 48 60
REMARK Flexibility Score: inf
ROOT
ATOM      1  C   UNL A   1      37.446  22.676  24.768  1.00  0.00     0.023 C 
ENDROOT
BRANCH   1   2
ATOM      2  C   UNL A   1      36.943  23.656  25.825  1.00  0.00     0.116 C 
BRANCH   2   3
ATOM      3  N   UNL A   1      35.814  23.129  26.571  1.00  0.00    -0.352 N 
ATOM      4  C   UNL A   1      34.474  23.325  26.591  1.00  0.00     0.251 C 
ATOM      5  O   UNL A   1      33.858  22.646  27.419  1.00  0.00    -0.270 OA
ATOM      6  H   UNL A   1      36.095  22.456  27.232  1.00  0.00     0.163 HD
BRANCH   4   7
ATOM      7  C   UNL A   1      33.728  24.272  25.711  1.00  0.00     0.067 C 
ATOM      8  C   UNL A   1      31.564  28.334  23.657  1.00  0.00    -0.025 A 
ATOM      9  C   UNL A   1      31.842  27.032  23.207  1.00  0.00     0.052 A 
ATOM     10  C   UNL A   1      32.104  28.738  24.892  1.00  0.00     0.045 A 
ATOM     11  C   UNL A   1      32.563  26.146  24.002  1.00  0.00     0.128 A 
ATOM     12  C   UNL A   1      32.871  27.854  25.665  1.00  0.00     0.032 A 
ATOM     13  Cl  UNL A   1      31.844  30.320  25.537  1.00  0.00    -0.084 Cl
ATOM     14  C   UNL A   1      33.086  26.546  25.230  1.00  0.00     0.019 A 
ATOM     15  O   UNL A   1      32.730  24.877  23.523  1.00  0.00    -0.475 OA
ATOM     16  C   UNL A   1      33.839  25.579  26.023  1.00  0.00     0.025 C 
ATOM     17  C   UNL A   1      32.851  23.861  24.560  1.00  0.00     0.314 C 
BRANCH   8  18
ATOM     18  C   UNL A   1      30.674  29.211  22.800  1.00  0.00     0.040 C 
BRANCH  18  19
ATOM     19  C   UNL A   1      29.293  29.497  23.434  1.00  0.00    -0.013 C 
ATOM     20  C   UNL A   1      29.019  30.997  23.574  1.00  0.00     0.008 C 
ATOM     21  C   UNL A   1      28.189  28.843  22.602  1.00  0.00     0.008 C 
ENDBRANCH  18  19
ENDBRANCH   8  18
BRANCH  17  22
ATOM     22  C   UNL A   1      31.450  23.399  25.012  1.00  0.00     0.429 C 
ATOM     23  F   UNL A   1      31.465  22.078  25.319  1.00  0.00    -0.167 F 
ATOM     24  F   UNL A   1      31.030  24.047  26.124  1.00  0.00    -0.167 F 
ATOM     25  F   UNL A   1      30.501  23.585  24.069  1.00  0.00    -0.167 F 
ENDBRANCH  17  22
ENDBRANCH   4   7
ENDBRANCH   2   3
ENDBRANCH   1   2
BRANCH   1  26
ATOM     26  C   UNL A   1      37.898  21.323  25.325  1.00  0.00     0.023 C 
BRANCH  26  27
ATOM     27  C   UNL A   1      39.313  21.287  25.900  1.00  0.00     0.116 C 
BRANCH  27  28
ATOM     28  N   UNL A   1      39.962  19.985  25.826  1.00  0.00    -0.352 N 
ATOM     29  C   UNL A   1      41.281  19.693  26.095  1.00  0.00     0.251 C 
ATOM     30  H   UNL A   1      39.393  19.228  25.554  1.00  0.00     0.163 HD
ATOM     31  O   UNL A   1      41.727  18.562  25.947  1.00  0.00    -0.269 OA
BRANCH  29  32
ATOM     32  C   UNL A   1      42.164  20.802  26.500  1.00  0.00     0.039 A 
ATOM     33  C   UNL A   1      42.255  21.165  27.845  1.00  0.00     0.014 A 
ATOM     34  C   UNL A   1      42.770  21.571  25.505  1.00  0.00     0.014 A 
ATOM     35  C   UNL A   1      42.804  22.397  28.179  1.00  0.00     0.010 A 
ATOM     36  C   UNL A   1      43.369  22.783  25.849  1.00  0.00     0.010 A 
ATOM     37  C   UNL A   1      43.325  23.234  27.178  1.00  0.00    -0.014 A 
BRANCH  37  38
ATOM     38  C   UNL A   1      43.718  24.622  27.519  1.00  0.00     0.031 A 
ATOM     39  C   UNL A   1      42.664  25.623  27.914  1.00  0.00     0.074 A 
ATOM     40  C   UNL A   1      45.017  24.965  27.546  1.00  0.00     0.049 A 
ATOM     41  N   UNL A   1      42.796  26.890  28.217  1.00  0.00    -0.248 NA
ATOM     42  C   UNL A   1      41.276  25.136  27.980  1.00  0.00     0.031 C 
ATOM     43  C   UNL A   1      46.130  24.071  27.229  1.00  0.00     0.029 A 
ATOM     44  N   UNL A   1      45.620  26.149  27.880  1.00  0.00    -0.354 N 
ATOM     45  C   UNL A   1      41.515  27.354  28.480  1.00  0.00     0.074 A 
ATOM     46  C   UNL A   1      40.612  26.239  28.294  1.00  0.00     0.031 C 
ATOM     47  C   UNL A   1      47.284  24.727  27.425  1.00  0.00     0.029 A 
ATOM     48  C   UNL A   1      46.989  26.098  27.831  1.00  0.00     0.049 A 
ATOM     49  H   UNL A   1      45.118  26.959  28.131  1.00  0.00     0.167 HD
ATOM     50  C   UNL A   1      41.127  28.598  28.849  1.00  0.00     0.037 A 
ATOM     51  C   UNL A   1      47.903  27.056  28.075  1.00  0.00     0.037 A 
ATOM     52  C   UNL A   1      42.027  29.697  29.072  1.00  0.00     0.049 A 
ATOM     53  C   UNL A   1      47.445  28.435  28.451  1.00  0.00     0.074 A 
ATOM     54  C   UNL A   1      41.728  30.994  29.453  1.00  0.00     0.029 A 
ATOM     55  N   UNL A   1      43.405  29.623  28.944  1.00  0.00    -0.354 N 
ATOM     56  N   UNL A   1      46.227  28.876  28.645  1.00  0.00    -0.248 NA
ATOM     57  C   UNL A   1      48.488  29.455  28.619  1.00  0.00     0.031 C 
ATOM     58  C   UNL A   1      42.927  31.711  29.537  1.00  0.00     0.029 A 
ATOM     59  C   UNL A   1      43.971  30.854  29.231  1.00  0.00     0.049 A 
ATOM     60  H   UNL A   1      43.906  28.816  28.689  1.00  0.00     0.167 HD
ATOM     61  C   UNL A   1      46.354  30.224  28.946  1.00  0.00     0.074 A 
ATOM     62  C   UNL A   1      47.771  30.523  28.939  1.00  0.00     0.031 C 
ATOM     63  C   UNL A   1      45.382  31.134  29.196  1.00  0.00     0.037 A 
BRANCH  50  64
ATOM     64  C   UNL A   1      39.660  28.844  29.026  1.00  0.00     0.064 A 
ATOM     65  C   UNL A   1      39.039  28.699  30.274  1.00  0.00     0.173 A 
ATOM     66  C   UNL A   1      38.880  29.282  27.946  1.00  0.00     0.173 A 
ATOM     67  F   UNL A   1      39.741  28.267  31.332  1.00  0.00    -0.203 F 
ATOM     68  C   UNL A   1      37.684  28.978  30.432  1.00  0.00     0.198 A 
ATOM     69  C   UNL A   1      37.530  29.575  28.111  1.00  0.00     0.198 A 
ATOM     70  F   UNL A   1      39.432  29.435  26.732  1.00  0.00    -0.203 F 
ATOM     71  F   UNL A   1      37.101  28.809  31.628  1.00  0.00    -0.200 F 
ATOM     72  C   UNL A   1      36.933  29.421  29.353  1.00  0.00     0.200 A 
ATOM     73  F   UNL A   1      36.806  30.007  27.069  1.00  0.00    -0.200 F 
ATOM     74  F   UNL A   1      35.630  29.695  29.509  1.00  0.00    -0.200 F 
ENDBRANCH  50  64
BRANCH  51  75
ATOM     75  C   UNL A   1      49.345  26.734  27.958  1.00  0.00     0.064 A 
ATOM     76  C   UNL A   1      50.111  26.458  29.097  1.00  0.00     0.173 A 
ATOM     77  C   UNL A   1      49.974  26.669  26.707  1.00  0.00     0.173 A 
ATOM     78  F   UNL A   1      49.553  26.530  30.313  1.00  0.00    -0.203 F 
ATOM     79  C   UNL A   1      51.460  26.127  28.988  1.00  0.00     0.198 A 
ATOM     80  C   UNL A   1      51.317  26.319  26.599  1.00  0.00     0.198 A 
ATOM     81  F   UNL A   1      49.278  26.926  25.591  1.00  0.00    -0.203 F 
ATOM     82  F   UNL A   1      52.179  25.887  30.093  1.00  0.00    -0.200 F 
ATOM     83  C   UNL A   1      52.060  26.050  27.739  1.00  0.00     0.200 A 
ATOM     84  F   UNL A   1      51.890  26.236  25.390  1.00  0.00    -0.200 F 
ATOM     85  F   UNL A   1      53.354  25.720  27.635  1.00  0.00    -0.200 F 
ENDBRANCH  51  75
BRANCH  63  86
ATOM     86  C   UNL A   1      45.819  32.541  29.461  1.00  0.00     0.064 A 
ATOM     87  C   UNL A   1      45.953  33.463  28.414  1.00  0.00     0.173 A 
ATOM     88  C   UNL A   1      46.063  32.982  30.770  1.00  0.00     0.173 A 
ATOM     89  F   UNL A   1      45.743  33.078  27.146  1.00  0.00    -0.203 F 
ATOM     90  C   UNL A   1      46.329  34.779  28.667  1.00  0.00     0.198 A 
ATOM     91  C   UNL A   1      46.422  34.303  31.020  1.00  0.00     0.198 A 
ATOM     92  F   UNL A   1      45.943  32.135  31.802  1.00  0.00    -0.203 F 
ATOM     93  F   UNL A   1      46.478  35.638  27.649  1.00  0.00    -0.200 F 
ATOM     94  C   UNL A   1      46.558  35.199  29.969  1.00  0.00     0.200 A 
ATOM     95  F   UNL A   1      46.638  34.710  32.278  1.00  0.00    -0.200 F 
ATOM     96  F   UNL A   1      46.916  36.467  30.210  1.00  0.00    -0.200 F 
ENDBRANCH  63  86
ENDBRANCH  37  38
ENDBRANCH  29  32
ENDBRANCH  27  28
ENDBRANCH  26  27
ENDBRANCH   1  26
TORSDOF 14
ENDMDL
MODEL 2
REMARK VINA RESULT:     -12.5      3.371      8.439
REMARK SMILES CC(C)Cc1cc2c(cc1Cl)C=C(C(=O)NCCCCNC(=O)c1ccc(-c3c4nc(c(-c5c(F)c(F)c(F)c(F)c5F)c5ccc([nH]5)c(-c5c(F)c(F)c(F)c(F)c5F)c5nc(c(-c6c(F)c(F)c(F)c(F)c6F)c6ccc3[nH]6)C=C5)C=C4)cc1)[C@@H](C(F)(F)F)O2
REMARK SMILES IDX 18 1 17 2 16 3 14 4 15 5 13 7 5 8 6 9 10 10 7 11 9 12 11 13
REMARK SMILES IDX 8 14 92 15 12 16 87 17 4 18 2 19 1 20 3 21 88 22 89 23 90 24
REMARK SMILES IDX 91 25 19 26 20 27 21 28 22 29 23 31 24 32 25 33 86 34 26 35
REMARK SMILES IDX 85 36 27 37 28 38 29 39 79 40 30 41 84 42 78 43 80 44 31 45
REMARK SMILES IDX 83 46 77 47 76 48 32 50 64 51 44 52 63 53 45 54 48 55 62 56
REMARK SMILES IDX 81 57 46 58 47 59 61 61 82 62 49 63 33 64 34 65 42 66 35 67
REMARK SMILES IDX 36 68 40 69 43 70 37 71 38 72 41 73 39 74 65 75 66 76 74 77
REMARK SMILES IDX 67 78 68 79 72 80 75 81 69 82 70 83 73 84 71 85 50 86 51 87
REMARK SMILES IDX 59 88 52 89 53 90 57 91 60 92 54 93 55 94 58 95 56 96
REMARK H PARENT 16 6 21 30 80 49 48 60
REMARK Flexibility Score: inf
ROOT
ATOM      1  C   UNL A   1      36.166  21.258  24.536  1.00  0.00     0.023 C 
ENDROOT
BRANCH   1   2
ATOM      2  C   UNL A   1      35.466  20.970  25.862  1.00  0.00     0.116 C 
BRANCH   2   3
ATOM      3  N   UNL A   1      34.276  20.155  25.690  1.00  0.00    -0.352 N 
ATOM      4  C   UNL A   1      32.991  20.363  25.318  1.00  0.00     0.251 C 
ATOM      5  O   UNL A   1      32.278  19.353  25.310  1.00  0.00    -0.270 OA
ATOM      6  H   UNL A   1      34.449  19.208  25.897  1.00  0.00     0.163 HD
BRANCH   4   7
ATOM      7  C   UNL A   1      32.407  21.681  24.932  1.00  0.00     0.067 C 
ATOM      8  C   UNL A   1      31.191  25.964  22.570  1.00  0.00    -0.025 A 
ATOM      9  C   UNL A   1      30.669  25.264  23.671  1.00  0.00     0.052 A 
ATOM     10  C   UNL A   1      32.183  25.336  21.794  1.00  0.00     0.045 A 
ATOM     11  C   UNL A   1      31.180  24.020  24.027  1.00  0.00     0.128 A 
ATOM     12  C   UNL A   1      32.659  24.060  22.132  1.00  0.00     0.032 A 
ATOM     13  Cl  UNL A   1      32.884  26.093  20.408  1.00  0.00    -0.084 Cl
ATOM     14  C   UNL A   1      32.172  23.406  23.263  1.00  0.00     0.019 A 
ATOM     15  O   UNL A   1      30.668  23.436  25.151  1.00  0.00    -0.475 OA
ATOM     16  C   UNL A   1      32.671  22.098  23.677  1.00  0.00     0.025 C 
ATOM     17  C   UNL A   1      31.604  22.564  25.848  1.00  0.00     0.314 C 
BRANCH   8  18
ATOM     18  C   UNL A   1      30.676  27.364  22.305  1.00  0.00     0.040 C 
BRANCH  18  19
ATOM     19  C   UNL A   1      29.949  27.995  23.515  1.00  0.00    -0.013 C 
ATOM     20  C   UNL A   1      30.758  29.128  24.151  1.00  0.00     0.008 C 
ATOM     21  C   UNL A   1      28.574  28.513  23.088  1.00  0.00     0.008 C 
ENDBRANCH  18  19
ENDBRANCH   8  18
BRANCH  17  22
ATOM     22  C   UNL A   1      32.487  23.394  26.803  1.00  0.00     0.429 C 
ATOM     23  F   UNL A   1      31.839  24.524  27.182  1.00  0.00    -0.167 F 
ATOM     24  F   UNL A   1      32.786  22.722  27.941  1.00  0.00    -0.167 F 
ATOM     25  F   UNL A   1      33.662  23.767  26.249  1.00  0.00    -0.167 F 
ENDBRANCH  17  22
ENDBRANCH   4   7
ENDBRANCH   2   3
ENDBRANCH   1   2
BRANCH   1  26
ATOM     26  C   UNL A   1      36.645  22.703  24.375  1.00  0.00     0.023 C 
BRANCH  26  27
ATOM     27  C   UNL A   1      37.468  23.257  25.537  1.00  0.00     0.116 C 
BRANCH  27  28
ATOM     28  N   UNL A   1      38.767  22.621  25.714  1.00  0.00    -0.352 N 
ATOM     29  C   UNL A   1      39.870  23.138  26.356  1.00  0.00     0.251 C 
ATOM     30  H   UNL A   1      38.867  21.719  25.331  1.00  0.00     0.163 HD
ATOM     31  O   UNL A   1      40.930  22.527  26.396  1.00  0.00    -0.269 OA
BRANCH  29  32
ATOM     32  C   UNL A   1      39.759  24.489  26.938  1.00  0.00     0.039 A 
ATOM     33  C   UNL A   1      40.325  25.580  26.276  1.00  0.00     0.014 A 
ATOM     34  C   UNL A   1      39.228  24.622  28.222  1.00  0.00     0.014 A 
ATOM     35  C   UNL A   1      40.520  26.768  26.971  1.00  0.00     0.010 A 
ATOM     36  C   UNL A   1      39.376  25.833  28.899  1.00  0.00     0.010 A 
ATOM     37  C   UNL A   1      40.085  26.887  28.302  1.00  0.00    -0.014 A 
BRANCH  37  38
ATOM     38  C   UNL A   1      40.478  28.077  29.093  1.00  0.00     0.031 A 
ATOM     39  C   UNL A   1      41.907  28.242  29.539  1.00  0.00     0.074 A 
ATOM     40  C   UNL A   1      39.576  29.041  29.348  1.00  0.00     0.049 A 
ATOM     41  N   UNL A   1      42.445  29.192  30.262  1.00  0.00    -0.248 NA
ATOM     42  C   UNL A   1      42.860  27.204  29.113  1.00  0.00     0.031 C 
ATOM     43  C   UNL A   1      38.175  29.016  28.930  1.00  0.00     0.029 A 
ATOM     44  N   UNL A   1      39.713  30.240  29.999  1.00  0.00    -0.354 N 
ATOM     45  C   UNL A   1      43.784  28.852  30.400  1.00  0.00     0.074 A 
ATOM     46  C   UNL A   1      43.981  27.605  29.695  1.00  0.00     0.031 C 
ATOM     47  C   UNL A   1      37.590  30.167  29.297  1.00  0.00     0.029 A 
ATOM     48  C   UNL A   1      38.561  30.984  30.019  1.00  0.00     0.049 A 
ATOM     49  H   UNL A   1      40.556  30.537  30.413  1.00  0.00     0.167 HD
ATOM     50  C   UNL A   1      44.762  29.524  31.053  1.00  0.00     0.037 A 
ATOM     51  C   UNL A   1      38.315  32.187  30.571  1.00  0.00     0.037 A 
ATOM     52  C   UNL A   1      44.576  30.783  31.722  1.00  0.00     0.049 A 
ATOM     53  C   UNL A   1      39.408  32.895  31.317  1.00  0.00     0.074 A 
ATOM     54  C   UNL A   1      45.508  31.543  32.407  1.00  0.00     0.029 A 
ATOM     55  N   UNL A   1      43.375  31.473  31.779  1.00  0.00    -0.354 N 
ATOM     56  N   UNL A   1      40.657  32.538  31.486  1.00  0.00    -0.248 NA
ATOM     57  C   UNL A   1      39.050  34.163  31.968  1.00  0.00     0.031 C 
ATOM     58  C   UNL A   1      44.866  32.686  32.897  1.00  0.00     0.029 A 
ATOM     59  C   UNL A   1      43.540  32.646  32.496  1.00  0.00     0.049 A 
ATOM     60  H   UNL A   1      42.532  31.173  31.371  1.00  0.00     0.167 HD
ATOM     61  C   UNL A   1      41.232  33.528  32.270  1.00  0.00     0.074 A 
ATOM     62  C   UNL A   1      40.203  34.516  32.519  1.00  0.00     0.031 C 
ATOM     63  C   UNL A   1      42.497  33.605  32.749  1.00  0.00     0.037 A 
BRANCH  50  64
ATOM     64  C   UNL A   1      46.126  28.906  31.087  1.00  0.00     0.064 A 
ATOM     65  C   UNL A   1      46.492  27.994  32.086  1.00  0.00     0.173 A 
ATOM     66  C   UNL A   1      47.057  29.189  30.077  1.00  0.00     0.173 A 
ATOM     67  F   UNL A   1      45.641  27.706  33.081  1.00  0.00    -0.203 F 
ATOM     68  C   UNL A   1      47.748  27.392  32.076  1.00  0.00     0.198 A 
ATOM     69  C   UNL A   1      48.305  28.573  30.061  1.00  0.00     0.198 A 
ATOM     70  F   UNL A   1      46.751  30.056  29.100  1.00  0.00    -0.203 F 
ATOM     71  F   UNL A   1      48.089  26.541  33.055  1.00  0.00    -0.200 F 
ATOM     72  C   UNL A   1      48.650  27.677  31.061  1.00  0.00     0.200 A 
ATOM     73  F   UNL A   1      49.174  28.847  29.078  1.00  0.00    -0.200 F 
ATOM     74  F   UNL A   1      49.855  27.091  31.051  1.00  0.00    -0.200 F 
ENDBRANCH  50  64
BRANCH  51  75
ATOM     75  C   UNL A   1      36.966  32.786  30.441  1.00  0.00     0.064 A 
ATOM     76  C   UNL A   1      36.009  32.618  31.450  1.00  0.00     0.173 A 
ATOM     77  C   UNL A   1      36.618  33.557  29.323  1.00  0.00     0.173 A 
ATOM     78  F   UNL A   1      36.294  31.871  32.525  1.00  0.00    -0.203 F 
ATOM     79  C   UNL A   1      34.749  33.204  31.344  1.00  0.00     0.198 A 
ATOM     80  C   UNL A   1      35.365  34.157  29.229  1.00  0.00     0.198 A 
ATOM     81  F   UNL A   1      37.504  33.742  28.334  1.00  0.00    -0.203 F 
ATOM     82  F   UNL A   1      33.842  33.014  32.312  1.00  0.00    -0.200 F 
ATOM     83  C   UNL A   1      34.431  33.979  30.238  1.00  0.00     0.200 A 
ATOM     84  F   UNL A   1      35.066  34.913  28.164  1.00  0.00    -0.200 F 
ATOM     85  F   UNL A   1      33.223  34.550  30.144  1.00  0.00    -0.200 F 
ENDBRANCH  51  75
BRANCH  63  86
ATOM     86  C   UNL A   1      42.829  34.785  33.606  1.00  0.00     0.064 A 
ATOM     87  C   UNL A   1      43.220  36.004  33.034  1.00  0.00     0.173 A 
ATOM     88  C   UNL A   1      42.715  34.714  35.002  1.00  0.00     0.173 A 
ATOM     89  F   UNL A   1      43.357  36.111  31.703  1.00  0.00    -0.203 F 
ATOM     90  C   UNL A   1      43.499  37.109  33.832  1.00  0.00     0.198 A 
ATOM     91  C   UNL A   1      42.977  35.827  35.795  1.00  0.00     0.198 A 
ATOM     92  F   UNL A   1      42.340  33.569  35.591  1.00  0.00    -0.203 F 
ATOM     93  F   UNL A   1      43.898  38.258  33.267  1.00  0.00    -0.200 F 
ATOM     94  C   UNL A   1      43.372  37.022  35.210  1.00  0.00     0.200 A 
ATOM     95  F   UNL A   1      42.850  35.743  37.126  1.00  0.00    -0.200 F 
ATOM     96  F   UNL A   1      43.637  38.088  35.977  1.00  0.00    -0.200 F 
ENDBRANCH  63  86
ENDBRANCH  37  38
ENDBRANCH  29  32
ENDBRANCH  27  28
ENDBRANCH  26  27
ENDBRANCH   1  26
TORSDOF 14
ENDMDL
MODEL 3
REMARK VINA RESULT:     -12.5      1.584      7.475
REMARK SMILES CC(C)Cc1cc2c(cc1Cl)C=C(C(=O)NCCCCNC(=O)c1ccc(-c3c4nc(c(-c5c(F)c(F)c(F)c(F)c5F)c5ccc([nH]5)c(-c5c(F)c(F)c(F)c(F)c5F)c5nc(c(-c6c(F)c(F)c(F)c(F)c6F)c6ccc3[nH]6)C=C5)C=C4)cc1)[C@@H](C(F)(F)F)O2
REMARK SMILES IDX 18 1 17 2 16 3 14 4 15 5 13 7 5 8 6 9 10 10 7 11 9 12 11 13
REMARK SMILES IDX 8 14 92 15 12 16 87 17 4 18 2 19 1 20 3 21 88 22 89 23 90 24
REMARK SMILES IDX 91 25 19 26 20 27 21 28 22 29 23 31 24 32 25 33 86 34 26 35
REMARK SMILES IDX 85 36 27 37 28 38 29 39 79 40 30 41 84 42 78 43 80 44 31 45
REMARK SMILES IDX 83 46 77 47 76 48 32 50 64 51 44 52 63 53 45 54 48 55 62 56
REMARK SMILES IDX 81 57 46 58 47 59 61 61 82 62 49 63 33 64 34 65 42 66 35 67
REMARK SMILES IDX 36 68 40 69 43 70 37 71 38 72 41 73 39 74 65 75 66 76 74 77
REMARK SMILES IDX 67 78 68 79 72 80 75 81 69 82 70 83 73 84 71 85 50 86 51 87
REMARK SMILES IDX 59 88 52 89 53 90 57 91 60 92 54 93 55 94 58 95 56 96
REMARK H PARENT 16 6 21 30 80 49 48 60
REMARK Flexibility Score: inf
ROOT
ATOM      1  C   UNL A   1      37.051  20.203  25.041  1.00  0.00     0.023 C 
ENDROOT
BRANCH   1   2
ATOM      2  C   UNL A   1      35.804  20.897  25.582  1.00  0.00     0.116 C 
BRANCH   2   3
ATOM      3  N   UNL A   1      34.638  20.032  25.554  1.00  0.00    -0.352 N 
ATOM      4  C   UNL A   1      33.311  20.180  25.328  1.00  0.00     0.251 C 
ATOM      5  O   UNL A   1      32.646  19.142  25.411  1.00  0.00    -0.270 OA
ATOM      6  H   UNL A   1      34.873  19.096  25.749  1.00  0.00     0.163 HD
BRANCH   4   7
ATOM      7  C   UNL A   1      32.631  21.467  24.998  1.00  0.00     0.067 C 
ATOM      8  C   UNL A   1      31.102  25.747  22.819  1.00  0.00    -0.025 A 
ATOM      9  C   UNL A   1      30.633  24.963  23.888  1.00  0.00     0.052 A 
ATOM     10  C   UNL A   1      32.137  25.228  22.020  1.00  0.00     0.045 A 
ATOM     11  C   UNL A   1      31.235  23.746  24.191  1.00  0.00     0.128 A 
ATOM     12  C   UNL A   1      32.706  23.978  22.304  1.00  0.00     0.032 A 
ATOM     13  Cl  UNL A   1      32.780  26.094  20.671  1.00  0.00    -0.084 Cl
ATOM     14  C   UNL A   1      32.269  23.241  23.405  1.00  0.00     0.019 A 
ATOM     15  O   UNL A   1      30.768  23.078  25.287  1.00  0.00    -0.475 OA
ATOM     16  C   UNL A   1      32.863  21.957  23.763  1.00  0.00     0.025 C 
ATOM     17  C   UNL A   1      31.766  22.247  25.949  1.00  0.00     0.314 C 
BRANCH   8  18
ATOM     18  C   UNL A   1      30.485  27.115  22.614  1.00  0.00     0.040 C 
BRANCH  18  19
ATOM     19  C   UNL A   1      31.131  28.222  23.480  1.00  0.00    -0.013 C 
ATOM     20  C   UNL A   1      32.366  28.833  22.813  1.00  0.00     0.008 C 
ATOM     21  C   UNL A   1      30.106  29.317  23.780  1.00  0.00     0.008 C 
ENDBRANCH  18  19
ENDBRANCH   8  18
BRANCH  17  22
ATOM     22  C   UNL A   1      32.585  23.099  26.941  1.00  0.00     0.429 C 
ATOM     23  F   UNL A   1      33.748  23.501  26.370  1.00  0.00    -0.167 F 
ATOM     24  F   UNL A   1      31.931  24.225  27.314  1.00  0.00    -0.167 F 
ATOM     25  F   UNL A   1      32.899  22.436  28.075  1.00  0.00    -0.167 F 
ENDBRANCH  17  22
ENDBRANCH   4   7
ENDBRANCH   2   3
ENDBRANCH   1   2
BRANCH   1  26
ATOM     26  C   UNL A   1      38.306  21.081  25.024  1.00  0.00     0.023 C 
BRANCH  26  27
ATOM     27  C   UNL A   1      39.330  20.786  26.119  1.00  0.00     0.116 C 
BRANCH  27  28
ATOM     28  N   UNL A   1      40.049  19.530  25.950  1.00  0.00    -0.352 N 
ATOM     29  C   UNL A   1      41.403  19.319  26.084  1.00  0.00     0.251 C 
ATOM     30  H   UNL A   1      39.505  18.744  25.714  1.00  0.00     0.163 HD
ATOM     31  O   UNL A   1      41.903  18.222  25.865  1.00  0.00    -0.269 OA
BRANCH  29  32
ATOM     32  C   UNL A   1      42.251  20.475  26.431  1.00  0.00     0.039 A 
ATOM     33  C   UNL A   1      42.352  20.891  27.760  1.00  0.00     0.014 A 
ATOM     34  C   UNL A   1      42.809  21.228  25.397  1.00  0.00     0.014 A 
ATOM     35  C   UNL A   1      42.858  22.155  28.038  1.00  0.00     0.010 A 
ATOM     36  C   UNL A   1      43.368  22.473  25.685  1.00  0.00     0.010 A 
ATOM     37  C   UNL A   1      43.329  22.973  26.996  1.00  0.00    -0.014 A 
BRANCH  37  38
ATOM     38  C   UNL A   1      43.675  24.386  27.278  1.00  0.00     0.031 A 
ATOM     39  C   UNL A   1      45.059  24.894  26.969  1.00  0.00     0.074 A 
ATOM     40  C   UNL A   1      42.735  25.228  27.739  1.00  0.00     0.049 A 
ATOM     41  N   UNL A   1      45.569  26.083  27.169  1.00  0.00    -0.248 NA
ATOM     42  C   UNL A   1      45.994  23.941  26.350  1.00  0.00     0.031 C 
ATOM     43  C   UNL A   1      41.349  24.864  28.033  1.00  0.00     0.029 A 
ATOM     44  N   UNL A   1      42.798  26.569  28.017  1.00  0.00    -0.354 N 
ATOM     45  C   UNL A   1      46.883  26.012  26.730  1.00  0.00     0.074 A 
ATOM     46  C   UNL A   1      47.102  24.662  26.259  1.00  0.00     0.031 C 
ATOM     47  C   UNL A   1      40.680  25.965  28.409  1.00  0.00     0.029 A 
ATOM     48  C   UNL A   1      41.602  27.097  28.432  1.00  0.00     0.049 A 
ATOM     49  H   UNL A   1      43.622  27.101  27.929  1.00  0.00     0.167 HD
ATOM     50  C   UNL A   1      47.822  26.988  26.717  1.00  0.00     0.037 A 
ATOM     51  C   UNL A   1      41.290  28.353  28.801  1.00  0.00     0.037 A 
ATOM     52  C   UNL A   1      47.596  28.340  27.149  1.00  0.00     0.049 A 
ATOM     53  C   UNL A   1      42.358  29.408  28.808  1.00  0.00     0.074 A 
ATOM     54  C   UNL A   1      48.485  29.401  27.169  1.00  0.00     0.029 A 
ATOM     55  N   UNL A   1      46.387  28.820  27.629  1.00  0.00    -0.354 N 
ATOM     56  N   UNL A   1      43.611  29.316  28.440  1.00  0.00    -0.248 NA
ATOM     57  C   UNL A   1      41.971  30.736  29.303  1.00  0.00     0.031 C 
ATOM     58  C   UNL A   1      47.818  30.521  27.679  1.00  0.00     0.029 A 
ATOM     59  C   UNL A   1      46.509  30.160  27.955  1.00  0.00     0.049 A 
ATOM     60  H   UNL A   1      45.565  28.287  27.722  1.00  0.00     0.167 HD
ATOM     61  C   UNL A   1      44.167  30.566  28.669  1.00  0.00     0.074 A 
ATOM     62  C   UNL A   1      43.107  31.409  29.180  1.00  0.00     0.031 C 
ATOM     63  C   UNL A   1      45.445  30.975  28.482  1.00  0.00     0.037 A 
BRANCH  50  64
ATOM     64  C   UNL A   1      49.191  26.628  26.227  1.00  0.00     0.064 A 
ATOM     65  C   UNL A   1      49.589  26.885  24.908  1.00  0.00     0.173 A 
ATOM     66  C   UNL A   1      50.132  26.068  27.104  1.00  0.00     0.173 A 
ATOM     67  F   UNL A   1      48.717  27.403  24.030  1.00  0.00    -0.203 F 
ATOM     68  C   UNL A   1      50.880  26.587  24.481  1.00  0.00     0.198 A 
ATOM     69  C   UNL A   1      51.427  25.786  26.678  1.00  0.00     0.198 A 
ATOM     70  F   UNL A   1      49.797  25.804  28.376  1.00  0.00    -0.203 F 
ATOM     71  F   UNL A   1      51.234  26.817  23.208  1.00  0.00    -0.200 F 
ATOM     72  C   UNL A   1      51.799  26.045  25.367  1.00  0.00     0.200 A 
ATOM     73  F   UNL A   1      52.316  25.266  27.536  1.00  0.00    -0.200 F 
ATOM     74  F   UNL A   1      53.044  25.765  24.956  1.00  0.00    -0.200 F 
ENDBRANCH  50  64
BRANCH  51  75
ATOM     75  C   UNL A   1      39.899  28.670  29.204  1.00  0.00     0.064 A 
ATOM     76  C   UNL A   1      38.981  29.170  28.273  1.00  0.00     0.173 A 
ATOM     77  C   UNL A   1      39.456  28.451  30.516  1.00  0.00     0.173 A 
ATOM     78  F   UNL A   1      39.368  29.412  27.013  1.00  0.00    -0.203 F 
ATOM     79  C   UNL A   1      37.665  29.441  28.642  1.00  0.00     0.198 A 
ATOM     80  C   UNL A   1      38.137  28.705  30.878  1.00  0.00     0.198 A 
ATOM     81  F   UNL A   1      40.303  27.974  31.440  1.00  0.00    -0.203 F 
ATOM     82  F   UNL A   1      36.808  29.938  27.740  1.00  0.00    -0.200 F 
ATOM     83  C   UNL A   1      37.242  29.201  29.942  1.00  0.00     0.200 A 
ATOM     84  F   UNL A   1      37.729  28.462  32.131  1.00  0.00    -0.200 F 
ATOM     85  F   UNL A   1      35.973  29.451  30.292  1.00  0.00    -0.200 F 
ENDBRANCH  51  75
BRANCH  63  86
ATOM     86  C   UNL A   1      45.769  32.388  28.851  1.00  0.00     0.064 A 
ATOM     87  C   UNL A   1      45.602  33.430  27.928  1.00  0.00     0.173 A 
ATOM     88  C   UNL A   1      46.204  32.711  30.144  1.00  0.00     0.173 A 
ATOM     89  F   UNL A   1      45.202  33.163  26.675  1.00  0.00    -0.203 F 
ATOM     90  C   UNL A   1      45.874  34.748  28.283  1.00  0.00     0.198 A 
ATOM     91  C   UNL A   1      46.458  34.032  30.501  1.00  0.00     0.198 A 
ATOM     92  F   UNL A   1      46.373  31.746  31.060  1.00  0.00    -0.203 F 
ATOM     93  F   UNL A   1      45.735  35.726  27.378  1.00  0.00    -0.200 F 
ATOM     94  C   UNL A   1      46.296  35.048  29.570  1.00  0.00     0.200 A 
ATOM     95  F   UNL A   1      46.861  34.322  31.745  1.00  0.00    -0.200 F 
ATOM     96  F   UNL A   1      46.553  36.318  29.912  1.00  0.00    -0.200 F 
ENDBRANCH  63  86
ENDBRANCH  37  38
ENDBRANCH  29  32
ENDBRANCH  27  28
ENDBRANCH  26  27
ENDBRANCH   1  26
TORSDOF 14
ENDMDL
