MODEL 1
REMARK VINA RESULT:     -12.5      0.000      0.000
REMARK SMILES CC(C)(CC(=O)NCCCCNC(=O)c1ccc(-c2c3nc(c(-c4c(F)c(F)c(F)c(F)c4F)c4ccc([nH]4)c(-c4c(F)c(F)c(F)c(F)c4F)c4nc(c(-c5c(F)c(F)c(F)c(F)c5F)c5ccc2[nH]5)C=C4)C=C3)cc1)CC(=O)Nc1cccc(C(=O)NC2CC2)c1
REMARK SMILES IDX 5 1 6 2 7 3 4 5 2 6 1 7 3 8 78 9 79 10 80 11 81 12 82 14
REMARK SMILES IDX 83 15 93 16 84 17 86 18 85 19 87 20 88 21 89 22 90 24 91 25
REMARK SMILES IDX 92 26 8 27 9 28 10 29 11 30 12 31 13 32 14 34 15 35 16 36
REMARK SMILES IDX 77 37 17 38 76 39 18 40 19 41 20 42 70 43 21 44 75 45 69 46
REMARK SMILES IDX 71 47 22 48 74 49 68 50 67 51 23 53 55 54 35 55 54 56 36 57
REMARK SMILES IDX 39 58 53 59 72 60 37 61 38 62 52 64 73 65 40 66 24 67 25 68
REMARK SMILES IDX 33 69 26 70 27 71 31 72 34 73 28 74 29 75 32 76 30 77 56 78
REMARK SMILES IDX 57 79 65 80 58 81 59 82 63 83 66 84 60 85 61 86 64 87 62 88
REMARK SMILES IDX 41 89 42 90 50 91 43 92 44 93 48 94 51 95 45 96 46 97 49 98
REMARK SMILES IDX 47 99
REMARK H PARENT 7 4 81 13 89 23 12 33 71 52 39 63
REMARK Flexibility Score: inf
ROOT
ATOM      1  C   UNL A   1      33.572  20.566  25.092  1.00  0.00     0.220 C 
ATOM      2  O   UNL A   1      32.691  20.031  25.745  1.00  0.00    -0.275 OA
ATOM      3  N   UNL A   1      34.778  19.919  24.997  1.00  0.00    -0.356 N 
ATOM      4  H   UNL A   1      34.803  18.964  24.756  1.00  0.00     0.163 HD
ENDROOT
BRANCH   1   5
ATOM      5  C   UNL A   1      33.482  21.883  24.337  1.00  0.00     0.107 C 
BRANCH   5   6
ATOM      6  C   UNL A   1      32.779  23.136  24.859  1.00  0.00    -0.018 C 
ATOM      7  C   UNL A   1      33.652  23.570  26.068  1.00  0.00     0.012 C 
ATOM      8  C   UNL A   1      32.905  24.264  23.782  1.00  0.00     0.012 C 
BRANCH   6   9
ATOM      9  C   UNL A   1      31.282  23.067  25.247  1.00  0.00     0.107 C 
BRANCH   9  10
ATOM     10  C   UNL A   1      30.650  23.701  26.476  1.00  0.00     0.224 C 
ATOM     11  O   UNL A   1      30.428  22.966  27.453  1.00  0.00    -0.275 OA
ATOM     12  N   UNL A   1      30.460  25.036  26.687  1.00  0.00    -0.326 N 
ATOM     13  H   UNL A   1      29.937  25.227  27.500  1.00  0.00     0.169 HD
BRANCH  12  14
ATOM     14  C   UNL A   1      30.848  26.196  26.000  1.00  0.00     0.041 A 
ATOM     15  C   UNL A   1      31.844  26.953  26.618  1.00  0.00     0.026 A 
ATOM     16  C   UNL A   1      30.175  26.749  24.891  1.00  0.00     0.040 A 
ATOM     17  C   UNL A   1      32.251  28.158  26.064  1.00  0.00     0.003 A 
ATOM     18  C   UNL A   1      30.640  27.893  24.235  1.00  0.00     0.041 A 
ATOM     19  C   UNL A   1      31.684  28.596  24.867  1.00  0.00     0.014 A 
BRANCH  18  20
ATOM     20  C   UNL A   1      30.144  28.512  22.955  1.00  0.00     0.251 C 
ATOM     21  O   UNL A   1      30.402  27.909  21.905  1.00  0.00    -0.269 OA
ATOM     22  N   UNL A   1      29.337  29.617  22.779  1.00  0.00    -0.349 N 
ATOM     23  H   UNL A   1      28.843  29.574  21.927  1.00  0.00     0.164 HD
BRANCH  22  24
ATOM     24  C   UNL A   1      29.031  30.802  23.501  1.00  0.00     0.082 C 
ATOM     25  C   UNL A   1      28.733  32.060  22.696  1.00  0.00     0.027 C 
ATOM     26  C   UNL A   1      27.653  31.432  23.501  1.00  0.00     0.027 C 
ENDBRANCH  22  24
ENDBRANCH  18  20
ENDBRANCH  12  14
ENDBRANCH   9  10
ENDBRANCH   6   9
ENDBRANCH   5   6
ENDBRANCH   1   5
BRANCH   3  27
ATOM     27  C   UNL A   1      36.012  20.625  25.249  1.00  0.00     0.116 C 
BRANCH  27  28
ATOM     28  C   UNL A   1      37.202  19.687  25.001  1.00  0.00     0.023 C 
BRANCH  28  29
ATOM     29  C   UNL A   1      38.536  20.429  24.876  1.00  0.00     0.023 C 
BRANCH  29  30
ATOM     30  C   UNL A   1      39.365  20.383  26.148  1.00  0.00     0.116 C 
BRANCH  30  31
ATOM     31  N   UNL A   1      40.314  19.277  26.125  1.00  0.00    -0.352 N 
ATOM     32  C   UNL A   1      41.685  19.322  26.109  1.00  0.00     0.251 C 
ATOM     33  H   UNL A   1      39.917  18.376  26.120  1.00  0.00     0.163 HD
ATOM     34  O   UNL A   1      42.350  18.335  25.899  1.00  0.00    -0.269 OA
BRANCH  32  35
ATOM     35  C   UNL A   1      42.306  20.636  26.337  1.00  0.00     0.039 A 
ATOM     36  C   UNL A   1      42.561  21.456  25.241  1.00  0.00     0.014 A 
ATOM     37  C   UNL A   1      42.526  21.068  27.648  1.00  0.00     0.014 A 
ATOM     38  C   UNL A   1      43.009  22.752  25.468  1.00  0.00     0.010 A 
ATOM     39  C   UNL A   1      42.877  22.388  27.870  1.00  0.00     0.010 A 
ATOM     40  C   UNL A   1      43.143  23.232  26.782  1.00  0.00    -0.014 A 
BRANCH  40  41
ATOM     41  C   UNL A   1      43.608  24.609  27.043  1.00  0.00     0.031 A 
ATOM     42  C   UNL A   1      42.634  25.624  27.569  1.00  0.00     0.074 A 
ATOM     43  C   UNL A   1      44.878  24.948  26.755  1.00  0.00     0.049 A 
ATOM     44  N   UNL A   1      42.816  26.896  27.814  1.00  0.00    -0.248 NA
ATOM     45  C   UNL A   1      41.260  25.157  27.815  1.00  0.00     0.031 C 
ATOM     46  C   UNL A   1      45.886  24.054  26.181  1.00  0.00     0.029 A 
ATOM     47  N   UNL A   1      45.536  26.141  26.901  1.00  0.00    -0.354 N 
ATOM     48  C   UNL A   1      41.580  27.376  28.222  1.00  0.00     0.074 A 
ATOM     49  C   UNL A   1      40.640  26.284  28.124  1.00  0.00     0.031 C 
ATOM     50  C   UNL A   1      47.043  24.722  26.053  1.00  0.00     0.029 A 
ATOM     51  C   UNL A   1      46.849  26.097  26.500  1.00  0.00     0.049 A 
ATOM     52  H   UNL A   1      45.109  26.953  27.257  1.00  0.00     0.167 HD
ATOM     53  C   UNL A   1      41.267  28.614  28.670  1.00  0.00     0.037 A 
ATOM     54  C   UNL A   1      47.784  27.064  26.497  1.00  0.00     0.037 A 
ATOM     55  C   UNL A   1      42.223  29.680  28.796  1.00  0.00     0.049 A 
ATOM     56  C   UNL A   1      47.413  28.428  27.015  1.00  0.00     0.074 A 
ATOM     57  C   UNL A   1      42.035  30.952  29.303  1.00  0.00     0.029 A 
ATOM     58  N   UNL A   1      43.553  29.592  28.409  1.00  0.00    -0.354 N 
ATOM     59  N   UNL A   1      46.263  28.854  27.476  1.00  0.00    -0.248 NA
ATOM     60  C   UNL A   1      48.475  29.443  27.022  1.00  0.00     0.031 C 
ATOM     61  C   UNL A   1      43.239  31.651  29.177  1.00  0.00     0.029 A 
ATOM     62  C   UNL A   1      44.194  30.797  28.645  1.00  0.00     0.049 A 
ATOM     63  H   UNL A   1      43.978  28.792  28.023  1.00  0.00     0.167 HD
ATOM     64  C   UNL A   1      46.466  30.175  27.854  1.00  0.00     0.074 A 
ATOM     65  C   UNL A   1      47.858  30.472  27.584  1.00  0.00     0.031 C 
ATOM     66  C   UNL A   1      45.584  31.062  28.375  1.00  0.00     0.037 A 
BRANCH  53  67
ATOM     67  C   UNL A   1      39.841  28.870  29.061  1.00  0.00     0.064 A 
ATOM     68  C   UNL A   1      38.895  29.341  28.137  1.00  0.00     0.173 A 
ATOM     69  C   UNL A   1      39.408  28.623  30.373  1.00  0.00     0.173 A 
ATOM     70  F   UNL A   1      39.260  29.609  26.874  1.00  0.00    -0.203 F 
ATOM     71  C   UNL A   1      37.579  29.585  28.519  1.00  0.00     0.198 A 
ATOM     72  C   UNL A   1      38.083  28.836  30.743  1.00  0.00     0.198 A 
ATOM     73  F   UNL A   1      40.270  28.172  31.296  1.00  0.00    -0.203 F 
ATOM     74  F   UNL A   1      36.709  30.091  27.633  1.00  0.00    -0.200 F 
ATOM     75  C   UNL A   1      37.172  29.326  29.819  1.00  0.00     0.200 A 
ATOM     76  F   UNL A   1      37.688  28.573  31.996  1.00  0.00    -0.200 F 
ATOM     77  F   UNL A   1      35.903  29.555  30.183  1.00  0.00    -0.200 F 
ENDBRANCH  53  67
BRANCH  54  78
ATOM     78  C   UNL A   1      49.161  26.769  26.020  1.00  0.00     0.064 A 
ATOM     79  C   UNL A   1      49.528  27.004  24.689  1.00  0.00     0.173 A 
ATOM     80  C   UNL A   1      50.136  26.244  26.881  1.00  0.00     0.173 A 
ATOM     81  F   UNL A   1      48.627  27.490  23.821  1.00  0.00    -0.203 F 
ATOM     82  C   UNL A   1      50.809  26.702  24.229  1.00  0.00     0.198 A 
ATOM     83  C   UNL A   1      51.425  25.972  26.430  1.00  0.00     0.198 A 
ATOM     84  F   UNL A   1      49.838  26.009  28.168  1.00  0.00    -0.203 F 
ATOM     85  F   UNL A   1      51.117  26.892  22.939  1.00  0.00    -0.200 F 
ATOM     86  C   UNL A   1      51.757  26.191  25.102  1.00  0.00     0.200 A 
ATOM     87  F   UNL A   1      52.343  25.492  27.280  1.00  0.00    -0.200 F 
ATOM     88  F   UNL A   1      52.990  25.904  24.660  1.00  0.00    -0.200 F 
ENDBRANCH  54  78
BRANCH  66  89
ATOM     89  C   UNL A   1      46.107  32.425  28.720  1.00  0.00     0.064 A 
ATOM     90  C   UNL A   1      46.104  33.473  27.789  1.00  0.00     0.173 A 
ATOM     91  C   UNL A   1      46.571  32.696  30.016  1.00  0.00     0.173 A 
ATOM     92  F   UNL A   1      45.682  33.259  26.533  1.00  0.00    -0.203 F 
ATOM     93  C   UNL A   1      46.575  34.737  28.134  1.00  0.00     0.198 A 
ATOM     94  C   UNL A   1      47.008  33.970  30.368  1.00  0.00     0.198 A 
ATOM     95  F   UNL A   1      46.584  31.730  30.947  1.00  0.00    -0.203 F 
ATOM     96  F   UNL A   1      46.611  35.710  27.214  1.00  0.00    -0.200 F 
ATOM     97  C   UNL A   1      47.018  34.986  29.424  1.00  0.00     0.200 A 
ATOM     98  F   UNL A   1      47.419  34.213  31.620  1.00  0.00    -0.200 F 
ATOM     99  F   UNL A   1      47.459  36.206  29.758  1.00  0.00    -0.200 F 
ENDBRANCH  66  89
ENDBRANCH  40  41
ENDBRANCH  32  35
ENDBRANCH  30  31
ENDBRANCH  29  30
ENDBRANCH  28  29
ENDBRANCH  27  28
ENDBRANCH   3  27
TORSDOF 17
ENDMDL
MODEL 2
REMARK VINA RESULT:     -12.5      1.195      7.335
REMARK SMILES CC(C)(CC(=O)NCCCCNC(=O)c1ccc(-c2c3nc(c(-c4c(F)c(F)c(F)c(F)c4F)c4ccc([nH]4)c(-c4c(F)c(F)c(F)c(F)c4F)c4nc(c(-c5c(F)c(F)c(F)c(F)c5F)c5ccc2[nH]5)C=C4)C=C3)cc1)CC(=O)Nc1cccc(C(=O)NC2CC2)c1
REMARK SMILES IDX 5 1 6 2 7 3 4 5 2 6 1 7 3 8 78 9 79 10 80 11 81 12 82 14
REMARK SMILES IDX 83 15 93 16 84 17 86 18 85 19 87 20 88 21 89 22 90 24 91 25
REMARK SMILES IDX 92 26 8 27 9 28 10 29 11 30 12 31 13 32 14 34 15 35 16 36
REMARK SMILES IDX 77 37 17 38 76 39 18 40 19 41 20 42 70 43 21 44 75 45 69 46
REMARK SMILES IDX 71 47 22 48 74 49 68 50 67 51 23 53 55 54 35 55 54 56 36 57
REMARK SMILES IDX 39 58 53 59 72 60 37 61 38 62 52 64 73 65 40 66 24 67 25 68
REMARK SMILES IDX 33 69 26 70 27 71 31 72 34 73 28 74 29 75 32 76 30 77 56 78
REMARK SMILES IDX 57 79 65 80 58 81 59 82 63 83 66 84 60 85 61 86 64 87 62 88
REMARK SMILES IDX 41 89 42 90 50 91 43 92 44 93 48 94 51 95 45 96 46 97 49 98
REMARK SMILES IDX 47 99
REMARK H PARENT 7 4 81 13 89 23 12 33 71 52 39 63
REMARK Flexibility Score: inf
ROOT
ATOM      1  C   UNL A   1      33.942  22.448  23.824  1.00  0.00     0.220 C 
ATOM      2  O   UNL A   1      33.428  22.608  22.729  1.00  0.00    -0.275 OA
ATOM      3  N   UNL A   1      35.303  22.278  23.871  1.00  0.00    -0.356 N 
ATOM      4  H   UNL A   1      35.890  22.900  23.382  1.00  0.00     0.163 HD
ENDROOT
BRANCH   1   5
ATOM      5  C   UNL A   1      33.241  22.436  25.173  1.00  0.00     0.107 C 
BRANCH   5   6
ATOM      6  C   UNL A   1      33.366  23.537  26.227  1.00  0.00    -0.018 C 
ATOM      7  C   UNL A   1      34.377  22.953  27.250  1.00  0.00     0.012 C 
ATOM      8  C   UNL A   1      34.054  24.780  25.570  1.00  0.00     0.012 C 
BRANCH   6   9
ATOM      9  C   UNL A   1      32.095  24.063  26.935  1.00  0.00     0.107 C 
BRANCH   9  10
ATOM     10  C   UNL A   1      30.661  23.807  26.500  1.00  0.00     0.224 C 
ATOM     11  O   UNL A   1      29.925  23.181  27.282  1.00  0.00    -0.275 OA
ATOM     12  N   UNL A   1      30.040  24.346  25.411  1.00  0.00    -0.326 N 
ATOM     13  H   UNL A   1      29.145  23.967  25.250  1.00  0.00     0.169 HD
BRANCH  12  14
ATOM     14  C   UNL A   1      30.397  25.325  24.471  1.00  0.00     0.041 A 
ATOM     15  C   UNL A   1      30.950  24.842  23.285  1.00  0.00     0.026 A 
ATOM     16  C   UNL A   1      30.446  26.712  24.718  1.00  0.00     0.040 A 
ATOM     17  C   UNL A   1      31.408  25.724  22.317  1.00  0.00     0.003 A 
ATOM     18  C   UNL A   1      30.781  27.633  23.720  1.00  0.00     0.041 A 
ATOM     19  C   UNL A   1      31.284  27.099  22.519  1.00  0.00     0.014 A 
BRANCH  18  20
ATOM     20  C   UNL A   1      30.721  29.137  23.768  1.00  0.00     0.251 C 
ATOM     21  O   UNL A   1      30.048  29.699  22.894  1.00  0.00    -0.269 OA
ATOM     22  N   UNL A   1      31.227  29.998  24.721  1.00  0.00    -0.349 N 
ATOM     23  H   UNL A   1      30.729  30.847  24.744  1.00  0.00     0.164 HD
BRANCH  22  24
ATOM     24  C   UNL A   1      32.279  29.982  25.676  1.00  0.00     0.082 C 
ATOM     25  C   UNL A   1      32.152  30.910  26.878  1.00  0.00     0.027 C 
ATOM     26  C   UNL A   1      32.105  29.438  27.081  1.00  0.00     0.027 C 
ENDBRANCH  22  24
ENDBRANCH  18  20
ENDBRANCH  12  14
ENDBRANCH   9  10
ENDBRANCH   6   9
ENDBRANCH   5   6
ENDBRANCH   1   5
BRANCH   3  27
ATOM     27  C   UNL A   1      35.882  21.193  24.628  1.00  0.00     0.116 C 
BRANCH  27  28
ATOM     28  C   UNL A   1      37.412  21.323  24.627  1.00  0.00     0.023 C 
BRANCH  28  29
ATOM     29  C   UNL A   1      38.124  20.044  25.075  1.00  0.00     0.023 C 
BRANCH  29  30
ATOM     30  C   UNL A   1      39.193  20.294  26.125  1.00  0.00     0.116 C 
BRANCH  30  31
ATOM     31  N   UNL A   1      40.212  19.253  26.106  1.00  0.00    -0.352 N 
ATOM     32  C   UNL A   1      41.578  19.387  26.126  1.00  0.00     0.251 C 
ATOM     33  H   UNL A   1      39.875  18.328  26.074  1.00  0.00     0.163 HD
ATOM     34  O   UNL A   1      42.311  18.450  25.915  1.00  0.00    -0.269 OA
BRANCH  32  35
ATOM     35  C   UNL A   1      42.105  20.733  26.395  1.00  0.00     0.039 A 
ATOM     36  C   UNL A   1      42.294  21.605  25.325  1.00  0.00     0.014 A 
ATOM     37  C   UNL A   1      42.304  21.138  27.718  1.00  0.00     0.014 A 
ATOM     38  C   UNL A   1      42.652  22.921  25.592  1.00  0.00     0.010 A 
ATOM     39  C   UNL A   1      42.562  22.471  27.982  1.00  0.00     0.010 A 
ATOM     40  C   UNL A   1      42.760  23.366  26.920  1.00  0.00    -0.014 A 
BRANCH  40  41
ATOM     41  C   UNL A   1      43.129  24.764  27.225  1.00  0.00     0.031 A 
ATOM     42  C   UNL A   1      44.527  25.231  26.942  1.00  0.00     0.074 A 
ATOM     43  C   UNL A   1      42.226  25.579  27.802  1.00  0.00     0.049 A 
ATOM     44  N   UNL A   1      45.076  26.394  27.183  1.00  0.00    -0.248 NA
ATOM     45  C   UNL A   1      45.446  24.248  26.344  1.00  0.00     0.031 C 
ATOM     46  C   UNL A   1      40.862  25.204  28.176  1.00  0.00     0.029 A 
ATOM     47  N   UNL A   1      42.326  26.892  28.180  1.00  0.00    -0.354 N 
ATOM     48  C   UNL A   1      46.399  26.271  26.785  1.00  0.00     0.074 A 
ATOM     49  C   UNL A   1      46.594  24.906  26.354  1.00  0.00     0.031 C 
ATOM     50  C   UNL A   1      40.241  26.272  28.701  1.00  0.00     0.029 A 
ATOM     51  C   UNL A   1      41.173  27.393  28.734  1.00  0.00     0.049 A 
ATOM     52  H   UNL A   1      43.145  27.426  28.066  1.00  0.00     0.167 HD
ATOM     53  C   UNL A   1      47.358  27.226  26.750  1.00  0.00     0.037 A 
ATOM     54  C   UNL A   1      40.910  28.622  29.213  1.00  0.00     0.037 A 
ATOM     55  C   UNL A   1      47.137  28.589  27.147  1.00  0.00     0.049 A 
ATOM     56  C   UNL A   1      41.989  29.669  29.150  1.00  0.00     0.074 A 
ATOM     57  C   UNL A   1      48.013  29.657  27.090  1.00  0.00     0.029 A 
ATOM     58  N   UNL A   1      45.947  29.070  27.677  1.00  0.00    -0.354 N 
ATOM     59  N   UNL A   1      43.215  29.568  28.695  1.00  0.00    -0.248 NA
ATOM     60  C   UNL A   1      41.645  31.004  29.656  1.00  0.00     0.031 C 
ATOM     61  C   UNL A   1      47.370  30.774  27.631  1.00  0.00     0.029 A 
ATOM     62  C   UNL A   1      46.074  30.418  27.972  1.00  0.00     0.049 A 
ATOM     63  H   UNL A   1      45.135  28.534  27.821  1.00  0.00     0.167 HD
ATOM     64  C   UNL A   1      43.780  30.829  28.834  1.00  0.00     0.074 A 
ATOM     65  C   UNL A   1      42.754  31.683  29.398  1.00  0.00     0.031 C 
ATOM     66  C   UNL A   1      45.032  31.245  28.525  1.00  0.00     0.037 A 
BRANCH  53  67
ATOM     67  C   UNL A   1      48.718  26.824  26.261  1.00  0.00     0.064 A 
ATOM     68  C   UNL A   1      49.098  26.984  24.919  1.00  0.00     0.173 A 
ATOM     69  C   UNL A   1      49.664  26.290  27.149  1.00  0.00     0.173 A 
ATOM     70  F   UNL A   1      48.226  27.474  24.024  1.00  0.00    -0.203 F 
ATOM     71  C   UNL A   1      50.360  26.595  24.479  1.00  0.00     0.198 A 
ATOM     72  C   UNL A   1      50.937  25.933  26.713  1.00  0.00     0.198 A 
ATOM     73  F   UNL A   1      49.355  26.116  28.443  1.00  0.00    -0.203 F 
ATOM     74  F   UNL A   1      50.677  26.703  23.181  1.00  0.00    -0.200 F 
ATOM     75  C   UNL A   1      51.280  26.077  25.377  1.00  0.00     0.200 A 
ATOM     76  F   UNL A   1      51.831  25.445  27.584  1.00  0.00    -0.200 F 
ATOM     77  F   UNL A   1      52.498  25.710  24.953  1.00  0.00    -0.200 F 
ENDBRANCH  53  67
BRANCH  54  78
ATOM     78  C   UNL A   1      39.564  28.935  29.761  1.00  0.00     0.064 A 
ATOM     79  C   UNL A   1      38.556  29.459  28.940  1.00  0.00     0.173 A 
ATOM     80  C   UNL A   1      39.256  28.722  31.113  1.00  0.00     0.173 A 
ATOM     81  F   UNL A   1      38.805  29.696  27.643  1.00  0.00    -0.203 F 
ATOM     82  C   UNL A   1      37.302  29.782  29.455  1.00  0.00     0.198 A 
ATOM     83  C   UNL A   1      37.993  29.015  31.620  1.00  0.00     0.198 A 
ATOM     84  F   UNL A   1      40.183  28.214  31.940  1.00  0.00    -0.203 F 
ATOM     85  F   UNL A   1      36.373  30.327  28.656  1.00  0.00    -0.200 F 
ATOM     86  C   UNL A   1      37.020  29.555  30.792  1.00  0.00     0.200 A 
ATOM     87  F   UNL A   1      37.719  28.781  32.911  1.00  0.00    -0.200 F 
ATOM     88  F   UNL A   1      35.812  29.863  31.286  1.00  0.00    -0.200 F 
ENDBRANCH  54  78
BRANCH  66  89
ATOM     89  C   UNL A   1      45.350  32.693  28.756  1.00  0.00     0.064 A 
ATOM     90  C   UNL A   1      45.951  33.135  29.943  1.00  0.00     0.173 A 
ATOM     91  C   UNL A   1      45.092  33.641  27.755  1.00  0.00     0.173 A 
ATOM     92  F   UNL A   1      46.206  32.268  30.935  1.00  0.00    -0.203 F 
ATOM     93  C   UNL A   1      46.257  34.480  30.131  1.00  0.00     0.198 A 
ATOM     94  C   UNL A   1      45.430  34.979  27.933  1.00  0.00     0.198 A 
ATOM     95  F   UNL A   1      44.527  33.267  26.597  1.00  0.00    -0.203 F 
ATOM     96  F   UNL A   1      46.785  34.888  31.292  1.00  0.00    -0.200 F 
ATOM     97  C   UNL A   1      46.005  35.399  29.123  1.00  0.00     0.200 A 
ATOM     98  F   UNL A   1      45.202  35.862  26.951  1.00  0.00    -0.200 F 
ATOM     99  F   UNL A   1      46.311  36.691  29.302  1.00  0.00    -0.200 F 
ENDBRANCH  66  89
ENDBRANCH  40  41
ENDBRANCH  32  35
ENDBRANCH  30  31
ENDBRANCH  29  30
ENDBRANCH  28  29
ENDBRANCH  27  28
ENDBRANCH   3  27
TORSDOF 17
ENDMDL
MODEL 3
REMARK VINA RESULT:     -12.4      1.122      2.243
REMARK SMILES CC(C)(CC(=O)NCCCCNC(=O)c1ccc(-c2c3nc(c(-c4c(F)c(F)c(F)c(F)c4F)c4ccc([nH]4)c(-c4c(F)c(F)c(F)c(F)c4F)c4nc(c(-c5c(F)c(F)c(F)c(F)c5F)c5ccc2[nH]5)C=C4)C=C3)cc1)CC(=O)Nc1cccc(C(=O)NC2CC2)c1
REMARK SMILES IDX 5 1 6 2 7 3 4 5 2 6 1 7 3 8 78 9 79 10 80 11 81 12 82 14
REMARK SMILES IDX 83 15 93 16 84 17 86 18 85 19 87 20 88 21 89 22 90 24 91 25
REMARK SMILES IDX 92 26 8 27 9 28 10 29 11 30 12 31 13 32 14 34 15 35 16 36
REMARK SMILES IDX 77 37 17 38 76 39 18 40 19 41 20 42 70 43 21 44 75 45 69 46
REMARK SMILES IDX 71 47 22 48 74 49 68 50 67 51 23 53 55 54 35 55 54 56 36 57
REMARK SMILES IDX 39 58 53 59 72 60 37 61 38 62 52 64 73 65 40 66 24 67 25 68
REMARK SMILES IDX 33 69 26 70 27 71 31 72 34 73 28 74 29 75 32 76 30 77 56 78
REMARK SMILES IDX 57 79 65 80 58 81 59 82 63 83 66 84 60 85 61 86 64 87 62 88
REMARK SMILES IDX 41 89 42 90 50 91 43 92 44 93 48 94 51 95 45 96 46 97 49 98
REMARK SMILES IDX 47 99
REMARK H PARENT 7 4 81 13 89 23 12 33 71 52 39 63
REMARK Flexibility Score: inf
ROOT
ATOM      1  C   UNL A   1      34.282  22.658  23.801  1.00  0.00     0.220 C 
ATOM      2  O   UNL A   1      33.849  22.953  22.699  1.00  0.00    -0.275 OA
ATOM      3  N   UNL A   1      35.633  22.455  23.921  1.00  0.00    -0.356 N 
ATOM      4  H   UNL A   1      36.262  23.117  23.551  1.00  0.00     0.163 HD
ENDROOT
BRANCH   1   5
ATOM      5  C   UNL A   1      33.486  22.506  25.087  1.00  0.00     0.107 C 
BRANCH   5   6
ATOM      6  C   UNL A   1      33.483  23.520  26.231  1.00  0.00    -0.018 C 
ATOM      7  C   UNL A   1      34.526  22.952  27.230  1.00  0.00     0.012 C 
ATOM      8  C   UNL A   1      34.057  24.875  25.699  1.00  0.00     0.012 C 
BRANCH   6   9
ATOM      9  C   UNL A   1      32.153  23.861  26.946  1.00  0.00     0.107 C 
BRANCH   9  10
ATOM     10  C   UNL A   1      30.757  23.588  26.409  1.00  0.00     0.224 C 
ATOM     11  O   UNL A   1      30.008  22.866  27.090  1.00  0.00    -0.275 OA
ATOM     12  N   UNL A   1      30.172  24.198  25.338  1.00  0.00    -0.326 N 
ATOM     13  H   UNL A   1      29.305  23.799  25.093  1.00  0.00     0.169 HD
BRANCH  12  14
ATOM     14  C   UNL A   1      30.536  25.270  24.508  1.00  0.00     0.041 A 
ATOM     15  C   UNL A   1      31.005  24.915  23.243  1.00  0.00     0.026 A 
ATOM     16  C   UNL A   1      30.671  26.610  24.922  1.00  0.00     0.040 A 
ATOM     17  C   UNL A   1      31.462  25.890  22.368  1.00  0.00     0.003 A 
ATOM     18  C   UNL A   1      31.006  27.634  24.030  1.00  0.00     0.041 A 
ATOM     19  C   UNL A   1      31.422  27.232  22.746  1.00  0.00     0.014 A 
BRANCH  18  20
ATOM     20  C   UNL A   1      31.030  29.120  24.267  1.00  0.00     0.251 C 
ATOM     21  O   UNL A   1      30.167  29.794  23.688  1.00  0.00    -0.269 OA
ATOM     22  N   UNL A   1      31.818  29.851  25.133  1.00  0.00    -0.349 N 
ATOM     23  H   UNL A   1      31.383  30.695  25.393  1.00  0.00     0.164 HD
BRANCH  22  24
ATOM     24  C   UNL A   1      33.090  29.705  25.747  1.00  0.00     0.082 C 
ATOM     25  C   UNL A   1      33.318  30.419  27.074  1.00  0.00     0.027 C 
ATOM     26  C   UNL A   1      33.298  28.933  27.035  1.00  0.00     0.027 C 
ENDBRANCH  22  24
ENDBRANCH  18  20
ENDBRANCH  12  14
ENDBRANCH   9  10
ENDBRANCH   6   9
ENDBRANCH   5   6
ENDBRANCH   1   5
BRANCH   3  27
ATOM     27  C   UNL A   1      36.142  21.278  24.586  1.00  0.00     0.116 C 
BRANCH  27  28
ATOM     28  C   UNL A   1      37.627  21.480  24.923  1.00  0.00     0.023 C 
BRANCH  28  29
ATOM     29  C   UNL A   1      38.368  20.165  25.182  1.00  0.00     0.023 C 
BRANCH  29  30
ATOM     30  C   UNL A   1      39.463  20.293  26.227  1.00  0.00     0.116 C 
BRANCH  30  31
ATOM     31  N   UNL A   1      40.426  19.205  26.126  1.00  0.00    -0.352 N 
ATOM     32  C   UNL A   1      41.794  19.274  26.036  1.00  0.00     0.251 C 
ATOM     33  H   UNL A   1      40.044  18.297  26.120  1.00  0.00     0.163 HD
ATOM     34  O   UNL A   1      42.462  18.303  25.767  1.00  0.00    -0.269 OA
BRANCH  32  35
ATOM     35  C   UNL A   1      42.405  20.592  26.263  1.00  0.00     0.039 A 
ATOM     36  C   UNL A   1      42.704  21.390  25.162  1.00  0.00     0.014 A 
ATOM     37  C   UNL A   1      42.573  21.051  27.573  1.00  0.00     0.014 A 
ATOM     38  C   UNL A   1      43.144  22.690  25.380  1.00  0.00     0.010 A 
ATOM     39  C   UNL A   1      42.915  22.374  27.782  1.00  0.00     0.010 A 
ATOM     40  C   UNL A   1      43.225  23.196  26.688  1.00  0.00    -0.014 A 
BRANCH  40  41
ATOM     41  C   UNL A   1      43.680  24.579  26.941  1.00  0.00     0.031 A 
ATOM     42  C   UNL A   1      42.695  25.593  27.447  1.00  0.00     0.074 A 
ATOM     43  C   UNL A   1      44.951  24.923  26.662  1.00  0.00     0.049 A 
ATOM     44  N   UNL A   1      42.867  26.868  27.681  1.00  0.00    -0.248 NA
ATOM     45  C   UNL A   1      41.321  25.121  27.685  1.00  0.00     0.031 C 
ATOM     46  C   UNL A   1      45.969  24.029  26.107  1.00  0.00     0.029 A 
ATOM     47  N   UNL A   1      45.600  26.121  26.802  1.00  0.00    -0.354 N 
ATOM     48  C   UNL A   1      41.624  27.346  28.072  1.00  0.00     0.074 A 
ATOM     49  C   UNL A   1      40.692  26.248  27.977  1.00  0.00     0.031 C 
ATOM     50  C   UNL A   1      47.123  24.701  25.983  1.00  0.00     0.029 A 
ATOM     51  C   UNL A   1      46.917  26.080  26.414  1.00  0.00     0.049 A 
ATOM     52  H   UNL A   1      45.165  26.934  27.146  1.00  0.00     0.167 HD
ATOM     53  C   UNL A   1      41.301  28.586  28.506  1.00  0.00     0.037 A 
ATOM     54  C   UNL A   1      47.846  27.052  26.410  1.00  0.00     0.037 A 
ATOM     55  C   UNL A   1      42.249  29.658  28.630  1.00  0.00     0.049 A 
ATOM     56  C   UNL A   1      47.463  28.419  26.911  1.00  0.00     0.074 A 
ATOM     57  C   UNL A   1      42.049  30.935  29.122  1.00  0.00     0.029 A 
ATOM     58  N   UNL A   1      43.584  29.574  28.256  1.00  0.00    -0.354 N 
ATOM     59  N   UNL A   1      46.306  28.843  27.358  1.00  0.00    -0.248 NA
ATOM     60  C   UNL A   1      48.519  29.440  26.918  1.00  0.00     0.031 C 
ATOM     61  C   UNL A   1      43.250  31.639  29.002  1.00  0.00     0.029 A 
ATOM     62  C   UNL A   1      44.215  30.785  28.487  1.00  0.00     0.049 A 
ATOM     63  H   UNL A   1      44.017  28.773  27.883  1.00  0.00     0.167 HD
ATOM     64  C   UNL A   1      46.498  30.168  27.724  1.00  0.00     0.074 A 
ATOM     65  C   UNL A   1      47.891  30.471  27.464  1.00  0.00     0.031 C 
ATOM     66  C   UNL A   1      45.606  31.056  28.227  1.00  0.00     0.037 A 
BRANCH  53  67
ATOM     67  C   UNL A   1      39.869  28.838  28.880  1.00  0.00     0.064 A 
ATOM     68  C   UNL A   1      39.395  28.611  30.182  1.00  0.00     0.173 A 
ATOM     69  C   UNL A   1      38.962  29.331  27.930  1.00  0.00     0.173 A 
ATOM     70  F   UNL A   1      40.217  28.124  31.125  1.00  0.00    -0.203 F 
ATOM     71  C   UNL A   1      38.062  28.837  30.509  1.00  0.00     0.198 A 
ATOM     72  C   UNL A   1      37.637  29.588  28.269  1.00  0.00     0.198 A 
ATOM     73  F   UNL A   1      39.362  29.565  26.671  1.00  0.00    -0.203 F 
ATOM     74  F   UNL A   1      37.620  28.557  31.744  1.00  0.00    -0.200 F 
ATOM     75  C   UNL A   1      37.185  29.333  29.556  1.00  0.00     0.200 A 
ATOM     76  F   UNL A   1      36.794  30.079  27.351  1.00  0.00    -0.200 F 
ATOM     77  F   UNL A   1      35.903  29.557  29.875  1.00  0.00    -0.200 F 
ENDBRANCH  53  67
BRANCH  54  78
ATOM     78  C   UNL A   1      49.230  26.760  25.950  1.00  0.00     0.064 A 
ATOM     79  C   UNL A   1      50.192  26.254  26.834  1.00  0.00     0.173 A 
ATOM     80  C   UNL A   1      49.620  26.982  24.621  1.00  0.00     0.173 A 
ATOM     81  F   UNL A   1      49.872  26.039  28.120  1.00  0.00    -0.203 F 
ATOM     82  C   UNL A   1      51.497  26.006  26.416  1.00  0.00     0.198 A 
ATOM     83  C   UNL A   1      50.917  26.705  24.195  1.00  0.00     0.198 A 
ATOM     84  F   UNL A   1      48.735  27.458  23.732  1.00  0.00    -0.203 F 
ATOM     85  F   UNL A   1      52.409  25.568  27.296  1.00  0.00    -0.200 F 
ATOM     86  C   UNL A   1      51.857  26.227  25.095  1.00  0.00     0.200 A 
ATOM     87  F   UNL A   1      51.257  26.906  22.915  1.00  0.00    -0.200 F 
ATOM     88  F   UNL A   1      53.112  25.985  24.692  1.00  0.00    -0.200 F 
ENDBRANCH  54  78
BRANCH  66  89
ATOM     89  C   UNL A   1      46.118  32.426  28.564  1.00  0.00     0.064 A 
ATOM     90  C   UNL A   1      46.102  33.469  27.628  1.00  0.00     0.173 A 
ATOM     91  C   UNL A   1      46.584  32.707  29.857  1.00  0.00     0.173 A 
ATOM     92  F   UNL A   1      45.677  33.245  26.375  1.00  0.00    -0.203 F 
ATOM     93  C   UNL A   1      46.562  34.738  27.965  1.00  0.00     0.198 A 
ATOM     94  C   UNL A   1      47.012  33.986  30.201  1.00  0.00     0.198 A 
ATOM     95  F   UNL A   1      46.610  31.746  30.792  1.00  0.00    -0.203 F 
ATOM     96  F   UNL A   1      46.586  35.707  27.041  1.00  0.00    -0.200 F 
ATOM     97  C   UNL A   1      47.008  34.998  29.253  1.00  0.00     0.200 A 
ATOM     98  F   UNL A   1      47.425  34.239  31.450  1.00  0.00    -0.200 F 
ATOM     99  F   UNL A   1      47.440  36.224  29.578  1.00  0.00    -0.200 F 
ENDBRANCH  66  89
ENDBRANCH  40  41
ENDBRANCH  32  35
ENDBRANCH  30  31
ENDBRANCH  29  30
ENDBRANCH  28  29
ENDBRANCH  27  28
ENDBRANCH   3  27
TORSDOF 17
ENDMDL
