MODEL 1
REMARK VINA RESULT:     -11.5      0.000      0.000
REMARK SMILES CCC[C@H](C)NC(=O)C[NH+]1CC(n2cc(C(=O)NCCCCNC(=O)c3ccc(-c4c5nc(c(-c6c(F)c(F)c(F)c(F)c6F)c6ccc([nH]6)c(-c6c(F)c(F)c(F)c(F)c6F)c6nc(c(-c7c(F)c(F)c(F)c(F)c7F)c7ccc4[nH]7)C=C6)C=C5)cc3)nn2)C1
REMARK SMILES IDX 16 1 17 2 18 3 15 5 13 6 14 7 90 8 89 9 12 10 10 11 11 12
REMARK SMILES IDX 91 13 9 15 7 16 6 17 8 19 4 20 5 21 3 22 2 23 1 24 19 25
REMARK SMILES IDX 20 26 21 27 22 28 23 29 24 30 25 32 26 33 27 34 88 35 28 36
REMARK SMILES IDX 87 37 29 38 30 39 31 40 81 41 32 42 86 43 80 44 82 45 33 46
REMARK SMILES IDX 85 47 79 48 78 49 34 51 66 52 46 53 65 54 47 55 50 56 64 57
REMARK SMILES IDX 83 58 48 59 49 60 63 62 84 63 51 64 35 65 36 66 44 67 37 68
REMARK SMILES IDX 38 69 42 70 45 71 39 72 40 73 43 74 41 75 67 76 68 77 76 78
REMARK SMILES IDX 69 79 70 80 74 81 77 82 71 83 72 84 75 85 73 86 52 87 53 88
REMARK SMILES IDX 61 89 54 90 55 91 59 92 62 93 56 94 57 95 60 96 58 97
REMARK H PARENT 18 4 10 14 6 18 23 31 82 50 50 61
REMARK Flexibility Score: inf
ROOT
ATOM      1  C   UNL A   1      34.438  29.840  27.415  1.00  0.00     0.273 C 
ATOM      2  O   UNL A   1      35.171  28.890  27.694  1.00  0.00    -0.267 OA
ATOM      3  N   UNL A   1      34.606  30.996  28.153  1.00  0.00    -0.351 N 
ATOM      4  H   UNL A   1      35.205  30.906  28.929  1.00  0.00     0.163 HD
ENDROOT
BRANCH   1   5
ATOM      5  C   UNL A   1      33.446  29.770  26.345  1.00  0.00     0.170 A 
ATOM      6  N   UNL A   1      32.344  29.491  24.489  1.00  0.00    -0.237 N 
ATOM      7  C   UNL A   1      33.605  29.497  25.004  1.00  0.00     0.145 A 
ATOM      8  N   UNL A   1      31.440  29.788  25.434  1.00  0.00    -0.066 NA
ATOM      9  N   UNL A   1      32.102  30.000  26.567  1.00  0.00    -0.125 NA
BRANCH   6  10
ATOM     10  C   UNL A   1      32.080  29.055  23.152  1.00  0.00     0.218 C 
ATOM     11  N   UNL A   1      32.044  27.190  22.154  1.00  0.00    -0.323 N 
ATOM     12  C   UNL A   1      31.071  27.918  22.993  1.00  0.00     0.296 C 
ATOM     13  C   UNL A   1      33.136  28.014  22.717  1.00  0.00     0.296 C 
ATOM     14  H   UNL A   1      31.863  27.111  21.153  1.00  0.00     0.348 HD
BRANCH  11  15
ATOM     15  C   UNL A   1      32.253  25.778  22.544  1.00  0.00     0.363 C 
BRANCH  15  16
ATOM     16  C   UNL A   1      32.809  24.908  21.421  1.00  0.00     0.275 C 
ATOM     17  N   UNL A   1      33.126  23.598  21.680  1.00  0.00    -0.349 N 
ATOM     18  H   UNL A   1      33.577  23.130  20.942  1.00  0.00     0.163 HD
ATOM     19  O   UNL A   1      33.007  25.346  20.287  1.00  0.00    -0.268 OA
BRANCH  17  20
ATOM     20  C   UNL A   1      32.903  22.788  22.878  1.00  0.00     0.079 C 
ATOM     21  C   UNL A   1      32.103  21.538  22.491  1.00  0.00     0.031 C 
BRANCH  20  22
ATOM     22  C   UNL A   1      34.181  22.400  23.649  1.00  0.00     0.024 C 
BRANCH  22  23
ATOM     23  C   UNL A   1      35.120  23.527  24.077  1.00  0.00    -0.001 C 
ATOM     24  C   UNL A   1      34.518  24.426  25.148  1.00  0.00     0.004 C 
ENDBRANCH  22  23
ENDBRANCH  20  22
ENDBRANCH  17  20
ENDBRANCH  15  16
ENDBRANCH  11  15
ENDBRANCH   6  10
ENDBRANCH   1   5
BRANCH   3  25
ATOM     25  C   UNL A   1      34.042  32.320  27.969  1.00  0.00     0.116 C 
BRANCH  25  26
ATOM     26  C   UNL A   1      35.077  33.436  28.159  1.00  0.00     0.023 C 
BRANCH  26  27
ATOM     27  C   UNL A   1      34.566  34.726  28.810  1.00  0.00     0.023 C 
BRANCH  27  28
ATOM     28  C   UNL A   1      33.246  34.589  29.556  1.00  0.00     0.116 C 
BRANCH  28  29
ATOM     29  N   UNL A   1      33.155  35.428  30.757  1.00  0.00    -0.352 N 
ATOM     30  C   UNL A   1      33.640  35.142  32.030  1.00  0.00     0.251 C 
ATOM     31  H   UNL A   1      32.697  36.293  30.651  1.00  0.00     0.163 HD
ATOM     32  O   UNL A   1      33.203  35.679  33.028  1.00  0.00    -0.269 OA
BRANCH  30  33
ATOM     33  C   UNL A   1      34.757  34.187  32.117  1.00  0.00     0.039 A 
ATOM     34  C   UNL A   1      34.610  32.809  31.932  1.00  0.00     0.014 A 
ATOM     35  C   UNL A   1      36.007  34.763  32.289  1.00  0.00     0.014 A 
ATOM     36  C   UNL A   1      35.763  32.029  31.854  1.00  0.00     0.010 A 
ATOM     37  C   UNL A   1      37.110  34.047  31.946  1.00  0.00     0.010 A 
ATOM     38  C   UNL A   1      37.013  32.667  31.853  1.00  0.00    -0.014 A 
BRANCH  38  39
ATOM     39  C   UNL A   1      38.270  31.952  31.695  1.00  0.00     0.031 A 
ATOM     40  C   UNL A   1      38.967  31.645  32.970  1.00  0.00     0.074 A 
ATOM     41  C   UNL A   1      38.609  31.396  30.508  1.00  0.00     0.049 A 
ATOM     42  N   UNL A   1      40.091  32.119  33.394  1.00  0.00    -0.248 NA
ATOM     43  C   UNL A   1      38.262  30.819  33.967  1.00  0.00     0.031 C 
ATOM     44  C   UNL A   1      37.822  31.349  29.260  1.00  0.00     0.029 A 
ATOM     45  N   UNL A   1      39.698  30.650  30.185  1.00  0.00    -0.354 N 
ATOM     46  C   UNL A   1      40.341  31.485  34.609  1.00  0.00     0.074 A 
ATOM     47  C   UNL A   1      39.107  30.860  35.000  1.00  0.00     0.031 C 
ATOM     48  C   UNL A   1      38.338  30.426  28.421  1.00  0.00     0.029 A 
ATOM     49  C   UNL A   1      39.596  29.973  28.973  1.00  0.00     0.049 A 
ATOM     50  H   UNL A   1      40.494  30.592  30.762  1.00  0.00     0.167 HD
ATOM     51  C   UNL A   1      41.620  31.289  35.037  1.00  0.00     0.037 A 
ATOM     52  C   UNL A   1      40.493  29.096  28.463  1.00  0.00     0.037 A 
ATOM     53  C   UNL A   1      42.535  32.106  34.278  1.00  0.00     0.049 A 
ATOM     54  C   UNL A   1      41.775  29.361  29.153  1.00  0.00     0.074 A 
ATOM     55  C   UNL A   1      42.791  33.453  34.145  1.00  0.00     0.029 A 
ATOM     56  N   UNL A   1      43.081  31.493  33.180  1.00  0.00    -0.354 N 
ATOM     57  N   UNL A   1      42.438  30.481  29.045  1.00  0.00    -0.248 NA
ATOM     58  C   UNL A   1      42.111  28.545  30.307  1.00  0.00     0.031 C 
ATOM     59  C   UNL A   1      43.165  33.635  32.778  1.00  0.00     0.029 A 
ATOM     60  C   UNL A   1      43.187  32.387  32.152  1.00  0.00     0.049 A 
ATOM     61  H   UNL A   1      43.356  30.547  33.139  1.00  0.00     0.167 HD
ATOM     62  C   UNL A   1      42.955  30.709  30.311  1.00  0.00     0.074 A 
ATOM     63  C   UNL A   1      42.841  29.425  30.998  1.00  0.00     0.031 C 
ATOM     64  C   UNL A   1      43.148  31.985  30.760  1.00  0.00     0.037 A 
BRANCH  51  65
ATOM     65  C   UNL A   1      42.106  30.050  35.767  1.00  0.00     0.064 A 
ATOM     66  C   UNL A   1      43.084  30.194  36.774  1.00  0.00     0.173 A 
ATOM     67  C   UNL A   1      41.906  28.730  35.309  1.00  0.00     0.173 A 
ATOM     68  F   UNL A   1      43.377  31.405  37.274  1.00  0.00    -0.203 F 
ATOM     69  C   UNL A   1      43.854  29.115  37.222  1.00  0.00     0.198 A 
ATOM     70  C   UNL A   1      42.640  27.648  35.796  1.00  0.00     0.198 A 
ATOM     71  F   UNL A   1      41.083  28.438  34.295  1.00  0.00    -0.203 F 
ATOM     72  F   UNL A   1      44.858  29.325  38.085  1.00  0.00    -0.200 F 
ATOM     73  C   UNL A   1      43.636  27.844  36.726  1.00  0.00     0.200 A 
ATOM     74  F   UNL A   1      42.428  26.426  35.283  1.00  0.00    -0.200 F 
ATOM     75  F   UNL A   1      44.413  26.820  37.104  1.00  0.00    -0.200 F 
ENDBRANCH  51  65
BRANCH  52  76
ATOM     76  C   UNL A   1      40.218  27.833  27.737  1.00  0.00     0.064 A 
ATOM     77  C   UNL A   1      40.921  27.496  26.570  1.00  0.00     0.173 A 
ATOM     78  C   UNL A   1      39.477  26.800  28.344  1.00  0.00     0.173 A 
ATOM     79  F   UNL A   1      41.687  28.412  25.960  1.00  0.00    -0.203 F 
ATOM     80  C   UNL A   1      40.908  26.194  26.056  1.00  0.00     0.198 A 
ATOM     81  C   UNL A   1      39.466  25.501  27.832  1.00  0.00     0.198 A 
ATOM     82  F   UNL A   1      38.835  27.008  29.504  1.00  0.00    -0.203 F 
ATOM     83  F   UNL A   1      41.642  25.894  24.976  1.00  0.00    -0.200 F 
ATOM     84  C   UNL A   1      40.192  25.195  26.696  1.00  0.00     0.200 A 
ATOM     85  F   UNL A   1      38.805  24.535  28.485  1.00  0.00    -0.200 F 
ATOM     86  F   UNL A   1      40.234  23.933  26.243  1.00  0.00    -0.200 F 
ENDBRANCH  52  76
BRANCH  64  87
ATOM     87  C   UNL A   1      43.144  33.088  29.735  1.00  0.00     0.064 A 
ATOM     88  C   UNL A   1      42.062  33.950  29.488  1.00  0.00     0.173 A 
ATOM     89  C   UNL A   1      44.342  33.354  29.060  1.00  0.00     0.173 A 
ATOM     90  F   UNL A   1      40.908  33.817  30.150  1.00  0.00    -0.203 F 
ATOM     91  C   UNL A   1      42.168  35.007  28.583  1.00  0.00     0.198 A 
ATOM     92  C   UNL A   1      44.458  34.429  28.184  1.00  0.00     0.198 A 
ATOM     93  F   UNL A   1      45.424  32.593  29.291  1.00  0.00    -0.203 F 
ATOM     94  F   UNL A   1      41.118  35.811  28.359  1.00  0.00    -0.200 F 
ATOM     95  C   UNL A   1      43.370  35.250  27.939  1.00  0.00     0.200 A 
ATOM     96  F   UNL A   1      45.635  34.685  27.599  1.00  0.00    -0.200 F 
ATOM     97  F   UNL A   1      43.488  36.290  27.100  1.00  0.00    -0.200 F 
ENDBRANCH  64  87
ENDBRANCH  38  39
ENDBRANCH  30  33
ENDBRANCH  28  29
ENDBRANCH  27  28
ENDBRANCH  26  27
ENDBRANCH  25  26
ENDBRANCH   3  25
TORSDOF 17
ENDMDL
MODEL 2
REMARK VINA RESULT:     -11.2      2.444      3.555
REMARK SMILES CCC[C@H](C)NC(=O)C[NH+]1CC(n2cc(C(=O)NCCCCNC(=O)c3ccc(-c4c5nc(c(-c6c(F)c(F)c(F)c(F)c6F)c6ccc([nH]6)c(-c6c(F)c(F)c(F)c(F)c6F)c6nc(c(-c7c(F)c(F)c(F)c(F)c7F)c7ccc4[nH]7)C=C6)C=C5)cc3)nn2)C1
REMARK SMILES IDX 16 1 17 2 18 3 15 5 13 6 14 7 90 8 89 9 12 10 10 11 11 12
REMARK SMILES IDX 91 13 9 15 7 16 6 17 8 19 4 20 5 21 3 22 2 23 1 24 19 25
REMARK SMILES IDX 20 26 21 27 22 28 23 29 24 30 25 32 26 33 27 34 88 35 28 36
REMARK SMILES IDX 87 37 29 38 30 39 31 40 81 41 32 42 86 43 80 44 82 45 33 46
REMARK SMILES IDX 85 47 79 48 78 49 34 51 66 52 46 53 65 54 47 55 50 56 64 57
REMARK SMILES IDX 83 58 48 59 49 60 63 62 84 63 51 64 35 65 36 66 44 67 37 68
REMARK SMILES IDX 38 69 42 70 45 71 39 72 40 73 43 74 41 75 67 76 68 77 76 78
REMARK SMILES IDX 69 79 70 80 74 81 77 82 71 83 72 84 75 85 73 86 52 87 53 88
REMARK SMILES IDX 61 89 54 90 55 91 59 92 62 93 56 94 57 95 60 96 58 97
REMARK H PARENT 18 4 10 14 6 18 23 31 82 50 50 61
REMARK Flexibility Score: inf
ROOT
ATOM      1  C   UNL A   1      31.909  28.215  27.179  1.00  0.00     0.273 C 
ATOM      2  O   UNL A   1      31.037  27.983  28.017  1.00  0.00    -0.267 OA
ATOM      3  N   UNL A   1      33.042  28.871  27.621  1.00  0.00    -0.351 N 
ATOM      4  H   UNL A   1      32.986  29.215  28.541  1.00  0.00     0.163 HD
ENDROOT
BRANCH   1   5
ATOM      5  C   UNL A   1      31.774  27.808  25.783  1.00  0.00     0.170 A 
ATOM      6  N   UNL A   1      31.638  26.749  23.886  1.00  0.00    -0.237 N 
ATOM      7  C   UNL A   1      31.977  26.579  25.194  1.00  0.00     0.145 A 
ATOM      8  N   UNL A   1      31.284  28.020  23.645  1.00  0.00    -0.066 NA
ATOM      9  N   UNL A   1      31.399  28.690  24.787  1.00  0.00    -0.125 NA
BRANCH   6  10
ATOM     10  C   UNL A   1      31.536  25.642  22.985  1.00  0.00     0.218 C 
ATOM     11  N   UNL A   1      31.548  23.535  23.178  1.00  0.00    -0.323 N 
ATOM     12  C   UNL A   1      30.505  24.569  23.338  1.00  0.00     0.296 C 
ATOM     13  C   UNL A   1      32.591  24.570  23.342  1.00  0.00     0.296 C 
ATOM     14  H   UNL A   1      31.499  22.914  22.371  1.00  0.00     0.348 HD
BRANCH  11  15
ATOM     15  C   UNL A   1      31.636  22.577  24.302  1.00  0.00     0.363 C 
BRANCH  15  16
ATOM     16  C   UNL A   1      32.579  21.407  24.038  1.00  0.00     0.275 C 
ATOM     17  N   UNL A   1      33.794  21.368  24.674  1.00  0.00    -0.349 N 
ATOM     18  H   UNL A   1      34.391  20.645  24.377  1.00  0.00     0.163 HD
ATOM     19  O   UNL A   1      32.299  20.501  23.252  1.00  0.00    -0.268 OA
BRANCH  17  20
ATOM     20  C   UNL A   1      34.345  22.228  25.721  1.00  0.00     0.079 C 
ATOM     21  C   UNL A   1      34.214  21.515  27.072  1.00  0.00     0.031 C 
BRANCH  20  22
ATOM     22  C   UNL A   1      35.798  22.690  25.488  1.00  0.00     0.024 C 
BRANCH  22  23
ATOM     23  C   UNL A   1      36.564  22.057  24.328  1.00  0.00    -0.001 C 
ATOM     24  C   UNL A   1      36.661  22.969  23.113  1.00  0.00     0.004 C 
ENDBRANCH  22  23
ENDBRANCH  20  22
ENDBRANCH  17  20
ENDBRANCH  15  16
ENDBRANCH  11  15
ENDBRANCH   6  10
ENDBRANCH   1   5
BRANCH   3  25
ATOM     25  C   UNL A   1      34.300  29.134  26.947  1.00  0.00     0.116 C 
BRANCH  25  26
ATOM     26  C   UNL A   1      34.984  30.412  27.449  1.00  0.00     0.023 C 
BRANCH  26  27
ATOM     27  C   UNL A   1      34.054  31.569  27.829  1.00  0.00     0.023 C 
BRANCH  27  28
ATOM     28  C   UNL A   1      34.758  32.819  28.339  1.00  0.00     0.116 C 
BRANCH  28  29
ATOM     29  N   UNL A   1      34.620  33.029  29.784  1.00  0.00    -0.352 N 
ATOM     30  C   UNL A   1      35.298  32.370  30.806  1.00  0.00     0.251 C 
ATOM     31  H   UNL A   1      33.973  33.716  30.065  1.00  0.00     0.163 HD
ATOM     32  O   UNL A   1      34.868  32.316  31.940  1.00  0.00    -0.269 OA
BRANCH  30  33
ATOM     33  C   UNL A   1      36.601  31.777  30.465  1.00  0.00     0.039 A 
ATOM     34  C   UNL A   1      37.753  32.531  30.224  1.00  0.00     0.014 A 
ATOM     35  C   UNL A   1      36.640  30.391  30.504  1.00  0.00     0.014 A 
ATOM     36  C   UNL A   1      38.966  31.856  30.093  1.00  0.00     0.010 A 
ATOM     37  C   UNL A   1      37.844  29.775  30.644  1.00  0.00     0.010 A 
ATOM     38  C   UNL A   1      38.997  30.472  30.316  1.00  0.00    -0.014 A 
BRANCH  38  39
ATOM     39  C   UNL A   1      40.223  29.688  30.284  1.00  0.00     0.031 A 
ATOM     40  C   UNL A   1      40.838  29.454  31.615  1.00  0.00     0.074 A 
ATOM     41  C   UNL A   1      40.592  29.021  29.164  1.00  0.00     0.049 A 
ATOM     42  N   UNL A   1      41.962  29.908  32.061  1.00  0.00    -0.248 NA
ATOM     43  C   UNL A   1      40.042  28.746  32.634  1.00  0.00     0.031 C 
ATOM     44  C   UNL A   1      39.868  28.909  27.884  1.00  0.00     0.029 A 
ATOM     45  N   UNL A   1      41.656  28.201  28.962  1.00  0.00    -0.354 N 
ATOM     46  C   UNL A   1      42.118  29.364  33.334  1.00  0.00     0.074 A 
ATOM     47  C   UNL A   1      40.835  28.833  33.705  1.00  0.00     0.031 C 
ATOM     48  C   UNL A   1      40.377  27.898  27.150  1.00  0.00     0.029 A 
ATOM     49  C   UNL A   1      41.581  27.432  27.804  1.00  0.00     0.049 A 
ATOM     50  H   UNL A   1      42.418  28.153  29.584  1.00  0.00     0.167 HD
ATOM     51  C   UNL A   1      43.361  29.144  33.845  1.00  0.00     0.037 A 
ATOM     52  C   UNL A   1      42.456  26.475  27.414  1.00  0.00     0.037 A 
ATOM     53  C   UNL A   1      44.354  29.852  33.074  1.00  0.00     0.049 A 
ATOM     54  C   UNL A   1      43.714  26.735  28.150  1.00  0.00     0.074 A 
ATOM     55  C   UNL A   1      44.686  31.170  32.849  1.00  0.00     0.029 A 
ATOM     56  N   UNL A   1      44.923  29.125  32.060  1.00  0.00    -0.354 N 
ATOM     57  N   UNL A   1      44.437  27.810  27.990  1.00  0.00    -0.248 NA
ATOM     58  C   UNL A   1      43.949  26.001  29.382  1.00  0.00     0.031 C 
ATOM     59  C   UNL A   1      45.137  31.222  31.494  1.00  0.00     0.029 A 
ATOM     60  C   UNL A   1      45.126  29.926  30.971  1.00  0.00     0.049 A 
ATOM     61  H   UNL A   1      45.150  28.168  32.109  1.00  0.00     0.167 HD
ATOM     62  C   UNL A   1      44.902  28.116  29.259  1.00  0.00     0.074 A 
ATOM     63  C   UNL A   1      44.687  26.900  30.039  1.00  0.00     0.031 C 
ATOM     64  C   UNL A   1      45.136  29.414  29.616  1.00  0.00     0.037 A 
BRANCH  51  65
ATOM     65  C   UNL A   1      43.746  27.947  34.696  1.00  0.00     0.064 A 
ATOM     66  C   UNL A   1      43.494  26.651  34.199  1.00  0.00     0.173 A 
ATOM     67  C   UNL A   1      44.035  28.016  36.076  1.00  0.00     0.173 A 
ATOM     68  F   UNL A   1      43.187  26.463  32.906  1.00  0.00    -0.203 F 
ATOM     69  C   UNL A   1      43.454  25.529  35.034  1.00  0.00     0.198 A 
ATOM     70  C   UNL A   1      44.046  26.887  36.896  1.00  0.00     0.198 A 
ATOM     71  F   UNL A   1      44.205  29.177  36.718  1.00  0.00    -0.203 F 
ATOM     72  F   UNL A   1      43.083  24.341  34.538  1.00  0.00    -0.200 F 
ATOM     73  C   UNL A   1      43.723  25.650  36.385  1.00  0.00     0.200 A 
ATOM     74  F   UNL A   1      44.286  27.031  38.209  1.00  0.00    -0.200 F 
ATOM     75  F   UNL A   1      43.622  24.592  37.200  1.00  0.00    -0.200 F 
ENDBRANCH  51  65
BRANCH  52  76
ATOM     76  C   UNL A   1      42.153  25.171  26.777  1.00  0.00     0.064 A 
ATOM     77  C   UNL A   1      42.887  24.713  25.671  1.00  0.00     0.173 A 
ATOM     78  C   UNL A   1      41.342  24.222  27.429  1.00  0.00     0.173 A 
ATOM     79  F   UNL A   1      43.718  25.545  25.027  1.00  0.00    -0.203 F 
ATOM     80  C   UNL A   1      42.835  23.376  25.260  1.00  0.00     0.198 A 
ATOM     81  C   UNL A   1      41.293  22.887  27.019  1.00  0.00     0.198 A 
ATOM     82  F   UNL A   1      40.664  24.548  28.540  1.00  0.00    -0.203 F 
ATOM     83  F   UNL A   1      43.599  22.960  24.240  1.00  0.00    -0.200 F 
ATOM     84  C   UNL A   1      42.049  22.462  25.943  1.00  0.00     0.200 A 
ATOM     85  F   UNL A   1      40.562  22.005  27.715  1.00  0.00    -0.200 F 
ATOM     86  F   UNL A   1      42.053  21.168  25.592  1.00  0.00    -0.200 F 
ENDBRANCH  52  76
BRANCH  64  87
ATOM     87  C   UNL A   1      45.241  30.429  28.508  1.00  0.00     0.064 A 
ATOM     88  C   UNL A   1      44.190  31.253  28.073  1.00  0.00     0.173 A 
ATOM     89  C   UNL A   1      46.505  30.653  27.947  1.00  0.00     0.173 A 
ATOM     90  F   UNL A   1      42.971  31.162  28.614  1.00  0.00    -0.203 F 
ATOM     91  C   UNL A   1      44.391  32.233  27.099  1.00  0.00     0.198 A 
ATOM     92  C   UNL A   1      46.713  31.652  27.002  1.00  0.00     0.198 A 
ATOM     93  F   UNL A   1      47.558  29.927  28.357  1.00  0.00    -0.203 F 
ATOM     94  F   UNL A   1      43.369  33.002  26.696  1.00  0.00    -0.200 F 
ATOM     95  C   UNL A   1      45.655  32.437  26.572  1.00  0.00     0.200 A 
ATOM     96  F   UNL A   1      47.946  31.874  26.529  1.00  0.00    -0.200 F 
ATOM     97  F   UNL A   1      45.860  33.405  25.667  1.00  0.00    -0.200 F 
ENDBRANCH  64  87
ENDBRANCH  38  39
ENDBRANCH  30  33
ENDBRANCH  28  29
ENDBRANCH  27  28
ENDBRANCH  26  27
ENDBRANCH  25  26
ENDBRANCH   3  25
TORSDOF 17
ENDMDL
MODEL 3
REMARK VINA RESULT:     -11.2      3.004      4.190
REMARK SMILES CCC[C@H](C)NC(=O)C[NH+]1CC(n2cc(C(=O)NCCCCNC(=O)c3ccc(-c4c5nc(c(-c6c(F)c(F)c(F)c(F)c6F)c6ccc([nH]6)c(-c6c(F)c(F)c(F)c(F)c6F)c6nc(c(-c7c(F)c(F)c(F)c(F)c7F)c7ccc4[nH]7)C=C6)C=C5)cc3)nn2)C1
REMARK SMILES IDX 16 1 17 2 18 3 15 5 13 6 14 7 90 8 89 9 12 10 10 11 11 12
REMARK SMILES IDX 91 13 9 15 7 16 6 17 8 19 4 20 5 21 3 22 2 23 1 24 19 25
REMARK SMILES IDX 20 26 21 27 22 28 23 29 24 30 25 32 26 33 27 34 88 35 28 36
REMARK SMILES IDX 87 37 29 38 30 39 31 40 81 41 32 42 86 43 80 44 82 45 33 46
REMARK SMILES IDX 85 47 79 48 78 49 34 51 66 52 46 53 65 54 47 55 50 56 64 57
REMARK SMILES IDX 83 58 48 59 49 60 63 62 84 63 51 64 35 65 36 66 44 67 37 68
REMARK SMILES IDX 38 69 42 70 45 71 39 72 40 73 43 74 41 75 67 76 68 77 76 78
REMARK SMILES IDX 69 79 70 80 74 81 77 82 71 83 72 84 75 85 73 86 52 87 53 88
REMARK SMILES IDX 61 89 54 90 55 91 59 92 62 93 56 94 57 95 60 96 58 97
REMARK H PARENT 18 4 10 14 6 18 23 31 82 50 50 61
REMARK Flexibility Score: inf
ROOT
ATOM      1  C   UNL A   1      31.927  27.840  27.181  1.00  0.00     0.273 C 
ATOM      2  O   UNL A   1      31.008  27.813  28.001  1.00  0.00    -0.267 OA
ATOM      3  N   UNL A   1      33.044  28.580  27.518  1.00  0.00    -0.351 N 
ATOM      4  H   UNL A   1      32.944  29.131  28.327  1.00  0.00     0.163 HD
ENDROOT
BRANCH   1   5
ATOM      5  C   UNL A   1      31.860  27.115  25.915  1.00  0.00     0.170 A 
ATOM      6  N   UNL A   1      31.992  25.683  24.281  1.00  0.00    -0.237 N 
ATOM      7  C   UNL A   1      32.447  25.926  25.541  1.00  0.00     0.145 A 
ATOM      8  N   UNL A   1      31.200  26.679  23.858  1.00  0.00    -0.066 NA
ATOM      9  N   UNL A   1      31.140  27.582  24.832  1.00  0.00    -0.125 NA
BRANCH   6  10
ATOM     10  C   UNL A   1      32.232  24.436  23.622  1.00  0.00     0.218 C 
ATOM     11  N   UNL A   1      32.946  22.532  24.210  1.00  0.00    -0.323 N 
ATOM     12  C   UNL A   1      31.626  23.193  24.274  1.00  0.00     0.296 C 
ATOM     13  C   UNL A   1      33.593  23.855  24.068  1.00  0.00     0.296 C 
ATOM     14  H   UNL A   1      33.079  21.772  23.544  1.00  0.00     0.348 HD
BRANCH  11  15
ATOM     15  C   UNL A   1      33.382  21.914  25.481  1.00  0.00     0.363 C 
BRANCH  15  16
ATOM     16  C   UNL A   1      34.471  20.859  25.307  1.00  0.00     0.275 C 
ATOM     17  N   UNL A   1      34.113  19.544  25.148  1.00  0.00    -0.349 N 
ATOM     18  H   UNL A   1      34.865  18.910  25.148  1.00  0.00     0.163 HD
ATOM     19  O   UNL A   1      35.670  21.143  25.327  1.00  0.00    -0.268 OA
BRANCH  17  20
ATOM     20  C   UNL A   1      32.795  18.934  24.978  1.00  0.00     0.079 C 
ATOM     21  C   UNL A   1      32.531  18.724  23.482  1.00  0.00     0.031 C 
BRANCH  20  22
ATOM     22  C   UNL A   1      32.579  17.621  25.759  1.00  0.00     0.024 C 
BRANCH  22  23
ATOM     23  C   UNL A   1      33.349  16.386  25.293  1.00  0.00    -0.001 C 
ATOM     24  C   UNL A   1      32.528  15.108  25.381  1.00  0.00     0.004 C 
ENDBRANCH  22  23
ENDBRANCH  20  22
ENDBRANCH  17  20
ENDBRANCH  15  16
ENDBRANCH  11  15
ENDBRANCH   6  10
ENDBRANCH   1   5
BRANCH   3  25
ATOM     25  C   UNL A   1      34.340  28.675  26.872  1.00  0.00     0.116 C 
BRANCH  25  26
ATOM     26  C   UNL A   1      35.102  29.949  27.258  1.00  0.00     0.023 C 
BRANCH  26  27
ATOM     27  C   UNL A   1      34.242  31.166  27.617  1.00  0.00     0.023 C 
BRANCH  27  28
ATOM     28  C   UNL A   1      35.019  32.384  28.094  1.00  0.00     0.116 C 
BRANCH  28  29
ATOM     29  N   UNL A   1      34.873  32.655  29.529  1.00  0.00    -0.352 N 
ATOM     30  C   UNL A   1      35.512  32.009  30.584  1.00  0.00     0.251 C 
ATOM     31  H   UNL A   1      34.251  33.377  29.775  1.00  0.00     0.163 HD
ATOM     32  O   UNL A   1      35.068  32.015  31.714  1.00  0.00    -0.269 OA
BRANCH  30  33
ATOM     33  C   UNL A   1      36.794  31.351  30.282  1.00  0.00     0.039 A 
ATOM     34  C   UNL A   1      37.973  32.048  30.006  1.00  0.00     0.014 A 
ATOM     35  C   UNL A   1      36.782  29.968  30.397  1.00  0.00     0.014 A 
ATOM     36  C   UNL A   1      39.161  31.324  29.917  1.00  0.00     0.010 A 
ATOM     37  C   UNL A   1      37.962  29.318  30.576  1.00  0.00     0.010 A 
ATOM     38  C   UNL A   1      39.141  29.953  30.216  1.00  0.00    -0.014 A 
BRANCH  38  39
ATOM     39  C   UNL A   1      40.337  29.125  30.233  1.00  0.00     0.031 A 
ATOM     40  C   UNL A   1      40.892  28.873  31.588  1.00  0.00     0.074 A 
ATOM     41  C   UNL A   1      40.724  28.441  29.130  1.00  0.00     0.049 A 
ATOM     42  N   UNL A   1      42.014  29.288  32.075  1.00  0.00    -0.248 NA
ATOM     43  C   UNL A   1      40.032  28.200  32.577  1.00  0.00     0.031 C 
ATOM     44  C   UNL A   1      40.046  28.351  27.823  1.00  0.00     0.029 A 
ATOM     45  N   UNL A   1      41.764  27.581  28.971  1.00  0.00    -0.354 N 
ATOM     46  C   UNL A   1      42.101  28.743  33.354  1.00  0.00     0.074 A 
ATOM     47  C   UNL A   1      40.786  28.261  33.678  1.00  0.00     0.031 C 
ATOM     48  C   UNL A   1      40.545  27.318  27.112  1.00  0.00     0.029 A 
ATOM     49  C   UNL A   1      41.704  26.811  27.813  1.00  0.00     0.049 A 
ATOM     50  H   UNL A   1      42.499  27.508  29.622  1.00  0.00     0.167 HD
ATOM     51  C   UNL A   1      43.315  28.480  33.913  1.00  0.00     0.037 A 
ATOM     52  C   UNL A   1      42.558  25.821  27.459  1.00  0.00     0.037 A 
ATOM     53  C   UNL A   1      44.362  29.148  33.179  1.00  0.00     0.049 A 
ATOM     54  C   UNL A   1      43.796  26.037  28.242  1.00  0.00     0.074 A 
ATOM     55  C   UNL A   1      44.750  30.452  32.964  1.00  0.00     0.029 A 
ATOM     56  N   UNL A   1      44.942  28.397  32.190  1.00  0.00    -0.354 N 
ATOM     57  N   UNL A   1      44.564  27.084  28.107  1.00  0.00    -0.248 NA
ATOM     58  C   UNL A   1      43.957  25.300  29.484  1.00  0.00     0.031 C 
ATOM     59  C   UNL A   1      45.255  30.482  31.627  1.00  0.00     0.029 A 
ATOM     60  C   UNL A   1      45.216  29.185  31.107  1.00  0.00     0.049 A 
ATOM     61  H   UNL A   1      45.131  27.432  32.250  1.00  0.00     0.167 HD
ATOM     62  C   UNL A   1      44.991  27.378  29.393  1.00  0.00     0.074 A 
ATOM     63  C   UNL A   1      44.701  26.174  30.166  1.00  0.00     0.031 C 
ATOM     64  C   UNL A   1      45.259  28.668  29.755  1.00  0.00     0.037 A 
BRANCH  51  65
ATOM     65  C   UNL A   1      43.622  27.273  34.782  1.00  0.00     0.064 A 
ATOM     66  C   UNL A   1      44.126  27.483  36.084  1.00  0.00     0.173 A 
ATOM     67  C   UNL A   1      43.755  25.956  34.291  1.00  0.00     0.173 A 
ATOM     68  F   UNL A   1      44.074  28.699  36.648  1.00  0.00    -0.203 F 
ATOM     69  C   UNL A   1      44.783  26.475  36.798  1.00  0.00     0.198 A 
ATOM     70  C   UNL A   1      44.365  24.940  35.028  1.00  0.00     0.198 A 
ATOM     71  F   UNL A   1      43.412  25.616  33.044  1.00  0.00    -0.203 F 
ATOM     72  F   UNL A   1      45.358  26.758  37.974  1.00  0.00    -0.200 F 
ATOM     73  C   UNL A   1      44.908  25.206  36.265  1.00  0.00     0.200 A 
ATOM     74  F   UNL A   1      44.496  23.722  34.482  1.00  0.00    -0.200 F 
ATOM     75  F   UNL A   1      45.593  24.256  36.916  1.00  0.00    -0.200 F 
ENDBRANCH  51  65
BRANCH  52  76
ATOM     76  C   UNL A   1      42.232  24.527  26.814  1.00  0.00     0.064 A 
ATOM     77  C   UNL A   1      43.023  24.011  25.776  1.00  0.00     0.173 A 
ATOM     78  C   UNL A   1      41.319  23.635  27.410  1.00  0.00     0.173 A 
ATOM     79  F   UNL A   1      43.950  24.784  25.190  1.00  0.00    -0.203 F 
ATOM     80  C   UNL A   1      42.928  22.672  25.376  1.00  0.00     0.198 A 
ATOM     81  C   UNL A   1      41.226  22.299  27.012  1.00  0.00     0.198 A 
ATOM     82  F   UNL A   1      40.575  24.016  28.459  1.00  0.00    -0.203 F 
ATOM     83  F   UNL A   1      43.744  22.199  24.424  1.00  0.00    -0.200 F 
ATOM     84  C   UNL A   1      42.039  21.815  26.004  1.00  0.00     0.200 A 
ATOM     85  F   UNL A   1      40.393  21.470  27.657  1.00  0.00    -0.200 F 
ATOM     86  F   UNL A   1      41.996  20.518  25.669  1.00  0.00    -0.200 F 
ENDBRANCH  52  76
BRANCH  64  87
ATOM     87  C   UNL A   1      45.444  29.674  28.649  1.00  0.00     0.064 A 
ATOM     88  C   UNL A   1      44.425  30.492  28.131  1.00  0.00     0.173 A 
ATOM     89  C   UNL A   1      46.745  29.897  28.182  1.00  0.00     0.173 A 
ATOM     90  F   UNL A   1      43.170  30.401  28.581  1.00  0.00    -0.203 F 
ATOM     91  C   UNL A   1      44.696  31.464  27.166  1.00  0.00     0.198 A 
ATOM     92  C   UNL A   1      47.020  30.889  27.247  1.00  0.00     0.198 A 
ATOM     93  F   UNL A   1      47.766  29.178  28.675  1.00  0.00    -0.203 F 
ATOM     94  F   UNL A   1      43.705  32.227  26.682  1.00  0.00    -0.200 F 
ATOM     95  C   UNL A   1      45.995  31.667  26.733  1.00  0.00     0.200 A 
ATOM     96  F   UNL A   1      48.284  31.111  26.864  1.00  0.00    -0.200 F 
ATOM     97  F   UNL A   1      46.265  32.628  25.837  1.00  0.00    -0.200 F 
ENDBRANCH  64  87
ENDBRANCH  38  39
ENDBRANCH  30  33
ENDBRANCH  28  29
ENDBRANCH  27  28
ENDBRANCH  26  27
ENDBRANCH  25  26
ENDBRANCH   3  25
TORSDOF 17
ENDMDL
