MODEL 1
REMARK VINA RESULT:     -14.0      0.000      0.000
REMARK SMILES CC1(C)[C@@](C)(C(=O)NCCCCNC(=O)c2ccc(-c3c4nc(c(-c5c(F)c(F)c(F)c(F)c5F)c5ccc([nH]5)c(-c5c(F)c(F)c(F)c(F)c5F)c5nc(c(-c6c(F)c(F)c(F)c(F)c6F)c6ccc3[nH]6)C=C5)C=C4)cc2)CC[C@]1(C)C(=O)Nc1ccc(Cl)cc1Cl
REMARK SMILES IDX 10 1 9 2 8 3 6 4 7 5 4 7 1 8 2 9 3 10 81 11 5 12 79 13 80 14
REMARK SMILES IDX 82 15 83 16 84 17 85 18 86 20 87 21 92 22 88 23 91 24 93 25
REMARK SMILES IDX 89 26 90 27 11 28 12 29 13 30 14 31 15 33 16 34 17 35 78 36
REMARK SMILES IDX 18 37 77 38 19 39 20 40 21 41 71 42 22 43 76 44 70 45 72 46
REMARK SMILES IDX 23 47 75 48 69 49 68 50 24 52 56 53 36 54 55 55 37 56 40 57
REMARK SMILES IDX 54 58 73 59 38 60 39 61 53 63 74 64 41 65 25 66 26 67 34 68
REMARK SMILES IDX 27 69 28 70 32 71 35 72 29 73 30 74 33 75 31 76 57 77 58 78
REMARK SMILES IDX 66 79 59 80 60 81 64 82 67 83 61 84 62 85 65 86 63 87 42 88
REMARK SMILES IDX 43 89 51 90 44 91 45 92 49 93 52 94 46 95 47 96 50 97 48 98
REMARK H PARENT 8 6 85 19 13 32 72 51 40 62
REMARK Flexibility Score: inf
ROOT
ATOM      1  C   UNL A   1      31.812  30.678  26.476  1.00  0.00     0.023 C 
ENDROOT
BRANCH   1   2
ATOM      2  C   UNL A   1      31.380  30.144  25.099  1.00  0.00     0.116 C 
BRANCH   2   3
ATOM      3  N   UNL A   1      32.405  29.337  24.449  1.00  0.00    -0.356 N 
ATOM      4  C   UNL A   1      32.500  28.039  24.036  1.00  0.00     0.226 C 
ATOM      5  O   UNL A   1      33.574  27.765  23.485  1.00  0.00    -0.274 OA
ATOM      6  H   UNL A   1      33.223  29.851  24.262  1.00  0.00     0.163 HD
BRANCH   4   7
ATOM      7  C   UNL A   1      31.375  26.952  24.189  1.00  0.00     0.052 C 
ATOM      8  C   UNL A   1      31.405  27.262  26.711  1.00  0.00     0.013 C 
ATOM      9  C   UNL A   1      31.224  26.258  25.608  1.00  0.00    -0.007 C 
ATOM     10  C   UNL A   1      29.802  25.655  25.755  1.00  0.00     0.013 C 
ATOM     11  C   UNL A   1      32.339  25.129  25.686  1.00  0.00     0.053 C 
ATOM     12  C   UNL A   1      30.079  27.570  23.610  1.00  0.00     0.022 C 
ATOM     13  C   UNL A   1      31.721  25.716  23.309  1.00  0.00     0.018 C 
ATOM     14  C   UNL A   1      32.349  24.635  24.204  1.00  0.00     0.018 C 
ATOM     15  C   UNL A   1      33.773  25.609  25.979  1.00  0.00     0.022 C 
BRANCH  11  16
ATOM     16  C   UNL A   1      31.987  23.931  26.661  1.00  0.00     0.230 C 
ATOM     17  O   UNL A   1      30.943  23.966  27.327  1.00  0.00    -0.274 OA
ATOM     18  N   UNL A   1      32.803  22.859  26.938  1.00  0.00    -0.324 N 
ATOM     19  H   UNL A   1      32.565  22.398  27.775  1.00  0.00     0.170 HD
BRANCH  18  20
ATOM     20  C   UNL A   1      33.904  22.285  26.281  1.00  0.00     0.060 A 
ATOM     21  C   UNL A   1      35.191  22.766  26.525  1.00  0.00     0.029 A 
ATOM     22  C   UNL A   1      33.736  21.241  25.344  1.00  0.00     0.066 A 
ATOM     23  C   UNL A   1      36.303  22.119  25.973  1.00  0.00     0.023 A 
ATOM     24  C   UNL A   1      34.849  20.548  24.852  1.00  0.00     0.043 A 
ATOM     25  Cl  UNL A   1      32.172  20.641  24.920  1.00  0.00    -0.082 Cl
ATOM     26  C   UNL A   1      36.127  20.981  25.187  1.00  0.00     0.042 A 
ATOM     27  Cl  UNL A   1      37.501  20.099  24.645  1.00  0.00    -0.084 Cl
ENDBRANCH  18  20
ENDBRANCH  11  16
ENDBRANCH   4   7
ENDBRANCH   2   3
ENDBRANCH   1   2
BRANCH   1  28
ATOM     28  C   UNL A   1      31.574  32.155  26.704  1.00  0.00     0.023 C 
BRANCH  28  29
ATOM     29  C   UNL A   1      32.740  32.852  27.367  1.00  0.00     0.116 C 
BRANCH  29  30
ATOM     30  N   UNL A   1      32.462  34.244  27.704  1.00  0.00    -0.352 N 
ATOM     31  C   UNL A   1      33.039  35.025  28.677  1.00  0.00     0.251 C 
ATOM     32  H   UNL A   1      31.767  34.682  27.163  1.00  0.00     0.163 HD
ATOM     33  O   UNL A   1      32.608  36.147  28.926  1.00  0.00    -0.269 OA
BRANCH  31  34
ATOM     34  C   UNL A   1      34.166  34.467  29.441  1.00  0.00     0.039 A 
ATOM     35  C   UNL A   1      33.912  33.654  30.546  1.00  0.00     0.014 A 
ATOM     36  C   UNL A   1      35.469  34.663  28.980  1.00  0.00     0.014 A 
ATOM     37  C   UNL A   1      34.969  32.964  31.137  1.00  0.00     0.010 A 
ATOM     38  C   UNL A   1      36.489  33.873  29.479  1.00  0.00     0.010 A 
ATOM     39  C   UNL A   1      36.256  33.033  30.576  1.00  0.00    -0.014 A 
BRANCH  39  40
ATOM     40  C   UNL A   1      37.396  32.273  31.135  1.00  0.00     0.031 A 
ATOM     41  C   UNL A   1      37.890  32.605  32.516  1.00  0.00     0.074 A 
ATOM     42  C   UNL A   1      38.039  31.367  30.376  1.00  0.00     0.049 A 
ATOM     43  N   UNL A   1      38.938  32.151  33.154  1.00  0.00    -0.248 NA
ATOM     44  C   UNL A   1      37.133  33.626  33.258  1.00  0.00     0.031 C 
ATOM     45  C   UNL A   1      37.692  31.010  29.000  1.00  0.00     0.029 A 
ATOM     46  N   UNL A   1      39.127  30.582  30.658  1.00  0.00    -0.354 N 
ATOM     47  C   UNL A   1      38.982  32.861  34.347  1.00  0.00     0.074 A 
ATOM     48  C   UNL A   1      37.906  33.825  34.312  1.00  0.00     0.031 C 
ATOM     49  C   UNL A   1      38.520  30.043  28.574  1.00  0.00     0.029 A 
ATOM     50  C   UNL A   1      39.478  29.739  29.634  1.00  0.00     0.049 A 
ATOM     51  H   UNL A   1      39.611  30.620  31.515  1.00  0.00     0.167 HD
ATOM     52  C   UNL A   1      39.821  32.697  35.395  1.00  0.00     0.037 A 
ATOM     53  C   UNL A   1      40.458  28.820  29.567  1.00  0.00     0.037 A 
ATOM     54  C   UNL A   1      40.849  31.694  35.444  1.00  0.00     0.049 A 
ATOM     55  C   UNL A   1      41.362  28.632  30.754  1.00  0.00     0.074 A 
ATOM     56  C   UNL A   1      41.698  31.375  36.487  1.00  0.00     0.029 A 
ATOM     57  N   UNL A   1      41.157  30.837  34.396  1.00  0.00    -0.354 N 
ATOM     58  N   UNL A   1      41.352  29.256  31.908  1.00  0.00    -0.248 NA
ATOM     59  C   UNL A   1      42.410  27.612  30.629  1.00  0.00     0.031 C 
ATOM     60  C   UNL A   1      42.547  30.349  36.057  1.00  0.00     0.029 A 
ATOM     61  C   UNL A   1      42.198  30.001  34.761  1.00  0.00     0.049 A 
ATOM     62  H   UNL A   1      40.704  30.826  33.522  1.00  0.00     0.167 HD
ATOM     63  C   UNL A   1      42.371  28.685  32.658  1.00  0.00     0.074 A 
ATOM     64  C   UNL A   1      42.973  27.659  31.829  1.00  0.00     0.031 C 
ATOM     65  C   UNL A   1      42.773  28.982  33.919  1.00  0.00     0.037 A 
BRANCH  52  66
ATOM     66  C   UNL A   1      39.642  33.621  36.565  1.00  0.00     0.064 A 
ATOM     67  C   UNL A   1      38.839  33.274  37.663  1.00  0.00     0.173 A 
ATOM     68  C   UNL A   1      40.259  34.880  36.577  1.00  0.00     0.173 A 
ATOM     69  F   UNL A   1      38.211  32.089  37.693  1.00  0.00    -0.203 F 
ATOM     70  C   UNL A   1      38.618  34.173  38.703  1.00  0.00     0.198 A 
ATOM     71  C   UNL A   1      40.064  35.763  37.635  1.00  0.00     0.198 A 
ATOM     72  F   UNL A   1      41.039  35.262  35.554  1.00  0.00    -0.203 F 
ATOM     73  F   UNL A   1      37.783  33.849  39.700  1.00  0.00    -0.200 F 
ATOM     74  C   UNL A   1      39.233  35.416  38.689  1.00  0.00     0.200 A 
ATOM     75  F   UNL A   1      40.666  36.961  37.627  1.00  0.00    -0.200 F 
ATOM     76  F   UNL A   1      39.013  36.284  39.687  1.00  0.00    -0.200 F 
ENDBRANCH  52  66
BRANCH  53  77
ATOM     77  C   UNL A   1      40.585  27.964  28.361  1.00  0.00     0.064 A 
ATOM     78  C   UNL A   1      41.364  28.383  27.273  1.00  0.00     0.173 A 
ATOM     79  C   UNL A   1      39.965  26.710  28.275  1.00  0.00     0.173 A 
ATOM     80  F   UNL A   1      41.965  29.582  27.304  1.00  0.00    -0.203 F 
ATOM     81  C   UNL A   1      41.510  27.585  26.141  1.00  0.00     0.198 A 
ATOM     82  C   UNL A   1      40.128  25.903  27.150  1.00  0.00     0.198 A 
ATOM     83  F   UNL A   1      39.214  26.261  29.292  1.00  0.00    -0.203 F 
ATOM     84  F   UNL A   1      42.238  28.023  25.105  1.00  0.00    -0.200 F 
ATOM     85  C   UNL A   1      40.897  26.343  26.083  1.00  0.00     0.200 A 
ATOM     86  F   UNL A   1      39.545  24.698  27.102  1.00  0.00    -0.200 F 
ATOM     87  F   UNL A   1      41.045  25.572  24.998  1.00  0.00    -0.200 F 
ENDBRANCH  53  77
BRANCH  65  88
ATOM     88  C   UNL A   1      43.893  28.165  34.489  1.00  0.00     0.064 A 
ATOM     89  C   UNL A   1      43.659  26.925  35.099  1.00  0.00     0.173 A 
ATOM     90  C   UNL A   1      45.219  28.609  34.381  1.00  0.00     0.173 A 
ATOM     91  F   UNL A   1      42.406  26.466  35.239  1.00  0.00    -0.203 F 
ATOM     92  C   UNL A   1      44.713  26.167  35.600  1.00  0.00     0.198 A 
ATOM     93  C   UNL A   1      46.273  27.836  34.859  1.00  0.00     0.198 A 
ATOM     94  F   UNL A   1      45.494  29.787  33.800  1.00  0.00    -0.203 F 
ATOM     95  F   UNL A   1      44.465  25.004  36.217  1.00  0.00    -0.200 F 
ATOM     96  C   UNL A   1      46.018  26.619  35.473  1.00  0.00     0.200 A 
ATOM     97  F   UNL A   1      47.534  28.269  34.723  1.00  0.00    -0.200 F 
ATOM     98  F   UNL A   1      47.033  25.884  35.948  1.00  0.00    -0.200 F 
ENDBRANCH  65  88
ENDBRANCH  39  40
ENDBRANCH  31  34
ENDBRANCH  29  30
ENDBRANCH  28  29
ENDBRANCH   1  28
TORSDOF 13
ENDMDL
MODEL 2
REMARK VINA RESULT:     -14.0      1.309      7.495
REMARK SMILES CC1(C)[C@@](C)(C(=O)NCCCCNC(=O)c2ccc(-c3c4nc(c(-c5c(F)c(F)c(F)c(F)c5F)c5ccc([nH]5)c(-c5c(F)c(F)c(F)c(F)c5F)c5nc(c(-c6c(F)c(F)c(F)c(F)c6F)c6ccc3[nH]6)C=C5)C=C4)cc2)CC[C@]1(C)C(=O)Nc1ccc(Cl)cc1Cl
REMARK SMILES IDX 10 1 9 2 8 3 6 4 7 5 4 7 1 8 2 9 3 10 81 11 5 12 79 13 80 14
REMARK SMILES IDX 82 15 83 16 84 17 85 18 86 20 87 21 92 22 88 23 91 24 93 25
REMARK SMILES IDX 89 26 90 27 11 28 12 29 13 30 14 31 15 33 16 34 17 35 78 36
REMARK SMILES IDX 18 37 77 38 19 39 20 40 21 41 71 42 22 43 76 44 70 45 72 46
REMARK SMILES IDX 23 47 75 48 69 49 68 50 24 52 56 53 36 54 55 55 37 56 40 57
REMARK SMILES IDX 54 58 73 59 38 60 39 61 53 63 74 64 41 65 25 66 26 67 34 68
REMARK SMILES IDX 27 69 28 70 32 71 35 72 29 73 30 74 33 75 31 76 57 77 58 78
REMARK SMILES IDX 66 79 59 80 60 81 64 82 67 83 61 84 62 85 65 86 63 87 42 88
REMARK SMILES IDX 43 89 51 90 44 91 45 92 49 93 52 94 46 95 47 96 50 97 48 98
REMARK H PARENT 8 6 85 19 13 32 72 51 40 62
REMARK Flexibility Score: inf
ROOT
ATOM      1  C   UNL A   1      34.677  30.562  27.975  1.00  0.00     0.023 C 
ENDROOT
BRANCH   1   2
ATOM      2  C   UNL A   1      34.504  29.216  27.250  1.00  0.00     0.116 C 
BRANCH   2   3
ATOM      3  N   UNL A   1      34.254  29.361  25.822  1.00  0.00    -0.356 N 
ATOM      4  C   UNL A   1      33.278  28.948  24.961  1.00  0.00     0.226 C 
ATOM      5  O   UNL A   1      33.443  29.328  23.795  1.00  0.00    -0.274 OA
ATOM      6  H   UNL A   1      34.956  29.883  25.370  1.00  0.00     0.163 HD
BRANCH   4   7
ATOM      7  C   UNL A   1      32.019  28.093  25.357  1.00  0.00     0.052 C 
ATOM      8  C   UNL A   1      33.518  26.103  25.860  1.00  0.00     0.013 C 
ATOM      9  C   UNL A   1      32.175  26.514  25.325  1.00  0.00    -0.007 C 
ATOM     10  C   UNL A   1      31.094  25.856  26.223  1.00  0.00     0.013 C 
ATOM     11  C   UNL A   1      32.013  26.069  23.809  1.00  0.00     0.053 C 
ATOM     12  C   UNL A   1      31.483  28.681  26.685  1.00  0.00     0.022 C 
ATOM     13  C   UNL A   1      30.903  28.285  24.291  1.00  0.00     0.018 C 
ATOM     14  C   UNL A   1      30.931  27.088  23.326  1.00  0.00     0.018 C 
ATOM     15  C   UNL A   1      33.236  26.292  22.899  1.00  0.00     0.022 C 
BRANCH  11  16
ATOM     16  C   UNL A   1      31.492  24.585  23.617  1.00  0.00     0.230 C 
ATOM     17  O   UNL A   1      30.372  24.385  23.126  1.00  0.00    -0.274 OA
ATOM     18  N   UNL A   1      32.133  23.449  24.051  1.00  0.00    -0.324 N 
ATOM     19  H   UNL A   1      31.535  22.671  24.126  1.00  0.00     0.170 HD
BRANCH  18  20
ATOM     20  C   UNL A   1      33.461  23.165  24.413  1.00  0.00     0.060 A 
ATOM     21  C   UNL A   1      34.471  23.205  23.450  1.00  0.00     0.029 A 
ATOM     22  C   UNL A   1      33.799  22.802  25.736  1.00  0.00     0.066 A 
ATOM     23  C   UNL A   1      35.811  23.047  23.825  1.00  0.00     0.023 A 
ATOM     24  C   UNL A   1      35.142  22.719  26.123  1.00  0.00     0.043 A 
ATOM     25  Cl  UNL A   1      32.602  22.646  26.972  1.00  0.00    -0.082 Cl
ATOM     26  C   UNL A   1      36.141  22.861  25.166  1.00  0.00     0.042 A 
ATOM     27  Cl  UNL A   1      37.794  22.828  25.640  1.00  0.00    -0.084 Cl
ENDBRANCH  18  20
ENDBRANCH  11  16
ENDBRANCH   4   7
ENDBRANCH   2   3
ENDBRANCH   1   2
BRANCH   1  28
ATOM     28  C   UNL A   1      34.121  31.768  27.250  1.00  0.00     0.023 C 
BRANCH  28  29
ATOM     29  C   UNL A   1      32.758  32.188  27.748  1.00  0.00     0.116 C 
BRANCH  29  30
ATOM     30  N   UNL A   1      32.547  33.631  27.701  1.00  0.00    -0.352 N 
ATOM     31  C   UNL A   1      33.160  34.614  28.440  1.00  0.00     0.251 C 
ATOM     32  H   UNL A   1      31.876  33.942  27.052  1.00  0.00     0.163 HD
ATOM     33  O   UNL A   1      32.784  35.782  28.376  1.00  0.00    -0.269 OA
BRANCH  31  34
ATOM     34  C   UNL A   1      34.258  34.228  29.340  1.00  0.00     0.039 A 
ATOM     35  C   UNL A   1      33.972  33.511  30.503  1.00  0.00     0.014 A 
ATOM     36  C   UNL A   1      35.577  34.480  28.960  1.00  0.00     0.014 A 
ATOM     37  C   UNL A   1      35.024  32.971  31.241  1.00  0.00     0.010 A 
ATOM     38  C   UNL A   1      36.606  33.828  29.614  1.00  0.00     0.010 A 
ATOM     39  C   UNL A   1      36.344  33.085  30.774  1.00  0.00    -0.014 A 
BRANCH  39  40
ATOM     40  C   UNL A   1      37.486  32.479  31.493  1.00  0.00     0.031 A 
ATOM     41  C   UNL A   1      38.235  31.344  30.851  1.00  0.00     0.074 A 
ATOM     42  C   UNL A   1      37.784  32.876  32.743  1.00  0.00     0.049 A 
ATOM     43  N   UNL A   1      39.186  30.593  31.343  1.00  0.00    -0.248 NA
ATOM     44  C   UNL A   1      37.819  30.968  29.490  1.00  0.00     0.031 C 
ATOM     45  C   UNL A   1      37.085  33.921  33.493  1.00  0.00     0.029 A 
ATOM     46  N   UNL A   1      38.755  32.440  33.607  1.00  0.00    -0.354 N 
ATOM     47  C   UNL A   1      39.448  29.639  30.369  1.00  0.00     0.074 A 
ATOM     48  C   UNL A   1      38.507  29.856  29.293  1.00  0.00     0.031 C 
ATOM     49  C   UNL A   1      37.681  34.079  34.686  1.00  0.00     0.029 A 
ATOM     50  C   UNL A   1      38.777  33.122  34.798  1.00  0.00     0.049 A 
ATOM     51  H   UNL A   1      39.378  31.708  33.393  1.00  0.00     0.167 HD
ATOM     52  C   UNL A   1      40.412  28.689  30.355  1.00  0.00     0.037 A 
ATOM     53  C   UNL A   1      39.600  32.990  35.855  1.00  0.00     0.037 A 
ATOM     54  C   UNL A   1      41.380  28.522  31.403  1.00  0.00     0.049 A 
ATOM     55  C   UNL A   1      40.685  31.949  35.808  1.00  0.00     0.074 A 
ATOM     56  C   UNL A   1      42.456  27.656  31.456  1.00  0.00     0.029 A 
ATOM     57  N   UNL A   1      41.389  29.250  32.585  1.00  0.00    -0.354 N 
ATOM     58  N   UNL A   1      40.974  31.098  34.852  1.00  0.00    -0.248 NA
ATOM     59  C   UNL A   1      41.557  31.852  36.985  1.00  0.00     0.031 C 
ATOM     60  C   UNL A   1      43.096  27.836  32.688  1.00  0.00     0.029 A 
ATOM     61  C   UNL A   1      42.443  28.841  33.383  1.00  0.00     0.049 A 
ATOM     62  H   UNL A   1      40.741  29.954  32.820  1.00  0.00     0.167 HD
ATOM     63  C   UNL A   1      42.077  30.385  35.298  1.00  0.00     0.074 A 
ATOM     64  C   UNL A   1      42.410  30.910  36.608  1.00  0.00     0.031 C 
ATOM     65  C   UNL A   1      42.756  29.386  34.681  1.00  0.00     0.037 A 
BRANCH  52  66
ATOM     66  C   UNL A   1      40.457  27.779  29.162  1.00  0.00     0.064 A 
ATOM     67  C   UNL A   1      41.251  28.071  28.040  1.00  0.00     0.173 A 
ATOM     68  C   UNL A   1      39.677  26.614  29.126  1.00  0.00     0.173 A 
ATOM     69  F   UNL A   1      42.001  29.183  28.016  1.00  0.00    -0.203 F 
ATOM     70  C   UNL A   1      41.221  27.259  26.910  1.00  0.00     0.198 A 
ATOM     71  C   UNL A   1      39.678  25.786  28.007  1.00  0.00     0.198 A 
ATOM     72  F   UNL A   1      38.903  26.286  30.172  1.00  0.00    -0.203 F 
ATOM     73  F   UNL A   1      41.926  27.603  25.823  1.00  0.00    -0.200 F 
ATOM     74  C   UNL A   1      40.437  26.116  26.895  1.00  0.00     0.200 A 
ATOM     75  F   UNL A   1      38.927  24.675  27.997  1.00  0.00    -0.200 F 
ATOM     76  F   UNL A   1      40.403  25.340  25.803  1.00  0.00    -0.200 F 
ENDBRANCH  52  66
BRANCH  53  77
ATOM     77  C   UNL A   1      39.471  33.913  37.010  1.00  0.00     0.064 A 
ATOM     78  C   UNL A   1      38.747  33.529  38.147  1.00  0.00     0.173 A 
ATOM     79  C   UNL A   1      40.082  35.175  37.020  1.00  0.00     0.173 A 
ATOM     80  F   UNL A   1      38.132  32.338  38.177  1.00  0.00    -0.203 F 
ATOM     81  C   UNL A   1      38.630  34.375  39.247  1.00  0.00     0.198 A 
ATOM     82  C   UNL A   1      39.982  36.013  38.130  1.00  0.00     0.198 A 
ATOM     83  F   UNL A   1      40.791  35.586  35.958  1.00  0.00    -0.203 F 
ATOM     84  F   UNL A   1      37.909  33.994  40.309  1.00  0.00    -0.200 F 
ATOM     85  C   UNL A   1      39.254  35.614  39.241  1.00  0.00     0.200 A 
ATOM     86  F   UNL A   1      40.597  37.203  38.126  1.00  0.00    -0.200 F 
ATOM     87  F   UNL A   1      39.149  36.423  40.303  1.00  0.00    -0.200 F 
ENDBRANCH  53  77
BRANCH  65  88
ATOM     88  C   UNL A   1      43.944  28.821  35.399  1.00  0.00     0.064 A 
ATOM     89  C   UNL A   1      45.232  29.343  35.210  1.00  0.00     0.173 A 
ATOM     90  C   UNL A   1      43.783  27.776  36.320  1.00  0.00     0.173 A 
ATOM     91  F   UNL A   1      45.437  30.333  34.327  1.00  0.00    -0.203 F 
ATOM     92  C   UNL A   1      46.320  28.824  35.904  1.00  0.00     0.198 A 
ATOM     93  C   UNL A   1      44.869  27.279  37.033  1.00  0.00     0.198 A 
ATOM     94  F   UNL A   1      42.569  27.248  36.540  1.00  0.00    -0.203 F 
ATOM     95  F   UNL A   1      47.548  29.308  35.680  1.00  0.00    -0.200 F 
ATOM     96  C   UNL A   1      46.137  27.798  36.820  1.00  0.00     0.200 A 
ATOM     97  F   UNL A   1      44.688  26.296  37.927  1.00  0.00    -0.200 F 
ATOM     98  F   UNL A   1      47.185  27.305  37.495  1.00  0.00    -0.200 F 
ENDBRANCH  65  88
ENDBRANCH  39  40
ENDBRANCH  31  34
ENDBRANCH  29  30
ENDBRANCH  28  29
ENDBRANCH   1  28
TORSDOF 13
ENDMDL
MODEL 3
REMARK VINA RESULT:     -13.9      1.329      7.253
REMARK SMILES CC1(C)[C@@](C)(C(=O)NCCCCNC(=O)c2ccc(-c3c4nc(c(-c5c(F)c(F)c(F)c(F)c5F)c5ccc([nH]5)c(-c5c(F)c(F)c(F)c(F)c5F)c5nc(c(-c6c(F)c(F)c(F)c(F)c6F)c6ccc3[nH]6)C=C5)C=C4)cc2)CC[C@]1(C)C(=O)Nc1ccc(Cl)cc1Cl
REMARK SMILES IDX 10 1 9 2 8 3 6 4 7 5 4 7 1 8 2 9 3 10 81 11 5 12 79 13 80 14
REMARK SMILES IDX 82 15 83 16 84 17 85 18 86 20 87 21 92 22 88 23 91 24 93 25
REMARK SMILES IDX 89 26 90 27 11 28 12 29 13 30 14 31 15 33 16 34 17 35 78 36
REMARK SMILES IDX 18 37 77 38 19 39 20 40 21 41 71 42 22 43 76 44 70 45 72 46
REMARK SMILES IDX 23 47 75 48 69 49 68 50 24 52 56 53 36 54 55 55 37 56 40 57
REMARK SMILES IDX 54 58 73 59 38 60 39 61 53 63 74 64 41 65 25 66 26 67 34 68
REMARK SMILES IDX 27 69 28 70 32 71 35 72 29 73 30 74 33 75 31 76 57 77 58 78
REMARK SMILES IDX 66 79 59 80 60 81 64 82 67 83 61 84 62 85 65 86 63 87 42 88
REMARK SMILES IDX 43 89 51 90 44 91 45 92 49 93 52 94 46 95 47 96 50 97 48 98
REMARK H PARENT 8 6 85 19 13 32 72 51 40 62
REMARK Flexibility Score: inf
ROOT
ATOM      1  C   UNL A   1      34.867  30.562  27.948  1.00  0.00     0.023 C 
ENDROOT
BRANCH   1   2
ATOM      2  C   UNL A   1      34.525  29.226  27.264  1.00  0.00     0.116 C 
BRANCH   2   3
ATOM      3  N   UNL A   1      34.241  29.365  25.842  1.00  0.00    -0.356 N 
ATOM      4  C   UNL A   1      33.270  28.908  24.997  1.00  0.00     0.226 C 
ATOM      5  O   UNL A   1      33.395  29.301  23.831  1.00  0.00    -0.274 OA
ATOM      6  H   UNL A   1      34.908  29.923  25.380  1.00  0.00     0.163 HD
BRANCH   4   7
ATOM      7  C   UNL A   1      32.064  27.989  25.412  1.00  0.00     0.052 C 
ATOM      8  C   UNL A   1      33.667  26.068  25.859  1.00  0.00     0.013 C 
ATOM      9  C   UNL A   1      32.294  26.420  25.360  1.00  0.00    -0.007 C 
ATOM     10  C   UNL A   1      31.266  25.702  26.274  1.00  0.00     0.013 C 
ATOM     11  C   UNL A   1      32.118  25.983  23.843  1.00  0.00     0.053 C 
ATOM     12  C   UNL A   1      31.531  28.538  26.759  1.00  0.00     0.022 C 
ATOM     13  C   UNL A   1      30.915  28.138  24.374  1.00  0.00     0.018 C 
ATOM     14  C   UNL A   1      30.978  26.954  23.396  1.00  0.00     0.018 C 
ATOM     15  C   UNL A   1      33.308  26.273  22.908  1.00  0.00     0.022 C 
BRANCH  11  16
ATOM     16  C   UNL A   1      31.664  24.478  23.646  1.00  0.00     0.230 C 
ATOM     17  O   UNL A   1      30.548  24.229  23.166  1.00  0.00    -0.274 OA
ATOM     18  N   UNL A   1      32.362  23.370  24.065  1.00  0.00    -0.324 N 
ATOM     19  H   UNL A   1      31.801  22.564  24.141  1.00  0.00     0.170 HD
BRANCH  18  20
ATOM     20  C   UNL A   1      33.706  23.145  24.409  1.00  0.00     0.060 A 
ATOM     21  C   UNL A   1      34.702  23.243  23.436  1.00  0.00     0.029 A 
ATOM     22  C   UNL A   1      34.075  22.785  25.725  1.00  0.00     0.066 A 
ATOM     23  C   UNL A   1      36.051  23.144  23.795  1.00  0.00     0.023 A 
ATOM     24  C   UNL A   1      35.424  22.761  26.097  1.00  0.00     0.043 A 
ATOM     25  Cl  UNL A   1      32.900  22.560  26.972  1.00  0.00    -0.082 Cl
ATOM     26  C   UNL A   1      36.405  22.961  25.131  1.00  0.00     0.042 A 
ATOM     27  Cl  UNL A   1      38.062  23.001  25.587  1.00  0.00    -0.084 Cl
ENDBRANCH  18  20
ENDBRANCH  11  16
ENDBRANCH   4   7
ENDBRANCH   2   3
ENDBRANCH   1   2
BRANCH   1  28
ATOM     28  C   UNL A   1      34.298  31.797  27.283  1.00  0.00     0.023 C 
BRANCH  28  29
ATOM     29  C   UNL A   1      32.917  32.157  27.776  1.00  0.00     0.116 C 
BRANCH  29  30
ATOM     30  N   UNL A   1      32.664  33.594  27.779  1.00  0.00    -0.352 N 
ATOM     31  C   UNL A   1      33.242  34.567  28.560  1.00  0.00     0.251 C 
ATOM     32  H   UNL A   1      31.988  33.909  27.137  1.00  0.00     0.163 HD
ATOM     33  O   UNL A   1      32.832  35.724  28.535  1.00  0.00    -0.269 OA
BRANCH  31  34
ATOM     34  C   UNL A   1      34.344  34.180  29.454  1.00  0.00     0.039 A 
ATOM     35  C   UNL A   1      34.067  33.438  30.604  1.00  0.00     0.014 A 
ATOM     36  C   UNL A   1      35.659  34.458  29.081  1.00  0.00     0.014 A 
ATOM     37  C   UNL A   1      35.125  32.900  31.334  1.00  0.00     0.010 A 
ATOM     38  C   UNL A   1      36.697  33.809  29.725  1.00  0.00     0.010 A 
ATOM     39  C   UNL A   1      36.444  33.042  30.871  1.00  0.00    -0.014 A 
BRANCH  39  40
ATOM     40  C   UNL A   1      37.594  32.439  31.581  1.00  0.00     0.031 A 
ATOM     41  C   UNL A   1      38.334  31.298  30.938  1.00  0.00     0.074 A 
ATOM     42  C   UNL A   1      37.907  32.845  32.825  1.00  0.00     0.049 A 
ATOM     43  N   UNL A   1      39.289  30.549  31.424  1.00  0.00    -0.248 NA
ATOM     44  C   UNL A   1      37.901  30.913  29.584  1.00  0.00     0.031 C 
ATOM     45  C   UNL A   1      37.218  33.896  33.575  1.00  0.00     0.029 A 
ATOM     46  N   UNL A   1      38.888  32.414  33.680  1.00  0.00    -0.354 N 
ATOM     47  C   UNL A   1      39.538  29.588  30.454  1.00  0.00     0.074 A 
ATOM     48  C   UNL A   1      38.585  29.798  29.388  1.00  0.00     0.031 C 
ATOM     49  C   UNL A   1      37.828  34.062  34.760  1.00  0.00     0.029 A 
ATOM     50  C   UNL A   1      38.925  33.104  34.866  1.00  0.00     0.049 A 
ATOM     51  H   UNL A   1      39.507  31.680  33.464  1.00  0.00     0.167 HD
ATOM     52  C   UNL A   1      40.500  28.637  30.435  1.00  0.00     0.037 A 
ATOM     53  C   UNL A   1      39.760  32.978  35.914  1.00  0.00     0.037 A 
ATOM     54  C   UNL A   1      41.481  28.476  31.473  1.00  0.00     0.049 A 
ATOM     55  C   UNL A   1      40.842  31.936  35.861  1.00  0.00     0.074 A 
ATOM     56  C   UNL A   1      42.557  27.609  31.520  1.00  0.00     0.029 A 
ATOM     57  N   UNL A   1      41.505  29.213  32.649  1.00  0.00    -0.354 N 
ATOM     58  N   UNL A   1      41.119  31.078  34.908  1.00  0.00    -0.248 NA
ATOM     59  C   UNL A   1      41.728  31.846  37.028  1.00  0.00     0.031 C 
ATOM     60  C   UNL A   1      43.211  27.796  32.743  1.00  0.00     0.029 A 
ATOM     61  C   UNL A   1      42.568  28.808  33.438  1.00  0.00     0.049 A 
ATOM     62  H   UNL A   1      40.861  29.919  32.888  1.00  0.00     0.167 HD
ATOM     63  C   UNL A   1      42.227  30.367  35.346  1.00  0.00     0.074 A 
ATOM     64  C   UNL A   1      42.576  30.900  36.648  1.00  0.00     0.031 C 
ATOM     65  C   UNL A   1      42.897  29.362  34.728  1.00  0.00     0.037 A 
BRANCH  52  66
ATOM     66  C   UNL A   1      40.531  27.718  29.249  1.00  0.00     0.064 A 
ATOM     67  C   UNL A   1      39.706  26.584  29.172  1.00  0.00     0.173 A 
ATOM     68  C   UNL A   1      41.415  27.957  28.187  1.00  0.00     0.173 A 
ATOM     69  F   UNL A   1      38.856  26.300  30.171  1.00  0.00    -0.203 F 
ATOM     70  C   UNL A   1      39.802  25.697  28.104  1.00  0.00     0.198 A 
ATOM     71  C   UNL A   1      41.483  27.086  27.102  1.00  0.00     0.198 A 
ATOM     72  F   UNL A   1      42.224  29.027  28.206  1.00  0.00    -0.203 F 
ATOM     73  F   UNL A   1      39.061  24.580  28.094  1.00  0.00    -0.200 F 
ATOM     74  C   UNL A   1      40.689  25.950  27.068  1.00  0.00     0.200 A 
ATOM     75  F   UNL A   1      42.333  27.336  26.096  1.00  0.00    -0.200 F 
ATOM     76  F   UNL A   1      40.787  25.091  26.044  1.00  0.00    -0.200 F 
ENDBRANCH  52  66
BRANCH  53  77
ATOM     77  C   UNL A   1      39.646  33.911  37.063  1.00  0.00     0.064 A 
ATOM     78  C   UNL A   1      40.287  35.157  37.031  1.00  0.00     0.173 A 
ATOM     79  C   UNL A   1      38.883  33.599  38.196  1.00  0.00     0.173 A 
ATOM     80  F   UNL A   1      41.042  35.493  35.974  1.00  0.00    -0.203 F 
ATOM     81  C   UNL A   1      40.177  36.052  38.091  1.00  0.00     0.198 A 
ATOM     82  C   UNL A   1      38.755  34.503  39.249  1.00  0.00     0.198 A 
ATOM     83  F   UNL A   1      38.244  32.421  38.272  1.00  0.00    -0.203 F 
ATOM     84  F   UNL A   1      40.824  37.224  38.046  1.00  0.00    -0.200 F 
ATOM     85  C   UNL A   1      39.406  35.728  39.197  1.00  0.00     0.200 A 
ATOM     86  F   UNL A   1      37.999  34.193  40.310  1.00  0.00    -0.200 F 
ATOM     87  F   UNL A   1      39.292  36.593  40.213  1.00  0.00    -0.200 F 
ENDBRANCH  53  77
BRANCH  65  88
ATOM     88  C   UNL A   1      44.093  28.800  35.436  1.00  0.00     0.064 A 
ATOM     89  C   UNL A   1      43.979  27.720  36.323  1.00  0.00     0.173 A 
ATOM     90  C   UNL A   1      45.371  29.320  35.188  1.00  0.00     0.173 A 
ATOM     91  F   UNL A   1      42.774  27.200  36.603  1.00  0.00    -0.203 F 
ATOM     92  C   UNL A   1      45.102  27.194  36.952  1.00  0.00     0.198 A 
ATOM     93  C   UNL A   1      46.496  28.773  35.798  1.00  0.00     0.198 A 
ATOM     94  F   UNL A   1      45.531  30.350  34.342  1.00  0.00    -0.203 F 
ATOM     95  F   UNL A   1      44.969  26.189  37.828  1.00  0.00    -0.200 F 
ATOM     96  C   UNL A   1      46.360  27.715  36.684  1.00  0.00     0.200 A 
ATOM     97  F   UNL A   1      47.711  29.270  35.527  1.00  0.00    -0.200 F 
ATOM     98  F   UNL A   1      47.442  27.201  37.284  1.00  0.00    -0.200 F 
ENDBRANCH  65  88
ENDBRANCH  39  40
ENDBRANCH  31  34
ENDBRANCH  29  30
ENDBRANCH  28  29
ENDBRANCH   1  28
TORSDOF 13
ENDMDL
