MODEL 1
REMARK VINA RESULT:     -12.7      0.000      0.000
REMARK SMILES CC1=C2C(=O)CC(C)(C)CC2=N[C@@H]1C(=O)NCCCCNC(=O)c1ccc(-c2c3nc(c(-c4c(F)c(F)c(F)c(F)c4F)c4ccc([nH]4)c(-c4c(F)c(F)c(F)c(F)c4F)c4nc(c(-c5c(F)c(F)c(F)c(F)c5F)c5ccc2[nH]5)C=C4)C=C3)cc1
REMARK SMILES IDX 19 1 18 2 17 3 16 4 14 5 15 6 13 8 1 9 2 10 3 11 4 12 11 13
REMARK SMILES IDX 12 14 5 15 6 16 10 17 7 18 8 19 9 20 20 21 21 22 22 23 23 25
REMARK SMILES IDX 24 26 25 27 86 28 26 29 85 30 27 31 28 32 29 33 79 34 30 35
REMARK SMILES IDX 84 36 78 37 80 38 31 39 83 40 77 41 76 42 32 44 64 45 44 46
REMARK SMILES IDX 63 47 45 48 48 49 62 50 81 51 46 52 47 53 61 55 82 56 49 57
REMARK SMILES IDX 33 58 34 59 42 60 35 61 36 62 40 63 43 64 37 65 38 66 41 67
REMARK SMILES IDX 39 68 65 69 66 70 74 71 67 72 68 73 72 74 75 75 69 76 70 77
REMARK SMILES IDX 73 78 71 79 50 80 51 81 59 82 52 83 53 84 57 85 60 86 54 87
REMARK SMILES IDX 55 88 58 89 56 90
REMARK H PARENT 16 7 21 24 80 43 48 54
REMARK Flexibility Score: inf
ROOT
ATOM      1  C   UNL A   1      41.323  19.590  26.146  1.00  0.00     0.023 C 
ENDROOT
BRANCH   1   2
ATOM      2  C   UNL A   1      40.503  20.795  26.630  1.00  0.00     0.023 C 
BRANCH   2   3
ATOM      3  C   UNL A   1      39.264  21.133  25.792  1.00  0.00     0.116 C 
BRANCH   3   4
ATOM      4  N   UNL A   1      38.760  22.462  26.107  1.00  0.00    -0.354 N 
ATOM      5  C   UNL A   1      37.504  22.976  25.881  1.00  0.00     0.249 C 
ATOM      6  O   UNL A   1      37.278  24.146  26.196  1.00  0.00    -0.272 OA
ATOM      7  H   UNL A   1      39.402  23.072  26.539  1.00  0.00     0.163 HD
BRANCH   5   8
ATOM      8  C   UNL A   1      36.416  22.010  25.346  1.00  0.00     0.221 C 
ATOM      9  C   UNL A   1      36.092  23.143  22.984  1.00  0.00     0.043 C 
ATOM     10  C   UNL A   1      35.557  22.450  24.186  1.00  0.00    -0.027 C 
ATOM     11  C   UNL A   1      34.267  22.271  24.482  1.00  0.00     0.040 C 
ATOM     12  C   UNL A   1      32.987  22.512  23.802  1.00  0.00     0.165 C 
ATOM     13  C   UNL A   1      34.377  22.373  25.928  1.00  0.00     0.048 C 
ATOM     14  N   UNL A   1      35.456  21.929  26.497  1.00  0.00    -0.271 NA
ATOM     15  O   UNL A   1      32.690  21.888  22.787  1.00  0.00    -0.294 OA
ATOM     16  C   UNL A   1      32.020  23.461  24.491  1.00  0.00     0.088 C 
ATOM     17  C   UNL A   1      33.348  23.194  26.646  1.00  0.00     0.063 C 
ATOM     18  C   UNL A   1      32.678  24.219  25.672  1.00  0.00    -0.023 C 
ATOM     19  C   UNL A   1      33.657  25.274  25.091  1.00  0.00     0.012 C 
ATOM     20  C   UNL A   1      31.624  24.996  26.475  1.00  0.00     0.012 C 
ENDBRANCH   5   8
ENDBRANCH   3   4
ENDBRANCH   2   3
ENDBRANCH   1   2
BRANCH   1  21
ATOM     21  C   UNL A   1      42.740  19.537  26.691  1.00  0.00     0.116 C 
BRANCH  21  22
ATOM     22  N   UNL A   1      43.770  19.478  25.646  1.00  0.00    -0.352 N 
ATOM     23  C   UNL A   1      44.249  20.515  24.863  1.00  0.00     0.251 C 
ATOM     24  H   UNL A   1      44.167  18.593  25.480  1.00  0.00     0.163 HD
ATOM     25  O   UNL A   1      44.816  20.296  23.790  1.00  0.00    -0.269 OA
BRANCH  23  26
ATOM     26  C   UNL A   1      44.084  21.895  25.343  1.00  0.00     0.039 A 
ATOM     27  C   UNL A   1      43.068  22.748  24.901  1.00  0.00     0.014 A 
ATOM     28  C   UNL A   1      44.978  22.309  26.318  1.00  0.00     0.014 A 
ATOM     29  C   UNL A   1      42.934  23.998  25.506  1.00  0.00     0.010 A 
ATOM     30  C   UNL A   1      44.680  23.398  27.079  1.00  0.00     0.010 A 
ATOM     31  C   UNL A   1      43.749  24.308  26.605  1.00  0.00    -0.014 A 
BRANCH  31  32
ATOM     32  C   UNL A   1      43.635  25.550  27.356  1.00  0.00     0.031 A 
ATOM     33  C   UNL A   1      44.621  26.592  26.973  1.00  0.00     0.074 A 
ATOM     34  C   UNL A   1      42.539  25.806  28.109  1.00  0.00     0.049 A 
ATOM     35  N   UNL A   1      45.532  27.132  27.711  1.00  0.00    -0.248 NA
ATOM     36  C   UNL A   1      44.694  26.989  25.556  1.00  0.00     0.031 C 
ATOM     37  C   UNL A   1      41.339  24.971  28.287  1.00  0.00     0.029 A 
ATOM     38  N   UNL A   1      42.198  26.939  28.780  1.00  0.00    -0.354 N 
ATOM     39  C   UNL A   1      46.157  28.086  26.911  1.00  0.00     0.074 A 
ATOM     40  C   UNL A   1      45.748  27.807  25.563  1.00  0.00     0.031 C 
ATOM     41  C   UNL A   1      40.331  25.714  28.792  1.00  0.00     0.029 A 
ATOM     42  C   UNL A   1      40.855  27.017  29.143  1.00  0.00     0.049 A 
ATOM     43  H   UNL A   1      42.847  27.647  28.991  1.00  0.00     0.167 HD
ATOM     44  C   UNL A   1      46.732  29.189  27.470  1.00  0.00     0.037 A 
ATOM     45  C   UNL A   1      40.221  28.096  29.667  1.00  0.00     0.037 A 
ATOM     46  C   UNL A   1      46.952  28.984  28.883  1.00  0.00     0.049 A 
ATOM     47  C   UNL A   1      41.272  29.002  30.193  1.00  0.00     0.074 A 
ATOM     48  C   UNL A   1      47.675  28.078  29.635  1.00  0.00     0.029 A 
ATOM     49  N   UNL A   1      46.061  29.559  29.757  1.00  0.00    -0.354 N 
ATOM     50  N   UNL A   1      42.037  28.707  31.208  1.00  0.00    -0.248 NA
ATOM     51  C   UNL A   1      41.794  30.014  29.288  1.00  0.00     0.031 C 
ATOM     52  C   UNL A   1      46.856  27.807  30.772  1.00  0.00     0.029 A 
ATOM     53  C   UNL A   1      45.723  28.617  30.692  1.00  0.00     0.049 A 
ATOM     54  H   UNL A   1      45.725  30.484  29.718  1.00  0.00     0.167 HD
ATOM     55  C   UNL A   1      43.298  29.156  30.840  1.00  0.00     0.074 A 
ATOM     56  C   UNL A   1      43.070  30.018  29.681  1.00  0.00     0.031 C 
ATOM     57  C   UNL A   1      44.424  28.548  31.317  1.00  0.00     0.037 A 
BRANCH  44  58
ATOM     58  C   UNL A   1      46.698  30.579  26.862  1.00  0.00     0.064 A 
ATOM     59  C   UNL A   1      47.885  31.345  26.879  1.00  0.00     0.173 A 
ATOM     60  C   UNL A   1      45.521  31.306  26.577  1.00  0.00     0.173 A 
ATOM     61  F   UNL A   1      49.070  30.764  27.121  1.00  0.00    -0.203 F 
ATOM     62  C   UNL A   1      47.871  32.737  26.757  1.00  0.00     0.198 A 
ATOM     63  C   UNL A   1      45.519  32.689  26.406  1.00  0.00     0.198 A 
ATOM     64  F   UNL A   1      44.310  30.743  26.552  1.00  0.00    -0.203 F 
ATOM     65  F   UNL A   1      49.004  33.429  26.935  1.00  0.00    -0.200 F 
ATOM     66  C   UNL A   1      46.685  33.410  26.539  1.00  0.00     0.200 A 
ATOM     67  F   UNL A   1      44.356  33.324  26.199  1.00  0.00    -0.200 F 
ATOM     68  F   UNL A   1      46.656  34.748  26.503  1.00  0.00    -0.200 F 
ENDBRANCH  44  58
BRANCH  45  69
ATOM     69  C   UNL A   1      38.823  28.541  29.446  1.00  0.00     0.064 A 
ATOM     70  C   UNL A   1      37.959  28.782  30.528  1.00  0.00     0.173 A 
ATOM     71  C   UNL A   1      38.395  29.012  28.188  1.00  0.00     0.173 A 
ATOM     72  F   UNL A   1      38.309  28.407  31.766  1.00  0.00    -0.203 F 
ATOM     73  C   UNL A   1      36.753  29.475  30.365  1.00  0.00     0.198 A 
ATOM     74  C   UNL A   1      37.189  29.699  28.027  1.00  0.00     0.198 A 
ATOM     75  F   UNL A   1      39.183  28.900  27.110  1.00  0.00    -0.203 F 
ATOM     76  F   UNL A   1      35.983  29.740  31.430  1.00  0.00    -0.200 F 
ATOM     77  C   UNL A   1      36.375  29.942  29.116  1.00  0.00     0.200 A 
ATOM     78  F   UNL A   1      36.854  30.177  26.820  1.00  0.00    -0.200 F 
ATOM     79  F   UNL A   1      35.253  30.660  28.970  1.00  0.00    -0.200 F 
ENDBRANCH  45  69
BRANCH  57  80
ATOM     80  C   UNL A   1      44.265  27.561  32.441  1.00  0.00     0.064 A 
ATOM     81  C   UNL A   1      44.157  26.169  32.266  1.00  0.00     0.173 A 
ATOM     82  C   UNL A   1      44.373  28.033  33.755  1.00  0.00     0.173 A 
ATOM     83  F   UNL A   1      44.149  25.627  31.043  1.00  0.00    -0.203 F 
ATOM     84  C   UNL A   1      44.118  25.301  33.356  1.00  0.00     0.198 A 
ATOM     85  C   UNL A   1      44.370  27.162  34.840  1.00  0.00     0.198 A 
ATOM     86  F   UNL A   1      44.534  29.346  33.984  1.00  0.00    -0.203 F 
ATOM     87  F   UNL A   1      44.005  23.978  33.158  1.00  0.00    -0.200 F 
ATOM     88  C   UNL A   1      44.232  25.798  34.642  1.00  0.00     0.200 A 
ATOM     89  F   UNL A   1      44.531  27.644  36.081  1.00  0.00    -0.200 F 
ATOM     90  F   UNL A   1      44.235  24.961  35.690  1.00  0.00    -0.200 F 
ENDBRANCH  57  80
ENDBRANCH  31  32
ENDBRANCH  23  26
ENDBRANCH  21  22
ENDBRANCH   1  21
TORSDOF 11
ENDMDL
MODEL 2
REMARK VINA RESULT:     -12.6      2.126      6.766
REMARK SMILES CC1=C2C(=O)CC(C)(C)CC2=N[C@@H]1C(=O)NCCCCNC(=O)c1ccc(-c2c3nc(c(-c4c(F)c(F)c(F)c(F)c4F)c4ccc([nH]4)c(-c4c(F)c(F)c(F)c(F)c4F)c4nc(c(-c5c(F)c(F)c(F)c(F)c5F)c5ccc2[nH]5)C=C4)C=C3)cc1
REMARK SMILES IDX 19 1 18 2 17 3 16 4 14 5 15 6 13 8 1 9 2 10 3 11 4 12 11 13
REMARK SMILES IDX 12 14 5 15 6 16 10 17 7 18 8 19 9 20 20 21 21 22 22 23 23 25
REMARK SMILES IDX 24 26 25 27 86 28 26 29 85 30 27 31 28 32 29 33 79 34 30 35
REMARK SMILES IDX 84 36 78 37 80 38 31 39 83 40 77 41 76 42 32 44 64 45 44 46
REMARK SMILES IDX 63 47 45 48 48 49 62 50 81 51 46 52 47 53 61 55 82 56 49 57
REMARK SMILES IDX 33 58 34 59 42 60 35 61 36 62 40 63 43 64 37 65 38 66 41 67
REMARK SMILES IDX 39 68 65 69 66 70 74 71 67 72 68 73 72 74 75 75 69 76 70 77
REMARK SMILES IDX 73 78 71 79 50 80 51 81 59 82 52 83 53 84 57 85 60 86 54 87
REMARK SMILES IDX 55 88 58 89 56 90
REMARK H PARENT 16 7 21 24 80 43 48 54
REMARK Flexibility Score: inf
ROOT
ATOM      1  C   UNL A   1      37.730  19.564  24.991  1.00  0.00     0.023 C 
ENDROOT
BRANCH   1   2
ATOM      2  C   UNL A   1      36.657  20.631  24.731  1.00  0.00     0.023 C 
BRANCH   2   3
ATOM      3  C   UNL A   1      37.178  22.061  24.545  1.00  0.00     0.116 C 
BRANCH   3   4
ATOM      4  N   UNL A   1      36.445  22.757  23.497  1.00  0.00    -0.354 N 
ATOM      5  C   UNL A   1      35.293  23.502  23.609  1.00  0.00     0.249 C 
ATOM      6  O   UNL A   1      34.804  23.993  22.590  1.00  0.00    -0.272 OA
ATOM      7  H   UNL A   1      36.823  22.686  22.591  1.00  0.00     0.163 HD
BRANCH   5   8
ATOM      8  C   UNL A   1      34.746  23.772  25.035  1.00  0.00     0.221 C 
ATOM      9  C   UNL A   1      33.030  21.768  25.121  1.00  0.00     0.043 C 
ATOM     10  C   UNL A   1      33.422  23.167  25.433  1.00  0.00    -0.027 C 
ATOM     11  C   UNL A   1      32.627  24.112  25.944  1.00  0.00     0.040 C 
ATOM     12  C   UNL A   1      31.259  24.161  26.479  1.00  0.00     0.165 C 
ATOM     13  C   UNL A   1      33.202  25.254  25.253  1.00  0.00     0.048 C 
ATOM     14  N   UNL A   1      34.476  25.248  25.008  1.00  0.00    -0.271 NA
ATOM     15  O   UNL A   1      30.968  23.563  27.511  1.00  0.00    -0.294 OA
ATOM     16  C   UNL A   1      30.284  25.085  25.766  1.00  0.00     0.088 C 
ATOM     17  C   UNL A   1      32.256  26.254  24.660  1.00  0.00     0.063 C 
ATOM     18  C   UNL A   1      30.848  25.614  24.423  1.00  0.00    -0.023 C 
ATOM     19  C   UNL A   1      30.847  24.447  23.398  1.00  0.00     0.012 C 
ATOM     20  C   UNL A   1      29.937  26.706  23.842  1.00  0.00     0.012 C 
ENDBRANCH   5   8
ENDBRANCH   3   4
ENDBRANCH   2   3
ENDBRANCH   1   2
BRANCH   1  21
ATOM     21  C   UNL A   1      39.036  20.110  25.544  1.00  0.00     0.116 C 
BRANCH  21  22
ATOM     22  N   UNL A   1      40.060  19.079  25.757  1.00  0.00    -0.352 N 
ATOM     23  C   UNL A   1      41.412  19.259  26.001  1.00  0.00     0.251 C 
ATOM     24  H   UNL A   1      39.748  18.146  25.721  1.00  0.00     0.163 HD
ATOM     25  O   UNL A   1      42.225  18.356  25.791  1.00  0.00    -0.269 OA
BRANCH  23  26
ATOM     26  C   UNL A   1      41.865  20.551  26.537  1.00  0.00     0.039 A 
ATOM     27  C   UNL A   1      42.469  21.540  25.753  1.00  0.00     0.014 A 
ATOM     28  C   UNL A   1      41.617  20.771  27.883  1.00  0.00     0.014 A 
ATOM     29  C   UNL A   1      42.757  22.773  26.339  1.00  0.00     0.010 A 
ATOM     30  C   UNL A   1      41.648  22.043  28.369  1.00  0.00     0.010 A 
ATOM     31  C   UNL A   1      42.332  23.013  27.654  1.00  0.00    -0.014 A 
BRANCH  31  32
ATOM     32  C   UNL A   1      42.510  24.291  28.329  1.00  0.00     0.031 A 
ATOM     33  C   UNL A   1      41.419  25.270  28.088  1.00  0.00     0.074 A 
ATOM     34  C   UNL A   1      43.432  24.434  29.311  1.00  0.00     0.049 A 
ATOM     35  N   UNL A   1      41.505  26.430  27.529  1.00  0.00    -0.248 NA
ATOM     36  C   UNL A   1      40.037  24.852  28.382  1.00  0.00     0.031 C 
ATOM     37  C   UNL A   1      44.342  23.415  29.862  1.00  0.00     0.029 A 
ATOM     38  N   UNL A   1      43.666  25.495  30.127  1.00  0.00    -0.354 N 
ATOM     39  C   UNL A   1      40.225  26.979  27.589  1.00  0.00     0.074 A 
ATOM     40  C   UNL A   1      39.342  25.896  27.925  1.00  0.00     0.031 C 
ATOM     41  C   UNL A   1      44.828  23.828  31.053  1.00  0.00     0.029 A 
ATOM     42  C   UNL A   1      44.417  25.200  31.263  1.00  0.00     0.049 A 
ATOM     43  H   UNL A   1      43.330  26.399  29.933  1.00  0.00     0.167 HD
ATOM     44  C   UNL A   1      40.051  28.330  27.630  1.00  0.00     0.037 A 
ATOM     45  C   UNL A   1      44.652  26.025  32.314  1.00  0.00     0.037 A 
ATOM     46  C   UNL A   1      41.250  29.007  27.191  1.00  0.00     0.049 A 
ATOM     47  C   UNL A   1      44.362  27.405  31.853  1.00  0.00     0.074 A 
ATOM     48  C   UNL A   1      41.992  29.017  26.026  1.00  0.00     0.029 A 
ATOM     49  N   UNL A   1      42.074  29.535  28.156  1.00  0.00    -0.354 N 
ATOM     50  N   UNL A   1      45.066  28.027  30.948  1.00  0.00    -0.248 NA
ATOM     51  C   UNL A   1      43.007  27.899  32.041  1.00  0.00     0.031 C 
ATOM     52  C   UNL A   1      43.352  29.079  26.456  1.00  0.00     0.029 A 
ATOM     53  C   UNL A   1      43.361  29.183  27.847  1.00  0.00     0.049 A 
ATOM     54  H   UNL A   1      41.790  30.071  28.931  1.00  0.00     0.167 HD
ATOM     55  C   UNL A   1      44.129  28.681  30.160  1.00  0.00     0.074 A 
ATOM     56  C   UNL A   1      42.885  28.626  30.927  1.00  0.00     0.031 C 
ATOM     57  C   UNL A   1      44.377  28.933  28.841  1.00  0.00     0.037 A 
BRANCH  44  58
ATOM     58  C   UNL A   1      38.993  29.039  28.455  1.00  0.00     0.064 A 
ATOM     59  C   UNL A   1      38.923  28.756  29.837  1.00  0.00     0.173 A 
ATOM     60  C   UNL A   1      37.867  29.704  27.921  1.00  0.00     0.173 A 
ATOM     61  F   UNL A   1      39.938  28.143  30.463  1.00  0.00    -0.203 F 
ATOM     62  C   UNL A   1      37.766  28.995  30.584  1.00  0.00     0.198 A 
ATOM     63  C   UNL A   1      36.735  29.986  28.684  1.00  0.00     0.198 A 
ATOM     64  F   UNL A   1      37.757  30.018  26.628  1.00  0.00    -0.203 F 
ATOM     65  F   UNL A   1      37.695  28.567  31.851  1.00  0.00    -0.200 F 
ATOM     66  C   UNL A   1      36.666  29.594  30.002  1.00  0.00     0.200 A 
ATOM     67  F   UNL A   1      35.676  30.563  28.098  1.00  0.00    -0.200 F 
ATOM     68  F   UNL A   1      35.529  29.751  30.692  1.00  0.00    -0.200 F 
ENDBRANCH  44  58
BRANCH  45  69
ATOM     69  C   UNL A   1      44.783  25.676  33.750  1.00  0.00     0.064 A 
ATOM     70  C   UNL A   1      43.649  25.450  34.548  1.00  0.00     0.173 A 
ATOM     71  C   UNL A   1      46.020  25.278  34.295  1.00  0.00     0.173 A 
ATOM     72  F   UNL A   1      42.429  25.758  34.088  1.00  0.00    -0.203 F 
ATOM     73  C   UNL A   1      43.745  24.840  35.805  1.00  0.00     0.198 A 
ATOM     74  C   UNL A   1      46.114  24.673  35.552  1.00  0.00     0.198 A 
ATOM     75  F   UNL A   1      47.149  25.379  33.581  1.00  0.00    -0.203 F 
ATOM     76  F   UNL A   1      42.635  24.585  36.512  1.00  0.00    -0.200 F 
ATOM     77  C   UNL A   1      44.976  24.442  36.300  1.00  0.00     0.200 A 
ATOM     78  F   UNL A   1      47.307  24.261  36.002  1.00  0.00    -0.200 F 
ATOM     79  F   UNL A   1      45.062  23.801  37.474  1.00  0.00    -0.200 F 
ENDBRANCH  45  69
BRANCH  57  80
ATOM     80  C   UNL A   1      45.779  28.719  28.338  1.00  0.00     0.064 A 
ATOM     81  C   UNL A   1      46.245  27.517  27.776  1.00  0.00     0.173 A 
ATOM     82  C   UNL A   1      46.639  29.824  28.290  1.00  0.00     0.173 A 
ATOM     83  F   UNL A   1      45.453  26.443  27.691  1.00  0.00    -0.203 F 
ATOM     84  C   UNL A   1      47.525  27.419  27.233  1.00  0.00     0.198 A 
ATOM     85  C   UNL A   1      47.902  29.733  27.715  1.00  0.00     0.198 A 
ATOM     86  F   UNL A   1      46.229  31.012  28.760  1.00  0.00    -0.203 F 
ATOM     87  F   UNL A   1      47.947  26.256  26.713  1.00  0.00    -0.200 F 
ATOM     88  C   UNL A   1      48.350  28.529  27.196  1.00  0.00     0.200 A 
ATOM     89  F   UNL A   1      48.678  30.824  27.637  1.00  0.00    -0.200 F 
ATOM     90  F   UNL A   1      49.566  28.447  26.637  1.00  0.00    -0.200 F 
ENDBRANCH  57  80
ENDBRANCH  31  32
ENDBRANCH  23  26
ENDBRANCH  21  22
ENDBRANCH   1  21
TORSDOF 11
ENDMDL
MODEL 3
REMARK VINA RESULT:     -12.5      2.186      6.855
REMARK SMILES CC1=C2C(=O)CC(C)(C)CC2=N[C@@H]1C(=O)NCCCCNC(=O)c1ccc(-c2c3nc(c(-c4c(F)c(F)c(F)c(F)c4F)c4ccc([nH]4)c(-c4c(F)c(F)c(F)c(F)c4F)c4nc(c(-c5c(F)c(F)c(F)c(F)c5F)c5ccc2[nH]5)C=C4)C=C3)cc1
REMARK SMILES IDX 19 1 18 2 17 3 16 4 14 5 15 6 13 8 1 9 2 10 3 11 4 12 11 13
REMARK SMILES IDX 12 14 5 15 6 16 10 17 7 18 8 19 9 20 20 21 21 22 22 23 23 25
REMARK SMILES IDX 24 26 25 27 86 28 26 29 85 30 27 31 28 32 29 33 79 34 30 35
REMARK SMILES IDX 84 36 78 37 80 38 31 39 83 40 77 41 76 42 32 44 64 45 44 46
REMARK SMILES IDX 63 47 45 48 48 49 62 50 81 51 46 52 47 53 61 55 82 56 49 57
REMARK SMILES IDX 33 58 34 59 42 60 35 61 36 62 40 63 43 64 37 65 38 66 41 67
REMARK SMILES IDX 39 68 65 69 66 70 74 71 67 72 68 73 72 74 75 75 69 76 70 77
REMARK SMILES IDX 73 78 71 79 50 80 51 81 59 82 52 83 53 84 57 85 60 86 54 87
REMARK SMILES IDX 55 88 58 89 56 90
REMARK H PARENT 16 7 21 24 80 43 48 54
REMARK Flexibility Score: inf
ROOT
ATOM      1  C   UNL A   1      37.524  19.660  24.983  1.00  0.00     0.023 C 
ENDROOT
BRANCH   1   2
ATOM      2  C   UNL A   1      36.362  20.642  25.193  1.00  0.00     0.023 C 
BRANCH   2   3
ATOM      3  C   UNL A   1      34.959  20.065  24.970  1.00  0.00     0.116 C 
BRANCH   3   4
ATOM      4  N   UNL A   1      33.963  20.782  25.752  1.00  0.00    -0.354 N 
ATOM      5  C   UNL A   1      33.184  21.851  25.373  1.00  0.00     0.249 C 
ATOM      6  O   UNL A   1      32.412  22.344  26.197  1.00  0.00    -0.272 OA
ATOM      7  H   UNL A   1      33.829  20.460  26.674  1.00  0.00     0.163 HD
BRANCH   5   8
ATOM      8  C   UNL A   1      33.246  22.296  23.889  1.00  0.00     0.221 C 
ATOM      9  C   UNL A   1      34.908  24.321  24.214  1.00  0.00     0.043 C 
ATOM     10  C   UNL A   1      33.729  23.689  23.566  1.00  0.00    -0.027 C 
ATOM     11  C   UNL A   1      32.857  24.295  22.755  1.00  0.00     0.040 C 
ATOM     12  C   UNL A   1      32.753  25.616  22.119  1.00  0.00     0.165 C 
ATOM     13  C   UNL A   1      31.668  23.560  23.152  1.00  0.00     0.048 C 
ATOM     14  N   UNL A   1      31.799  22.314  23.492  1.00  0.00    -0.271 NA
ATOM     15  O   UNL A   1      33.566  25.968  21.268  1.00  0.00    -0.294 OA
ATOM     16  C   UNL A   1      31.529  26.445  22.473  1.00  0.00     0.088 C 
ATOM     17  C   UNL A   1      30.410  24.343  23.373  1.00  0.00     0.063 C 
ATOM     18  C   UNL A   1      30.735  25.846  23.663  1.00  0.00    -0.023 C 
ATOM     19  C   UNL A   1      31.552  26.079  24.963  1.00  0.00     0.012 C 
ATOM     20  C   UNL A   1      29.399  26.581  23.849  1.00  0.00     0.012 C 
ENDBRANCH   5   8
ENDBRANCH   3   4
ENDBRANCH   2   3
ENDBRANCH   1   2
BRANCH   1  21
ATOM     21  C   UNL A   1      38.874  20.178  25.451  1.00  0.00     0.116 C 
BRANCH  21  22
ATOM     22  N   UNL A   1      39.858  19.116  25.695  1.00  0.00    -0.352 N 
ATOM     23  C   UNL A   1      41.208  19.252  25.968  1.00  0.00     0.251 C 
ATOM     24  H   UNL A   1      39.516  18.193  25.658  1.00  0.00     0.163 HD
ATOM     25  O   UNL A   1      41.996  18.322  25.784  1.00  0.00    -0.269 OA
BRANCH  23  26
ATOM     26  C   UNL A   1      41.692  20.534  26.505  1.00  0.00     0.039 A 
ATOM     27  C   UNL A   1      42.361  21.488  25.732  1.00  0.00     0.014 A 
ATOM     28  C   UNL A   1      41.406  20.780  27.839  1.00  0.00     0.014 A 
ATOM     29  C   UNL A   1      42.676  22.717  26.314  1.00  0.00     0.010 A 
ATOM     30  C   UNL A   1      41.469  22.056  28.311  1.00  0.00     0.010 A 
ATOM     31  C   UNL A   1      42.215  22.989  27.610  1.00  0.00    -0.014 A 
BRANCH  31  32
ATOM     32  C   UNL A   1      42.419  24.268  28.276  1.00  0.00     0.031 A 
ATOM     33  C   UNL A   1      41.328  25.254  28.060  1.00  0.00     0.074 A 
ATOM     34  C   UNL A   1      43.366  24.408  29.233  1.00  0.00     0.049 A 
ATOM     35  N   UNL A   1      41.406  26.412  27.496  1.00  0.00    -0.248 NA
ATOM     36  C   UNL A   1      39.951  24.846  28.391  1.00  0.00     0.031 C 
ATOM     37  C   UNL A   1      44.283  23.385  29.764  1.00  0.00     0.029 A 
ATOM     38  N   UNL A   1      43.628  25.470  30.040  1.00  0.00    -0.354 N 
ATOM     39  C   UNL A   1      40.132  26.969  27.587  1.00  0.00     0.074 A 
ATOM     40  C   UNL A   1      39.251  25.893  27.950  1.00  0.00     0.031 C 
ATOM     41  C   UNL A   1      44.803  23.798  30.940  1.00  0.00     0.029 A 
ATOM     42  C   UNL A   1      44.407  25.173  31.157  1.00  0.00     0.049 A 
ATOM     43  H   UNL A   1      43.293  26.376  29.852  1.00  0.00     0.167 HD
ATOM     44  C   UNL A   1      39.968  28.321  27.629  1.00  0.00     0.037 A 
ATOM     45  C   UNL A   1      44.673  26.000  32.199  1.00  0.00     0.037 A 
ATOM     46  C   UNL A   1      41.159  28.989  27.157  1.00  0.00     0.049 A 
ATOM     47  C   UNL A   1      44.380  27.381  31.741  1.00  0.00     0.074 A 
ATOM     48  C   UNL A   1      41.871  28.991  25.973  1.00  0.00     0.029 A 
ATOM     49  N   UNL A   1      42.011  29.515  28.098  1.00  0.00    -0.354 N 
ATOM     50  N   UNL A   1      45.065  27.995  30.817  1.00  0.00    -0.248 NA
ATOM     51  C   UNL A   1      43.034  27.884  31.963  1.00  0.00     0.031 C 
ATOM     52  C   UNL A   1      43.242  29.045  26.367  1.00  0.00     0.029 A 
ATOM     53  C   UNL A   1      43.288  29.154  27.757  1.00  0.00     0.049 A 
ATOM     54  H   UNL A   1      41.750  30.055  28.879  1.00  0.00     0.167 HD
ATOM     55  C   UNL A   1      44.112  28.653  30.052  1.00  0.00     0.074 A 
ATOM     56  C   UNL A   1      42.888  28.609  30.850  1.00  0.00     0.031 C 
ATOM     57  C   UNL A   1      44.327  28.900  28.726  1.00  0.00     0.037 A 
BRANCH  44  58
ATOM     58  C   UNL A   1      38.936  29.039  28.479  1.00  0.00     0.064 A 
ATOM     59  C   UNL A   1      38.896  28.757  29.862  1.00  0.00     0.173 A 
ATOM     60  C   UNL A   1      37.804  29.714  27.972  1.00  0.00     0.173 A 
ATOM     61  F   UNL A   1      39.921  28.134  30.463  1.00  0.00    -0.203 F 
ATOM     62  C   UNL A   1      37.760  29.006  30.636  1.00  0.00     0.198 A 
ATOM     63  C   UNL A   1      36.692  30.006  28.761  1.00  0.00     0.198 A 
ATOM     64  F   UNL A   1      37.666  30.030  26.681  1.00  0.00    -0.203 F 
ATOM     65  F   UNL A   1      37.715  28.578  31.905  1.00  0.00    -0.200 F 
ATOM     66  C   UNL A   1      36.651  29.614  30.080  1.00  0.00     0.200 A 
ATOM     67  F   UNL A   1      35.625  30.593  28.200  1.00  0.00    -0.200 F 
ATOM     68  F   UNL A   1      35.533  29.781  30.796  1.00  0.00    -0.200 F 
ENDBRANCH  44  58
BRANCH  45  69
ATOM     69  C   UNL A   1      44.839  25.654  33.633  1.00  0.00     0.064 A 
ATOM     70  C   UNL A   1      43.725  25.437  34.460  1.00  0.00     0.173 A 
ATOM     71  C   UNL A   1      46.088  25.251  34.147  1.00  0.00     0.173 A 
ATOM     72  F   UNL A   1      42.495  25.751  34.030  1.00  0.00    -0.203 F 
ATOM     73  C   UNL A   1      43.850  24.830  35.716  1.00  0.00     0.198 A 
ATOM     74  C   UNL A   1      46.211  24.649  35.402  1.00  0.00     0.198 A 
ATOM     75  F   UNL A   1      47.199  25.343  33.403  1.00  0.00    -0.203 F 
ATOM     76  F   UNL A   1      42.757  24.584  36.452  1.00  0.00    -0.200 F 
ATOM     77  C   UNL A   1      45.091  24.427  36.181  1.00  0.00     0.200 A 
ATOM     78  F   UNL A   1      47.413  24.231  35.824  1.00  0.00    -0.200 F 
ATOM     79  F   UNL A   1      45.204  23.789  37.354  1.00  0.00    -0.200 F 
ENDBRANCH  45  69
BRANCH  57  80
ATOM     80  C   UNL A   1      45.714  28.676  28.187  1.00  0.00     0.064 A 
ATOM     81  C   UNL A   1      46.156  27.471  27.612  1.00  0.00     0.173 A 
ATOM     82  C   UNL A   1      46.582  29.773  28.120  1.00  0.00     0.173 A 
ATOM     83  F   UNL A   1      45.354  26.403  27.544  1.00  0.00    -0.203 F 
ATOM     84  C   UNL A   1      47.422  27.363  27.036  1.00  0.00     0.198 A 
ATOM     85  C   UNL A   1      47.830  29.673  27.512  1.00  0.00     0.198 A 
ATOM     86  F   UNL A   1      46.194  30.964  28.602  1.00  0.00    -0.203 F 
ATOM     87  F   UNL A   1      47.821  26.197  26.504  1.00  0.00    -0.200 F 
ATOM     88  C   UNL A   1      48.254  28.467  26.980  1.00  0.00     0.200 A 
ATOM     89  F   UNL A   1      48.612  30.758  27.417  1.00  0.00    -0.200 F 
ATOM     90  F   UNL A   1      49.455  28.375  26.391  1.00  0.00    -0.200 F 
ENDBRANCH  57  80
ENDBRANCH  31  32
ENDBRANCH  23  26
ENDBRANCH  21  22
ENDBRANCH   1  21
TORSDOF 11
ENDMDL
