MODEL 1
REMARK VINA RESULT:     -13.1      0.000      0.000
REMARK SMILES O=C(NCCCCNC(=O)c1ccc(-n2cnc3ccccc32)nc1)c1ccc(-c2c3nc(c(-c4c(F)c(F)c(F)c(F)c4F)c4ccc([nH]4)c(-c4c(F)c(F)c(F)c(F)c4F)c4nc(c(-c5c(F)c(F)c(F)c(F)c5F)c5ccc2[nH]5)C=C4)C=C3)cc1
REMARK SMILES IDX 5 1 4 2 3 3 1 4 2 5 26 7 27 8 88 9 28 10 87 11 29 12 30 13
REMARK SMILES IDX 31 14 81 15 32 16 86 17 80 18 82 19 33 20 85 21 79 22 78 23
REMARK SMILES IDX 34 25 66 26 46 27 65 28 47 29 50 30 64 31 83 32 48 33 49 34
REMARK SMILES IDX 63 36 84 37 51 38 35 39 36 40 44 41 37 42 38 43 42 44 45 45
REMARK SMILES IDX 39 46 40 47 43 48 41 49 67 50 68 51 76 52 69 53 70 54 74 55
REMARK SMILES IDX 77 56 71 57 72 58 75 59 73 60 52 61 53 62 61 63 54 64 55 65
REMARK SMILES IDX 59 66 62 67 56 68 57 69 60 70 58 71 6 72 7 73 8 74 9 75
REMARK SMILES IDX 10 77 11 78 12 79 25 80 13 81 24 82 14 83 15 84 16 85 23 86
REMARK SMILES IDX 17 87 18 88 22 89 19 90 21 91 20 92
REMARK H PARENT 3 6 82 24 50 35 8 76
REMARK Flexibility Score: inf
ROOT
ATOM      1  C   UNL A   1      36.278  30.246  30.128  1.00  0.00     0.023 C 
ENDROOT
BRANCH   1   2
ATOM      2  C   UNL A   1      37.695  30.001  30.445  1.00  0.00     0.116 C 
BRANCH   2   3
ATOM      3  N   UNL A   1      38.061  28.592  30.385  1.00  0.00    -0.352 N 
ATOM      4  O   UNL A   1      39.088  26.849  29.368  1.00  0.00    -0.269 OA
ATOM      5  C   UNL A   1      38.894  28.055  29.434  1.00  0.00     0.251 C 
ATOM      6  H   UNL A   1      37.690  27.989  31.068  1.00  0.00     0.163 HD
BRANCH   5   7
ATOM      7  C   UNL A   1      39.678  29.072  28.662  1.00  0.00     0.039 A 
ATOM      8  C   UNL A   1      39.405  29.220  27.358  1.00  0.00     0.014 A 
ATOM      9  C   UNL A   1      41.083  29.015  28.899  1.00  0.00     0.014 A 
ATOM     10  C   UNL A   1      40.626  28.852  26.523  1.00  0.00     0.010 A 
ATOM     11  C   UNL A   1      42.110  29.330  28.083  1.00  0.00     0.010 A 
ATOM     12  C   UNL A   1      42.038  28.321  27.188  1.00  0.00    -0.014 A 
BRANCH  12  13
ATOM     13  C   UNL A   1      43.775  27.623  26.937  1.00  0.00     0.031 A 
ATOM     14  C   UNL A   1      42.643  26.047  26.924  1.00  0.00     0.074 A 
ATOM     15  C   UNL A   1      45.471  28.124  26.729  1.00  0.00     0.049 A 
ATOM     16  N   UNL A   1      42.042  25.490  27.992  1.00  0.00    -0.248 NA
ATOM     17  C   UNL A   1      41.316  25.358  25.886  1.00  0.00     0.031 C 
ATOM     18  C   UNL A   1      46.758  29.422  26.386  1.00  0.00     0.029 A 
ATOM     19  N   UNL A   1      46.976  27.505  26.894  1.00  0.00    -0.354 N 
ATOM     20  C   UNL A   1      41.732  24.150  27.553  1.00  0.00     0.074 A 
ATOM     21  C   UNL A   1      41.032  24.120  26.350  1.00  0.00     0.031 C 
ATOM     22  C   UNL A   1      48.158  29.298  25.952  1.00  0.00     0.029 A 
ATOM     23  C   UNL A   1      48.257  27.850  26.068  1.00  0.00     0.049 A 
ATOM     24  H   UNL A   1      47.089  26.830  27.602  1.00  0.00     0.167 HD
ATOM     25  C   UNL A   1      42.692  23.223  27.686  1.00  0.00     0.037 A 
ATOM     26  C   UNL A   1      49.247  26.973  25.542  1.00  0.00     0.037 A 
ATOM     27  C   UNL A   1      43.613  23.757  28.611  1.00  0.00     0.049 A 
ATOM     28  C   UNL A   1      48.637  25.753  26.102  1.00  0.00     0.074 A 
ATOM     29  C   UNL A   1      43.389  24.291  29.862  1.00  0.00     0.029 A 
ATOM     30  N   UNL A   1      44.617  24.460  28.036  1.00  0.00    -0.354 N 
ATOM     31  N   UNL A   1      48.552  25.537  27.397  1.00  0.00    -0.248 NA
ATOM     32  C   UNL A   1      47.543  25.301  25.243  1.00  0.00     0.031 C 
ATOM     33  C   UNL A   1      44.360  25.285  30.058  1.00  0.00     0.029 A 
ATOM     34  C   UNL A   1      45.180  25.287  28.946  1.00  0.00     0.049 A 
ATOM     35  H   UNL A   1      44.896  24.380  27.096  1.00  0.00     0.167 HD
ATOM     36  C   UNL A   1      47.193  25.290  27.617  1.00  0.00     0.074 A 
ATOM     37  C   UNL A   1      46.644  25.039  26.197  1.00  0.00     0.031 C 
ATOM     38  C   UNL A   1      46.471  25.821  28.704  1.00  0.00     0.037 A 
BRANCH  25  39
ATOM     39  C   UNL A   1      42.978  22.088  26.782  1.00  0.00     0.064 A 
ATOM     40  C   UNL A   1      42.312  20.947  27.203  1.00  0.00     0.173 A 
ATOM     41  C   UNL A   1      43.852  21.979  25.671  1.00  0.00     0.173 A 
ATOM     42  F   UNL A   1      41.463  21.018  28.238  1.00  0.00    -0.203 F 
ATOM     43  C   UNL A   1      42.502  19.737  26.581  1.00  0.00     0.198 A 
ATOM     44  C   UNL A   1      44.020  20.756  25.023  1.00  0.00     0.198 A 
ATOM     45  F   UNL A   1      44.571  23.013  25.200  1.00  0.00    -0.203 F 
ATOM     46  F   UNL A   1      41.854  18.669  27.052  1.00  0.00    -0.200 F 
ATOM     47  C   UNL A   1      43.351  19.638  25.492  1.00  0.00     0.200 A 
ATOM     48  F   UNL A   1      44.837  20.656  23.963  1.00  0.00    -0.200 F 
ATOM     49  F   UNL A   1      43.524  18.452  24.899  1.00  0.00    -0.200 F 
ENDBRANCH  25  39
BRANCH  26  50
ATOM     50  C   UNL A   1      49.970  26.991  24.126  1.00  0.00     0.064 A 
ATOM     51  C   UNL A   1      49.464  27.455  22.874  1.00  0.00     0.173 A 
ATOM     52  C   UNL A   1      51.365  26.752  24.094  1.00  0.00     0.173 A 
ATOM     53  F   UNL A   1      48.147  27.637  22.696  1.00  0.00    -0.203 F 
ATOM     54  C   UNL A   1      50.303  27.741  21.751  1.00  0.00     0.198 A 
ATOM     55  C   UNL A   1      52.200  27.050  22.993  1.00  0.00     0.198 A 
ATOM     56  F   UNL A   1      51.963  26.260  25.187  1.00  0.00    -0.203 F 
ATOM     57  F   UNL A   1      49.784  28.229  20.610  1.00  0.00    -0.200 F 
ATOM     58  C   UNL A   1      51.675  27.571  21.829  1.00  0.00     0.200 A 
ATOM     59  F   UNL A   1      53.528  26.881  23.097  1.00  0.00    -0.200 F 
ATOM     60  F   UNL A   1      52.480  27.926  20.813  1.00  0.00    -0.200 F 
ENDBRANCH  26  50
BRANCH  38  61
ATOM     61  C   UNL A   1      46.993  26.765  29.845  1.00  0.00     0.064 A 
ATOM     62  C   UNL A   1      46.492  28.024  30.320  1.00  0.00     0.173 A 
ATOM     63  C   UNL A   1      47.995  26.232  30.644  1.00  0.00     0.173 A 
ATOM     64  F   UNL A   1      45.400  28.604  29.827  1.00  0.00    -0.203 F 
ATOM     65  C   UNL A   1      47.092  28.770  31.339  1.00  0.00     0.198 A 
ATOM     66  C   UNL A   1      48.534  26.929  31.731  1.00  0.00     0.198 A 
ATOM     67  F   UNL A   1      48.414  24.982  30.410  1.00  0.00    -0.203 F 
ATOM     68  F   UNL A   1      46.672  30.020  31.605  1.00  0.00    -0.200 F 
ATOM     69  C   UNL A   1      48.117  28.211  32.052  1.00  0.00     0.200 A 
ATOM     70  F   UNL A   1      49.481  26.342  32.471  1.00  0.00    -0.200 F 
ATOM     71  F   UNL A   1      48.682  28.891  33.058  1.00  0.00    -0.200 F 
ENDBRANCH  38  61
ENDBRANCH  12  13
ENDBRANCH   5   7
ENDBRANCH   2   3
ENDBRANCH   1   2
BRANCH   1  72
ATOM     72  C   UNL A   1      36.198  30.690  28.706  1.00  0.00     0.023 C 
BRANCH  72  73
ATOM     73  C   UNL A   1      35.313  29.771  27.888  1.00  0.00     0.116 C 
BRANCH  73  74
ATOM     74  N   UNL A   1      33.956  30.264  27.771  1.00  0.00    -0.352 N 
ATOM     75  C   UNL A   1      32.976  29.801  26.934  1.00  0.00     0.252 C 
ATOM     76  H   UNL A   1      33.712  31.017  28.357  1.00  0.00     0.163 HD
ATOM     77  O   UNL A   1      31.911  30.400  26.839  1.00  0.00    -0.269 OA
BRANCH  75  78
ATOM     78  C   UNL A   1      33.217  28.584  26.136  1.00  0.00     0.058 A 
ATOM     79  C   UNL A   1      33.715  28.616  24.829  1.00  0.00     0.019 A 
ATOM     80  C   UNL A   1      32.963  27.344  26.704  1.00  0.00     0.127 A 
ATOM     81  C   UNL A   1      33.924  27.429  24.145  1.00  0.00     0.048 A 
ATOM     82  N   UNL A   1      33.140  26.161  26.053  1.00  0.00    -0.238 NA
ATOM     83  C   UNL A   1      33.652  26.232  24.800  1.00  0.00     0.138 A 
BRANCH  83  84
ATOM     84  N   UNL A   1      34.024  25.046  24.135  1.00  0.00    -0.283 N 
ATOM     85  C   UNL A   1      33.483  24.551  22.978  1.00  0.00     0.206 A 
ATOM     86  C   UNL A   1      35.087  24.231  24.476  1.00  0.00     0.074 A 
ATOM     87  N   UNL A   1      34.163  23.518  22.520  1.00  0.00    -0.236 NA
ATOM     88  C   UNL A   1      35.151  23.294  23.449  1.00  0.00     0.089 A 
ATOM     89  C   UNL A   1      35.948  24.211  25.582  1.00  0.00     0.029 A 
ATOM     90  C   UNL A   1      36.148  22.305  23.495  1.00  0.00     0.030 A 
ATOM     91  C   UNL A   1      36.923  23.213  25.617  1.00  0.00     0.002 A 
ATOM     92  C   UNL A   1      37.028  22.278  24.587  1.00  0.00     0.002 A 
ENDBRANCH  83  84
ENDBRANCH  75  78
ENDBRANCH  73  74
ENDBRANCH  72  73
ENDBRANCH   1  72
TORSDOF 12
ENDMDL
MODEL 2
REMARK VINA RESULT:     -13.1      6.661     12.978
REMARK SMILES O=C(NCCCCNC(=O)c1ccc(-n2cnc3ccccc32)nc1)c1ccc(-c2c3nc(c(-c4c(F)c(F)c(F)c(F)c4F)c4ccc([nH]4)c(-c4c(F)c(F)c(F)c(F)c4F)c4nc(c(-c5c(F)c(F)c(F)c(F)c5F)c5ccc2[nH]5)C=C4)C=C3)cc1
REMARK SMILES IDX 5 1 4 2 3 3 1 4 2 5 26 7 27 8 88 9 28 10 87 11 29 12 30 13
REMARK SMILES IDX 31 14 81 15 32 16 86 17 80 18 82 19 33 20 85 21 79 22 78 23
REMARK SMILES IDX 34 25 66 26 46 27 65 28 47 29 50 30 64 31 83 32 48 33 49 34
REMARK SMILES IDX 63 36 84 37 51 38 35 39 36 40 44 41 37 42 38 43 42 44 45 45
REMARK SMILES IDX 39 46 40 47 43 48 41 49 67 50 68 51 76 52 69 53 70 54 74 55
REMARK SMILES IDX 77 56 71 57 72 58 75 59 73 60 52 61 53 62 61 63 54 64 55 65
REMARK SMILES IDX 59 66 62 67 56 68 57 69 60 70 58 71 6 72 7 73 8 74 9 75
REMARK SMILES IDX 10 77 11 78 12 79 25 80 13 81 24 82 14 83 15 84 16 85 23 86
REMARK SMILES IDX 17 87 18 88 22 89 19 90 21 91 20 92
REMARK H PARENT 3 6 82 24 50 35 8 76
REMARK Flexibility Score: inf
ROOT
ATOM      1  C   UNL A   1      40.794  25.293  26.051  1.00  0.00     0.023 C 
ENDROOT
BRANCH   1   2
ATOM      2  C   UNL A   1      41.276  26.353  26.953  1.00  0.00     0.116 C 
BRANCH   2   3
ATOM      3  N   UNL A   1      40.558  27.612  26.794  1.00  0.00    -0.352 N 
ATOM      4  O   UNL A   1      39.157  29.211  27.573  1.00  0.00    -0.269 OA
ATOM      5  C   UNL A   1      39.823  28.208  27.789  1.00  0.00     0.251 C 
ATOM      6  H   UNL A   1      40.604  28.061  25.919  1.00  0.00     0.163 HD
BRANCH   5   7
ATOM      7  C   UNL A   1      40.086  27.657  29.158  1.00  0.00     0.039 A 
ATOM      8  C   UNL A   1      39.118  26.938  29.743  1.00  0.00     0.014 A 
ATOM      9  C   UNL A   1      40.651  28.604  30.060  1.00  0.00     0.014 A 
ATOM     10  C   UNL A   1      38.643  27.635  31.012  1.00  0.00     0.010 A 
ATOM     11  C   UNL A   1      40.537  28.695  31.402  1.00  0.00     0.010 A 
ATOM     12  C   UNL A   1      39.248  29.082  31.518  1.00  0.00    -0.014 A 
BRANCH  12  13
ATOM     13  C   UNL A   1      39.169  30.526  32.733  1.00  0.00     0.031 A 
ATOM     14  C   UNL A   1      37.859  30.995  31.379  1.00  0.00     0.074 A 
ATOM     15  C   UNL A   1      39.835  31.092  34.284  1.00  0.00     0.049 A 
ATOM     16  N   UNL A   1      38.123  31.421  30.130  1.00  0.00    -0.248 NA
ATOM     17  C   UNL A   1      36.275  30.342  30.764  1.00  0.00     0.031 C 
ATOM     18  C   UNL A   1      40.761  30.791  35.869  1.00  0.00     0.029 A 
ATOM     19  N   UNL A   1      40.037  32.489  35.110  1.00  0.00    -0.354 N 
ATOM     20  C   UNL A   1      36.894  32.053  29.715  1.00  0.00     0.074 A 
ATOM     21  C   UNL A   1      35.778  31.236  29.878  1.00  0.00     0.031 C 
ATOM     22  C   UNL A   1      40.792  31.555  37.125  1.00  0.00     0.029 A 
ATOM     23  C   UNL A   1      40.029  32.704  36.658  1.00  0.00     0.049 A 
ATOM     24  H   UNL A   1      40.183  33.296  34.564  1.00  0.00     0.167 HD
ATOM     25  C   UNL A   1      36.721  33.340  30.052  1.00  0.00     0.037 A 
ATOM     26  C   UNL A   1      39.411  33.739  37.416  1.00  0.00     0.037 A 
ATOM     27  C   UNL A   1      38.004  33.824  30.379  1.00  0.00     0.049 A 
ATOM     28  C   UNL A   1      38.897  34.461  36.237  1.00  0.00     0.074 A 
ATOM     29  C   UNL A   1      39.179  33.748  29.663  1.00  0.00     0.029 A 
ATOM     30  N   UNL A   1      38.313  33.705  31.692  1.00  0.00    -0.354 N 
ATOM     31  N   UNL A   1      39.692  35.025  35.353  1.00  0.00    -0.248 NA
ATOM     32  C   UNL A   1      37.660  33.837  35.770  1.00  0.00     0.031 C 
ATOM     33  C   UNL A   1      40.221  33.671  30.599  1.00  0.00     0.029 A 
ATOM     34  C   UNL A   1      39.654  33.761  31.856  1.00  0.00     0.049 A 
ATOM     35  H   UNL A   1      37.658  33.595  32.418  1.00  0.00     0.167 HD
ATOM     36  C   UNL A   1      39.291  34.479  34.130  1.00  0.00     0.074 A 
ATOM     37  C   UNL A   1      37.929  33.834  34.460  1.00  0.00     0.031 C 
ATOM     38  C   UNL A   1      40.193  34.052  33.135  1.00  0.00     0.037 A 
BRANCH  25  39
ATOM     39  C   UNL A   1      35.454  34.011  30.418  1.00  0.00     0.064 A 
ATOM     40  C   UNL A   1      34.899  34.643  29.316  1.00  0.00     0.173 A 
ATOM     41  C   UNL A   1      34.814  34.173  31.673  1.00  0.00     0.173 A 
ATOM     42  F   UNL A   1      35.467  34.497  28.111  1.00  0.00    -0.203 F 
ATOM     43  C   UNL A   1      33.772  35.421  29.429  1.00  0.00     0.198 A 
ATOM     44  C   UNL A   1      33.654  34.938  31.779  1.00  0.00     0.198 A 
ATOM     45  F   UNL A   1      35.285  33.632  32.810  1.00  0.00    -0.203 F 
ATOM     46  F   UNL A   1      33.303  36.027  28.336  1.00  0.00    -0.200 F 
ATOM     47  C   UNL A   1      33.147  35.568  30.655  1.00  0.00     0.200 A 
ATOM     48  F   UNL A   1      33.040  35.079  32.964  1.00  0.00    -0.200 F 
ATOM     49  F   UNL A   1      32.051  36.330  30.746  1.00  0.00    -0.200 F 
ENDBRANCH  25  39
BRANCH  26  50
ATOM     50  C   UNL A   1      38.601  33.652  38.782  1.00  0.00     0.064 A 
ATOM     51  C   UNL A   1      37.818  32.570  39.284  1.00  0.00     0.173 A 
ATOM     52  C   UNL A   1      38.849  34.646  39.760  1.00  0.00     0.173 A 
ATOM     53  F   UNL A   1      37.405  31.590  38.467  1.00  0.00    -0.203 F 
ATOM     54  C   UNL A   1      37.421  32.464  40.655  1.00  0.00     0.198 A 
ATOM     55  C   UNL A   1      38.475  34.537  41.119  1.00  0.00     0.198 A 
ATOM     56  F   UNL A   1      39.527  35.745  39.409  1.00  0.00    -0.203 F 
ATOM     57  F   UNL A   1      36.729  31.397  41.092  1.00  0.00    -0.200 F 
ATOM     58  C   UNL A   1      37.785  33.433  41.575  1.00  0.00     0.200 A 
ATOM     59  F   UNL A   1      38.845  35.488  41.992  1.00  0.00    -0.200 F 
ATOM     60  F   UNL A   1      37.498  33.296  42.881  1.00  0.00    -0.200 F 
ENDBRANCH  26  50
BRANCH  38  61
ATOM     61  C   UNL A   1      41.762  34.080  33.173  1.00  0.00     0.064 A 
ATOM     62  C   UNL A   1      42.723  33.062  32.858  1.00  0.00     0.173 A 
ATOM     63  C   UNL A   1      42.328  35.331  33.378  1.00  0.00     0.173 A 
ATOM     64  F   UNL A   1      42.383  31.849  32.426  1.00  0.00    -0.203 F 
ATOM     65  C   UNL A   1      44.107  33.230  32.971  1.00  0.00     0.198 A 
ATOM     66  C   UNL A   1      43.713  35.531  33.393  1.00  0.00     0.198 A 
ATOM     67  F   UNL A   1      41.523  36.394  33.498  1.00  0.00    -0.203 F 
ATOM     68  F   UNL A   1      44.935  32.179  32.832  1.00  0.00    -0.200 F 
ATOM     69  C   UNL A   1      44.601  34.479  33.234  1.00  0.00     0.200 A 
ATOM     70  F   UNL A   1      44.186  36.768  33.571  1.00  0.00    -0.200 F 
ATOM     71  F   UNL A   1      45.924  34.674  33.309  1.00  0.00    -0.200 F 
ENDBRANCH  38  61
ENDBRANCH  12  13
ENDBRANCH   5   7
ENDBRANCH   2   3
ENDBRANCH   1   2
BRANCH   1  72
ATOM     72  C   UNL A   1      40.241  24.193  26.894  1.00  0.00     0.023 C 
BRANCH  72  73
ATOM     73  C   UNL A   1      38.778  23.943  26.586  1.00  0.00     0.116 C 
BRANCH  73  74
ATOM     74  N   UNL A   1      38.576  22.775  25.755  1.00  0.00    -0.352 N 
ATOM     75  C   UNL A   1      37.386  22.289  25.285  1.00  0.00     0.252 C 
ATOM     76  H   UNL A   1      39.385  22.274  25.500  1.00  0.00     0.163 HD
ATOM     77  O   UNL A   1      37.344  21.210  24.704  1.00  0.00    -0.269 OA
BRANCH  75  78
ATOM     78  C   UNL A   1      36.148  23.065  25.498  1.00  0.00     0.058 A 
ATOM     79  C   UNL A   1      35.286  22.844  26.575  1.00  0.00     0.019 A 
ATOM     80  C   UNL A   1      35.828  24.078  24.606  1.00  0.00     0.127 A 
ATOM     81  C   UNL A   1      34.146  23.620  26.713  1.00  0.00     0.048 A 
ATOM     82  N   UNL A   1      34.708  24.846  24.702  1.00  0.00    -0.238 NA
ATOM     83  C   UNL A   1      33.912  24.622  25.777  1.00  0.00     0.138 A 
BRANCH  83  84
ATOM     84  N   UNL A   1      32.834  25.493  26.034  1.00  0.00    -0.283 N 
ATOM     85  C   UNL A   1      31.504  25.163  26.063  1.00  0.00     0.206 A 
ATOM     86  C   UNL A   1      32.941  26.815  26.422  1.00  0.00     0.074 A 
ATOM     87  N   UNL A   1      30.760  26.160  26.502  1.00  0.00    -0.236 NA
ATOM     88  C   UNL A   1      31.635  27.200  26.710  1.00  0.00     0.089 A 
ATOM     89  C   UNL A   1      34.031  27.692  26.502  1.00  0.00     0.029 A 
ATOM     90  C   UNL A   1      31.397  28.515  27.145  1.00  0.00     0.030 A 
ATOM     91  C   UNL A   1      33.773  28.998  26.922  1.00  0.00     0.002 A 
ATOM     92  C   UNL A   1      32.478  29.403  27.246  1.00  0.00     0.002 A 
ENDBRANCH  83  84
ENDBRANCH  75  78
ENDBRANCH  73  74
ENDBRANCH  72  73
ENDBRANCH   1  72
TORSDOF 12
ENDMDL
MODEL 3
REMARK VINA RESULT:     -12.9      1.930      2.819
REMARK SMILES O=C(NCCCCNC(=O)c1ccc(-n2cnc3ccccc32)nc1)c1ccc(-c2c3nc(c(-c4c(F)c(F)c(F)c(F)c4F)c4ccc([nH]4)c(-c4c(F)c(F)c(F)c(F)c4F)c4nc(c(-c5c(F)c(F)c(F)c(F)c5F)c5ccc2[nH]5)C=C4)C=C3)cc1
REMARK SMILES IDX 5 1 4 2 3 3 1 4 2 5 26 7 27 8 88 9 28 10 87 11 29 12 30 13
REMARK SMILES IDX 31 14 81 15 32 16 86 17 80 18 82 19 33 20 85 21 79 22 78 23
REMARK SMILES IDX 34 25 66 26 46 27 65 28 47 29 50 30 64 31 83 32 48 33 49 34
REMARK SMILES IDX 63 36 84 37 51 38 35 39 36 40 44 41 37 42 38 43 42 44 45 45
REMARK SMILES IDX 39 46 40 47 43 48 41 49 67 50 68 51 76 52 69 53 70 54 74 55
REMARK SMILES IDX 77 56 71 57 72 58 75 59 73 60 52 61 53 62 61 63 54 64 55 65
REMARK SMILES IDX 59 66 62 67 56 68 57 69 60 70 58 71 6 72 7 73 8 74 9 75
REMARK SMILES IDX 10 77 11 78 12 79 25 80 13 81 24 82 14 83 15 84 16 85 23 86
REMARK SMILES IDX 17 87 18 88 22 89 19 90 21 91 20 92
REMARK H PARENT 3 6 82 24 50 35 8 76
REMARK Flexibility Score: inf
ROOT
ATOM      1  C   UNL A   1      36.687  29.773  30.847  1.00  0.00     0.023 C 
ENDROOT
BRANCH   1   2
ATOM      2  C   UNL A   1      37.969  29.294  31.390  1.00  0.00     0.116 C 
BRANCH   2   3
ATOM      3  N   UNL A   1      38.260  27.910  31.039  1.00  0.00    -0.352 N 
ATOM      4  O   UNL A   1      39.037  26.349  29.593  1.00  0.00    -0.269 OA
ATOM      5  C   UNL A   1      38.909  27.529  29.889  1.00  0.00     0.251 C 
ATOM      6  H   UNL A   1      37.974  27.205  31.663  1.00  0.00     0.163 HD
BRANCH   5   7
ATOM      7  C   UNL A   1      39.606  28.650  29.180  1.00  0.00     0.039 A 
ATOM      8  C   UNL A   1      39.257  28.906  27.911  1.00  0.00     0.014 A 
ATOM      9  C   UNL A   1      41.022  28.638  29.340  1.00  0.00     0.014 A 
ATOM     10  C   UNL A   1      40.445  28.676  26.986  1.00  0.00     0.010 A 
ATOM     11  C   UNL A   1      41.990  29.076  28.508  1.00  0.00     0.010 A 
ATOM     12  C   UNL A   1      41.913  28.153  27.525  1.00  0.00    -0.014 A 
BRANCH  12  13
ATOM     13  C   UNL A   1      43.662  27.565  27.123  1.00  0.00     0.031 A 
ATOM     14  C   UNL A   1      42.616  25.930  27.115  1.00  0.00     0.074 A 
ATOM     15  C   UNL A   1      45.309  28.168  26.821  1.00  0.00     0.049 A 
ATOM     16  N   UNL A   1      42.123  25.295  28.195  1.00  0.00    -0.248 NA
ATOM     17  C   UNL A   1      41.257  25.213  26.140  1.00  0.00     0.031 C 
ATOM     18  C   UNL A   1      46.498  29.550  26.450  1.00  0.00     0.029 A 
ATOM     19  N   UNL A   1      46.853  27.627  26.852  1.00  0.00    -0.354 N 
ATOM     20  C   UNL A   1      41.854  23.960  27.716  1.00  0.00     0.074 A 
ATOM     21  C   UNL A   1      41.072  23.941  26.565  1.00  0.00     0.031 C 
ATOM     22  C   UNL A   1      47.868  29.522  25.915  1.00  0.00     0.029 A 
ATOM     23  C   UNL A   1      48.051  28.078  25.956  1.00  0.00     0.049 A 
ATOM     24  H   UNL A   1      47.052  26.930  27.519  1.00  0.00     0.167 HD
ATOM     25  C   UNL A   1      42.869  23.083  27.739  1.00  0.00     0.037 A 
ATOM     26  C   UNL A   1      49.047  27.282  25.323  1.00  0.00     0.037 A 
ATOM     27  C   UNL A   1      43.824  23.628  28.622  1.00  0.00     0.049 A 
ATOM     28  C   UNL A   1      48.543  26.007  25.866  1.00  0.00     0.074 A 
ATOM     29  C   UNL A   1      43.663  24.095  29.909  1.00  0.00     0.029 A 
ATOM     30  N   UNL A   1      44.746  24.410  28.013  1.00  0.00    -0.354 N 
ATOM     31  N   UNL A   1      48.563  25.731  27.153  1.00  0.00    -0.248 NA
ATOM     32  C   UNL A   1      47.416  25.532  25.065  1.00  0.00     0.031 C 
ATOM     33  C   UNL A   1      44.591  25.132  30.083  1.00  0.00     0.029 A 
ATOM     34  C   UNL A   1      45.328  25.227  28.919  1.00  0.00     0.049 A 
ATOM     35  H   UNL A   1      44.961  24.386  27.052  1.00  0.00     0.167 HD
ATOM     36  C   UNL A   1      47.238  25.399  27.454  1.00  0.00     0.074 A 
ATOM     37  C   UNL A   1      46.603  25.179  26.066  1.00  0.00     0.031 C 
ATOM     38  C   UNL A   1      46.569  25.842  28.613  1.00  0.00     0.037 A 
BRANCH  25  39
ATOM     39  C   UNL A   1      43.149  22.005  26.765  1.00  0.00     0.064 A 
ATOM     40  C   UNL A   1      42.489  20.839  27.122  1.00  0.00     0.173 A 
ATOM     41  C   UNL A   1      44.014  21.965  25.642  1.00  0.00     0.173 A 
ATOM     42  F   UNL A   1      41.649  20.846  28.167  1.00  0.00    -0.203 F 
ATOM     43  C   UNL A   1      42.675  19.669  26.427  1.00  0.00     0.198 A 
ATOM     44  C   UNL A   1      44.177  20.785  24.920  1.00  0.00     0.198 A 
ATOM     45  F   UNL A   1      44.726  23.028  25.229  1.00  0.00    -0.203 F 
ATOM     46  F   UNL A   1      42.034  18.573  26.839  1.00  0.00    -0.200 F 
ATOM     47  C   UNL A   1      43.514  19.639  25.327  1.00  0.00     0.200 A 
ATOM     48  F   UNL A   1      44.985  20.750  23.849  1.00  0.00    -0.200 F 
ATOM     49  F   UNL A   1      43.684  18.490  24.662  1.00  0.00    -0.200 F 
ENDBRANCH  25  39
BRANCH  26  50
ATOM     50  C   UNL A   1      49.664  27.401  23.862  1.00  0.00     0.064 A 
ATOM     51  C   UNL A   1      50.998  27.129  23.435  1.00  0.00     0.173 A 
ATOM     52  C   UNL A   1      48.766  27.560  22.779  1.00  0.00     0.173 A 
ATOM     53  F   UNL A   1      51.997  27.049  24.326  1.00  0.00    -0.203 F 
ATOM     54  C   UNL A   1      51.355  26.939  22.062  1.00  0.00     0.198 A 
ATOM     55  C   UNL A   1      49.110  27.355  21.423  1.00  0.00     0.198 A 
ATOM     56  F   UNL A   1      47.490  27.873  23.035  1.00  0.00    -0.203 F 
ATOM     57  F   UNL A   1      52.617  26.630  21.714  1.00  0.00    -0.200 F 
ATOM     58  C   UNL A   1      50.398  27.016  21.064  1.00  0.00     0.200 A 
ATOM     59  F   UNL A   1      48.162  27.431  20.474  1.00  0.00    -0.200 F 
ATOM     60  F   UNL A   1      50.705  26.747  19.783  1.00  0.00    -0.200 F 
ENDBRANCH  26  50
BRANCH  38  61
ATOM     61  C   UNL A   1      47.121  26.765  29.758  1.00  0.00     0.064 A 
ATOM     62  C   UNL A   1      46.590  27.973  30.322  1.00  0.00     0.173 A 
ATOM     63  C   UNL A   1      48.203  26.254  30.461  1.00  0.00     0.173 A 
ATOM     64  F   UNL A   1      45.437  28.513  29.933  1.00  0.00    -0.203 F 
ATOM     65  C   UNL A   1      47.221  28.707  31.331  1.00  0.00     0.198 A 
ATOM     66  C   UNL A   1      48.781  26.933  31.539  1.00  0.00     0.198 A 
ATOM     67  F   UNL A   1      48.668  25.040  30.142  1.00  0.00    -0.203 F 
ATOM     68  F   UNL A   1      46.757  29.920  31.683  1.00  0.00    -0.200 F 
ATOM     69  C   UNL A   1      48.321  28.176  31.946  1.00  0.00     0.200 A 
ATOM     70  F   UNL A   1      49.806  26.368  32.185  1.00  0.00    -0.200 F 
ATOM     71  F   UNL A   1      48.921  28.842  32.942  1.00  0.00    -0.200 F 
ENDBRANCH  38  61
ENDBRANCH  12  13
ENDBRANCH   5   7
ENDBRANCH   2   3
ENDBRANCH   1   2
BRANCH   1  72
ATOM     72  C   UNL A   1      36.474  31.165  31.340  1.00  0.00     0.023 C 
BRANCH  72  73
ATOM     73  C   UNL A   1      35.279  31.812  30.669  1.00  0.00     0.116 C 
BRANCH  73  74
ATOM     74  N   UNL A   1      35.662  32.774  29.656  1.00  0.00    -0.352 N 
ATOM     75  C   UNL A   1      35.479  32.669  28.304  1.00  0.00     0.252 C 
ATOM     76  H   UNL A   1      36.103  33.594  29.976  1.00  0.00     0.163 HD
ATOM     77  O   UNL A   1      35.976  33.496  27.546  1.00  0.00    -0.269 OA
BRANCH  75  78
ATOM     78  C   UNL A   1      34.694  31.544  27.760  1.00  0.00     0.058 A 
ATOM     79  C   UNL A   1      35.246  30.287  27.497  1.00  0.00     0.019 A 
ATOM     80  C   UNL A   1      33.340  31.723  27.518  1.00  0.00     0.127 A 
ATOM     81  C   UNL A   1      34.441  29.276  26.995  1.00  0.00     0.048 A 
ATOM     82  N   UNL A   1      32.527  30.757  27.008  1.00  0.00    -0.238 NA
ATOM     83  C   UNL A   1      33.092  29.543  26.794  1.00  0.00     0.138 A 
BRANCH  83  84
ATOM     84  N   UNL A   1      32.274  28.452  26.435  1.00  0.00    -0.283 N 
ATOM     85  C   UNL A   1      31.818  27.464  27.267  1.00  0.00     0.206 A 
ATOM     86  C   UNL A   1      31.690  28.255  25.199  1.00  0.00     0.074 A 
ATOM     87  N   UNL A   1      30.935  26.687  26.669  1.00  0.00    -0.236 NA
ATOM     88  C   UNL A   1      30.859  27.153  25.378  1.00  0.00     0.089 A 
ATOM     89  C   UNL A   1      31.844  28.903  23.965  1.00  0.00     0.029 A 
ATOM     90  C   UNL A   1      30.104  26.689  24.287  1.00  0.00     0.030 A 
ATOM     91  C   UNL A   1      31.097  28.419  22.890  1.00  0.00     0.002 A 
ATOM     92  C   UNL A   1      30.234  27.334  23.048  1.00  0.00     0.002 A 
ENDBRANCH  83  84
ENDBRANCH  75  78
ENDBRANCH  73  74
ENDBRANCH  72  73
ENDBRANCH   1  72
TORSDOF 12
ENDMDL
