MODEL 1
REMARK VINA RESULT:     -12.8      0.000      0.000
REMARK SMILES CCc1cc(OC(F)(F)F)cc2c1O[C@@H](C(F)(F)F)C(C(=O)NCCCCNC(=O)c1ccc(-c3c4nc(c(-c5c(F)c(F)c(F)c(F)c5F)c5ccc([nH]5)c(-c5c(F)c(F)c(F)c(F)c5F)c5nc(c(-c6c(F)c(F)c(F)c(F)c6F)c6ccc3[nH]6)C=C5)C=C4)cc1)=C2
REMARK SMILES IDX 25 1 24 2 23 3 21 4 22 5 20 7 3 8 4 9 13 10 5 11 12 12 14 13
REMARK SMILES IDX 11 14 94 15 15 16 2 17 1 18 6 19 7 20 8 21 9 22 10 23 16 24
REMARK SMILES IDX 17 25 18 26 19 27 26 28 27 29 28 30 29 31 30 33 31 34 32 35
REMARK SMILES IDX 93 36 33 37 92 38 34 39 35 40 36 41 86 42 37 43 91 44 85 45
REMARK SMILES IDX 87 46 38 47 90 48 84 49 83 50 39 52 71 53 51 54 70 55 52 56
REMARK SMILES IDX 55 57 69 58 88 59 53 60 54 61 68 63 89 64 56 65 40 66 41 67
REMARK SMILES IDX 49 68 42 69 43 70 47 71 50 72 44 73 45 74 48 75 46 76 72 77
REMARK SMILES IDX 73 78 81 79 74 80 75 81 79 82 82 83 76 84 77 85 80 86 78 87
REMARK SMILES IDX 57 88 58 89 66 90 59 91 60 92 64 93 67 94 61 95 62 96 65 97
REMARK SMILES IDX 63 98
REMARK H PARENT 23 6 28 32 87 51 55 62
REMARK Flexibility Score: inf
ROOT
ATOM      1  C   UNL A   1      31.866  30.345  26.725  1.00  0.00     0.023 C 
ENDROOT
BRANCH   1   2
ATOM      2  C   UNL A   1      33.111  29.852  25.977  1.00  0.00     0.116 C 
BRANCH   2   3
ATOM      3  N   UNL A   1      32.846  29.810  24.550  1.00  0.00    -0.352 N 
ATOM      4  C   UNL A   1      32.834  28.789  23.654  1.00  0.00     0.251 C 
ATOM      5  O   UNL A   1      32.751  29.072  22.462  1.00  0.00    -0.270 OA
ATOM      6  H   UNL A   1      32.632  30.687  24.159  1.00  0.00     0.163 HD
BRANCH   4   7
ATOM      7  C   UNL A   1      32.849  27.359  24.060  1.00  0.00     0.067 C 
ATOM      8  C   UNL A   1      32.528  23.368  25.349  1.00  0.00    -0.002 A 
ATOM      9  C   UNL A   1      33.673  22.717  25.847  1.00  0.00     0.054 A 
ATOM     10  C   UNL A   1      32.632  24.700  24.922  1.00  0.00     0.131 A 
ATOM     11  C   UNL A   1      34.900  23.382  25.914  1.00  0.00     0.130 A 
ATOM     12  C   UNL A   1      33.859  25.355  24.951  1.00  0.00     0.021 A 
ATOM     13  O   UNL A   1      31.481  25.346  24.571  1.00  0.00    -0.475 OA
ATOM     14  C   UNL A   1      34.988  24.695  25.446  1.00  0.00     0.058 A 
ATOM     15  C   UNL A   1      33.941  26.749  24.544  1.00  0.00     0.025 C 
ATOM     16  C   UNL A   1      31.597  26.544  23.750  1.00  0.00     0.314 C 
BRANCH   8  17
ATOM     17  C   UNL A   1      31.210  22.626  25.292  1.00  0.00     0.036 C 
ATOM     18  C   UNL A   1      30.386  22.792  26.563  1.00  0.00     0.009 C 
ENDBRANCH   8  17
BRANCH  11  19
ATOM     19  O   UNL A   1      36.072  22.888  26.411  1.00  0.00    -0.406 OA
BRANCH  19  20
ATOM     20  C   UNL A   1      37.138  22.669  25.503  1.00  0.00     0.573 C 
ATOM     21  F   UNL A   1      36.688  22.201  24.320  1.00  0.00    -0.132 F 
ATOM     22  F   UNL A   1      37.841  23.803  25.304  1.00  0.00    -0.132 F 
ATOM     23  F   UNL A   1      37.970  21.744  26.031  1.00  0.00    -0.132 F 
ENDBRANCH  19  20
ENDBRANCH  11  19
BRANCH  16  24
ATOM     24  C   UNL A   1      30.239  27.277  23.843  1.00  0.00     0.429 C 
ATOM     25  F   UNL A   1      29.893  27.888  22.689  1.00  0.00    -0.167 F 
ATOM     26  F   UNL A   1      29.233  26.397  24.100  1.00  0.00    -0.167 F 
ATOM     27  F   UNL A   1      30.215  28.195  24.836  1.00  0.00    -0.167 F 
ENDBRANCH  16  24
ENDBRANCH   4   7
ENDBRANCH   2   3
ENDBRANCH   1   2
BRANCH   1  28
ATOM     28  C   UNL A   1      31.675  31.863  26.695  1.00  0.00     0.023 C 
BRANCH  28  29
ATOM     29  C   UNL A   1      32.801  32.660  27.341  1.00  0.00     0.116 C 
BRANCH  29  30
ATOM     30  N   UNL A   1      32.433  34.035  27.639  1.00  0.00    -0.352 N 
ATOM     31  C   UNL A   1      32.992  34.892  28.556  1.00  0.00     0.251 C 
ATOM     32  H   UNL A   1      31.684  34.399  27.114  1.00  0.00     0.163 HD
ATOM     33  O   UNL A   1      32.499  35.992  28.761  1.00  0.00    -0.269 OA
BRANCH  31  34
ATOM     34  C   UNL A   1      34.170  34.447  29.329  1.00  0.00     0.039 A 
ATOM     35  C   UNL A   1      33.963  33.817  30.557  1.00  0.00     0.014 A 
ATOM     36  C   UNL A   1      35.461  34.610  28.820  1.00  0.00     0.014 A 
ATOM     37  C   UNL A   1      35.052  33.281  31.245  1.00  0.00     0.010 A 
ATOM     38  C   UNL A   1      36.536  34.020  29.474  1.00  0.00     0.010 A 
ATOM     39  C   UNL A   1      36.339  33.341  30.687  1.00  0.00    -0.014 A 
BRANCH  39  40
ATOM     40  C   UNL A   1      37.488  32.674  31.345  1.00  0.00     0.031 A 
ATOM     41  C   UNL A   1      38.160  31.504  30.688  1.00  0.00     0.074 A 
ATOM     42  C   UNL A   1      37.872  33.079  32.570  1.00  0.00     0.049 A 
ATOM     43  N   UNL A   1      39.133  30.752  31.136  1.00  0.00    -0.248 NA
ATOM     44  C   UNL A   1      37.656  31.111  29.364  1.00  0.00     0.031 C 
ATOM     45  C   UNL A   1      37.257  34.168  33.331  1.00  0.00     0.029 A 
ATOM     46  N   UNL A   1      38.863  32.615  33.397  1.00  0.00    -0.354 N 
ATOM     47  C   UNL A   1      39.348  29.791  30.157  1.00  0.00     0.074 A 
ATOM     48  C   UNL A   1      38.372  30.024  29.114  1.00  0.00     0.031 C 
ATOM     49  C   UNL A   1      37.895  34.300  34.505  1.00  0.00     0.029 A 
ATOM     50  C   UNL A   1      38.940  33.285  34.593  1.00  0.00     0.049 A 
ATOM     51  H   UNL A   1      39.462  31.871  33.156  1.00  0.00     0.167 HD
ATOM     52  C   UNL A   1      40.289  28.818  30.124  1.00  0.00     0.037 A 
ATOM     53  C   UNL A   1      39.759  33.096  35.646  1.00  0.00     0.037 A 
ATOM     54  C   UNL A   1      41.271  28.608  31.153  1.00  0.00     0.049 A 
ATOM     55  C   UNL A   1      40.794  32.007  35.582  1.00  0.00     0.074 A 
ATOM     56  C   UNL A   1      42.315  27.699  31.178  1.00  0.00     0.029 A 
ATOM     57  N   UNL A   1      41.329  29.315  32.345  1.00  0.00    -0.354 N 
ATOM     58  N   UNL A   1      41.039  31.155  34.617  1.00  0.00    -0.248 NA
ATOM     59  C   UNL A   1      41.667  31.856  36.754  1.00  0.00     0.031 C 
ATOM     60  C   UNL A   1      42.977  27.825  32.404  1.00  0.00     0.029 A 
ATOM     61  C   UNL A   1      42.374  28.844  33.125  1.00  0.00     0.049 A 
ATOM     62  H   UNL A   1      40.718  30.044  32.600  1.00  0.00     0.167 HD
ATOM     63  C   UNL A   1      42.104  30.380  35.054  1.00  0.00     0.074 A 
ATOM     64  C   UNL A   1      42.471  30.877  36.365  1.00  0.00     0.031 C 
ATOM     65  C   UNL A   1      42.722  29.348  34.428  1.00  0.00     0.037 A 
BRANCH  52  66
ATOM     66  C   UNL A   1      40.303  27.910  28.929  1.00  0.00     0.064 A 
ATOM     67  C   UNL A   1      41.039  28.223  27.776  1.00  0.00     0.173 A 
ATOM     68  C   UNL A   1      39.601  26.695  28.950  1.00  0.00     0.173 A 
ATOM     69  F   UNL A   1      41.715  29.380  27.702  1.00  0.00    -0.203 F 
ATOM     70  C   UNL A   1      41.048  27.369  26.678  1.00  0.00     0.198 A 
ATOM     71  C   UNL A   1      39.638  25.829  27.861  1.00  0.00     0.198 A 
ATOM     72  F   UNL A   1      38.887  26.344  30.030  1.00  0.00    -0.203 F 
ATOM     73  F   UNL A   1      41.719  27.712  25.570  1.00  0.00    -0.200 F 
ATOM     74  C   UNL A   1      40.354  26.169  26.723  1.00  0.00     0.200 A 
ATOM     75  F   UNL A   1      38.975  24.664  27.910  1.00  0.00    -0.200 F 
ATOM     76  F   UNL A   1      40.370  25.344  25.667  1.00  0.00    -0.200 F 
ENDBRANCH  52  66
BRANCH  53  77
ATOM     77  C   UNL A   1      39.645  33.973  36.838  1.00  0.00     0.064 A 
ATOM     78  C   UNL A   1      40.328  35.196  36.897  1.00  0.00     0.173 A 
ATOM     79  C   UNL A   1      38.854  33.613  37.938  1.00  0.00     0.173 A 
ATOM     80  F   UNL A   1      41.112  35.574  35.876  1.00  0.00    -0.203 F 
ATOM     81  C   UNL A   1      40.238  36.017  38.018  1.00  0.00     0.198 A 
ATOM     82  C   UNL A   1      38.745  34.447  39.048  1.00  0.00     0.198 A 
ATOM     83  F   UNL A   1      38.177  32.456  37.929  1.00  0.00    -0.203 F 
ATOM     84  F   UNL A   1      40.934  37.163  38.064  1.00  0.00    -0.200 F 
ATOM     85  C   UNL A   1      39.442  35.645  39.091  1.00  0.00     0.200 A 
ATOM     86  F   UNL A   1      37.963  34.091  40.078  1.00  0.00    -0.200 F 
ATOM     87  F   UNL A   1      39.351  36.438  40.167  1.00  0.00    -0.200 F 
ENDBRANCH  53  77
BRANCH  65  88
ATOM     88  C   UNL A   1      43.866  28.698  35.149  1.00  0.00     0.064 A 
ATOM     89  C   UNL A   1      45.182  29.160  35.000  1.00  0.00     0.173 A 
ATOM     90  C   UNL A   1      43.638  27.626  36.025  1.00  0.00     0.173 A 
ATOM     91  F   UNL A   1      45.452  30.171  34.162  1.00  0.00    -0.203 F 
ATOM     92  C   UNL A   1      46.232  28.557  35.687  1.00  0.00     0.198 A 
ATOM     93  C   UNL A   1      44.687  27.044  36.731  1.00  0.00     0.198 A 
ATOM     94  F   UNL A   1      42.396  27.151  36.205  1.00  0.00    -0.203 F 
ATOM     95  F   UNL A   1      47.488  28.984  35.496  1.00  0.00    -0.200 F 
ATOM     96  C   UNL A   1      45.983  27.505  36.555  1.00  0.00     0.200 A 
ATOM     97  F   UNL A   1      44.443  26.036  37.579  1.00  0.00    -0.200 F 
ATOM     98  F   UNL A   1      46.995  26.929  37.219  1.00  0.00    -0.200 F 
ENDBRANCH  65  88
ENDBRANCH  39  40
ENDBRANCH  31  34
ENDBRANCH  29  30
ENDBRANCH  28  29
ENDBRANCH   1  28
TORSDOF 15
ENDMDL
MODEL 2
REMARK VINA RESULT:     -12.7      5.575     11.013
REMARK SMILES CCc1cc(OC(F)(F)F)cc2c1O[C@@H](C(F)(F)F)C(C(=O)NCCCCNC(=O)c1ccc(-c3c4nc(c(-c5c(F)c(F)c(F)c(F)c5F)c5ccc([nH]5)c(-c5c(F)c(F)c(F)c(F)c5F)c5nc(c(-c6c(F)c(F)c(F)c(F)c6F)c6ccc3[nH]6)C=C5)C=C4)cc1)=C2
REMARK SMILES IDX 25 1 24 2 23 3 21 4 22 5 20 7 3 8 4 9 13 10 5 11 12 12 14 13
REMARK SMILES IDX 11 14 94 15 15 16 2 17 1 18 6 19 7 20 8 21 9 22 10 23 16 24
REMARK SMILES IDX 17 25 18 26 19 27 26 28 27 29 28 30 29 31 30 33 31 34 32 35
REMARK SMILES IDX 93 36 33 37 92 38 34 39 35 40 36 41 86 42 37 43 91 44 85 45
REMARK SMILES IDX 87 46 38 47 90 48 84 49 83 50 39 52 71 53 51 54 70 55 52 56
REMARK SMILES IDX 55 57 69 58 88 59 53 60 54 61 68 63 89 64 56 65 40 66 41 67
REMARK SMILES IDX 49 68 42 69 43 70 47 71 50 72 44 73 45 74 48 75 46 76 72 77
REMARK SMILES IDX 73 78 81 79 74 80 75 81 79 82 82 83 76 84 77 85 80 86 78 87
REMARK SMILES IDX 57 88 58 89 66 90 59 91 60 92 64 93 67 94 61 95 62 96 65 97
REMARK SMILES IDX 63 98
REMARK H PARENT 23 6 28 32 87 51 55 62
REMARK Flexibility Score: inf
ROOT
ATOM      1  C   UNL A   1      37.253  21.208  24.601  1.00  0.00     0.023 C 
ENDROOT
BRANCH   1   2
ATOM      2  C   UNL A   1      36.791  22.070  25.783  1.00  0.00     0.116 C 
BRANCH   2   3
ATOM      3  N   UNL A   1      35.647  21.451  26.428  1.00  0.00    -0.352 N 
ATOM      4  C   UNL A   1      34.376  21.880  26.638  1.00  0.00     0.251 C 
ATOM      5  O   UNL A   1      33.659  21.212  27.379  1.00  0.00    -0.270 OA
ATOM      6  H   UNL A   1      35.827  20.549  26.778  1.00  0.00     0.163 HD
BRANCH   4   7
ATOM      7  C   UNL A   1      33.804  23.074  25.961  1.00  0.00     0.067 C 
ATOM      8  C   UNL A   1      32.205  26.246  23.710  1.00  0.00    -0.002 A 
ATOM      9  C   UNL A   1      32.547  27.568  24.054  1.00  0.00     0.054 A 
ATOM     10  C   UNL A   1      32.740  25.187  24.457  1.00  0.00     0.131 A 
ATOM     11  C   UNL A   1      33.405  27.828  25.125  1.00  0.00     0.130 A 
ATOM     12  C   UNL A   1      33.564  25.441  25.549  1.00  0.00     0.021 A 
ATOM     13  O   UNL A   1      32.498  23.916  24.020  1.00  0.00    -0.475 OA
ATOM     14  C   UNL A   1      33.894  26.759  25.879  1.00  0.00     0.058 A 
ATOM     15  C   UNL A   1      34.145  24.330  26.287  1.00  0.00     0.025 C 
ATOM     16  C   UNL A   1      32.672  22.825  24.970  1.00  0.00     0.314 C 
BRANCH   8  17
ATOM     17  C   UNL A   1      31.277  25.993  22.542  1.00  0.00     0.036 C 
ATOM     18  C   UNL A   1      32.016  25.906  21.212  1.00  0.00     0.009 C 
ENDBRANCH   8  17
BRANCH  11  19
ATOM     19  O   UNL A   1      33.850  29.051  25.538  1.00  0.00    -0.406 OA
BRANCH  19  20
ATOM     20  C   UNL A   1      33.389  29.539  26.787  1.00  0.00     0.573 C 
ATOM     21  F   UNL A   1      32.058  29.362  26.921  1.00  0.00    -0.132 F 
ATOM     22  F   UNL A   1      34.032  28.935  27.807  1.00  0.00    -0.132 F 
ATOM     23  F   UNL A   1      33.644  30.865  26.852  1.00  0.00    -0.132 F 
ENDBRANCH  19  20
ENDBRANCH  11  19
BRANCH  16  24
ATOM     24  C   UNL A   1      32.736  21.522  24.141  1.00  0.00     0.429 C 
ATOM     25  F   UNL A   1      32.161  20.472  24.768  1.00  0.00    -0.167 F 
ATOM     26  F   UNL A   1      32.052  21.660  22.971  1.00  0.00    -0.167 F 
ATOM     27  F   UNL A   1      34.003  21.181  23.812  1.00  0.00    -0.167 F 
ENDBRANCH  16  24
ENDBRANCH   4   7
ENDBRANCH   2   3
ENDBRANCH   1   2
BRANCH   1  28
ATOM     28  C   UNL A   1      38.082  19.985  25.002  1.00  0.00     0.023 C 
BRANCH  28  29
ATOM     29  C   UNL A   1      39.350  20.303  25.783  1.00  0.00     0.116 C 
BRANCH  29  30
ATOM     30  N   UNL A   1      40.269  19.178  25.867  1.00  0.00    -0.352 N 
ATOM     31  C   UNL A   1      41.618  19.193  26.125  1.00  0.00     0.251 C 
ATOM     32  H   UNL A   1      39.870  18.291  25.720  1.00  0.00     0.163 HD
ATOM     33  O   UNL A   1      42.275  18.163  26.061  1.00  0.00    -0.269 OA
BRANCH  31  34
ATOM     34  C   UNL A   1      42.276  20.478  26.434  1.00  0.00     0.039 A 
ATOM     35  C   UNL A   1      42.794  21.233  25.380  1.00  0.00     0.014 A 
ATOM     36  C   UNL A   1      42.337  20.953  27.747  1.00  0.00     0.014 A 
ATOM     37  C   UNL A   1      43.310  22.504  25.635  1.00  0.00     0.010 A 
ATOM     38  C   UNL A   1      42.792  22.243  27.990  1.00  0.00     0.010 A 
ATOM     39  C   UNL A   1      43.273  23.034  26.935  1.00  0.00    -0.014 A 
BRANCH  39  40
ATOM     40  C   UNL A   1      43.706  24.426  27.205  1.00  0.00     0.031 A 
ATOM     41  C   UNL A   1      42.714  25.448  27.678  1.00  0.00     0.074 A 
ATOM     42  C   UNL A   1      44.979  24.781  26.947  1.00  0.00     0.049 A 
ATOM     43  N   UNL A   1      42.888  26.725  27.903  1.00  0.00    -0.248 NA
ATOM     44  C   UNL A   1      41.339  24.978  27.905  1.00  0.00     0.031 C 
ATOM     45  C   UNL A   1      46.017  23.888  26.430  1.00  0.00     0.029 A 
ATOM     46  N   UNL A   1      45.613  25.991  27.072  1.00  0.00    -0.354 N 
ATOM     47  C   UNL A   1      41.646  27.214  28.284  1.00  0.00     0.074 A 
ATOM     48  C   UNL A   1      40.715  26.107  28.211  1.00  0.00     0.031 C 
ATOM     49  C   UNL A   1      47.163  24.576  26.299  1.00  0.00     0.029 A 
ATOM     50  C   UNL A   1      46.932  25.962  26.690  1.00  0.00     0.049 A 
ATOM     51  H   UNL A   1      45.166  26.803  27.403  1.00  0.00     0.167 HD
ATOM     52  C   UNL A   1      41.317  28.467  28.678  1.00  0.00     0.037 A 
ATOM     53  C   UNL A   1      47.849  26.948  26.653  1.00  0.00     0.037 A 
ATOM     54  C   UNL A   1      42.252  29.556  28.771  1.00  0.00     0.049 A 
ATOM     55  C   UNL A   1      47.457  28.330  27.096  1.00  0.00     0.074 A 
ATOM     56  C   UNL A   1      42.036  30.843  29.232  1.00  0.00     0.029 A 
ATOM     57  N   UNL A   1      43.584  29.488  28.389  1.00  0.00    -0.354 N 
ATOM     58  N   UNL A   1      46.299  28.762  27.530  1.00  0.00    -0.248 NA
ATOM     59  C   UNL A   1      48.503  29.361  27.047  1.00  0.00     0.031 C 
ATOM     60  C   UNL A   1      43.224  31.566  29.088  1.00  0.00     0.029 A 
ATOM     61  C   UNL A   1      44.195  30.717  28.580  1.00  0.00     0.049 A 
ATOM     62  H   UNL A   1      44.030  28.684  28.036  1.00  0.00     0.167 HD
ATOM     63  C   UNL A   1      46.477  30.106  27.822  1.00  0.00     0.074 A 
ATOM     64  C   UNL A   1      47.863  30.415  27.535  1.00  0.00     0.031 C 
ATOM     65  C   UNL A   1      45.575  31.006  28.285  1.00  0.00     0.037 A 
BRANCH  52  66
ATOM     66  C   UNL A   1      39.885  28.723  29.046  1.00  0.00     0.064 A 
ATOM     67  C   UNL A   1      38.954  29.180  28.101  1.00  0.00     0.173 A 
ATOM     68  C   UNL A   1      39.430  28.474  30.350  1.00  0.00     0.173 A 
ATOM     69  F   UNL A   1      39.343  29.446  26.844  1.00  0.00    -0.203 F 
ATOM     70  C   UNL A   1      37.627  29.407  28.455  1.00  0.00     0.198 A 
ATOM     71  C   UNL A   1      38.095  28.674  30.691  1.00  0.00     0.198 A 
ATOM     72  F   UNL A   1      40.277  28.031  31.290  1.00  0.00    -0.203 F 
ATOM     73  F   UNL A   1      36.767  29.890  27.547  1.00  0.00    -0.200 F 
ATOM     74  C   UNL A   1      37.197  29.147  29.747  1.00  0.00     0.200 A 
ATOM     75  F   UNL A   1      37.678  28.412  31.938  1.00  0.00    -0.200 F 
ATOM     76  F   UNL A   1      35.917  29.360  30.084  1.00  0.00    -0.200 F 
ENDBRANCH  52  66
BRANCH  53  77
ATOM     77  C   UNL A   1      49.233  26.654  26.201  1.00  0.00     0.064 A 
ATOM     78  C   UNL A   1      50.187  26.149  27.093  1.00  0.00     0.173 A 
ATOM     79  C   UNL A   1      49.628  26.868  24.873  1.00  0.00     0.173 A 
ATOM     80  F   UNL A   1      49.860  25.946  28.378  1.00  0.00    -0.203 F 
ATOM     81  C   UNL A   1      51.490  25.884  26.680  1.00  0.00     0.198 A 
ATOM     82  C   UNL A   1      50.925  26.580  24.454  1.00  0.00     0.198 A 
ATOM     83  F   UNL A   1      48.751  27.346  23.978  1.00  0.00    -0.203 F 
ATOM     84  F   UNL A   1      52.395  25.439  27.564  1.00  0.00    -0.200 F 
ATOM     85  C   UNL A   1      51.857  26.095  25.359  1.00  0.00     0.200 A 
ATOM     86  F   UNL A   1      51.273  26.771  23.174  1.00  0.00    -0.200 F 
ATOM     87  F   UNL A   1      53.110  25.836  24.960  1.00  0.00    -0.200 F 
ENDBRANCH  53  77
BRANCH  65  88
ATOM     88  C   UNL A   1      46.064  32.405  28.521  1.00  0.00     0.064 A 
ATOM     89  C   UNL A   1      46.625  32.786  29.749  1.00  0.00     0.173 A 
ATOM     90  C   UNL A   1      46.004  33.362  27.498  1.00  0.00     0.173 A 
ATOM     91  F   UNL A   1      46.690  31.911  30.763  1.00  0.00    -0.203 F 
ATOM     92  C   UNL A   1      47.089  34.083  29.949  1.00  0.00     0.198 A 
ATOM     93  C   UNL A   1      46.494  34.651  27.693  1.00  0.00     0.198 A 
ATOM     94  F   UNL A   1      45.480  33.045  26.304  1.00  0.00    -0.203 F 
ATOM     95  F   UNL A   1      47.581  34.439  31.144  1.00  0.00    -0.200 F 
ATOM     96  C   UNL A   1      47.029  35.011  28.920  1.00  0.00     0.200 A 
ATOM     97  F   UNL A   1      46.446  35.542  26.695  1.00  0.00    -0.200 F 
ATOM     98  F   UNL A   1      47.481  36.258  29.114  1.00  0.00    -0.200 F 
ENDBRANCH  65  88
ENDBRANCH  39  40
ENDBRANCH  31  34
ENDBRANCH  29  30
ENDBRANCH  28  29
ENDBRANCH   1  28
TORSDOF 15
ENDMDL
MODEL 3
REMARK VINA RESULT:     -12.6      5.492     10.990
REMARK SMILES CCc1cc(OC(F)(F)F)cc2c1O[C@@H](C(F)(F)F)C(C(=O)NCCCCNC(=O)c1ccc(-c3c4nc(c(-c5c(F)c(F)c(F)c(F)c5F)c5ccc([nH]5)c(-c5c(F)c(F)c(F)c(F)c5F)c5nc(c(-c6c(F)c(F)c(F)c(F)c6F)c6ccc3[nH]6)C=C5)C=C4)cc1)=C2
REMARK SMILES IDX 25 1 24 2 23 3 21 4 22 5 20 7 3 8 4 9 13 10 5 11 12 12 14 13
REMARK SMILES IDX 11 14 94 15 15 16 2 17 1 18 6 19 7 20 8 21 9 22 10 23 16 24
REMARK SMILES IDX 17 25 18 26 19 27 26 28 27 29 28 30 29 31 30 33 31 34 32 35
REMARK SMILES IDX 93 36 33 37 92 38 34 39 35 40 36 41 86 42 37 43 91 44 85 45
REMARK SMILES IDX 87 46 38 47 90 48 84 49 83 50 39 52 71 53 51 54 70 55 52 56
REMARK SMILES IDX 55 57 69 58 88 59 53 60 54 61 68 63 89 64 56 65 40 66 41 67
REMARK SMILES IDX 49 68 42 69 43 70 47 71 50 72 44 73 45 74 48 75 46 76 72 77
REMARK SMILES IDX 73 78 81 79 74 80 75 81 79 82 82 83 76 84 77 85 80 86 78 87
REMARK SMILES IDX 57 88 58 89 66 90 59 91 60 92 64 93 67 94 61 95 62 96 65 97
REMARK SMILES IDX 63 98
REMARK H PARENT 23 6 28 32 87 51 55 62
REMARK Flexibility Score: inf
ROOT
ATOM      1  C   UNL A   1      37.438  21.457  24.575  1.00  0.00     0.023 C 
ENDROOT
BRANCH   1   2
ATOM      2  C   UNL A   1      36.804  22.304  25.686  1.00  0.00     0.116 C 
BRANCH   2   3
ATOM      3  N   UNL A   1      35.568  21.687  26.131  1.00  0.00    -0.352 N 
ATOM      4  C   UNL A   1      34.304  22.169  26.261  1.00  0.00     0.251 C 
ATOM      5  O   UNL A   1      33.478  21.466  26.838  1.00  0.00    -0.270 OA
ATOM      6  H   UNL A   1      35.663  20.742  26.386  1.00  0.00     0.163 HD
BRANCH   4   7
ATOM      7  C   UNL A   1      33.871  23.466  25.679  1.00  0.00     0.067 C 
ATOM      8  C   UNL A   1      32.737  26.988  23.678  1.00  0.00    -0.002 A 
ATOM      9  C   UNL A   1      32.972  28.231  24.297  1.00  0.00     0.054 A 
ATOM     10  C   UNL A   1      33.117  25.813  24.342  1.00  0.00     0.131 A 
ATOM     11  C   UNL A   1      33.574  28.299  25.555  1.00  0.00     0.130 A 
ATOM     12  C   UNL A   1      33.682  25.872  25.612  1.00  0.00     0.021 A 
ATOM     13  O   UNL A   1      32.999  24.634  23.663  1.00  0.00    -0.475 OA
ATOM     14  C   UNL A   1      33.908  27.114  26.214  1.00  0.00     0.058 A 
ATOM     15  C   UNL A   1      34.110  24.647  26.269  1.00  0.00     0.025 C 
ATOM     16  C   UNL A   1      32.983  23.401  24.439  1.00  0.00     0.314 C 
BRANCH   8  17
ATOM     17  C   UNL A   1      32.088  26.943  22.312  1.00  0.00     0.036 C 
ATOM     18  C   UNL A   1      30.629  27.382  22.340  1.00  0.00     0.009 C 
ENDBRANCH   8  17
BRANCH  11  19
ATOM     19  O   UNL A   1      33.898  29.431  26.247  1.00  0.00    -0.406 OA
BRANCH  19  20
ATOM     20  C   UNL A   1      32.857  30.117  26.924  1.00  0.00     0.573 C 
ATOM     21  F   UNL A   1      32.061  30.778  26.058  1.00  0.00    -0.132 F 
ATOM     22  F   UNL A   1      32.117  29.262  27.660  1.00  0.00    -0.132 F 
ATOM     23  F   UNL A   1      33.412  31.023  27.760  1.00  0.00    -0.132 F 
ENDBRANCH  19  20
ENDBRANCH  11  19
BRANCH  16  24
ATOM     24  C   UNL A   1      33.248  22.248  23.444  1.00  0.00     0.429 C 
ATOM     25  F   UNL A   1      32.794  21.056  23.889  1.00  0.00    -0.167 F 
ATOM     26  F   UNL A   1      32.596  22.465  22.269  1.00  0.00    -0.167 F 
ATOM     27  F   UNL A   1      34.561  22.119  23.141  1.00  0.00    -0.167 F 
ENDBRANCH  16  24
ENDBRANCH   4   7
ENDBRANCH   2   3
ENDBRANCH   1   2
BRANCH   1  28
ATOM     28  C   UNL A   1      38.057  20.144  25.061  1.00  0.00     0.023 C 
BRANCH  28  29
ATOM     29  C   UNL A   1      39.232  20.309  26.015  1.00  0.00     0.116 C 
BRANCH  29  30
ATOM     30  N   UNL A   1      40.176  19.202  25.959  1.00  0.00    -0.352 N 
ATOM     31  C   UNL A   1      41.543  19.236  26.088  1.00  0.00     0.251 C 
ATOM     32  H   UNL A   1      39.781  18.313  25.809  1.00  0.00     0.163 HD
ATOM     33  O   UNL A   1      42.209  18.225  25.913  1.00  0.00    -0.269 OA
BRANCH  31  34
ATOM     34  C   UNL A   1      42.204  20.521  26.391  1.00  0.00     0.039 A 
ATOM     35  C   UNL A   1      42.613  21.329  25.329  1.00  0.00     0.014 A 
ATOM     36  C   UNL A   1      42.375  20.942  27.713  1.00  0.00     0.014 A 
ATOM     37  C   UNL A   1      43.127  22.599  25.591  1.00  0.00     0.010 A 
ATOM     38  C   UNL A   1      42.827  22.231  27.970  1.00  0.00     0.010 A 
ATOM     39  C   UNL A   1      43.198  23.074  26.911  1.00  0.00    -0.014 A 
BRANCH  39  40
ATOM     40  C   UNL A   1      43.630  24.462  27.201  1.00  0.00     0.031 A 
ATOM     41  C   UNL A   1      42.643  25.469  27.716  1.00  0.00     0.074 A 
ATOM     42  C   UNL A   1      44.895  24.830  26.925  1.00  0.00     0.049 A 
ATOM     43  N   UNL A   1      42.815  26.742  27.964  1.00  0.00    -0.248 NA
ATOM     44  C   UNL A   1      41.275  24.988  27.960  1.00  0.00     0.031 C 
ATOM     45  C   UNL A   1      45.927  23.953  26.369  1.00  0.00     0.029 A 
ATOM     46  N   UNL A   1      45.526  26.040  27.062  1.00  0.00    -0.354 N 
ATOM     47  C   UNL A   1      41.578  27.216  28.380  1.00  0.00     0.074 A 
ATOM     48  C   UNL A   1      40.652  26.106  28.303  1.00  0.00     0.031 C 
ATOM     49  C   UNL A   1      47.067  24.649  26.229  1.00  0.00     0.029 A 
ATOM     50  C   UNL A   1      46.837  26.026  26.654  1.00  0.00     0.049 A 
ATOM     51  H   UNL A   1      45.082  26.842  27.420  1.00  0.00     0.167 HD
ATOM     52  C   UNL A   1      41.252  28.459  28.807  1.00  0.00     0.037 A 
ATOM     53  C   UNL A   1      47.748  27.017  26.618  1.00  0.00     0.037 A 
ATOM     54  C   UNL A   1      42.184  29.551  28.903  1.00  0.00     0.049 A 
ATOM     55  C   UNL A   1      47.359  28.387  27.098  1.00  0.00     0.074 A 
ATOM     56  C   UNL A   1      41.970  30.827  29.396  1.00  0.00     0.029 A 
ATOM     57  N   UNL A   1      43.507  29.498  28.494  1.00  0.00    -0.354 N 
ATOM     58  N   UNL A   1      46.207  28.804  27.564  1.00  0.00    -0.248 NA
ATOM     59  C   UNL A   1      48.398  29.425  27.049  1.00  0.00     0.031 C 
ATOM     60  C   UNL A   1      43.152  31.559  29.243  1.00  0.00     0.029 A 
ATOM     61  C   UNL A   1      44.116  30.726  28.697  1.00  0.00     0.049 A 
ATOM     62  H   UNL A   1      43.950  28.704  28.114  1.00  0.00     0.167 HD
ATOM     63  C   UNL A   1      46.386  30.143  27.881  1.00  0.00     0.074 A 
ATOM     64  C   UNL A   1      47.764  30.465  27.572  1.00  0.00     0.031 C 
ATOM     65  C   UNL A   1      45.488  31.028  28.380  1.00  0.00     0.037 A 
BRANCH  52  66
ATOM     66  C   UNL A   1      39.827  28.700  29.209  1.00  0.00     0.064 A 
ATOM     67  C   UNL A   1      39.388  28.483  30.524  1.00  0.00     0.173 A 
ATOM     68  C   UNL A   1      38.897  29.188  28.279  1.00  0.00     0.173 A 
ATOM     69  F   UNL A   1      40.235  28.004  31.448  1.00  0.00    -0.203 F 
ATOM     70  C   UNL A   1      38.064  28.717  30.885  1.00  0.00     0.198 A 
ATOM     71  C   UNL A   1      37.582  29.450  28.652  1.00  0.00     0.198 A 
ATOM     72  F   UNL A   1      39.267  29.419  27.010  1.00  0.00    -0.203 F 
ATOM     73  F   UNL A   1      37.656  28.457  32.135  1.00  0.00    -0.200 F 
ATOM     74  C   UNL A   1      37.164  29.207  29.951  1.00  0.00     0.200 A 
ATOM     75  F   UNL A   1      36.715  29.934  27.750  1.00  0.00    -0.200 F 
ATOM     76  F   UNL A   1      35.891  29.439  30.303  1.00  0.00    -0.200 F 
ENDBRANCH  52  66
BRANCH  53  77
ATOM     77  C   UNL A   1      49.124  26.740  26.132  1.00  0.00     0.064 A 
ATOM     78  C   UNL A   1      50.091  26.193  26.987  1.00  0.00     0.173 A 
ATOM     79  C   UNL A   1      49.500  27.011  24.809  1.00  0.00     0.173 A 
ATOM     80  F   UNL A   1      49.783  25.935  28.267  1.00  0.00    -0.203 F 
ATOM     81  C   UNL A   1      51.387  25.944  26.542  1.00  0.00     0.198 A 
ATOM     82  C   UNL A   1      50.789  26.738  24.358  1.00  0.00     0.198 A 
ATOM     83  F   UNL A   1      48.610  27.530  23.950  1.00  0.00    -0.203 F 
ATOM     84  F   UNL A   1      52.303  25.459  27.392  1.00  0.00    -0.200 F 
ATOM     85  C   UNL A   1      51.734  26.212  25.226  1.00  0.00     0.200 A 
ATOM     86  F   UNL A   1      51.117  26.985  23.082  1.00  0.00    -0.200 F 
ATOM     87  F   UNL A   1      52.979  25.967  24.796  1.00  0.00    -0.200 F 
ENDBRANCH  53  77
BRANCH  65  88
ATOM     88  C   UNL A   1      45.975  32.424  28.636  1.00  0.00     0.064 A 
ATOM     89  C   UNL A   1      45.883  33.423  27.655  1.00  0.00     0.173 A 
ATOM     90  C   UNL A   1      46.504  32.776  29.887  1.00  0.00     0.173 A 
ATOM     91  F   UNL A   1      45.399  33.132  26.439  1.00  0.00    -0.203 F 
ATOM     92  C   UNL A   1      46.325  34.718  27.911  1.00  0.00     0.198 A 
ATOM     93  C   UNL A   1      46.920  34.079  30.148  1.00  0.00     0.198 A 
ATOM     94  F   UNL A   1      46.609  31.857  30.859  1.00  0.00    -0.203 F 
ATOM     95  F   UNL A   1      46.269  35.646  26.946  1.00  0.00    -0.200 F 
ATOM     96  C   UNL A   1      46.836  35.046  29.158  1.00  0.00     0.200 A 
ATOM     97  F   UNL A   1      47.402  34.396  31.357  1.00  0.00    -0.200 F 
ATOM     98  F   UNL A   1      47.256  36.294  29.404  1.00  0.00    -0.200 F 
ENDBRANCH  65  88
ENDBRANCH  39  40
ENDBRANCH  31  34
ENDBRANCH  29  30
ENDBRANCH  28  29
ENDBRANCH   1  28
TORSDOF 15
ENDMDL
