MODEL 1
REMARK VINA RESULT:     -12.1      0.000      0.000
REMARK SMILES Cn1c(SCC(=O)Nc2cccc(C(=O)NCCCCNC(=O)c3ccc(-c4c5nc(c(-c6c(F)c(F)c(F)c(F)c6F)c6ccc([nH]6)c(-c6c(F)c(F)c(F)c(F)c6F)c6nc(c(-c7c(F)c(F)c(F)c(F)c7F)c7ccc4[nH]7)C=C6)C=C5)cc3)c2)nnc1[C@@H]1CCCN1C(=O)c1ccccc1Cl
REMARK SMILES IDX 14 1 15 2 16 3 13 5 9 6 10 7 87 8 11 9 12 10 8 11 6 12 7 13
REMARK SMILES IDX 5 15 4 16 3 17 1 18 2 19 90 20 88 21 89 22 91 23 92 24 95 25
REMARK SMILES IDX 93 26 94 27 96 28 97 29 98 30 99 31 103 32 100 33 102 34
REMARK SMILES IDX 104 35 101 36 17 37 18 38 19 39 20 40 21 41 22 42 23 44
REMARK SMILES IDX 24 45 25 46 86 47 26 48 85 49 27 50 28 51 29 52 79 53 30 54
REMARK SMILES IDX 84 55 78 56 80 57 31 58 83 59 77 60 76 61 32 63 64 64 44 65
REMARK SMILES IDX 63 66 45 67 48 68 62 69 81 70 46 71 47 72 61 74 82 75 49 76
REMARK SMILES IDX 33 77 34 78 42 79 35 80 36 81 40 82 43 83 37 84 38 85 41 86
REMARK SMILES IDX 39 87 65 88 66 89 74 90 67 91 68 92 72 93 75 94 69 95 70 96
REMARK SMILES IDX 73 97 71 98 50 99 51 100 59 101 52 102 53 103 57 104 60 105
REMARK SMILES IDX 54 106 55 107 58 108 56 109
REMARK H PARENT 16 4 8 14 21 43 80 62 48 73
REMARK Flexibility Score: inf
ROOT
ATOM      1  C   UNL A   1      32.911  29.177  27.220  1.00  0.00     0.251 C 
ATOM      2  O   UNL A   1      32.263  28.370  27.896  1.00  0.00    -0.269 OA
ATOM      3  N   UNL A   1      33.607  30.097  27.958  1.00  0.00    -0.352 N 
ATOM      4  H   UNL A   1      33.446  30.005  28.925  1.00  0.00     0.163 HD
ENDROOT
BRANCH   1   5
ATOM      5  C   UNL A   1      32.873  29.030  25.720  1.00  0.00     0.041 A 
ATOM      6  C   UNL A   1      32.021  29.256  23.435  1.00  0.00     0.041 A 
ATOM      7  C   UNL A   1      33.094  28.525  22.936  1.00  0.00     0.026 A 
ATOM      8  C   UNL A   1      31.879  29.453  24.822  1.00  0.00     0.040 A 
ATOM      9  C   UNL A   1      34.080  28.076  23.802  1.00  0.00     0.003 A 
ATOM     10  C   UNL A   1      33.975  28.342  25.169  1.00  0.00     0.014 A 
BRANCH   6  11
ATOM     11  N   UNL A   1      31.042  29.640  22.512  1.00  0.00    -0.325 N 
ATOM     12  C   UNL A   1      29.761  29.203  22.352  1.00  0.00     0.234 C 
ATOM     13  O   UNL A   1      29.079  29.769  21.487  1.00  0.00    -0.274 OA
ATOM     14  H   UNL A   1      31.324  30.336  21.875  1.00  0.00     0.169 HD
BRANCH  12  15
ATOM     15  C   UNL A   1      29.103  28.228  23.294  1.00  0.00     0.178 C 
BRANCH  15  16
ATOM     16  S   UNL A   1      29.518  26.516  23.139  1.00  0.00    -0.076 SA
BRANCH  16  17
ATOM     17  C   UNL A   1      30.687  26.035  24.307  1.00  0.00     0.191 A 
ATOM     18  C   UNL A   1      32.411  24.587  23.155  1.00  0.00     0.154 C 
ATOM     19  N   UNL A   1      31.636  25.048  24.271  1.00  0.00    -0.307 N 
ATOM     20  C   UNL A   1      31.815  24.684  25.592  1.00  0.00     0.156 A 
ATOM     21  N   UNL A   1      30.536  26.416  25.553  1.00  0.00    -0.123 NA
ATOM     22  N   UNL A   1      31.295  25.629  26.345  1.00  0.00    -0.132 NA
BRANCH  20  23
ATOM     23  C   UNL A   1      32.471  23.485  26.163  1.00  0.00     0.154 C 
ATOM     24  C   UNL A   1      31.707  22.897  27.352  1.00  0.00     0.035 C 
ATOM     25  N   UNL A   1      33.854  23.630  26.630  1.00  0.00    -0.328 N 
ATOM     26  C   UNL A   1      32.748  22.034  28.041  1.00  0.00     0.024 C 
ATOM     27  C   UNL A   1      34.078  22.716  27.742  1.00  0.00     0.120 C 
BRANCH  25  28
ATOM     28  C   UNL A   1      34.995  24.074  25.951  1.00  0.00     0.255 C 
ATOM     29  O   UNL A   1      34.997  25.110  25.284  1.00  0.00    -0.269 OA
BRANCH  28  30
ATOM     30  C   UNL A   1      36.251  23.299  25.909  1.00  0.00     0.058 A 
ATOM     31  C   UNL A   1      37.437  23.915  26.324  1.00  0.00     0.015 A 
ATOM     32  C   UNL A   1      36.347  22.095  25.208  1.00  0.00     0.053 A 
ATOM     33  C   UNL A   1      38.665  23.249  26.214  1.00  0.00     0.001 A 
ATOM     34  C   UNL A   1      37.567  21.409  25.142  1.00  0.00     0.021 A 
ATOM     35  Cl  UNL A   1      35.041  21.468  24.267  1.00  0.00    -0.083 Cl
ATOM     36  C   UNL A   1      38.722  21.968  25.680  1.00  0.00     0.002 A 
ENDBRANCH  28  30
ENDBRANCH  25  28
ENDBRANCH  20  23
ENDBRANCH  16  17
ENDBRANCH  15  16
ENDBRANCH  12  15
ENDBRANCH   6  11
ENDBRANCH   1   5
BRANCH   3  37
ATOM     37  C   UNL A   1      34.522  31.170  27.648  1.00  0.00     0.116 C 
BRANCH  37  38
ATOM     38  C   UNL A   1      33.913  32.553  27.903  1.00  0.00     0.023 C 
BRANCH  38  39
ATOM     39  C   UNL A   1      34.340  33.237  29.205  1.00  0.00     0.023 C 
BRANCH  39  40
ATOM     40  C   UNL A   1      34.128  34.745  29.319  1.00  0.00     0.116 C 
BRANCH  40  41
ATOM     41  N   UNL A   1      33.047  35.135  30.204  1.00  0.00    -0.352 N 
ATOM     42  C   UNL A   1      32.946  35.074  31.571  1.00  0.00     0.251 C 
ATOM     43  H   UNL A   1      32.255  35.505  29.748  1.00  0.00     0.163 HD
ATOM     44  O   UNL A   1      31.867  35.290  32.129  1.00  0.00    -0.269 OA
BRANCH  42  45
ATOM     45  C   UNL A   1      34.108  34.717  32.419  1.00  0.00     0.039 A 
ATOM     46  C   UNL A   1      34.040  33.536  33.166  1.00  0.00     0.014 A 
ATOM     47  C   UNL A   1      35.261  35.504  32.480  1.00  0.00     0.014 A 
ATOM     48  C   UNL A   1      35.178  33.054  33.807  1.00  0.00     0.010 A 
ATOM     49  C   UNL A   1      36.420  34.989  33.040  1.00  0.00     0.010 A 
ATOM     50  C   UNL A   1      36.397  33.729  33.647  1.00  0.00    -0.014 A 
BRANCH  50  51
ATOM     51  C   UNL A   1      37.675  33.044  33.930  1.00  0.00     0.031 A 
ATOM     52  C   UNL A   1      38.220  32.013  32.997  1.00  0.00     0.074 A 
ATOM     53  C   UNL A   1      38.262  33.296  35.118  1.00  0.00     0.049 A 
ATOM     54  N   UNL A   1      39.298  31.284  33.118  1.00  0.00    -0.248 NA
ATOM     55  C   UNL A   1      37.439  31.737  31.781  1.00  0.00     0.031 C 
ATOM     56  C   UNL A   1      37.740  34.215  36.138  1.00  0.00     0.029 A 
ATOM     57  N   UNL A   1      39.407  32.800  35.683  1.00  0.00    -0.354 N 
ATOM     58  C   UNL A   1      39.329  30.468  31.998  1.00  0.00     0.074 A 
ATOM     59  C   UNL A   1      38.133  30.747  31.234  1.00  0.00     0.031 C 
ATOM     60  C   UNL A   1      38.576  34.238  37.185  1.00  0.00     0.029 A 
ATOM     61  C   UNL A   1      39.668  33.308  36.933  1.00  0.00     0.049 A 
ATOM     62  H   UNL A   1      39.988  32.143  35.236  1.00  0.00     0.167 HD
ATOM     63  C   UNL A   1      40.286  29.581  31.640  1.00  0.00     0.037 A 
ATOM     64  C   UNL A   1      40.676  33.043  37.784  1.00  0.00     0.037 A 
ATOM     65  C   UNL A   1      41.468  29.324  32.424  1.00  0.00     0.049 A 
ATOM     66  C   UNL A   1      41.729  32.063  37.348  1.00  0.00     0.074 A 
ATOM     67  C   UNL A   1      42.536  28.497  32.130  1.00  0.00     0.029 A 
ATOM     68  N   UNL A   1      41.726  29.886  33.668  1.00  0.00    -0.354 N 
ATOM     69  N   UNL A   1      41.808  31.376  36.233  1.00  0.00    -0.248 NA
ATOM     70  C   UNL A   1      42.839  31.828  38.280  1.00  0.00     0.031 C 
ATOM     71  C   UNL A   1      43.412  28.514  33.219  1.00  0.00     0.029 A 
ATOM     72  C   UNL A   1      42.925  29.401  34.165  1.00  0.00     0.049 A 
ATOM     73  H   UNL A   1      41.144  30.532  34.128  1.00  0.00     0.167 HD
ATOM     74  C   UNL A   1      42.988  30.653  36.314  1.00  0.00     0.074 A 
ATOM     75  C   UNL A   1      43.602  31.002  37.579  1.00  0.00     0.031 C 
ATOM     76  C   UNL A   1      43.516  29.775  35.426  1.00  0.00     0.037 A 
BRANCH  63  77
ATOM     77  C   UNL A   1      40.105  28.832  30.352  1.00  0.00     0.064 A 
ATOM     78  C   UNL A   1      40.605  29.326  29.138  1.00  0.00     0.173 A 
ATOM     79  C   UNL A   1      39.477  27.577  30.339  1.00  0.00     0.173 A 
ATOM     80  F   UNL A   1      41.205  30.526  29.092  1.00  0.00    -0.203 F 
ATOM     81  C   UNL A   1      40.466  28.602  27.957  1.00  0.00     0.198 A 
ATOM     82  C   UNL A   1      39.365  26.843  29.161  1.00  0.00     0.198 A 
ATOM     83  F   UNL A   1      38.982  27.056  31.471  1.00  0.00    -0.203 F 
ATOM     84  F   UNL A   1      40.917  29.113  26.803  1.00  0.00    -0.200 F 
ATOM     85  C   UNL A   1      39.856  27.358  27.971  1.00  0.00     0.200 A 
ATOM     86  F   UNL A   1      38.787  25.634  29.178  1.00  0.00    -0.200 F 
ATOM     87  F   UNL A   1      39.736  26.655  26.835  1.00  0.00    -0.200 F 
ENDBRANCH  63  77
BRANCH  64  88
ATOM     88  C   UNL A   1      40.748  33.723  39.105  1.00  0.00     0.064 A 
ATOM     89  C   UNL A   1      41.578  34.836  39.301  1.00  0.00     0.173 A 
ATOM     90  C   UNL A   1      40.002  33.270  40.203  1.00  0.00     0.173 A 
ATOM     91  F   UNL A   1      42.321  35.305  38.286  1.00  0.00    -0.203 F 
ATOM     92  C   UNL A   1      41.691  35.441  40.551  1.00  0.00     0.198 A 
ATOM     93  C   UNL A   1      40.088  33.898  41.444  1.00  0.00     0.198 A 
ATOM     94  F   UNL A   1      39.178  32.219  40.069  1.00  0.00    -0.203 F 
ATOM     95  F   UNL A   1      42.542  36.463  40.723  1.00  0.00    -0.200 F 
ATOM     96  C   UNL A   1      40.943  34.975  41.621  1.00  0.00     0.200 A 
ATOM     97  F   UNL A   1      39.349  33.456  42.469  1.00  0.00    -0.200 F 
ATOM     98  F   UNL A   1      41.056  35.555  42.823  1.00  0.00    -0.200 F 
ENDBRANCH  64  88
BRANCH  76  99
ATOM     99  C   UNL A   1      44.841  29.167  35.778  1.00  0.00     0.064 A 
ATOM    100  C   UNL A   1      46.052  29.772  35.411  1.00  0.00     0.173 A 
ATOM    101  C   UNL A   1      44.896  27.979  36.523  1.00  0.00     0.173 A 
ATOM    102  F   UNL A   1      46.052  30.899  34.684  1.00  0.00    -0.203 F 
ATOM    103  C   UNL A   1      47.270  29.193  35.754  1.00  0.00     0.198 A 
ATOM    104  C   UNL A   1      46.115  27.423  36.896  1.00  0.00     0.198 A 
ATOM    105  F   UNL A   1      43.764  27.365  36.903  1.00  0.00    -0.203 F 
ATOM    106  F   UNL A   1      48.415  29.757  35.345  1.00  0.00    -0.200 F 
ATOM    107  C   UNL A   1      47.301  28.025  36.502  1.00  0.00     0.200 A 
ATOM    108  F   UNL A   1      46.143  26.306  37.634  1.00  0.00    -0.200 F 
ATOM    109  F   UNL A   1      48.476  27.475  36.839  1.00  0.00    -0.200 F 
ENDBRANCH  76  99
ENDBRANCH  50  51
ENDBRANCH  42  45
ENDBRANCH  40  41
ENDBRANCH  39  40
ENDBRANCH  38  39
ENDBRANCH  37  38
ENDBRANCH   3  37
TORSDOF 18
ENDMDL
MODEL 2
REMARK VINA RESULT:     -12.0      5.449      9.254
REMARK SMILES Cn1c(SCC(=O)Nc2cccc(C(=O)NCCCCNC(=O)c3ccc(-c4c5nc(c(-c6c(F)c(F)c(F)c(F)c6F)c6ccc([nH]6)c(-c6c(F)c(F)c(F)c(F)c6F)c6nc(c(-c7c(F)c(F)c(F)c(F)c7F)c7ccc4[nH]7)C=C6)C=C5)cc3)c2)nnc1[C@@H]1CCCN1C(=O)c1ccccc1Cl
REMARK SMILES IDX 14 1 15 2 16 3 13 5 9 6 10 7 87 8 11 9 12 10 8 11 6 12 7 13
REMARK SMILES IDX 5 15 4 16 3 17 1 18 2 19 90 20 88 21 89 22 91 23 92 24 95 25
REMARK SMILES IDX 93 26 94 27 96 28 97 29 98 30 99 31 103 32 100 33 102 34
REMARK SMILES IDX 104 35 101 36 17 37 18 38 19 39 20 40 21 41 22 42 23 44
REMARK SMILES IDX 24 45 25 46 86 47 26 48 85 49 27 50 28 51 29 52 79 53 30 54
REMARK SMILES IDX 84 55 78 56 80 57 31 58 83 59 77 60 76 61 32 63 64 64 44 65
REMARK SMILES IDX 63 66 45 67 48 68 62 69 81 70 46 71 47 72 61 74 82 75 49 76
REMARK SMILES IDX 33 77 34 78 42 79 35 80 36 81 40 82 43 83 37 84 38 85 41 86
REMARK SMILES IDX 39 87 65 88 66 89 74 90 67 91 68 92 72 93 75 94 69 95 70 96
REMARK SMILES IDX 73 97 71 98 50 99 51 100 59 101 52 102 53 103 57 104 60 105
REMARK SMILES IDX 54 106 55 107 58 108 56 109
REMARK H PARENT 16 4 8 14 21 43 80 62 48 73
REMARK Flexibility Score: inf
ROOT
ATOM      1  C   UNL A   1      33.949  31.109  27.433  1.00  0.00     0.251 C 
ATOM      2  O   UNL A   1      33.478  32.230  27.658  1.00  0.00    -0.269 OA
ATOM      3  N   UNL A   1      35.244  30.950  27.848  1.00  0.00    -0.352 N 
ATOM      4  H   UNL A   1      35.625  31.777  28.224  1.00  0.00     0.163 HD
ENDROOT
BRANCH   1   5
ATOM      5  C   UNL A   1      33.054  30.089  26.776  1.00  0.00     0.041 A 
ATOM      6  C   UNL A   1      31.564  29.123  25.090  1.00  0.00     0.041 A 
ATOM      7  C   UNL A   1      31.396  27.977  25.861  1.00  0.00     0.026 A 
ATOM      8  C   UNL A   1      32.337  30.196  25.574  1.00  0.00     0.040 A 
ATOM      9  C   UNL A   1      32.074  27.852  27.063  1.00  0.00     0.003 A 
ATOM     10  C   UNL A   1      32.903  28.888  27.501  1.00  0.00     0.014 A 
BRANCH   6  11
ATOM     11  N   UNL A   1      30.816  29.200  23.910  1.00  0.00    -0.325 N 
ATOM     12  C   UNL A   1      30.647  28.287  22.912  1.00  0.00     0.234 C 
ATOM     13  O   UNL A   1      29.865  28.590  22.002  1.00  0.00    -0.274 OA
ATOM     14  H   UNL A   1      30.335  30.049  23.780  1.00  0.00     0.169 HD
BRANCH  12  15
ATOM     15  C   UNL A   1      31.204  26.888  22.978  1.00  0.00     0.178 C 
BRANCH  15  16
ATOM     16  S   UNL A   1      32.896  26.646  22.524  1.00  0.00    -0.076 SA
BRANCH  16  17
ATOM     17  C   UNL A   1      33.439  25.060  22.912  1.00  0.00     0.191 A 
ATOM     18  C   UNL A   1      33.146  24.708  25.400  1.00  0.00     0.154 C 
ATOM     19  N   UNL A   1      33.753  24.490  24.118  1.00  0.00    -0.307 N 
ATOM     20  C   UNL A   1      34.693  23.523  23.816  1.00  0.00     0.156 A 
ATOM     21  N   UNL A   1      33.929  24.303  21.960  1.00  0.00    -0.123 NA
ATOM     22  N   UNL A   1      34.643  23.304  22.520  1.00  0.00    -0.132 NA
BRANCH  20  23
ATOM     23  C   UNL A   1      35.620  22.792  24.710  1.00  0.00     0.154 C 
ATOM     24  C   UNL A   1      37.085  22.928  24.288  1.00  0.00     0.035 C 
ATOM     25  N   UNL A   1      35.402  21.351  24.877  1.00  0.00    -0.328 N 
ATOM     26  C   UNL A   1      37.760  21.773  25.004  1.00  0.00     0.024 C 
ATOM     27  C   UNL A   1      36.683  20.701  25.116  1.00  0.00     0.120 C 
BRANCH  25  28
ATOM     28  C   UNL A   1      34.263  20.653  25.295  1.00  0.00     0.255 C 
ATOM     29  O   UNL A   1      33.672  20.931  26.340  1.00  0.00    -0.269 OA
BRANCH  28  30
ATOM     30  C   UNL A   1      33.732  19.482  24.568  1.00  0.00     0.058 A 
ATOM     31  C   UNL A   1      34.437  18.275  24.626  1.00  0.00     0.015 A 
ATOM     32  C   UNL A   1      32.729  19.611  23.605  1.00  0.00     0.053 A 
ATOM     33  C   UNL A   1      34.020  17.166  23.877  1.00  0.00     0.001 A 
ATOM     34  C   UNL A   1      32.282  18.489  22.893  1.00  0.00     0.021 A 
ATOM     35  Cl  UNL A   1      32.100  21.147  23.126  1.00  0.00    -0.083 Cl
ATOM     36  C   UNL A   1      32.902  17.255  23.058  1.00  0.00     0.002 A 
ENDBRANCH  28  30
ENDBRANCH  25  28
ENDBRANCH  20  23
ENDBRANCH  16  17
ENDBRANCH  15  16
ENDBRANCH  12  15
ENDBRANCH   6  11
ENDBRANCH   1   5
BRANCH   3  37
ATOM     37  C   UNL A   1      36.182  29.852  27.863  1.00  0.00     0.116 C 
BRANCH  37  38
ATOM     38  C   UNL A   1      36.778  29.607  29.253  1.00  0.00     0.023 C 
BRANCH  38  39
ATOM     39  C   UNL A   1      35.839  29.872  30.434  1.00  0.00     0.023 C 
BRANCH  39  40
ATOM     40  C   UNL A   1      36.470  30.238  31.775  1.00  0.00     0.116 C 
BRANCH  40  41
ATOM     41  N   UNL A   1      36.184  31.587  32.227  1.00  0.00    -0.352 N 
ATOM     42  C   UNL A   1      36.993  32.693  32.305  1.00  0.00     0.251 C 
ATOM     43  H   UNL A   1      35.256  31.732  32.527  1.00  0.00     0.163 HD
ATOM     44  O   UNL A   1      36.609  33.709  32.888  1.00  0.00    -0.269 OA
BRANCH  42  45
ATOM     45  C   UNL A   1      38.358  32.697  31.726  1.00  0.00     0.039 A 
ATOM     46  C   UNL A   1      39.424  32.332  32.555  1.00  0.00     0.014 A 
ATOM     47  C   UNL A   1      38.606  33.033  30.393  1.00  0.00     0.014 A 
ATOM     48  C   UNL A   1      40.686  32.118  32.006  1.00  0.00     0.010 A 
ATOM     49  C   UNL A   1      39.835  32.739  29.824  1.00  0.00     0.010 A 
ATOM     50  C   UNL A   1      40.860  32.214  30.618  1.00  0.00    -0.014 A 
BRANCH  50  51
ATOM     51  C   UNL A   1      42.028  31.590  29.964  1.00  0.00     0.031 A 
ATOM     52  C   UNL A   1      43.245  32.391  29.634  1.00  0.00     0.074 A 
ATOM     53  C   UNL A   1      41.903  30.307  29.568  1.00  0.00     0.049 A 
ATOM     54  N   UNL A   1      44.335  32.013  29.020  1.00  0.00    -0.248 NA
ATOM     55  C   UNL A   1      43.230  33.813  30.015  1.00  0.00     0.031 C 
ATOM     56  C   UNL A   1      40.706  29.480  29.757  1.00  0.00     0.029 A 
ATOM     57  N   UNL A   1      42.773  29.476  28.912  1.00  0.00    -0.354 N 
ATOM     58  C   UNL A   1      45.135  33.143  28.941  1.00  0.00     0.074 A 
ATOM     59  C   UNL A   1      44.386  34.237  29.520  1.00  0.00     0.031 C 
ATOM     60  C   UNL A   1      40.928  28.255  29.259  1.00  0.00     0.029 A 
ATOM     61  C   UNL A   1      42.262  28.221  28.678  1.00  0.00     0.049 A 
ATOM     62  H   UNL A   1      43.677  29.751  28.636  1.00  0.00     0.167 HD
ATOM     63  C   UNL A   1      46.390  33.241  28.445  1.00  0.00     0.037 A 
ATOM     64  C   UNL A   1      42.813  27.164  28.054  1.00  0.00     0.037 A 
ATOM     65  C   UNL A   1      47.111  32.132  27.874  1.00  0.00     0.049 A 
ATOM     66  C   UNL A   1      44.213  27.305  27.527  1.00  0.00     0.074 A 
ATOM     67  C   UNL A   1      48.409  32.098  27.400  1.00  0.00     0.029 A 
ATOM     68  N   UNL A   1      46.583  30.860  27.688  1.00  0.00    -0.354 N 
ATOM     69  N   UNL A   1      45.007  28.349  27.558  1.00  0.00    -0.248 NA
ATOM     70  C   UNL A   1      44.802  26.120  26.890  1.00  0.00     0.031 C 
ATOM     71  C   UNL A   1      48.649  30.824  26.876  1.00  0.00     0.029 A 
ATOM     72  C   UNL A   1      47.523  30.043  27.081  1.00  0.00     0.049 A 
ATOM     73  H   UNL A   1      45.675  30.582  27.949  1.00  0.00     0.167 HD
ATOM     74  C   UNL A   1      46.197  27.941  26.975  1.00  0.00     0.074 A 
ATOM     75  C   UNL A   1      46.027  26.547  26.619  1.00  0.00     0.031 C 
ATOM     76  C   UNL A   1      47.327  28.654  26.748  1.00  0.00     0.037 A 
BRANCH  63  77
ATOM     77  C   UNL A   1      47.066  34.580  28.502  1.00  0.00     0.064 A 
ATOM     78  C   UNL A   1      47.889  34.943  29.579  1.00  0.00     0.173 A 
ATOM     79  C   UNL A   1      46.938  35.489  27.441  1.00  0.00     0.173 A 
ATOM     80  F   UNL A   1      48.037  34.116  30.625  1.00  0.00    -0.203 F 
ATOM     81  C   UNL A   1      48.542  36.173  29.600  1.00  0.00     0.198 A 
ATOM     82  C   UNL A   1      47.616  36.705  27.452  1.00  0.00     0.198 A 
ATOM     83  F   UNL A   1      46.165  35.193  26.385  1.00  0.00    -0.203 F 
ATOM     84  F   UNL A   1      49.291  36.513  30.658  1.00  0.00    -0.200 F 
ATOM     85  C   UNL A   1      48.414  37.048  28.534  1.00  0.00     0.200 A 
ATOM     86  F   UNL A   1      47.501  37.545  26.414  1.00  0.00    -0.200 F 
ATOM     87  F   UNL A   1      49.055  38.225  28.549  1.00  0.00    -0.200 F 
ENDBRANCH  63  77
BRANCH  64  88
ATOM     88  C   UNL A   1      42.056  25.891  27.915  1.00  0.00     0.064 A 
ATOM     89  C   UNL A   1      42.401  24.759  28.665  1.00  0.00     0.173 A 
ATOM     90  C   UNL A   1      40.981  25.773  27.021  1.00  0.00     0.173 A 
ATOM     91  F   UNL A   1      43.428  24.815  29.528  1.00  0.00    -0.203 F 
ATOM     92  C   UNL A   1      41.731  23.549  28.498  1.00  0.00     0.198 A 
ATOM     93  C   UNL A   1      40.287  24.572  26.880  1.00  0.00     0.198 A 
ATOM     94  F   UNL A   1      40.596  26.828  26.288  1.00  0.00    -0.203 F 
ATOM     95  F   UNL A   1      42.127  22.466  29.183  1.00  0.00    -0.200 F 
ATOM     96  C   UNL A   1      40.672  23.457  27.608  1.00  0.00     0.200 A 
ATOM     97  F   UNL A   1      39.253  24.494  26.033  1.00  0.00    -0.200 F 
ATOM     98  F   UNL A   1      40.031  22.292  27.444  1.00  0.00    -0.200 F 
ENDBRANCH  64  88
BRANCH  76  99
ATOM     99  C   UNL A   1      48.478  27.923  26.123  1.00  0.00     0.064 A 
ATOM    100  C   UNL A   1      48.553  27.710  24.739  1.00  0.00     0.173 A 
ATOM    101  C   UNL A   1      49.535  27.458  26.920  1.00  0.00     0.173 A 
ATOM    102  F   UNL A   1      47.558  28.120  23.937  1.00  0.00    -0.203 F 
ATOM    103  C   UNL A   1      49.632  27.034  24.179  1.00  0.00     0.198 A 
ATOM    104  C   UNL A   1      50.630  26.816  26.353  1.00  0.00     0.198 A 
ATOM    105  F   UNL A   1      49.513  27.642  28.250  1.00  0.00    -0.203 F 
ATOM    106  F   UNL A   1      49.657  26.792  22.861  1.00  0.00    -0.200 F 
ATOM    107  C   UNL A   1      50.673  26.595  24.984  1.00  0.00     0.200 A 
ATOM    108  F   UNL A   1      51.643  26.409  27.129  1.00  0.00    -0.200 F 
ATOM    109  F   UNL A   1      51.717  25.953  24.441  1.00  0.00    -0.200 F 
ENDBRANCH  76  99
ENDBRANCH  50  51
ENDBRANCH  42  45
ENDBRANCH  40  41
ENDBRANCH  39  40
ENDBRANCH  38  39
ENDBRANCH  37  38
ENDBRANCH   3  37
TORSDOF 18
ENDMDL
MODEL 3
REMARK VINA RESULT:     -11.8      4.945      9.392
REMARK SMILES Cn1c(SCC(=O)Nc2cccc(C(=O)NCCCCNC(=O)c3ccc(-c4c5nc(c(-c6c(F)c(F)c(F)c(F)c6F)c6ccc([nH]6)c(-c6c(F)c(F)c(F)c(F)c6F)c6nc(c(-c7c(F)c(F)c(F)c(F)c7F)c7ccc4[nH]7)C=C6)C=C5)cc3)c2)nnc1[C@@H]1CCCN1C(=O)c1ccccc1Cl
REMARK SMILES IDX 14 1 15 2 16 3 13 5 9 6 10 7 87 8 11 9 12 10 8 11 6 12 7 13
REMARK SMILES IDX 5 15 4 16 3 17 1 18 2 19 90 20 88 21 89 22 91 23 92 24 95 25
REMARK SMILES IDX 93 26 94 27 96 28 97 29 98 30 99 31 103 32 100 33 102 34
REMARK SMILES IDX 104 35 101 36 17 37 18 38 19 39 20 40 21 41 22 42 23 44
REMARK SMILES IDX 24 45 25 46 86 47 26 48 85 49 27 50 28 51 29 52 79 53 30 54
REMARK SMILES IDX 84 55 78 56 80 57 31 58 83 59 77 60 76 61 32 63 64 64 44 65
REMARK SMILES IDX 63 66 45 67 48 68 62 69 81 70 46 71 47 72 61 74 82 75 49 76
REMARK SMILES IDX 33 77 34 78 42 79 35 80 36 81 40 82 43 83 37 84 38 85 41 86
REMARK SMILES IDX 39 87 65 88 66 89 74 90 67 91 68 92 72 93 75 94 69 95 70 96
REMARK SMILES IDX 73 97 71 98 50 99 51 100 59 101 52 102 53 103 57 104 60 105
REMARK SMILES IDX 54 106 55 107 58 108 56 109
REMARK H PARENT 16 4 8 14 21 43 80 62 48 73
REMARK Flexibility Score: inf
ROOT
ATOM      1  C   UNL A   1      36.155  33.226  28.571  1.00  0.00     0.251 C 
ATOM      2  O   UNL A   1      37.361  33.419  28.377  1.00  0.00    -0.269 OA
ATOM      3  N   UNL A   1      35.512  34.264  29.189  1.00  0.00    -0.352 N 
ATOM      4  H   UNL A   1      36.124  34.997  29.432  1.00  0.00     0.163 HD
ENDROOT
BRANCH   1   5
ATOM      5  C   UNL A   1      35.565  31.923  28.092  1.00  0.00     0.041 A 
ATOM      6  C   UNL A   1      33.910  30.396  27.132  1.00  0.00     0.041 A 
ATOM      7  C   UNL A   1      34.752  29.309  27.347  1.00  0.00     0.026 A 
ATOM      8  C   UNL A   1      34.289  31.682  27.559  1.00  0.00     0.040 A 
ATOM      9  C   UNL A   1      36.010  29.514  27.893  1.00  0.00     0.003 A 
ATOM     10  C   UNL A   1      36.412  30.805  28.242  1.00  0.00     0.014 A 
BRANCH   6  11
ATOM     11  N   UNL A   1      32.639  30.110  26.620  1.00  0.00    -0.325 N 
ATOM     12  C   UNL A   1      32.271  29.587  25.416  1.00  0.00     0.234 C 
ATOM     13  O   UNL A   1      31.065  29.371  25.245  1.00  0.00    -0.274 OA
ATOM     14  H   UNL A   1      31.892  30.323  27.224  1.00  0.00     0.169 HD
BRANCH  12  15
ATOM     15  C   UNL A   1      33.266  29.090  24.399  1.00  0.00     0.178 C 
BRANCH  15  16
ATOM     16  S   UNL A   1      32.661  28.114  23.055  1.00  0.00    -0.076 SA
BRANCH  16  17
ATOM     17  C   UNL A   1      32.962  26.437  23.299  1.00  0.00     0.191 A 
ATOM     18  C   UNL A   1      31.564  25.657  25.258  1.00  0.00     0.154 C 
ATOM     19  N   UNL A   1      32.689  25.624  24.368  1.00  0.00    -0.307 N 
ATOM     20  C   UNL A   1      33.660  24.642  24.320  1.00  0.00     0.156 A 
ATOM     21  N   UNL A   1      33.831  25.826  22.530  1.00  0.00    -0.123 NA
ATOM     22  N   UNL A   1      34.208  24.674  23.124  1.00  0.00    -0.132 NA
BRANCH  20  23
ATOM     23  C   UNL A   1      34.074  23.668  25.356  1.00  0.00     0.154 C 
ATOM     24  C   UNL A   1      35.566  23.750  25.688  1.00  0.00     0.035 C 
ATOM     25  N   UNL A   1      33.818  22.248  25.090  1.00  0.00    -0.328 N 
ATOM     26  C   UNL A   1      35.844  22.421  26.365  1.00  0.00     0.024 C 
ATOM     27  C   UNL A   1      34.849  21.450  25.740  1.00  0.00     0.120 C 
BRANCH  25  28
ATOM     28  C   UNL A   1      32.623  21.588  24.782  1.00  0.00     0.255 C 
ATOM     29  O   UNL A   1      31.521  22.103  24.982  1.00  0.00    -0.269 OA
BRANCH  28  30
ATOM     30  C   UNL A   1      32.584  20.201  24.277  1.00  0.00     0.058 A 
ATOM     31  C   UNL A   1      33.159  19.186  25.049  1.00  0.00     0.015 A 
ATOM     32  C   UNL A   1      32.260  19.913  22.950  1.00  0.00     0.053 A 
ATOM     33  C   UNL A   1      33.227  17.871  24.567  1.00  0.00     0.001 A 
ATOM     34  C   UNL A   1      32.282  18.591  22.485  1.00  0.00     0.021 A 
ATOM     35  Cl  UNL A   1      31.972  21.152  21.780  1.00  0.00    -0.083 Cl
ATOM     36  C   UNL A   1      32.729  17.562  23.307  1.00  0.00     0.002 A 
ENDBRANCH  28  30
ENDBRANCH  25  28
ENDBRANCH  20  23
ENDBRANCH  16  17
ENDBRANCH  15  16
ENDBRANCH  12  15
ENDBRANCH   6  11
ENDBRANCH   1   5
BRANCH   3  37
ATOM     37  C   UNL A   1      34.145  34.536  29.569  1.00  0.00     0.116 C 
BRANCH  37  38
ATOM     38  C   UNL A   1      33.977  34.695  31.083  1.00  0.00     0.023 C 
BRANCH  38  39
ATOM     39  C   UNL A   1      34.582  33.579  31.940  1.00  0.00     0.023 C 
BRANCH  39  40
ATOM     40  C   UNL A   1      36.079  33.644  32.236  1.00  0.00     0.116 C 
BRANCH  40  41
ATOM     41  N   UNL A   1      36.450  33.187  33.562  1.00  0.00    -0.352 N 
ATOM     42  C   UNL A   1      37.210  32.115  33.957  1.00  0.00     0.251 C 
ATOM     43  H   UNL A   1      36.099  33.738  34.301  1.00  0.00     0.163 HD
ATOM     44  O   UNL A   1      37.263  31.789  35.146  1.00  0.00    -0.269 OA
BRANCH  42  45
ATOM     45  C   UNL A   1      37.961  31.294  32.977  1.00  0.00     0.039 A 
ATOM     46  C   UNL A   1      37.895  31.658  31.628  1.00  0.00     0.014 A 
ATOM     47  C   UNL A   1      38.736  30.195  33.357  1.00  0.00     0.014 A 
ATOM     48  C   UNL A   1      38.744  31.052  30.705  1.00  0.00     0.010 A 
ATOM     49  C   UNL A   1      39.644  29.649  32.464  1.00  0.00     0.010 A 
ATOM     50  C   UNL A   1      39.697  30.125  31.150  1.00  0.00    -0.014 A 
BRANCH  50  51
ATOM     51  C   UNL A   1      40.869  29.796  30.313  1.00  0.00     0.031 A 
ATOM     52  C   UNL A   1      41.896  30.831  29.984  1.00  0.00     0.074 A 
ATOM     53  C   UNL A   1      40.909  28.567  29.760  1.00  0.00     0.049 A 
ATOM     54  N   UNL A   1      42.956  30.723  29.227  1.00  0.00    -0.248 NA
ATOM     55  C   UNL A   1      41.694  32.173  30.552  1.00  0.00     0.031 C 
ATOM     56  C   UNL A   1      39.890  27.526  29.945  1.00  0.00     0.029 A 
ATOM     57  N   UNL A   1      41.821  27.983  28.922  1.00  0.00    -0.354 N 
ATOM     58  C   UNL A   1      43.548  31.976  29.228  1.00  0.00     0.074 A 
ATOM     59  C   UNL A   1      42.703  32.847  30.015  1.00  0.00     0.031 C 
ATOM     60  C   UNL A   1      40.249  26.426  29.268  1.00  0.00     0.029 A 
ATOM     61  C   UNL A   1      41.497  26.694  28.568  1.00  0.00     0.049 A 
ATOM     62  H   UNL A   1      42.632  28.442  28.603  1.00  0.00     0.167 HD
ATOM     63  C   UNL A   1      44.707  32.350  28.637  1.00  0.00     0.037 A 
ATOM     64  C   UNL A   1      42.137  25.830  27.759  1.00  0.00     0.037 A 
ATOM     65  C   UNL A   1      45.528  31.458  27.857  1.00  0.00     0.049 A 
ATOM     66  C   UNL A   1      43.428  26.274  27.130  1.00  0.00     0.074 A 
ATOM     67  C   UNL A   1      46.753  31.708  27.267  1.00  0.00     0.029 A 
ATOM     68  N   UNL A   1      45.195  30.145  27.551  1.00  0.00    -0.354 N 
ATOM     69  N   UNL A   1      44.040  27.430  27.229  1.00  0.00    -0.248 NA
ATOM     70  C   UNL A   1      44.124  25.294  26.288  1.00  0.00     0.031 C 
ATOM     71  C   UNL A   1      47.134  30.566  26.556  1.00  0.00     0.029 A 
ATOM     72  C   UNL A   1      46.180  29.582  26.756  1.00  0.00     0.049 A 
ATOM     73  H   UNL A   1      44.380  29.683  27.854  1.00  0.00     0.167 HD
ATOM     74  C   UNL A   1      45.207  27.308  26.489  1.00  0.00     0.074 A 
ATOM     75  C   UNL A   1      45.225  25.956  25.966  1.00  0.00     0.031 C 
ATOM     76  C   UNL A   1      46.174  28.229  26.258  1.00  0.00     0.037 A 
BRANCH  63  77
ATOM     77  C   UNL A   1      45.160  33.770  28.811  1.00  0.00     0.064 A 
ATOM     78  C   UNL A   1      44.693  34.799  27.979  1.00  0.00     0.173 A 
ATOM     79  C   UNL A   1      46.024  34.119  29.860  1.00  0.00     0.173 A 
ATOM     80  F   UNL A   1      43.872  34.518  26.954  1.00  0.00    -0.203 F 
ATOM     81  C   UNL A   1      45.089  36.118  28.177  1.00  0.00     0.198 A 
ATOM     82  C   UNL A   1      46.396  35.444  30.073  1.00  0.00     0.198 A 
ATOM     83  F   UNL A   1      46.500  33.177  30.687  1.00  0.00    -0.203 F 
ATOM     84  F   UNL A   1      44.661  37.077  27.343  1.00  0.00    -0.200 F 
ATOM     85  C   UNL A   1      45.932  36.442  29.228  1.00  0.00     0.200 A 
ATOM     86  F   UNL A   1      47.200  35.757  31.098  1.00  0.00    -0.200 F 
ATOM     87  F   UNL A   1      46.301  37.715  29.427  1.00  0.00    -0.200 F 
ENDBRANCH  63  77
BRANCH  64  88
ATOM     88  C   UNL A   1      41.585  24.470  27.520  1.00  0.00     0.064 A 
ATOM     89  C   UNL A   1      40.458  24.280  26.708  1.00  0.00     0.173 A 
ATOM     90  C   UNL A   1      42.160  23.333  28.106  1.00  0.00     0.173 A 
ATOM     91  F   UNL A   1      39.863  25.335  26.130  1.00  0.00    -0.203 F 
ATOM     92  C   UNL A   1      39.904  23.014  26.526  1.00  0.00     0.198 A 
ATOM     93  C   UNL A   1      41.627  22.062  27.895  1.00  0.00     0.198 A 
ATOM     94  F   UNL A   1      43.250  23.452  28.881  1.00  0.00    -0.203 F 
ATOM     95  F   UNL A   1      38.788  22.873  25.796  1.00  0.00    -0.200 F 
ATOM     96  C   UNL A   1      40.490  21.906  27.117  1.00  0.00     0.200 A 
ATOM     97  F   UNL A   1      42.209  20.992  28.452  1.00  0.00    -0.200 F 
ATOM     98  F   UNL A   1      39.955  20.690  26.945  1.00  0.00    -0.200 F 
ENDBRANCH  64  88
BRANCH  76  99
ATOM     99  C   UNL A   1      47.350  27.788  25.437  1.00  0.00     0.064 A 
ATOM    100  C   UNL A   1      47.331  27.837  24.036  1.00  0.00     0.173 A 
ATOM    101  C   UNL A   1      48.522  27.342  26.066  1.00  0.00     0.173 A 
ATOM    102  F   UNL A   1      46.227  28.239  23.388  1.00  0.00    -0.203 F 
ATOM    103  C   UNL A   1      48.435  27.428  23.294  1.00  0.00     0.198 A 
ATOM    104  C   UNL A   1      49.636  26.970  25.322  1.00  0.00     0.198 A 
ATOM    105  F   UNL A   1      48.591  27.282  27.406  1.00  0.00    -0.203 F 
ATOM    106  F   UNL A   1      48.376  27.429  21.954  1.00  0.00    -0.200 F 
ATOM    107  C   UNL A   1      49.589  27.004  23.936  1.00  0.00     0.200 A 
ATOM    108  F   UNL A   1      50.756  26.578  25.945  1.00  0.00    -0.200 F 
ATOM    109  F   UNL A   1      50.654  26.620  23.219  1.00  0.00    -0.200 F 
ENDBRANCH  76  99
ENDBRANCH  50  51
ENDBRANCH  42  45
ENDBRANCH  40  41
ENDBRANCH  39  40
ENDBRANCH  38  39
ENDBRANCH  37  38
ENDBRANCH   3  37
TORSDOF 18
ENDMDL
