MODEL 1
REMARK VINA RESULT:     -13.3      0.000      0.000
REMARK SMILES O=C(CCN1C(=O)S/C(=C\c2ccc(F)cc2)C1=O)Nc1ccc(O)cc1C(=O)NCCCCNC(=O)c1ccc(-c2c3nc(c(-c4c(F)c(F)c(F)c(F)c4F)c4ccc([nH]4)c(-c4c(F)c(F)c(F)c(F)c4F)c4nc(c(-c5c(F)c(F)c(F)c(F)c5F)c5ccc2[nH]5)C=C4)C=C3)cc1
REMARK SMILES IDX 31 1 30 2 28 3 29 4 27 6 21 7 22 8 23 9 26 10 24 11 20 12
REMARK SMILES IDX 1 13 2 14 3 16 4 17 5 18 6 19 18 20 7 21 8 22 9 23 19 24
REMARK SMILES IDX 10 25 11 26 12 27 17 28 13 29 16 30 14 31 15 32 25 33 32 35
REMARK SMILES IDX 33 36 34 37 35 38 36 39 37 41 38 42 39 43 100 44 40 45 99 46
REMARK SMILES IDX 41 47 42 48 43 49 93 50 44 51 98 52 92 53 94 54 45 55 97 56
REMARK SMILES IDX 91 57 90 58 46 60 78 61 58 62 77 63 59 64 62 65 76 66 95 67
REMARK SMILES IDX 60 68 61 69 75 71 96 72 63 73 47 74 48 75 56 76 49 77 50 78
REMARK SMILES IDX 54 79 57 80 51 81 52 82 55 83 53 84 79 85 80 86 88 87 81 88
REMARK SMILES IDX 82 89 86 90 89 91 83 92 84 93 87 94 85 95 64 96 65 97 73 98
REMARK SMILES IDX 66 99 67 100 71 101 74 102 68 103 69 104 72 105 70 106
REMARK H PARENT 30 5 20 15 25 34 35 40 94 59 62 70
REMARK Flexibility Score: inf
ROOT
ATOM      1  C   UNL A   1      33.971  22.488  27.214  1.00  0.00     0.116 C 
ENDROOT
BRANCH   1   2
ATOM      2  N   UNL A   1      32.630  22.798  26.741  1.00  0.00    -0.352 N 
ATOM      3  C   UNL A   1      31.794  22.118  25.859  1.00  0.00     0.253 C 
ATOM      4  O   UNL A   1      30.643  22.535  25.725  1.00  0.00    -0.269 OA
ATOM      5  H   UNL A   1      32.250  23.629  27.107  1.00  0.00     0.163 HD
BRANCH   3   6
ATOM      6  C   UNL A   1      32.202  20.914  25.058  1.00  0.00     0.067 A 
ATOM      7  C   UNL A   1      32.194  20.843  23.653  1.00  0.00     0.054 A 
ATOM      8  C   UNL A   1      32.505  19.632  23.009  1.00  0.00     0.031 A 
ATOM      9  C   UNL A   1      32.948  18.528  23.736  1.00  0.00     0.048 A 
ATOM     10  C   UNL A   1      32.688  19.803  25.776  1.00  0.00     0.062 A 
ATOM     11  C   UNL A   1      33.073  18.637  25.113  1.00  0.00     0.116 A 
BRANCH   7  12
ATOM     12  N   UNL A   1      32.062  22.017  22.887  1.00  0.00    -0.325 N 
ATOM     13  O   UNL A   1      34.251  22.732  22.880  1.00  0.00    -0.275 OA
ATOM     14  C   UNL A   1      33.065  22.921  22.626  1.00  0.00     0.226 C 
ATOM     15  H   UNL A   1      31.175  22.206  22.504  1.00  0.00     0.169 HD
BRANCH  14  16
ATOM     16  C   UNL A   1      32.606  24.227  22.005  1.00  0.00     0.122 C 
BRANCH  16  17
ATOM     17  C   UNL A   1      31.565  25.040  22.772  1.00  0.00     0.140 C 
BRANCH  17  18
ATOM     18  N   UNL A   1      31.996  26.318  23.350  1.00  0.00    -0.268 N 
ATOM     19  C   UNL A   1      31.542  27.526  22.899  1.00  0.00     0.293 C 
ATOM     20  C   UNL A   1      32.710  26.364  24.519  1.00  0.00     0.268 C 
ATOM     21  O   UNL A   1      30.799  27.721  21.950  1.00  0.00    -0.261 OA
ATOM     22  S   UNL A   1      32.183  28.829  23.893  1.00  0.00    -0.022 SA
ATOM     23  C   UNL A   1      32.886  27.745  25.012  1.00  0.00     0.083 C 
ATOM     24  O   UNL A   1      33.196  25.406  25.094  1.00  0.00    -0.268 OA
ATOM     25  C   UNL A   1      33.561  27.946  26.153  1.00  0.00     0.029 C 
BRANCH  25  26
ATOM     26  C   UNL A   1      33.996  29.195  26.792  1.00  0.00    -0.024 A 
ATOM     27  C   UNL A   1      33.152  30.286  27.019  1.00  0.00     0.011 A 
ATOM     28  C   UNL A   1      35.339  29.278  27.206  1.00  0.00     0.011 A 
ATOM     29  C   UNL A   1      33.659  31.469  27.561  1.00  0.00     0.040 A 
ATOM     30  C   UNL A   1      35.842  30.455  27.760  1.00  0.00     0.040 A 
ATOM     31  C   UNL A   1      35.001  31.547  27.913  1.00  0.00     0.123 A 
ATOM     32  F   UNL A   1      35.488  32.691  28.407  1.00  0.00    -0.207 F 
ENDBRANCH  25  26
ENDBRANCH  17  18
ENDBRANCH  16  17
ENDBRANCH  14  16
ENDBRANCH   7  12
BRANCH  11  33
ATOM     33  O   UNL A   1      33.586  17.610  25.850  1.00  0.00    -0.508 OA
ATOM     34  H   UNL A   1      34.512  17.534  25.966  1.00  0.00     0.293 HD
ENDBRANCH  11  33
ENDBRANCH   3   6
ENDBRANCH   1   2
BRANCH   1  35
ATOM     35  C   UNL A   1      35.191  22.663  26.293  1.00  0.00     0.023 C 
BRANCH  35  36
ATOM     36  C   UNL A   1      36.155  21.594  25.716  1.00  0.00     0.023 C 
BRANCH  36  37
ATOM     37  C   UNL A   1      37.570  21.716  25.111  1.00  0.00     0.116 C 
BRANCH  37  38
ATOM     38  N   UNL A   1      38.587  20.724  25.398  1.00  0.00    -0.352 N 
ATOM     39  C   UNL A   1      39.679  20.888  26.240  1.00  0.00     0.251 C 
ATOM     40  H   UNL A   1      38.496  19.850  24.953  1.00  0.00     0.163 HD
ATOM     41  O   UNL A   1      40.431  19.951  26.489  1.00  0.00    -0.269 OA
BRANCH  39  42
ATOM     42  C   UNL A   1      39.978  22.235  26.797  1.00  0.00     0.039 A 
ATOM     43  C   UNL A   1      40.937  22.346  27.810  1.00  0.00     0.014 A 
ATOM     44  C   UNL A   1      39.367  23.383  26.288  1.00  0.00     0.014 A 
ATOM     45  C   UNL A   1      41.375  23.611  28.221  1.00  0.00     0.010 A 
ATOM     46  C   UNL A   1      39.829  24.648  26.676  1.00  0.00     0.010 A 
ATOM     47  C   UNL A   1      40.871  24.773  27.610  1.00  0.00    -0.014 A 
BRANCH  47  48
ATOM     48  C   UNL A   1      41.527  26.093  27.838  1.00  0.00     0.031 A 
ATOM     49  C   UNL A   1      42.898  26.397  27.308  1.00  0.00     0.074 A 
ATOM     50  C   UNL A   1      40.891  27.006  28.601  1.00  0.00     0.049 A 
ATOM     51  N   UNL A   1      43.607  27.492  27.432  1.00  0.00    -0.248 NA
ATOM     52  C   UNL A   1      43.571  25.328  26.558  1.00  0.00     0.031 C 
ATOM     53  C   UNL A   1      39.583  26.808  29.228  1.00  0.00     0.029 A 
ATOM     54  N   UNL A   1      41.250  28.276  28.986  1.00  0.00    -0.354 N 
ATOM     55  C   UNL A   1      44.807  27.245  26.779  1.00  0.00     0.074 A 
ATOM     56  C   UNL A   1      44.750  25.881  26.299  1.00  0.00     0.031 C 
ATOM     57  C   UNL A   1      39.238  27.919  29.894  1.00  0.00     0.029 A 
ATOM     58  C   UNL A   1      40.312  28.902  29.772  1.00  0.00     0.049 A 
ATOM     59  H   UNL A   1      42.101  28.698  28.724  1.00  0.00     0.167 HD
ATOM     60  C   UNL A   1      45.852  28.087  26.586  1.00  0.00     0.037 A 
ATOM     61  C   UNL A   1      40.310  30.127  30.334  1.00  0.00     0.037 A 
ATOM     62  C   UNL A   1      45.897  29.450  27.056  1.00  0.00     0.049 A 
ATOM     63  C   UNL A   1      41.477  31.044  30.102  1.00  0.00     0.074 A 
ATOM     64  C   UNL A   1      46.877  30.404  26.839  1.00  0.00     0.029 A 
ATOM     65  N   UNL A   1      44.926  30.048  27.846  1.00  0.00    -0.354 N 
ATOM     66  N   UNL A   1      42.566  30.828  29.406  1.00  0.00    -0.248 NA
ATOM     67  C   UNL A   1      41.416  32.375  30.724  1.00  0.00     0.031 C 
ATOM     68  C   UNL A   1      46.525  31.560  27.542  1.00  0.00     0.029 A 
ATOM     69  C   UNL A   1      45.300  31.347  28.154  1.00  0.00     0.049 A 
ATOM     70  H   UNL A   1      44.094  29.614  28.144  1.00  0.00     0.167 HD
ATOM     71  C   UNL A   1      43.316  31.992  29.497  1.00  0.00     0.074 A 
ATOM     72  C   UNL A   1      42.548  32.922  30.299  1.00  0.00     0.031 C 
ATOM     73  C   UNL A   1      44.533  32.260  28.964  1.00  0.00     0.037 A 
BRANCH  60  74
ATOM     74  C   UNL A   1      47.040  27.572  25.824  1.00  0.00     0.064 A 
ATOM     75  C   UNL A   1      48.139  27.017  26.499  1.00  0.00     0.173 A 
ATOM     76  C   UNL A   1      47.122  27.688  24.427  1.00  0.00     0.173 A 
ATOM     77  F   UNL A   1      48.120  26.895  27.835  1.00  0.00    -0.203 F 
ATOM     78  C   UNL A   1      49.274  26.603  25.806  1.00  0.00     0.198 A 
ATOM     79  C   UNL A   1      48.247  27.247  23.735  1.00  0.00     0.198 A 
ATOM     80  F   UNL A   1      46.099  28.208  23.733  1.00  0.00    -0.203 F 
ATOM     81  F   UNL A   1      50.321  26.103  26.476  1.00  0.00    -0.200 F 
ATOM     82  C   UNL A   1      49.325  26.713  24.425  1.00  0.00     0.200 A 
ATOM     83  F   UNL A   1      48.286  27.334  22.398  1.00  0.00    -0.200 F 
ATOM     84  F   UNL A   1      50.412  26.301  23.758  1.00  0.00    -0.200 F 
ENDBRANCH  60  74
BRANCH  61  85
ATOM     85  C   UNL A   1      39.135  30.558  31.137  1.00  0.00     0.064 A 
ATOM     86  C   UNL A   1      38.158  31.412  30.603  1.00  0.00     0.173 A 
ATOM     87  C   UNL A   1      38.999  30.171  32.478  1.00  0.00     0.173 A 
ATOM     88  F   UNL A   1      38.246  31.817  29.328  1.00  0.00    -0.203 F 
ATOM     89  C   UNL A   1      37.107  31.885  31.387  1.00  0.00     0.198 A 
ATOM     90  C   UNL A   1      37.934  30.625  33.254  1.00  0.00     0.198 A 
ATOM     91  F   UNL A   1      39.896  29.340  33.028  1.00  0.00    -0.203 F 
ATOM     92  F   UNL A   1      36.215  32.736  30.865  1.00  0.00    -0.200 F 
ATOM     93  C   UNL A   1      36.996  31.490  32.712  1.00  0.00     0.200 A 
ATOM     94  F   UNL A   1      37.818  30.225  34.528  1.00  0.00    -0.200 F 
ATOM     95  F   UNL A   1      35.986  31.945  33.466  1.00  0.00    -0.200 F 
ENDBRANCH  61  85
BRANCH  73  96
ATOM     96  C   UNL A   1      45.126  33.613  29.230  1.00  0.00     0.064 A 
ATOM     97  C   UNL A   1      44.885  34.683  28.356  1.00  0.00     0.173 A 
ATOM     98  C   UNL A   1      46.009  33.823  30.299  1.00  0.00     0.173 A 
ATOM     99  F   UNL A   1      44.053  34.532  27.315  1.00  0.00    -0.203 F 
ATOM    100  C   UNL A   1      45.524  35.908  28.529  1.00  0.00     0.198 A 
ATOM    101  C   UNL A   1      46.626  35.057  30.485  1.00  0.00     0.198 A 
ATOM    102  F   UNL A   1      46.261  32.834  31.170  1.00  0.00    -0.203 F 
ATOM    103  F   UNL A   1      45.310  36.904  27.658  1.00  0.00    -0.200 F 
ATOM    104  C   UNL A   1      46.393  36.094  29.594  1.00  0.00     0.200 A 
ATOM    105  F   UNL A   1      47.449  35.243  31.528  1.00  0.00    -0.200 F 
ATOM    106  F   UNL A   1      47.006  37.274  29.762  1.00  0.00    -0.200 F 
ENDBRANCH  73  96
ENDBRANCH  47  48
ENDBRANCH  39  42
ENDBRANCH  37  38
ENDBRANCH  36  37
ENDBRANCH  35  36
ENDBRANCH   1  35
TORSDOF 17
ENDMDL
MODEL 2
REMARK VINA RESULT:     -13.3      4.566      8.808
REMARK SMILES O=C(CCN1C(=O)S/C(=C\c2ccc(F)cc2)C1=O)Nc1ccc(O)cc1C(=O)NCCCCNC(=O)c1ccc(-c2c3nc(c(-c4c(F)c(F)c(F)c(F)c4F)c4ccc([nH]4)c(-c4c(F)c(F)c(F)c(F)c4F)c4nc(c(-c5c(F)c(F)c(F)c(F)c5F)c5ccc2[nH]5)C=C4)C=C3)cc1
REMARK SMILES IDX 31 1 30 2 28 3 29 4 27 6 21 7 22 8 23 9 26 10 24 11 20 12
REMARK SMILES IDX 1 13 2 14 3 16 4 17 5 18 6 19 18 20 7 21 8 22 9 23 19 24
REMARK SMILES IDX 10 25 11 26 12 27 17 28 13 29 16 30 14 31 15 32 25 33 32 35
REMARK SMILES IDX 33 36 34 37 35 38 36 39 37 41 38 42 39 43 100 44 40 45 99 46
REMARK SMILES IDX 41 47 42 48 43 49 93 50 44 51 98 52 92 53 94 54 45 55 97 56
REMARK SMILES IDX 91 57 90 58 46 60 78 61 58 62 77 63 59 64 62 65 76 66 95 67
REMARK SMILES IDX 60 68 61 69 75 71 96 72 63 73 47 74 48 75 56 76 49 77 50 78
REMARK SMILES IDX 54 79 57 80 51 81 52 82 55 83 53 84 79 85 80 86 88 87 81 88
REMARK SMILES IDX 82 89 86 90 89 91 83 92 84 93 87 94 85 95 64 96 65 97 73 98
REMARK SMILES IDX 66 99 67 100 71 101 74 102 68 103 69 104 72 105 70 106
REMARK H PARENT 30 5 20 15 25 34 35 40 94 59 62 70
REMARK Flexibility Score: inf
ROOT
ATOM      1  C   UNL A   1      32.224  29.665  25.528  1.00  0.00     0.116 C 
ENDROOT
BRANCH   1   2
ATOM      2  N   UNL A   1      32.530  29.413  24.127  1.00  0.00    -0.352 N 
ATOM      3  C   UNL A   1      31.741  28.906  23.099  1.00  0.00     0.253 C 
ATOM      4  O   UNL A   1      32.211  28.913  21.960  1.00  0.00    -0.269 OA
ATOM      5  H   UNL A   1      33.450  29.641  23.863  1.00  0.00     0.163 HD
BRANCH   3   6
ATOM      6  C   UNL A   1      30.358  28.347  23.283  1.00  0.00     0.067 A 
ATOM      7  C   UNL A   1      30.071  27.050  23.745  1.00  0.00     0.054 A 
ATOM      8  C   UNL A   1      28.739  26.598  23.789  1.00  0.00     0.031 A 
ATOM      9  C   UNL A   1      27.682  27.460  23.502  1.00  0.00     0.048 A 
ATOM     10  C   UNL A   1      29.278  29.218  23.034  1.00  0.00     0.062 A 
ATOM     11  C   UNL A   1      27.960  28.776  23.164  1.00  0.00     0.116 A 
BRANCH   7  12
ATOM     12  N   UNL A   1      31.082  26.271  24.339  1.00  0.00    -0.325 N 
ATOM     13  O   UNL A   1      30.659  26.703  26.561  1.00  0.00    -0.275 OA
ATOM     14  C   UNL A   1      31.366  26.215  25.683  1.00  0.00     0.226 C 
ATOM     15  H   UNL A   1      31.633  25.717  23.739  1.00  0.00     0.169 HD
BRANCH  14  16
ATOM     16  C   UNL A   1      32.663  25.513  26.037  1.00  0.00     0.122 C 
BRANCH  16  17
ATOM     17  C   UNL A   1      33.485  24.935  24.885  1.00  0.00     0.140 C 
BRANCH  17  18
ATOM     18  N   UNL A   1      33.821  23.509  24.943  1.00  0.00    -0.268 N 
ATOM     19  C   UNL A   1      34.929  23.034  25.588  1.00  0.00     0.293 C 
ATOM     20  C   UNL A   1      32.928  22.551  24.540  1.00  0.00     0.268 C 
ATOM     21  O   UNL A   1      35.800  23.696  26.130  1.00  0.00    -0.261 OA
ATOM     22  S   UNL A   1      34.954  21.275  25.547  1.00  0.00    -0.022 SA
ATOM     23  C   UNL A   1      33.398  21.185  24.846  1.00  0.00     0.083 C 
ATOM     24  O   UNL A   1      31.877  22.758  23.958  1.00  0.00    -0.268 OA
ATOM     25  C   UNL A   1      32.621  20.142  24.515  1.00  0.00     0.029 C 
BRANCH  25  26
ATOM     26  C   UNL A   1      32.892  18.700  24.574  1.00  0.00    -0.024 A 
ATOM     27  C   UNL A   1      33.499  17.981  23.540  1.00  0.00     0.011 A 
ATOM     28  C   UNL A   1      32.529  18.020  25.751  1.00  0.00     0.011 A 
ATOM     29  C   UNL A   1      33.652  16.596  23.640  1.00  0.00     0.040 A 
ATOM     30  C   UNL A   1      32.694  16.639  25.857  1.00  0.00     0.040 A 
ATOM     31  C   UNL A   1      33.236  15.937  24.790  1.00  0.00     0.123 A 
ATOM     32  F   UNL A   1      33.360  14.607  24.871  1.00  0.00    -0.207 F 
ENDBRANCH  25  26
ENDBRANCH  17  18
ENDBRANCH  16  17
ENDBRANCH  14  16
ENDBRANCH   7  12
BRANCH  11  33
ATOM     33  O   UNL A   1      26.953  29.673  22.963  1.00  0.00    -0.508 OA
ATOM     34  H   UNL A   1      26.151  29.593  23.440  1.00  0.00     0.293 HD
ENDBRANCH  11  33
ENDBRANCH   3   6
ENDBRANCH   1   2
BRANCH   1  35
ATOM     35  C   UNL A   1      31.208  30.748  25.929  1.00  0.00     0.023 C 
BRANCH  35  36
ATOM     36  C   UNL A   1      31.411  32.023  26.790  1.00  0.00     0.023 C 
BRANCH  36  37
ATOM     37  C   UNL A   1      32.560  33.053  26.833  1.00  0.00     0.116 C 
BRANCH  37  38
ATOM     38  N   UNL A   1      32.492  34.203  27.714  1.00  0.00    -0.352 N 
ATOM     39  C   UNL A   1      33.454  34.584  28.639  1.00  0.00     0.251 C 
ATOM     40  H   UNL A   1      31.688  34.767  27.649  1.00  0.00     0.163 HD
ATOM     41  O   UNL A   1      33.343  35.631  29.270  1.00  0.00    -0.269 OA
BRANCH  39  42
ATOM     42  C   UNL A   1      34.602  33.680  28.918  1.00  0.00     0.039 A 
ATOM     43  C   UNL A   1      35.900  34.168  28.739  1.00  0.00     0.014 A 
ATOM     44  C   UNL A   1      34.404  32.388  29.409  1.00  0.00     0.014 A 
ATOM     45  C   UNL A   1      36.997  33.409  29.170  1.00  0.00     0.010 A 
ATOM     46  C   UNL A   1      35.499  31.643  29.871  1.00  0.00     0.010 A 
ATOM     47  C   UNL A   1      36.801  32.168  29.799  1.00  0.00    -0.014 A 
BRANCH  47  48
ATOM     48  C   UNL A   1      37.927  31.492  30.507  1.00  0.00     0.031 A 
ATOM     49  C   UNL A   1      38.776  30.453  29.833  1.00  0.00     0.074 A 
ATOM     50  C   UNL A   1      38.135  31.779  31.810  1.00  0.00     0.049 A 
ATOM     51  N   UNL A   1      39.782  29.768  30.318  1.00  0.00    -0.248 NA
ATOM     52  C   UNL A   1      38.441  30.125  28.441  1.00  0.00     0.031 C 
ATOM     53  C   UNL A   1      37.338  32.723  32.596  1.00  0.00     0.029 A 
ATOM     54  N   UNL A   1      39.067  31.311  32.704  1.00  0.00    -0.354 N 
ATOM     55  C   UNL A   1      40.200  28.928  29.295  1.00  0.00     0.074 A 
ATOM     56  C   UNL A   1      39.309  29.157  28.176  1.00  0.00     0.031 C 
ATOM     57  C   UNL A   1      37.828  32.784  33.843  1.00  0.00     0.029 A 
ATOM     58  C   UNL A   1      38.955  31.862  33.958  1.00  0.00     0.049 A 
ATOM     59  H   UNL A   1      39.752  30.643  32.469  1.00  0.00     0.167 HD
ATOM     60  C   UNL A   1      41.240  28.060  29.287  1.00  0.00     0.037 A 
ATOM     61  C   UNL A   1      39.674  31.654  35.079  1.00  0.00     0.037 A 
ATOM     62  C   UNL A   1      42.132  27.847  30.400  1.00  0.00     0.049 A 
ATOM     63  C   UNL A   1      40.827  30.690  35.045  1.00  0.00     0.074 A 
ATOM     64  C   UNL A   1      43.261  27.048  30.459  1.00  0.00     0.029 A 
ATOM     65  N   UNL A   1      41.987  28.426  31.653  1.00  0.00    -0.354 N 
ATOM     66  N   UNL A   1      41.265  29.969  34.042  1.00  0.00    -0.248 NA
ATOM     67  C   UNL A   1      41.587  30.512  36.290  1.00  0.00     0.031 C 
ATOM     68  C   UNL A   1      43.768  27.103  31.761  1.00  0.00     0.029 A 
ATOM     69  C   UNL A   1      42.987  27.976  32.501  1.00  0.00     0.049 A 
ATOM     70  H   UNL A   1      41.278  29.063  31.902  1.00  0.00     0.167 HD
ATOM     71  C   UNL A   1      42.355  29.261  34.528  1.00  0.00     0.074 A 
ATOM     72  C   UNL A   1      42.526  29.654  35.911  1.00  0.00     0.031 C 
ATOM     73  C   UNL A   1      43.140  28.365  33.881  1.00  0.00     0.037 A 
BRANCH  60  74
ATOM     74  C   UNL A   1      41.490  27.272  28.032  1.00  0.00     0.064 A 
ATOM     75  C   UNL A   1      40.844  26.045  27.815  1.00  0.00     0.173 A 
ATOM     76  C   UNL A   1      42.422  27.697  27.072  1.00  0.00     0.173 A 
ATOM     77  F   UNL A   1      39.953  25.584  28.707  1.00  0.00    -0.203 F 
ATOM     78  C   UNL A   1      41.123  25.274  26.690  1.00  0.00     0.198 A 
ATOM     79  C   UNL A   1      42.679  26.937  25.934  1.00  0.00     0.198 A 
ATOM     80  F   UNL A   1      43.066  28.864  27.229  1.00  0.00    -0.203 F 
ATOM     81  F   UNL A   1      40.513  24.092  26.520  1.00  0.00    -0.200 F 
ATOM     82  C   UNL A   1      42.036  25.722  25.748  1.00  0.00     0.200 A 
ATOM     83  F   UNL A   1      43.545  27.383  25.014  1.00  0.00    -0.200 F 
ATOM     84  F   UNL A   1      42.293  24.986  24.657  1.00  0.00    -0.200 F 
ENDBRANCH  60  74
BRANCH  61  85
ATOM     85  C   UNL A   1      39.337  32.412  36.313  1.00  0.00     0.064 A 
ATOM     86  C   UNL A   1      39.983  33.617  36.630  1.00  0.00     0.173 A 
ATOM     87  C   UNL A   1      38.403  31.913  37.231  1.00  0.00     0.173 A 
ATOM     88  F   UNL A   1      40.889  34.133  35.789  1.00  0.00    -0.203 F 
ATOM     89  C   UNL A   1      39.728  34.277  37.831  1.00  0.00     0.198 A 
ATOM     90  C   UNL A   1      38.130  32.587  38.421  1.00  0.00     0.198 A 
ATOM     91  F   UNL A   1      37.745  30.775  36.964  1.00  0.00    -0.203 F 
ATOM     92  F   UNL A   1      40.392  35.401  38.129  1.00  0.00    -0.200 F 
ATOM     93  C   UNL A   1      38.801  33.762  38.725  1.00  0.00     0.200 A 
ATOM     94  F   UNL A   1      37.219  32.096  39.273  1.00  0.00    -0.200 F 
ATOM     95  F   UNL A   1      38.556  34.396  39.879  1.00  0.00    -0.200 F 
ENDBRANCH  61  85
BRANCH  73  96
ATOM     96  C   UNL A   1      44.257  27.731  34.657  1.00  0.00     0.064 A 
ATOM     97  C   UNL A   1      45.528  28.324  34.692  1.00  0.00     0.173 A 
ATOM     98  C   UNL A   1      44.094  26.489  35.287  1.00  0.00     0.173 A 
ATOM     99  F   UNL A   1      45.738  29.509  34.099  1.00  0.00    -0.203 F 
ATOM    100  C   UNL A   1      46.600  27.686  35.310  1.00  0.00     0.198 A 
ATOM    101  C   UNL A   1      45.161  25.866  35.928  1.00  0.00     0.198 A 
ATOM    102  F   UNL A   1      42.894  25.888  35.294  1.00  0.00    -0.203 F 
ATOM    103  F   UNL A   1      47.815  28.251  35.295  1.00  0.00    -0.200 F 
ATOM    104  C   UNL A   1      46.415  26.458  35.928  1.00  0.00     0.200 A 
ATOM    105  F   UNL A   1      44.976  24.690  36.544  1.00  0.00    -0.200 F 
ATOM    106  F   UNL A   1      47.447  25.845  36.525  1.00  0.00    -0.200 F 
ENDBRANCH  73  96
ENDBRANCH  47  48
ENDBRANCH  39  42
ENDBRANCH  37  38
ENDBRANCH  36  37
ENDBRANCH  35  36
ENDBRANCH   1  35
TORSDOF 17
ENDMDL
MODEL 3
REMARK VINA RESULT:     -13.2      4.660     10.660
REMARK SMILES O=C(CCN1C(=O)S/C(=C\c2ccc(F)cc2)C1=O)Nc1ccc(O)cc1C(=O)NCCCCNC(=O)c1ccc(-c2c3nc(c(-c4c(F)c(F)c(F)c(F)c4F)c4ccc([nH]4)c(-c4c(F)c(F)c(F)c(F)c4F)c4nc(c(-c5c(F)c(F)c(F)c(F)c5F)c5ccc2[nH]5)C=C4)C=C3)cc1
REMARK SMILES IDX 31 1 30 2 28 3 29 4 27 6 21 7 22 8 23 9 26 10 24 11 20 12
REMARK SMILES IDX 1 13 2 14 3 16 4 17 5 18 6 19 18 20 7 21 8 22 9 23 19 24
REMARK SMILES IDX 10 25 11 26 12 27 17 28 13 29 16 30 14 31 15 32 25 33 32 35
REMARK SMILES IDX 33 36 34 37 35 38 36 39 37 41 38 42 39 43 100 44 40 45 99 46
REMARK SMILES IDX 41 47 42 48 43 49 93 50 44 51 98 52 92 53 94 54 45 55 97 56
REMARK SMILES IDX 91 57 90 58 46 60 78 61 58 62 77 63 59 64 62 65 76 66 95 67
REMARK SMILES IDX 60 68 61 69 75 71 96 72 63 73 47 74 48 75 56 76 49 77 50 78
REMARK SMILES IDX 54 79 57 80 51 81 52 82 55 83 53 84 79 85 80 86 88 87 81 88
REMARK SMILES IDX 82 89 86 90 89 91 83 92 84 93 87 94 85 95 64 96 65 97 73 98
REMARK SMILES IDX 66 99 67 100 71 101 74 102 68 103 69 104 72 105 70 106
REMARK H PARENT 30 5 20 15 25 34 35 40 94 59 62 70
REMARK Flexibility Score: inf
ROOT
ATOM      1  C   UNL A   1      32.130  29.996  25.792  1.00  0.00     0.116 C 
ENDROOT
BRANCH   1   2
ATOM      2  N   UNL A   1      32.602  29.642  24.461  1.00  0.00    -0.352 N 
ATOM      3  C   UNL A   1      31.957  29.001  23.407  1.00  0.00     0.253 C 
ATOM      4  O   UNL A   1      32.550  28.935  22.329  1.00  0.00    -0.269 OA
ATOM      5  H   UNL A   1      33.533  29.899  24.276  1.00  0.00     0.163 HD
BRANCH   3   6
ATOM      6  C   UNL A   1      30.592  28.380  23.496  1.00  0.00     0.067 A 
ATOM      7  C   UNL A   1      30.334  27.060  23.907  1.00  0.00     0.054 A 
ATOM      8  C   UNL A   1      29.023  26.552  23.861  1.00  0.00     0.031 A 
ATOM      9  C   UNL A   1      27.948  27.377  23.534  1.00  0.00     0.048 A 
ATOM     10  C   UNL A   1      29.491  29.212  23.205  1.00  0.00     0.062 A 
ATOM     11  C   UNL A   1      28.188  28.712  23.246  1.00  0.00     0.116 A 
BRANCH   7  12
ATOM     12  N   UNL A   1      31.342  26.307  24.540  1.00  0.00    -0.325 N 
ATOM     13  O   UNL A   1      30.999  26.947  26.726  1.00  0.00    -0.275 OA
ATOM     14  C   UNL A   1      31.665  26.362  25.875  1.00  0.00     0.226 C 
ATOM     15  H   UNL A   1      31.860  25.687  23.977  1.00  0.00     0.169 HD
BRANCH  14  16
ATOM     16  C   UNL A   1      32.954  25.656  26.254  1.00  0.00     0.122 C 
BRANCH  16  17
ATOM     17  C   UNL A   1      33.800  25.084  25.118  1.00  0.00     0.140 C 
BRANCH  17  18
ATOM     18  N   UNL A   1      34.048  23.639  25.121  1.00  0.00    -0.268 N 
ATOM     19  C   UNL A   1      35.168  23.081  25.671  1.00  0.00     0.293 C 
ATOM     20  C   UNL A   1      33.068  22.749  24.768  1.00  0.00     0.268 C 
ATOM     21  O   UNL A   1      36.117  23.674  26.158  1.00  0.00    -0.261 OA
ATOM     22  S   UNL A   1      35.078  21.325  25.592  1.00  0.00    -0.022 SA
ATOM     23  C   UNL A   1      33.471  21.348  25.010  1.00  0.00     0.083 C 
ATOM     24  O   UNL A   1      31.992  23.034  24.271  1.00  0.00    -0.268 OA
ATOM     25  C   UNL A   1      32.608  20.364  24.718  1.00  0.00     0.029 C 
BRANCH  25  26
ATOM     26  C   UNL A   1      32.790  18.907  24.727  1.00  0.00    -0.024 A 
ATOM     27  C   UNL A   1      32.556  18.103  25.847  1.00  0.00     0.011 A 
ATOM     28  C   UNL A   1      33.212  18.298  23.531  1.00  0.00     0.011 A 
ATOM     29  C   UNL A   1      32.828  16.734  25.800  1.00  0.00     0.040 A 
ATOM     30  C   UNL A   1      33.471  16.928  23.480  1.00  0.00     0.040 A 
ATOM     31  C   UNL A   1      33.295  16.163  24.623  1.00  0.00     0.123 A 
ATOM     32  F   UNL A   1      33.580  14.855  24.591  1.00  0.00    -0.207 F 
ENDBRANCH  25  26
ENDBRANCH  17  18
ENDBRANCH  16  17
ENDBRANCH  14  16
ENDBRANCH   7  12
BRANCH  11  33
ATOM     33  O   UNL A   1      27.157  29.572  23.008  1.00  0.00    -0.508 OA
ATOM     34  H   UNL A   1      26.915  30.205  23.655  1.00  0.00     0.293 HD
ENDBRANCH  11  33
ENDBRANCH   3   6
ENDBRANCH   1   2
BRANCH   1  35
ATOM     35  C   UNL A   1      31.205  31.207  26.002  1.00  0.00     0.023 C 
BRANCH  35  36
ATOM     36  C   UNL A   1      31.404  32.460  26.895  1.00  0.00     0.023 C 
BRANCH  36  37
ATOM     37  C   UNL A   1      32.618  33.393  27.088  1.00  0.00     0.116 C 
BRANCH  37  38
ATOM     38  N   UNL A   1      32.558  34.508  28.013  1.00  0.00    -0.352 N 
ATOM     39  C   UNL A   1      33.506  34.826  28.976  1.00  0.00     0.251 C 
ATOM     40  H   UNL A   1      31.770  35.095  27.953  1.00  0.00     0.163 HD
ATOM     41  O   UNL A   1      33.405  35.849  29.647  1.00  0.00    -0.269 OA
BRANCH  39  42
ATOM     42  C   UNL A   1      34.623  33.882  29.245  1.00  0.00     0.039 A 
ATOM     43  C   UNL A   1      35.929  34.283  28.946  1.00  0.00     0.014 A 
ATOM     44  C   UNL A   1      34.395  32.639  29.840  1.00  0.00     0.014 A 
ATOM     45  C   UNL A   1      37.013  33.497  29.359  1.00  0.00     0.010 A 
ATOM     46  C   UNL A   1      35.480  31.869  30.282  1.00  0.00     0.010 A 
ATOM     47  C   UNL A   1      36.799  32.315  30.089  1.00  0.00    -0.014 A 
BRANCH  47  48
ATOM     48  C   UNL A   1      37.936  31.628  30.769  1.00  0.00     0.031 A 
ATOM     49  C   UNL A   1      38.347  31.977  32.170  1.00  0.00     0.074 A 
ATOM     50  C   UNL A   1      38.650  30.720  30.072  1.00  0.00     0.049 A 
ATOM     51  N   UNL A   1      39.319  31.480  32.893  1.00  0.00    -0.248 NA
ATOM     52  C   UNL A   1      37.580  33.036  32.841  1.00  0.00     0.031 C 
ATOM     53  C   UNL A   1      38.392  30.339  28.682  1.00  0.00     0.029 A 
ATOM     54  N   UNL A   1      39.737  29.956  30.426  1.00  0.00    -0.354 N 
ATOM     55  C   UNL A   1      39.285  32.163  34.101  1.00  0.00     0.074 A 
ATOM     56  C   UNL A   1      38.222  33.142  33.998  1.00  0.00     0.031 C 
ATOM     57  C   UNL A   1      39.273  29.400  28.310  1.00  0.00     0.029 A 
ATOM     58  C   UNL A   1      40.182  29.130  29.421  1.00  0.00     0.049 A 
ATOM     59  H   UNL A   1      40.157  29.997  31.315  1.00  0.00     0.167 HD
ATOM     60  C   UNL A   1      40.057  31.977  35.199  1.00  0.00     0.037 A 
ATOM     61  C   UNL A   1      41.205  28.253  29.390  1.00  0.00     0.037 A 
ATOM     62  C   UNL A   1      41.104  30.990  35.300  1.00  0.00     0.049 A 
ATOM     63  C   UNL A   1      42.044  28.060  30.621  1.00  0.00     0.074 A 
ATOM     64  C   UNL A   1      41.887  30.673  36.397  1.00  0.00     0.029 A 
ATOM     65  N   UNL A   1      41.524  30.171  34.261  1.00  0.00    -0.354 N 
ATOM     66  N   UNL A   1      41.942  28.650  31.787  1.00  0.00    -0.248 NA
ATOM     67  C   UNL A   1      43.137  27.079  30.539  1.00  0.00     0.031 C 
ATOM     68  C   UNL A   1      42.813  29.701  36.008  1.00  0.00     0.029 A 
ATOM     69  C   UNL A   1      42.575  29.373  34.683  1.00  0.00     0.049 A 
ATOM     70  H   UNL A   1      41.131  30.159  33.358  1.00  0.00     0.167 HD
ATOM     71  C   UNL A   1      42.945  28.110  32.579  1.00  0.00     0.074 A 
ATOM     72  C   UNL A   1      43.634  27.127  31.768  1.00  0.00     0.031 C 
ATOM     73  C   UNL A   1      43.263  28.406  33.863  1.00  0.00     0.037 A 
BRANCH  60  74
ATOM     74  C   UNL A   1      39.801  32.849  36.396  1.00  0.00     0.064 A 
ATOM     75  C   UNL A   1      40.603  33.973  36.647  1.00  0.00     0.173 A 
ATOM     76  C   UNL A   1      38.806  32.534  37.334  1.00  0.00     0.173 A 
ATOM     77  F   UNL A   1      41.579  34.313  35.791  1.00  0.00    -0.203 F 
ATOM     78  C   UNL A   1      40.420  34.746  37.792  1.00  0.00     0.198 A 
ATOM     79  C   UNL A   1      38.607  33.324  38.463  1.00  0.00     0.198 A 
ATOM     80  F   UNL A   1      38.010  31.471  37.140  1.00  0.00    -0.203 F 
ATOM     81  F   UNL A   1      41.217  35.799  38.023  1.00  0.00    -0.200 F 
ATOM     82  C   UNL A   1      39.419  34.424  38.696  1.00  0.00     0.200 A 
ATOM     83  F   UNL A   1      37.625  33.024  39.324  1.00  0.00    -0.200 F 
ATOM     84  F   UNL A   1      39.234  35.176  39.789  1.00  0.00    -0.200 F 
ENDBRANCH  60  74
BRANCH  61  85
ATOM     85  C   UNL A   1      41.454  27.466  28.153  1.00  0.00     0.064 A 
ATOM     86  C   UNL A   1      40.890  26.194  27.970  1.00  0.00     0.173 A 
ATOM     87  C   UNL A   1      42.312  27.948  27.155  1.00  0.00     0.173 A 
ATOM     88  F   UNL A   1      40.068  25.685  28.898  1.00  0.00    -0.203 F 
ATOM     89  C   UNL A   1      41.198  25.424  26.850  1.00  0.00     0.198 A 
ATOM     90  C   UNL A   1      42.600  27.187  26.023  1.00  0.00     0.198 A 
ATOM     91  F   UNL A   1      42.860  29.167  27.275  1.00  0.00    -0.203 F 
ATOM     92  F   UNL A   1      40.682  24.195  26.722  1.00  0.00    -0.200 F 
ATOM     93  C   UNL A   1      42.052  25.922  25.877  1.00  0.00     0.200 A 
ATOM     94  F   UNL A   1      43.410  27.680  25.076  1.00  0.00    -0.200 F 
ATOM     95  F   UNL A   1      42.349  25.181  24.801  1.00  0.00    -0.200 F 
ENDBRANCH  61  85
BRANCH  73  96
ATOM     96  C   UNL A   1      44.415  27.670  34.483  1.00  0.00     0.064 A 
ATOM     97  C   UNL A   1      44.210  26.447  35.139  1.00  0.00     0.173 A 
ATOM     98  C   UNL A   1      45.703  28.221  34.507  1.00  0.00     0.173 A 
ATOM     99  F   UNL A   1      42.994  25.880  35.149  1.00  0.00    -0.203 F 
ATOM    100  C   UNL A   1      45.249  25.815  35.816  1.00  0.00     0.198 A 
ATOM    101  C   UNL A   1      46.747  27.573  35.163  1.00  0.00     0.198 A 
ATOM    102  F   UNL A   1      45.952  29.382  33.882  1.00  0.00    -0.203 F 
ATOM    103  F   UNL A   1      45.020  24.668  36.472  1.00  0.00    -0.200 F 
ATOM    104  C   UNL A   1      46.516  26.378  35.827  1.00  0.00     0.200 A 
ATOM    105  F   UNL A   1      47.976  28.108  35.154  1.00  0.00    -0.200 F 
ATOM    106  F   UNL A   1      47.517  25.768  36.478  1.00  0.00    -0.200 F 
ENDBRANCH  73  96
ENDBRANCH  47  48
ENDBRANCH  39  42
ENDBRANCH  37  38
ENDBRANCH  36  37
ENDBRANCH  35  36
ENDBRANCH   1  35
TORSDOF 17
ENDMDL
