MODEL 1
REMARK VINA RESULT:     -13.0      0.000      0.000
REMARK SMILES O=C(NCCCCNC(=O)c1ccc2c(=O)n(CCc3c[nH]c4ccccc34)c(=O)[nH]c2c1)c1ccc(-c2c3nc(c(-c4c(F)c(F)c(F)c(F)c4F)c4ccc([nH]4)c(-c4c(F)c(F)c(F)c(F)c4F)c4nc(c(-c5c(F)c(F)c(F)c(F)c5F)c5ccc2[nH]5)C=C4)C=C3)cc1
REMARK SMILES IDX 6 1 5 2 4 3 3 4 1 5 2 6 34 8 35 9 96 10 36 11 95 12 37 13
REMARK SMILES IDX 38 14 39 15 89 16 40 17 94 18 88 19 90 20 41 21 93 22 87 23
REMARK SMILES IDX 86 24 42 26 74 27 54 28 73 29 55 30 58 31 72 32 91 33 56 34
REMARK SMILES IDX 57 35 71 37 92 38 59 39 43 40 44 41 52 42 45 43 46 44 50 45
REMARK SMILES IDX 53 46 47 47 48 48 51 49 49 50 75 51 76 52 84 53 77 54 78 55
REMARK SMILES IDX 82 56 85 57 79 58 80 59 83 60 81 61 60 62 61 63 69 64 62 65
REMARK SMILES IDX 63 66 67 67 70 68 64 69 65 70 68 71 66 72 7 73 8 74 9 75
REMARK SMILES IDX 10 77 11 78 12 79 33 80 13 81 32 82 14 83 31 84 15 85 29 86
REMARK SMILES IDX 16 88 17 89 30 90 18 91 19 92 20 93 21 94 28 95 22 96 23 97
REMARK SMILES IDX 27 98 24 100 26 101 25 102
REMARK H PARENT 3 7 90 25 58 36 8 76 31 87 22 99
REMARK Flexibility Score: inf
ROOT
ATOM      1  C   UNL A   1      35.315  21.928  26.597  1.00  0.00     0.023 C 
ENDROOT
BRANCH   1   2
ATOM      2  C   UNL A   1      35.501  23.347  26.070  1.00  0.00     0.023 C 
BRANCH   2   3
ATOM      3  C   UNL A   1      36.794  23.622  25.308  1.00  0.00     0.116 C 
BRANCH   3   4
ATOM      4  N   UNL A   1      37.854  22.662  25.577  1.00  0.00    -0.352 N 
ATOM      5  O   UNL A   1      39.857  21.862  26.208  1.00  0.00    -0.269 OA
ATOM      6  C   UNL A   1      39.090  22.811  26.175  1.00  0.00     0.251 C 
ATOM      7  H   UNL A   1      37.654  21.744  25.281  1.00  0.00     0.163 HD
BRANCH   6   8
ATOM      8  C   UNL A   1      39.519  24.111  26.756  1.00  0.00     0.039 A 
ATOM      9  C   UNL A   1      39.218  24.380  28.097  1.00  0.00     0.014 A 
ATOM     10  C   UNL A   1      40.157  25.088  25.992  1.00  0.00     0.014 A 
ATOM     11  C   UNL A   1      39.606  25.594  28.677  1.00  0.00     0.010 A 
ATOM     12  C   UNL A   1      40.635  26.250  26.595  1.00  0.00     0.010 A 
ATOM     13  C   UNL A   1      40.342  26.532  27.937  1.00  0.00    -0.014 A 
BRANCH  13  14
ATOM     14  C   UNL A   1      40.742  27.845  28.514  1.00  0.00     0.031 A 
ATOM     15  C   UNL A   1      42.188  28.098  28.855  1.00  0.00     0.074 A 
ATOM     16  C   UNL A   1      39.819  28.793  28.773  1.00  0.00     0.049 A 
ATOM     17  N   UNL A   1      42.736  29.134  29.442  1.00  0.00    -0.248 NA
ATOM     18  C   UNL A   1      43.144  27.031  28.518  1.00  0.00     0.031 C 
ATOM     19  C   UNL A   1      38.385  28.669  28.513  1.00  0.00     0.029 A 
ATOM     20  N   UNL A   1      39.952  30.048  29.314  1.00  0.00    -0.354 N 
ATOM     21  C   UNL A   1      44.087  28.832  29.556  1.00  0.00     0.074 A 
ATOM     22  C   UNL A   1      44.267  27.491  29.045  1.00  0.00     0.031 C 
ATOM     23  C   UNL A   1      37.776  29.814  28.861  1.00  0.00     0.029 A 
ATOM     24  C   UNL A   1      38.766  30.737  29.411  1.00  0.00     0.049 A 
ATOM     25  H   UNL A   1      40.816  30.420  29.607  1.00  0.00     0.167 HD
ATOM     26  C   UNL A   1      45.096  29.612  30.009  1.00  0.00     0.037 A 
ATOM     27  C   UNL A   1      38.508  31.970  29.889  1.00  0.00     0.037 A 
ATOM     28  C   UNL A   1      44.924  30.960  30.480  1.00  0.00     0.049 A 
ATOM     29  C   UNL A   1      39.640  32.810  30.419  1.00  0.00     0.074 A 
ATOM     30  C   UNL A   1      45.890  31.850  30.914  1.00  0.00     0.029 A 
ATOM     31  N   UNL A   1      43.704  31.614  30.574  1.00  0.00    -0.354 N 
ATOM     32  N   UNL A   1      40.919  32.529  30.480  1.00  0.00    -0.248 NA
ATOM     33  C   UNL A   1      39.292  34.138  30.945  1.00  0.00     0.031 C 
ATOM     34  C   UNL A   1      45.251  33.024  31.320  1.00  0.00     0.029 A 
ATOM     35  C   UNL A   1      43.891  32.888  31.084  1.00  0.00     0.049 A 
ATOM     36  H   UNL A   1      42.836  31.231  30.316  1.00  0.00     0.167 HD
ATOM     37  C   UNL A   1      41.531  33.648  31.029  1.00  0.00     0.074 A 
ATOM     38  C   UNL A   1      40.485  34.621  31.267  1.00  0.00     0.031 C 
ATOM     39  C   UNL A   1      42.842  33.849  31.313  1.00  0.00     0.037 A 
BRANCH  26  40
ATOM     40  C   UNL A   1      46.483  29.035  30.002  1.00  0.00     0.064 A 
ATOM     41  C   UNL A   1      47.002  28.354  31.115  1.00  0.00     0.173 A 
ATOM     42  C   UNL A   1      47.288  29.123  28.856  1.00  0.00     0.173 A 
ATOM     43  F   UNL A   1      46.279  28.251  32.241  1.00  0.00    -0.203 F 
ATOM     44  C   UNL A   1      48.282  27.808  31.090  1.00  0.00     0.198 A 
ATOM     45  C   UNL A   1      48.554  28.545  28.823  1.00  0.00     0.198 A 
ATOM     46  F   UNL A   1      46.841  29.758  27.762  1.00  0.00    -0.203 F 
ATOM     47  F   UNL A   1      48.774  27.208  32.183  1.00  0.00    -0.200 F 
ATOM     48  C   UNL A   1      49.054  27.895  29.941  1.00  0.00     0.200 A 
ATOM     49  F   UNL A   1      49.293  28.617  27.706  1.00  0.00    -0.200 F 
ATOM     50  F   UNL A   1      50.281  27.359  29.914  1.00  0.00    -0.200 F 
ENDBRANCH  26  40
BRANCH  27  51
ATOM     51  C   UNL A   1      37.116  32.497  29.848  1.00  0.00     0.064 A 
ATOM     52  C   UNL A   1      36.242  32.295  30.926  1.00  0.00     0.173 A 
ATOM     53  C   UNL A   1      36.641  33.234  28.754  1.00  0.00     0.173 A 
ATOM     54  F   UNL A   1      36.641  31.575  31.985  1.00  0.00    -0.203 F 
ATOM     55  C   UNL A   1      34.947  32.809  30.910  1.00  0.00     0.198 A 
ATOM     56  C   UNL A   1      35.355  33.771  28.751  1.00  0.00     0.198 A 
ATOM     57  F   UNL A   1      37.436  33.456  27.697  1.00  0.00    -0.203 F 
ATOM     58  F   UNL A   1      34.124  32.576  31.940  1.00  0.00    -0.200 F 
ATOM     59  C   UNL A   1      34.509  33.555  29.828  1.00  0.00     0.200 A 
ATOM     60  F   UNL A   1      34.940  34.506  27.710  1.00  0.00    -0.200 F 
ATOM     61  F   UNL A   1      33.269  34.065  29.821  1.00  0.00    -0.200 F 
ENDBRANCH  27  51
BRANCH  39  62
ATOM     62  C   UNL A   1      43.236  35.173  31.902  1.00  0.00     0.064 A 
ATOM     63  C   UNL A   1      43.666  36.235  31.093  1.00  0.00     0.173 A 
ATOM     64  C   UNL A   1      43.095  35.411  33.278  1.00  0.00     0.173 A 
ATOM     65  F   UNL A   1      43.827  36.056  29.774  1.00  0.00    -0.203 F 
ATOM     66  C   UNL A   1      43.952  37.482  31.643  1.00  0.00     0.198 A 
ATOM     67  C   UNL A   1      43.350  36.667  33.819  1.00  0.00     0.198 A 
ATOM     68  F   UNL A   1      42.677  34.432  34.095  1.00  0.00    -0.203 F 
ATOM     69  F   UNL A   1      44.393  38.473  30.855  1.00  0.00    -0.200 F 
ATOM     70  C   UNL A   1      43.782  37.701  33.002  1.00  0.00     0.200 A 
ATOM     71  F   UNL A   1      43.166  36.882  35.129  1.00  0.00    -0.200 F 
ATOM     72  F   UNL A   1      44.036  38.909  33.523  1.00  0.00    -0.200 F 
ENDBRANCH  39  62
ENDBRANCH  13  14
ENDBRANCH   6   8
ENDBRANCH   3   4
ENDBRANCH   2   3
ENDBRANCH   1   2
BRANCH   1  73
ATOM     73  C   UNL A   1      33.988  21.593  27.282  1.00  0.00     0.116 C 
BRANCH  73  74
ATOM     74  N   UNL A   1      33.283  20.413  26.824  1.00  0.00    -0.352 N 
ATOM     75  C   UNL A   1      32.656  20.198  25.611  1.00  0.00     0.251 C 
ATOM     76  H   UNL A   1      33.244  19.664  27.462  1.00  0.00     0.163 HD
ATOM     77  O   UNL A   1      32.178  19.100  25.346  1.00  0.00    -0.269 OA
BRANCH  75  78
ATOM     78  C   UNL A   1      32.518  21.282  24.611  1.00  0.00     0.041 A 
ATOM     79  C   UNL A   1      33.435  21.399  23.556  1.00  0.00     0.015 A 
ATOM     80  C   UNL A   1      31.426  22.157  24.699  1.00  0.00     0.040 A 
ATOM     81  C   UNL A   1      33.319  22.459  22.646  1.00  0.00     0.017 A 
ATOM     82  C   UNL A   1      31.341  23.233  23.812  1.00  0.00     0.056 A 
ATOM     83  C   UNL A   1      32.296  23.399  22.809  1.00  0.00     0.064 A 
ATOM     84  N   UNL A   1      30.384  24.228  24.011  1.00  0.00    -0.307 N 
ATOM     85  C   UNL A   1      32.333  24.687  22.080  1.00  0.00     0.264 A 
ATOM     86  C   UNL A   1      30.487  25.483  23.472  1.00  0.00     0.328 A 
ATOM     87  H   UNL A   1      29.597  24.019  24.564  1.00  0.00     0.171 HD
ATOM     88  O   UNL A   1      33.042  24.806  21.090  1.00  0.00    -0.268 OA
ATOM     89  N   UNL A   1      31.577  25.709  22.645  1.00  0.00    -0.260 N 
ATOM     90  O   UNL A   1      29.665  26.344  23.783  1.00  0.00    -0.248 OA
BRANCH  89  91
ATOM     91  C   UNL A   1      31.923  27.089  22.325  1.00  0.00     0.136 C 
BRANCH  91  92
ATOM     92  C   UNL A   1      33.026  27.641  23.240  1.00  0.00     0.060 C 
BRANCH  92  93
ATOM     93  C   UNL A   1      32.668  28.756  24.183  1.00  0.00    -0.021 A 
ATOM     94  C   UNL A   1      31.695  29.709  23.939  1.00  0.00     0.087 A 
ATOM     95  C   UNL A   1      33.212  29.131  25.459  1.00  0.00     0.003 A 
ATOM     96  N   UNL A   1      31.279  30.095  25.184  1.00  0.00    -0.361 N 
ATOM     97  C   UNL A   1      32.367  30.096  26.011  1.00  0.00     0.046 A 
ATOM     98  C   UNL A   1      34.339  28.785  26.200  1.00  0.00     0.010 A 
ATOM     99  H   UNL A   1      30.358  30.331  25.438  1.00  0.00     0.166 HD
ATOM    100  C   UNL A   1      32.628  30.802  27.191  1.00  0.00     0.026 A 
ATOM    101  C   UNL A   1      34.736  29.660  27.214  1.00  0.00     0.001 A 
ATOM    102  C   UNL A   1      33.895  30.635  27.730  1.00  0.00     0.002 A 
ENDBRANCH  92  93
ENDBRANCH  91  92
ENDBRANCH  89  91
ENDBRANCH  75  78
ENDBRANCH  73  74
ENDBRANCH   1  73
TORSDOF 14
ENDMDL
MODEL 2
REMARK VINA RESULT:     -13.0      3.077      8.158
REMARK SMILES O=C(NCCCCNC(=O)c1ccc2c(=O)n(CCc3c[nH]c4ccccc34)c(=O)[nH]c2c1)c1ccc(-c2c3nc(c(-c4c(F)c(F)c(F)c(F)c4F)c4ccc([nH]4)c(-c4c(F)c(F)c(F)c(F)c4F)c4nc(c(-c5c(F)c(F)c(F)c(F)c5F)c5ccc2[nH]5)C=C4)C=C3)cc1
REMARK SMILES IDX 6 1 5 2 4 3 3 4 1 5 2 6 34 8 35 9 96 10 36 11 95 12 37 13
REMARK SMILES IDX 38 14 39 15 89 16 40 17 94 18 88 19 90 20 41 21 93 22 87 23
REMARK SMILES IDX 86 24 42 26 74 27 54 28 73 29 55 30 58 31 72 32 91 33 56 34
REMARK SMILES IDX 57 35 71 37 92 38 59 39 43 40 44 41 52 42 45 43 46 44 50 45
REMARK SMILES IDX 53 46 47 47 48 48 51 49 49 50 75 51 76 52 84 53 77 54 78 55
REMARK SMILES IDX 82 56 85 57 79 58 80 59 83 60 81 61 60 62 61 63 69 64 62 65
REMARK SMILES IDX 63 66 67 67 70 68 64 69 65 70 68 71 66 72 7 73 8 74 9 75
REMARK SMILES IDX 10 77 11 78 12 79 33 80 13 81 32 82 14 83 31 84 15 85 29 86
REMARK SMILES IDX 16 88 17 89 30 90 18 91 19 92 20 93 21 94 28 95 22 96 23 97
REMARK SMILES IDX 27 98 24 100 26 101 25 102
REMARK H PARENT 3 7 90 25 58 36 8 76 31 87 22 99
REMARK Flexibility Score: inf
ROOT
ATOM      1  C   UNL A   1      37.310  20.860  24.599  1.00  0.00     0.023 C 
ENDROOT
BRANCH   1   2
ATOM      2  C   UNL A   1      38.185  19.662  24.951  1.00  0.00     0.023 C 
BRANCH   2   3
ATOM      3  C   UNL A   1      39.213  19.876  26.056  1.00  0.00     0.116 C 
BRANCH   3   4
ATOM      4  N   UNL A   1      40.392  19.030  25.939  1.00  0.00    -0.352 N 
ATOM      5  O   UNL A   1      42.558  18.449  25.794  1.00  0.00    -0.269 OA
ATOM      6  C   UNL A   1      41.739  19.325  26.019  1.00  0.00     0.251 C 
ATOM      7  H   UNL A   1      40.194  18.079  25.773  1.00  0.00     0.163 HD
BRANCH   6   8
ATOM      8  C   UNL A   1      42.214  20.695  26.349  1.00  0.00     0.039 A 
ATOM      9  C   UNL A   1      42.368  21.048  27.696  1.00  0.00     0.014 A 
ATOM     10  C   UNL A   1      42.454  21.652  25.363  1.00  0.00     0.014 A 
ATOM     11  C   UNL A   1      42.813  22.330  28.043  1.00  0.00     0.010 A 
ATOM     12  C   UNL A   1      42.996  22.890  25.702  1.00  0.00     0.010 A 
ATOM     13  C   UNL A   1      43.156  23.256  27.047  1.00  0.00    -0.014 A 
BRANCH  13  14
ATOM     14  C   UNL A   1      43.602  24.637  27.382  1.00  0.00     0.031 A 
ATOM     15  C   UNL A   1      42.601  25.637  27.900  1.00  0.00     0.074 A 
ATOM     16  C   UNL A   1      44.882  25.013  27.187  1.00  0.00     0.049 A 
ATOM     17  N   UNL A   1      42.759  26.910  28.170  1.00  0.00    -0.248 NA
ATOM     18  C   UNL A   1      41.230  25.148  28.116  1.00  0.00     0.031 C 
ATOM     19  C   UNL A   1      45.946  24.152  26.670  1.00  0.00     0.029 A 
ATOM     20  N   UNL A   1      45.504  26.219  27.400  1.00  0.00    -0.354 N 
ATOM     21  C   UNL A   1      41.510  27.369  28.568  1.00  0.00     0.074 A 
ATOM     22  C   UNL A   1      40.589  26.262  28.437  1.00  0.00     0.031 C 
ATOM     23  C   UNL A   1      47.095  24.846  26.640  1.00  0.00     0.029 A 
ATOM     24  C   UNL A   1      46.843  26.213  27.091  1.00  0.00     0.049 A 
ATOM     25  H   UNL A   1      45.034  27.015  27.741  1.00  0.00     0.167 HD
ATOM     26  C   UNL A   1      41.164  28.591  29.037  1.00  0.00     0.037 A 
ATOM     27  C   UNL A   1      47.761  27.197  27.162  1.00  0.00     0.037 A 
ATOM     28  C   UNL A   1      42.087  29.680  29.205  1.00  0.00     0.049 A 
ATOM     29  C   UNL A   1      47.349  28.558  27.656  1.00  0.00     0.074 A 
ATOM     30  C   UNL A   1      41.844  30.942  29.718  1.00  0.00     0.029 A 
ATOM     31  N   UNL A   1      43.432  29.636  28.867  1.00  0.00    -0.354 N 
ATOM     32  N   UNL A   1      46.175  28.966  28.071  1.00  0.00    -0.248 NA
ATOM     33  C   UNL A   1      48.391  29.595  27.692  1.00  0.00     0.031 C 
ATOM     34  C   UNL A   1      43.030  31.678  29.643  1.00  0.00     0.029 A 
ATOM     35  C   UNL A   1      44.026  30.857  29.137  1.00  0.00     0.049 A 
ATOM     36  H   UNL A   1      43.895  28.853  28.492  1.00  0.00     0.167 HD
ATOM     37  C   UNL A   1      46.339  30.296  28.436  1.00  0.00     0.074 A 
ATOM     38  C   UNL A   1      47.731  30.622  28.212  1.00  0.00     0.031 C 
ATOM     39  C   UNL A   1      45.415  31.168  28.912  1.00  0.00     0.037 A 
BRANCH  26  40
ATOM     40  C   UNL A   1      39.728  28.811  29.420  1.00  0.00     0.064 A 
ATOM     41  C   UNL A   1      39.264  28.542  30.717  1.00  0.00     0.173 A 
ATOM     42  C   UNL A   1      38.815  29.340  28.494  1.00  0.00     0.173 A 
ATOM     43  F   UNL A   1      40.092  28.024  31.637  1.00  0.00    -0.203 F 
ATOM     44  C   UNL A   1      37.935  28.767  31.065  1.00  0.00     0.198 A 
ATOM     45  C   UNL A   1      37.495  29.597  28.856  1.00  0.00     0.198 A 
ATOM     46  F   UNL A   1      39.205  29.621  27.242  1.00  0.00    -0.203 F 
ATOM     47  F   UNL A   1      37.503  28.453  32.294  1.00  0.00    -0.200 F 
ATOM     48  C   UNL A   1      37.054  29.304  30.137  1.00  0.00     0.200 A 
ATOM     49  F   UNL A   1      36.649  30.130  27.964  1.00  0.00    -0.200 F 
ATOM     50  F   UNL A   1      35.778  29.531  30.477  1.00  0.00    -0.200 F 
ENDBRANCH  26  40
BRANCH  27  51
ATOM     51  C   UNL A   1      49.174  26.911  26.791  1.00  0.00     0.064 A 
ATOM     52  C   UNL A   1      50.100  26.501  27.762  1.00  0.00     0.173 A 
ATOM     53  C   UNL A   1      49.621  27.009  25.466  1.00  0.00     0.173 A 
ATOM     54  F   UNL A   1      49.728  26.416  29.047  1.00  0.00    -0.203 F 
ATOM     55  C   UNL A   1      51.418  26.203  27.421  1.00  0.00     0.198 A 
ATOM     56  C   UNL A   1      50.931  26.683  25.121  1.00  0.00     0.198 A 
ATOM     57  F   UNL A   1      48.776  27.396  24.499  1.00  0.00    -0.203 F 
ATOM     58  F   UNL A   1      52.288  25.843  28.372  1.00  0.00    -0.200 F 
ATOM     59  C   UNL A   1      51.829  26.284  26.100  1.00  0.00     0.200 A 
ATOM     60  F   UNL A   1      51.321  26.747  23.841  1.00  0.00    -0.200 F 
ATOM     61  F   UNL A   1      53.091  25.979  25.769  1.00  0.00    -0.200 F 
ENDBRANCH  27  51
BRANCH  39  62
ATOM     62  C   UNL A   1      45.871  32.561  29.240  1.00  0.00     0.064 A 
ATOM     63  C   UNL A   1      46.430  32.874  30.488  1.00  0.00     0.173 A 
ATOM     64  C   UNL A   1      45.834  33.571  28.265  1.00  0.00     0.173 A 
ATOM     65  F   UNL A   1      46.479  31.947  31.456  1.00  0.00    -0.203 F 
ATOM     66  C   UNL A   1      46.922  34.149  30.751  1.00  0.00     0.198 A 
ATOM     67  C   UNL A   1      46.356  34.835  28.522  1.00  0.00     0.198 A 
ATOM     68  F   UNL A   1      45.320  33.321  27.052  1.00  0.00    -0.203 F 
ATOM     69  F   UNL A   1      47.422  34.435  31.962  1.00  0.00    -0.200 F 
ATOM     70  C   UNL A   1      46.897  35.124  29.765  1.00  0.00     0.200 A 
ATOM     71  F   UNL A   1      46.349  35.769  27.561  1.00  0.00    -0.200 F 
ATOM     72  F   UNL A   1      47.393  36.344  30.015  1.00  0.00    -0.200 F 
ENDBRANCH  39  62
ENDBRANCH  13  14
ENDBRANCH   6   8
ENDBRANCH   3   4
ENDBRANCH   2   3
ENDBRANCH   1   2
BRANCH   1  73
ATOM     73  C   UNL A   1      35.961  20.988  25.312  1.00  0.00     0.116 C 
BRANCH  73  74
ATOM     74  N   UNL A   1      35.087  19.832  25.294  1.00  0.00    -0.352 N 
ATOM     75  C   UNL A   1      33.780  19.746  24.852  1.00  0.00     0.251 C 
ATOM     76  H   UNL A   1      35.475  18.998  25.643  1.00  0.00     0.163 HD
ATOM     77  O   UNL A   1      33.207  18.662  24.822  1.00  0.00    -0.269 OA
BRANCH  75  78
ATOM     78  C   UNL A   1      33.027  20.949  24.429  1.00  0.00     0.041 A 
ATOM     79  C   UNL A   1      33.244  21.516  23.163  1.00  0.00     0.015 A 
ATOM     80  C   UNL A   1      32.054  21.481  25.285  1.00  0.00     0.040 A 
ATOM     81  C   UNL A   1      32.559  22.682  22.796  1.00  0.00     0.017 A 
ATOM     82  C   UNL A   1      31.405  22.665  24.928  1.00  0.00     0.056 A 
ATOM     83  C   UNL A   1      31.675  23.277  23.703  1.00  0.00     0.064 A 
ATOM     84  N   UNL A   1      30.590  23.322  25.850  1.00  0.00    -0.307 N 
ATOM     85  C   UNL A   1      31.189  24.658  23.486  1.00  0.00     0.264 A 
ATOM     86  C   UNL A   1      30.263  24.648  25.748  1.00  0.00     0.328 A 
ATOM     87  H   UNL A   1      30.233  22.807  26.610  1.00  0.00     0.171 HD
ATOM     88  O   UNL A   1      31.263  25.162  22.372  1.00  0.00    -0.268 OA
ATOM     89  N   UNL A   1      30.732  25.312  24.625  1.00  0.00    -0.260 N 
ATOM     90  O   UNL A   1      29.635  25.187  26.659  1.00  0.00    -0.248 OA
BRANCH  89  91
ATOM     91  C   UNL A   1      30.711  26.771  24.630  1.00  0.00     0.136 C 
BRANCH  91  92
ATOM     92  C   UNL A   1      29.559  27.340  23.789  1.00  0.00     0.060 C 
BRANCH  92  93
ATOM     93  C   UNL A   1      29.768  28.665  23.112  1.00  0.00    -0.021 A 
ATOM     94  C   UNL A   1      30.940  29.051  22.485  1.00  0.00     0.087 A 
ATOM     95  C   UNL A   1      28.906  29.807  22.974  1.00  0.00     0.003 A 
ATOM     96  N   UNL A   1      30.537  29.953  21.539  1.00  0.00    -0.361 N 
ATOM     97  C   UNL A   1      29.503  30.678  22.059  1.00  0.00     0.046 A 
ATOM     98  C   UNL A   1      27.702  30.218  23.540  1.00  0.00     0.010 A 
ATOM     99  H   UNL A   1      30.925  30.061  20.640  1.00  0.00     0.166 HD
ATOM    100  C   UNL A   1      29.030  31.961  21.758  1.00  0.00     0.026 A 
ATOM    101  C   UNL A   1      27.380  31.575  23.453  1.00  0.00     0.001 A 
ATOM    102  C   UNL A   1      28.004  32.434  22.562  1.00  0.00     0.002 A 
ENDBRANCH  92  93
ENDBRANCH  91  92
ENDBRANCH  89  91
ENDBRANCH  75  78
ENDBRANCH  73  74
ENDBRANCH   1  73
TORSDOF 14
ENDMDL
MODEL 3
REMARK VINA RESULT:     -13.0      3.256      8.325
REMARK SMILES O=C(NCCCCNC(=O)c1ccc2c(=O)n(CCc3c[nH]c4ccccc34)c(=O)[nH]c2c1)c1ccc(-c2c3nc(c(-c4c(F)c(F)c(F)c(F)c4F)c4ccc([nH]4)c(-c4c(F)c(F)c(F)c(F)c4F)c4nc(c(-c5c(F)c(F)c(F)c(F)c5F)c5ccc2[nH]5)C=C4)C=C3)cc1
REMARK SMILES IDX 6 1 5 2 4 3 3 4 1 5 2 6 34 8 35 9 96 10 36 11 95 12 37 13
REMARK SMILES IDX 38 14 39 15 89 16 40 17 94 18 88 19 90 20 41 21 93 22 87 23
REMARK SMILES IDX 86 24 42 26 74 27 54 28 73 29 55 30 58 31 72 32 91 33 56 34
REMARK SMILES IDX 57 35 71 37 92 38 59 39 43 40 44 41 52 42 45 43 46 44 50 45
REMARK SMILES IDX 53 46 47 47 48 48 51 49 49 50 75 51 76 52 84 53 77 54 78 55
REMARK SMILES IDX 82 56 85 57 79 58 80 59 83 60 81 61 60 62 61 63 69 64 62 65
REMARK SMILES IDX 63 66 67 67 70 68 64 69 65 70 68 71 66 72 7 73 8 74 9 75
REMARK SMILES IDX 10 77 11 78 12 79 33 80 13 81 32 82 14 83 31 84 15 85 29 86
REMARK SMILES IDX 16 88 17 89 30 90 18 91 19 92 20 93 21 94 28 95 22 96 23 97
REMARK SMILES IDX 27 98 24 100 26 101 25 102
REMARK H PARENT 3 7 90 25 58 36 8 76 31 87 22 99
REMARK Flexibility Score: inf
ROOT
ATOM      1  C   UNL A   1      37.221  20.532  24.493  1.00  0.00     0.023 C 
ENDROOT
BRANCH   1   2
ATOM      2  C   UNL A   1      38.123  19.412  25.001  1.00  0.00     0.023 C 
BRANCH   2   3
ATOM      3  C   UNL A   1      39.201  19.812  26.002  1.00  0.00     0.116 C 
BRANCH   3   4
ATOM      4  N   UNL A   1      40.360  18.932  26.007  1.00  0.00    -0.352 N 
ATOM      5  O   UNL A   1      42.514  18.289  26.006  1.00  0.00    -0.269 OA
ATOM      6  C   UNL A   1      41.710  19.200  26.122  1.00  0.00     0.251 C 
ATOM      7  H   UNL A   1      40.143  17.975  25.911  1.00  0.00     0.163 HD
BRANCH   6   8
ATOM      8  C   UNL A   1      42.208  20.581  26.359  1.00  0.00     0.039 A 
ATOM      9  C   UNL A   1      42.460  20.988  27.676  1.00  0.00     0.014 A 
ATOM     10  C   UNL A   1      42.376  21.495  25.320  1.00  0.00     0.014 A 
ATOM     11  C   UNL A   1      42.930  22.282  27.936  1.00  0.00     0.010 A 
ATOM     12  C   UNL A   1      42.942  22.745  25.567  1.00  0.00     0.010 A 
ATOM     13  C   UNL A   1      43.200  23.165  26.880  1.00  0.00    -0.014 A 
BRANCH  13  14
ATOM     14  C   UNL A   1      43.670  24.557  27.124  1.00  0.00     0.031 A 
ATOM     15  C   UNL A   1      42.709  25.581  27.672  1.00  0.00     0.074 A 
ATOM     16  C   UNL A   1      44.932  24.920  26.821  1.00  0.00     0.049 A 
ATOM     17  N   UNL A   1      42.887  26.863  27.877  1.00  0.00    -0.248 NA
ATOM     18  C   UNL A   1      41.357  25.106  28.008  1.00  0.00     0.031 C 
ATOM     19  C   UNL A   1      45.955  24.036  26.264  1.00  0.00     0.029 A 
ATOM     20  N   UNL A   1      45.568  26.132  26.938  1.00  0.00    -0.354 N 
ATOM     21  C   UNL A   1      41.670  27.342  28.346  1.00  0.00     0.074 A 
ATOM     22  C   UNL A   1      40.742  26.234  28.328  1.00  0.00     0.031 C 
ATOM     23  C   UNL A   1      47.099  24.724  26.121  1.00  0.00     0.029 A 
ATOM     24  C   UNL A   1      46.881  26.109  26.533  1.00  0.00     0.049 A 
ATOM     25  H   UNL A   1      45.124  26.943  27.279  1.00  0.00     0.167 HD
ATOM     26  C   UNL A   1      41.360  28.584  28.788  1.00  0.00     0.037 A 
ATOM     27  C   UNL A   1      47.803  27.091  26.496  1.00  0.00     0.037 A 
ATOM     28  C   UNL A   1      42.293  29.676  28.843  1.00  0.00     0.049 A 
ATOM     29  C   UNL A   1      47.428  28.474  26.962  1.00  0.00     0.074 A 
ATOM     30  C   UNL A   1      42.090  30.959  29.320  1.00  0.00     0.029 A 
ATOM     31  N   UNL A   1      43.610  29.614  28.410  1.00  0.00    -0.354 N 
ATOM     32  N   UNL A   1      46.287  28.903  27.444  1.00  0.00    -0.248 NA
ATOM     33  C   UNL A   1      48.470  29.508  26.878  1.00  0.00     0.031 C 
ATOM     34  C   UNL A   1      43.267  31.688  29.128  1.00  0.00     0.029 A 
ATOM     35  C   UNL A   1      44.223  30.843  28.585  1.00  0.00     0.049 A 
ATOM     36  H   UNL A   1      44.044  28.814  28.035  1.00  0.00     0.167 HD
ATOM     37  C   UNL A   1      46.478  30.246  27.741  1.00  0.00     0.074 A 
ATOM     38  C   UNL A   1      47.851  30.558  27.402  1.00  0.00     0.031 C 
ATOM     39  C   UNL A   1      45.592  31.140  28.247  1.00  0.00     0.037 A 
BRANCH  26  40
ATOM     40  C   UNL A   1      39.956  28.825  29.265  1.00  0.00     0.064 A 
ATOM     41  C   UNL A   1      38.953  29.280  28.395  1.00  0.00     0.173 A 
ATOM     42  C   UNL A   1      39.598  28.557  30.595  1.00  0.00     0.173 A 
ATOM     43  F   UNL A   1      39.244  29.563  27.117  1.00  0.00    -0.203 F 
ATOM     44  C   UNL A   1      37.651  29.483  28.845  1.00  0.00     0.198 A 
ATOM     45  C   UNL A   1      38.287  28.728  31.032  1.00  0.00     0.198 A 
ATOM     46  F   UNL A   1      40.515  28.116  31.468  1.00  0.00    -0.203 F 
ATOM     47  F   UNL A   1      36.723  29.968  28.009  1.00  0.00    -0.200 F 
ATOM     48  C   UNL A   1      37.317  29.198  30.161  1.00  0.00     0.200 A 
ATOM     49  F   UNL A   1      37.962  28.437  32.300  1.00  0.00    -0.200 F 
ATOM     50  F   UNL A   1      36.061  29.382  30.589  1.00  0.00    -0.200 F 
ENDBRANCH  26  40
BRANCH  27  51
ATOM     51  C   UNL A   1      49.184  26.786  26.035  1.00  0.00     0.064 A 
ATOM     52  C   UNL A   1      49.546  26.959  24.691  1.00  0.00     0.173 A 
ATOM     53  C   UNL A   1      50.176  26.346  26.924  1.00  0.00     0.173 A 
ATOM     54  F   UNL A   1      48.627  27.354  23.797  1.00  0.00    -0.203 F 
ATOM     55  C   UNL A   1      50.844  26.704  24.255  1.00  0.00     0.198 A 
ATOM     56  C   UNL A   1      51.481  26.118  26.492  1.00  0.00     0.198 A 
ATOM     57  F   UNL A   1      49.883  26.164  28.220  1.00  0.00    -0.203 F 
ATOM     58  F   UNL A   1      51.154  26.851  22.960  1.00  0.00    -0.200 F 
ATOM     59  C   UNL A   1      51.813  26.294  25.157  1.00  0.00     0.200 A 
ATOM     60  F   UNL A   1      52.419  25.737  27.370  1.00  0.00    -0.200 F 
ATOM     61  F   UNL A   1      53.066  26.066  24.741  1.00  0.00    -0.200 F 
ENDBRANCH  27  51
BRANCH  39  62
ATOM     62  C   UNL A   1      46.072  32.544  28.483  1.00  0.00     0.064 A 
ATOM     63  C   UNL A   1      45.922  33.542  27.510  1.00  0.00     0.173 A 
ATOM     64  C   UNL A   1      46.602  32.914  29.729  1.00  0.00     0.173 A 
ATOM     65  F   UNL A   1      45.430  33.237  26.300  1.00  0.00    -0.203 F 
ATOM     66  C   UNL A   1      46.297  34.857  27.771  1.00  0.00     0.198 A 
ATOM     67  C   UNL A   1      46.946  34.235  29.997  1.00  0.00     0.198 A 
ATOM     68  F   UNL A   1      46.757  32.000  30.697  1.00  0.00    -0.203 F 
ATOM     69  F   UNL A   1      46.176  35.789  26.815  1.00  0.00    -0.200 F 
ATOM     70  C   UNL A   1      46.798  35.205  29.017  1.00  0.00     0.200 A 
ATOM     71  F   UNL A   1      47.410  34.574  31.208  1.00  0.00    -0.200 F 
ATOM     72  F   UNL A   1      47.136  36.476  29.273  1.00  0.00    -0.200 F 
ENDBRANCH  39  62
ENDBRANCH  13  14
ENDBRANCH   6   8
ENDBRANCH   3   4
ENDBRANCH   2   3
ENDBRANCH   1   2
BRANCH   1  73
ATOM     73  C   UNL A   1      35.857  20.706  25.165  1.00  0.00     0.116 C 
BRANCH  73  74
ATOM     74  N   UNL A   1      34.932  19.593  25.090  1.00  0.00    -0.352 N 
ATOM     75  C   UNL A   1      33.627  19.585  24.634  1.00  0.00     0.251 C 
ATOM     76  H   UNL A   1      35.279  18.728  25.404  1.00  0.00     0.163 HD
ATOM     77  O   UNL A   1      33.005  18.531  24.553  1.00  0.00    -0.269 OA
BRANCH  75  78
ATOM     78  C   UNL A   1      32.933  20.839  24.259  1.00  0.00     0.041 A 
ATOM     79  C   UNL A   1      33.197  21.457  23.027  1.00  0.00     0.015 A 
ATOM     80  C   UNL A   1      31.967  21.370  25.124  1.00  0.00     0.040 A 
ATOM     81  C   UNL A   1      32.568  22.668  22.706  1.00  0.00     0.017 A 
ATOM     82  C   UNL A   1      31.376  22.597  24.815  1.00  0.00     0.056 A 
ATOM     83  C   UNL A   1      31.694  23.255  23.627  1.00  0.00     0.064 A 
ATOM     84  N   UNL A   1      30.571  23.242  25.755  1.00  0.00    -0.307 N 
ATOM     85  C   UNL A   1      31.271  24.665  23.470  1.00  0.00     0.264 A 
ATOM     86  C   UNL A   1      30.302  24.584  25.713  1.00  0.00     0.328 A 
ATOM     87  H   UNL A   1      30.179  22.707  26.483  1.00  0.00     0.171 HD
ATOM     88  O   UNL A   1      31.386  25.219  22.384  1.00  0.00    -0.268 OA
ATOM     89  N   UNL A   1      30.820  25.282  24.633  1.00  0.00    -0.260 N 
ATOM     90  O   UNL A   1      29.681  25.105  26.639  1.00  0.00    -0.248 OA
BRANCH  89  91
ATOM     91  C   UNL A   1      30.860  26.738  24.710  1.00  0.00     0.136 C 
BRANCH  91  92
ATOM     92  C   UNL A   1      29.634  27.390  24.054  1.00  0.00     0.060 C 
BRANCH  92  93
ATOM     93  C   UNL A   1      29.842  28.659  23.275  1.00  0.00    -0.021 A 
ATOM     94  C   UNL A   1      31.028  29.016  22.658  1.00  0.00     0.087 A 
ATOM     95  C   UNL A   1      28.965  29.766  23.013  1.00  0.00     0.003 A 
ATOM     96  N   UNL A   1      30.642  29.827  21.626  1.00  0.00    -0.361 N 
ATOM     97  C   UNL A   1      29.577  30.571  22.049  1.00  0.00     0.046 A 
ATOM     98  C   UNL A   1      27.734  30.197  23.501  1.00  0.00     0.010 A 
ATOM     99  H   UNL A   1      31.060  29.868  20.735  1.00  0.00     0.166 HD
ATOM    100  C   UNL A   1      29.091  31.813  21.625  1.00  0.00     0.026 A 
ATOM    101  C   UNL A   1      27.390  31.534  23.290  1.00  0.00     0.001 A 
ATOM    102  C   UNL A   1      28.029  32.330  22.351  1.00  0.00     0.002 A 
ENDBRANCH  92  93
ENDBRANCH  91  92
ENDBRANCH  89  91
ENDBRANCH  75  78
ENDBRANCH  73  74
ENDBRANCH   1  73
TORSDOF 14
ENDMDL
