MODEL 1
REMARK VINA RESULT:     -12.5      0.000      0.000
REMARK SMILES Cc1noc(C)c1CNc1cnc(C(=O)NCCCCNC(=O)c2ccc(-c3c4nc(c(-c5c(F)c(F)c(F)c(F)c5F)c5ccc([nH]5)c(-c5c(F)c(F)c(F)c(F)c5F)c5nc(c(-c6c(F)c(F)c(F)c(F)c6F)c6ccc3[nH]6)C=C5)C=C4)cc2)cn1
REMARK SMILES IDX 18 1 17 2 16 3 14 4 15 5 13 7 10 8 11 9 88 10 12 11 87 12
REMARK SMILES IDX 9 13 8 15 7 16 1 17 2 18 3 19 4 20 5 21 6 22 19 23 20 24
REMARK SMILES IDX 21 25 22 26 23 28 24 29 25 30 86 31 26 32 85 33 27 34 28 35
REMARK SMILES IDX 29 36 79 37 30 38 84 39 78 40 80 41 31 42 83 43 77 44 76 45
REMARK SMILES IDX 32 47 64 48 44 49 63 50 45 51 48 52 62 53 81 54 46 55 47 56
REMARK SMILES IDX 61 58 82 59 49 60 33 61 34 62 42 63 35 64 36 65 40 66 43 67
REMARK SMILES IDX 37 68 38 69 41 70 39 71 65 72 66 73 74 74 67 75 68 76 72 77
REMARK SMILES IDX 75 78 69 79 70 80 73 81 71 82 50 83 51 84 59 85 52 86 53 87
REMARK SMILES IDX 57 88 60 89 54 90 55 91 58 92 56 93
REMARK H PARENT 16 6 9 14 21 27 80 46 48 57
REMARK Flexibility Score: inf
ROOT
ATOM      1  C   UNL A   1      32.103  30.188  27.153  1.00  0.00     0.023 C 
ENDROOT
BRANCH   1   2
ATOM      2  C   UNL A   1      33.590  29.843  27.096  1.00  0.00     0.116 C 
BRANCH   2   3
ATOM      3  N   UNL A   1      33.794  28.420  26.893  1.00  0.00    -0.351 N 
ATOM      4  C   UNL A   1      33.351  27.581  25.894  1.00  0.00     0.271 C 
ATOM      5  O   UNL A   1      33.653  26.389  25.973  1.00  0.00    -0.267 OA
ATOM      6  H   UNL A   1      34.339  27.981  27.585  1.00  0.00     0.163 HD
BRANCH   4   7
ATOM      7  C   UNL A   1      32.559  28.056  24.721  1.00  0.00     0.146 A 
ATOM      8  C   UNL A   1      31.220  29.171  22.635  1.00  0.00     0.144 A 
ATOM      9  C   UNL A   1      30.574  28.477  23.658  1.00  0.00     0.158 A 
ATOM     10  N   UNL A   1      32.563  29.255  22.623  1.00  0.00    -0.235 NA
ATOM     11  N   UNL A   1      31.214  27.908  24.708  1.00  0.00    -0.246 NA
ATOM     12  C   UNL A   1      33.217  28.697  23.681  1.00  0.00     0.147 A 
BRANCH   8  13
ATOM     13  N   UNL A   1      30.569  29.832  21.622  1.00  0.00    -0.365 N 
ATOM     14  H   UNL A   1      31.087  30.176  20.858  1.00  0.00     0.162 HD
BRANCH  13  15
ATOM     15  C   UNL A   1      29.133  30.032  21.659  1.00  0.00     0.156 C 
BRANCH  15  16
ATOM     16  C   UNL A   1      28.701  31.446  21.823  1.00  0.00     0.037 A 
ATOM     17  C   UNL A   1      29.362  31.915  24.311  1.00  0.00     0.071 C 
ATOM     18  C   UNL A   1      28.798  32.262  22.985  1.00  0.00     0.086 A 
ATOM     19  N   UNL A   1      28.292  33.482  22.768  1.00  0.00    -0.085 NA
ATOM     20  O   UNL A   1      27.852  33.481  21.460  1.00  0.00    -0.361 OA
ATOM     21  C   UNL A   1      28.093  32.269  20.899  1.00  0.00     0.138 A 
ATOM     22  C   UNL A   1      27.665  32.096  19.498  1.00  0.00     0.091 C 
ENDBRANCH  15  16
ENDBRANCH  13  15
ENDBRANCH   8  13
ENDBRANCH   4   7
ENDBRANCH   2   3
ENDBRANCH   1   2
BRANCH   1  23
ATOM     23  C   UNL A   1      31.804  31.678  26.952  1.00  0.00     0.023 C 
BRANCH  23  24
ATOM     24  C   UNL A   1      32.974  32.618  27.228  1.00  0.00     0.116 C 
BRANCH  24  25
ATOM     25  N   UNL A   1      32.561  33.967  27.585  1.00  0.00    -0.352 N 
ATOM     26  C   UNL A   1      33.061  34.786  28.568  1.00  0.00     0.251 C 
ATOM     27  H   UNL A   1      31.824  34.343  27.051  1.00  0.00     0.163 HD
ATOM     28  O   UNL A   1      32.529  35.865  28.814  1.00  0.00    -0.269 OA
BRANCH  26  29
ATOM     29  C   UNL A   1      34.224  34.338  29.360  1.00  0.00     0.039 A 
ATOM     30  C   UNL A   1      34.002  33.635  30.545  1.00  0.00     0.014 A 
ATOM     31  C   UNL A   1      35.525  34.578  28.912  1.00  0.00     0.014 A 
ATOM     32  C   UNL A   1      35.086  33.107  31.247  1.00  0.00     0.010 A 
ATOM     33  C   UNL A   1      36.599  33.990  29.571  1.00  0.00     0.010 A 
ATOM     34  C   UNL A   1      36.390  33.246  30.744  1.00  0.00    -0.014 A 
BRANCH  34  35
ATOM     35  C   UNL A   1      37.547  32.609  31.419  1.00  0.00     0.031 A 
ATOM     36  C   UNL A   1      38.255  31.452  30.777  1.00  0.00     0.074 A 
ATOM     37  C   UNL A   1      37.904  33.020  32.651  1.00  0.00     0.049 A 
ATOM     38  N   UNL A   1      39.237  30.721  31.239  1.00  0.00    -0.248 NA
ATOM     39  C   UNL A   1      37.770  31.040  29.450  1.00  0.00     0.031 C 
ATOM     40  C   UNL A   1      37.252  34.089  33.407  1.00  0.00     0.029 A 
ATOM     41  N   UNL A   1      38.895  32.574  33.490  1.00  0.00    -0.354 N 
ATOM     42  C   UNL A   1      39.475  29.754  30.271  1.00  0.00     0.074 A 
ATOM     43  C   UNL A   1      38.497  29.957  29.224  1.00  0.00     0.031 C 
ATOM     44  C   UNL A   1      37.867  34.227  34.592  1.00  0.00     0.029 A 
ATOM     45  C   UNL A   1      38.935  33.236  34.692  1.00  0.00     0.049 A 
ATOM     46  H   UNL A   1      39.517  31.848  33.253  1.00  0.00     0.167 HD
ATOM     47  C   UNL A   1      40.437  28.801  30.248  1.00  0.00     0.037 A 
ATOM     48  C   UNL A   1      39.737  33.058  35.758  1.00  0.00     0.037 A 
ATOM     49  C   UNL A   1      41.420  28.619  31.284  1.00  0.00     0.049 A 
ATOM     50  C   UNL A   1      40.809  32.005  35.706  1.00  0.00     0.074 A 
ATOM     51  C   UNL A   1      42.485  27.737  31.319  1.00  0.00     0.029 A 
ATOM     52  N   UNL A   1      41.451  29.331  32.475  1.00  0.00    -0.354 N 
ATOM     53  N   UNL A   1      41.083  31.153  34.749  1.00  0.00    -0.248 NA
ATOM     54  C   UNL A   1      41.687  31.895  36.878  1.00  0.00     0.031 C 
ATOM     55  C   UNL A   1      43.130  27.878  32.553  1.00  0.00     0.029 A 
ATOM     56  C   UNL A   1      42.501  28.887  33.265  1.00  0.00     0.049 A 
ATOM     57  H   UNL A   1      40.821  30.046  32.723  1.00  0.00     0.167 HD
ATOM     58  C   UNL A   1      42.176  30.420  35.191  1.00  0.00     0.074 A 
ATOM     59  C   UNL A   1      42.523  30.939  36.498  1.00  0.00     0.031 C 
ATOM     60  C   UNL A   1      42.831  29.409  34.568  1.00  0.00     0.037 A 
BRANCH  47  61
ATOM     61  C   UNL A   1      40.462  27.879  29.062  1.00  0.00     0.064 A 
ATOM     62  C   UNL A   1      41.255  28.146  27.935  1.00  0.00     0.173 A 
ATOM     63  C   UNL A   1      39.682  26.713  29.051  1.00  0.00     0.173 A 
ATOM     64  F   UNL A   1      42.010  29.254  27.888  1.00  0.00    -0.203 F 
ATOM     65  C   UNL A   1      41.231  27.307  26.825  1.00  0.00     0.198 A 
ATOM     66  C   UNL A   1      39.687  25.857  27.953  1.00  0.00     0.198 A 
ATOM     67  F   UNL A   1      38.911  26.404  30.104  1.00  0.00    -0.203 F 
ATOM     68  F   UNL A   1      41.944  27.620  25.734  1.00  0.00    -0.200 F 
ATOM     69  C   UNL A   1      40.451  26.160  26.837  1.00  0.00     0.200 A 
ATOM     70  F   UNL A   1      38.943  24.742  27.970  1.00  0.00    -0.200 F 
ATOM     71  F   UNL A   1      40.426  25.355  25.766  1.00  0.00    -0.200 F 
ENDBRANCH  47  61
BRANCH  48  72
ATOM     72  C   UNL A   1      39.568  33.928  36.951  1.00  0.00     0.064 A 
ATOM     73  C   UNL A   1      38.815  33.500  38.053  1.00  0.00     0.173 A 
ATOM     74  C   UNL A   1      40.187  35.184  37.029  1.00  0.00     0.173 A 
ATOM     75  F   UNL A   1      38.191  32.313  38.015  1.00  0.00    -0.203 F 
ATOM     76  C   UNL A   1      38.681  34.298  39.186  1.00  0.00     0.198 A 
ATOM     77  C   UNL A   1      40.072  35.971  38.173  1.00  0.00     0.198 A 
ATOM     78  F   UNL A   1      40.923  35.635  36.004  1.00  0.00    -0.203 F 
ATOM     79  F   UNL A   1      37.933  33.877  40.215  1.00  0.00    -0.200 F 
ATOM     80  C   UNL A   1      39.317  35.529  39.249  1.00  0.00     0.200 A 
ATOM     81  F   UNL A   1      40.702  37.153  38.236  1.00  0.00    -0.200 F 
ATOM     82  F   UNL A   1      39.201  36.290  40.346  1.00  0.00    -0.200 F 
ENDBRANCH  48  72
BRANCH  60  83
ATOM     83  C   UNL A   1      44.005  28.808  35.284  1.00  0.00     0.064 A 
ATOM     84  C   UNL A   1      43.858  27.716  36.152  1.00  0.00     0.173 A 
ATOM     85  C   UNL A   1      45.300  29.303  35.065  1.00  0.00     0.173 A 
ATOM     86  F   UNL A   1      42.640  27.215  36.407  1.00  0.00    -0.203 F 
ATOM     87  C   UNL A   1      44.962  27.157  36.792  1.00  0.00     0.198 A 
ATOM     88  C   UNL A   1      46.404  28.722  35.683  1.00  0.00     0.198 A 
ATOM     89  F   UNL A   1      45.496  30.342  34.239  1.00  0.00    -0.203 F 
ATOM     90  F   UNL A   1      44.793  26.143  37.652  1.00  0.00    -0.200 F 
ATOM     91  C   UNL A   1      46.233  27.655  36.551  1.00  0.00     0.200 A 
ATOM     92  F   UNL A   1      47.634  29.197  35.438  1.00  0.00    -0.200 F 
ATOM     93  F   UNL A   1      47.295  27.110  37.161  1.00  0.00    -0.200 F 
ENDBRANCH  60  83
ENDBRANCH  34  35
ENDBRANCH  26  29
ENDBRANCH  24  25
ENDBRANCH  23  24
ENDBRANCH   1  23
TORSDOF 14
ENDMDL
MODEL 2
REMARK VINA RESULT:     -12.1      1.738      3.787
REMARK SMILES Cc1noc(C)c1CNc1cnc(C(=O)NCCCCNC(=O)c2ccc(-c3c4nc(c(-c5c(F)c(F)c(F)c(F)c5F)c5ccc([nH]5)c(-c5c(F)c(F)c(F)c(F)c5F)c5nc(c(-c6c(F)c(F)c(F)c(F)c6F)c6ccc3[nH]6)C=C5)C=C4)cc2)cn1
REMARK SMILES IDX 18 1 17 2 16 3 14 4 15 5 13 7 10 8 11 9 88 10 12 11 87 12
REMARK SMILES IDX 9 13 8 15 7 16 1 17 2 18 3 19 4 20 5 21 6 22 19 23 20 24
REMARK SMILES IDX 21 25 22 26 23 28 24 29 25 30 86 31 26 32 85 33 27 34 28 35
REMARK SMILES IDX 29 36 79 37 30 38 84 39 78 40 80 41 31 42 83 43 77 44 76 45
REMARK SMILES IDX 32 47 64 48 44 49 63 50 45 51 48 52 62 53 81 54 46 55 47 56
REMARK SMILES IDX 61 58 82 59 49 60 33 61 34 62 42 63 35 64 36 65 40 66 43 67
REMARK SMILES IDX 37 68 38 69 41 70 39 71 65 72 66 73 74 74 67 75 68 76 72 77
REMARK SMILES IDX 75 78 69 79 70 80 73 81 71 82 50 83 51 84 59 85 52 86 53 87
REMARK SMILES IDX 57 88 60 89 54 90 55 91 58 92 56 93
REMARK H PARENT 16 6 9 14 21 27 80 46 48 57
REMARK Flexibility Score: inf
ROOT
ATOM      1  C   UNL A   1      31.886  30.343  26.811  1.00  0.00     0.023 C 
ENDROOT
BRANCH   1   2
ATOM      2  C   UNL A   1      31.989  29.690  25.434  1.00  0.00     0.116 C 
BRANCH   2   3
ATOM      3  N   UNL A   1      30.909  30.121  24.564  1.00  0.00    -0.351 N 
ATOM      4  C   UNL A   1      30.213  29.442  23.589  1.00  0.00     0.271 C 
ATOM      5  O   UNL A   1      29.343  30.059  22.971  1.00  0.00    -0.267 OA
ATOM      6  H   UNL A   1      30.630  31.057  24.691  1.00  0.00     0.163 HD
BRANCH   4   7
ATOM      7  C   UNL A   1      30.442  27.999  23.278  1.00  0.00     0.146 A 
ATOM      8  C   UNL A   1      30.918  25.340  22.978  1.00  0.00     0.144 A 
ATOM      9  C   UNL A   1      31.597  26.312  22.245  1.00  0.00     0.158 A 
ATOM     10  N   UNL A   1      29.941  25.702  23.831  1.00  0.00    -0.235 NA
ATOM     11  N   UNL A   1      31.380  27.644  22.370  1.00  0.00    -0.246 NA
ATOM     12  C   UNL A   1      29.722  27.039  23.974  1.00  0.00     0.147 A 
BRANCH   8  13
ATOM     13  N   UNL A   1      31.202  23.997  22.927  1.00  0.00    -0.365 N 
ATOM     14  H   UNL A   1      30.487  23.359  22.703  1.00  0.00     0.162 HD
BRANCH  13  15
ATOM     15  C   UNL A   1      32.540  23.504  23.200  1.00  0.00     0.156 C 
BRANCH  15  16
ATOM     16  C   UNL A   1      32.839  23.265  24.637  1.00  0.00     0.037 A 
ATOM     17  C   UNL A   1      32.229  20.732  24.887  1.00  0.00     0.071 C 
ATOM     18  C   UNL A   1      32.696  22.054  25.371  1.00  0.00     0.086 A 
ATOM     19  N   UNL A   1      33.047  22.215  26.652  1.00  0.00    -0.085 NA
ATOM     20  O   UNL A   1      33.421  23.538  26.777  1.00  0.00    -0.361 OA
ATOM     21  C   UNL A   1      33.294  24.162  25.578  1.00  0.00     0.138 A 
ATOM     22  C   UNL A   1      33.642  25.596  25.544  1.00  0.00     0.091 C 
ENDBRANCH  15  16
ENDBRANCH  13  15
ENDBRANCH   8  13
ENDBRANCH   4   7
ENDBRANCH   2   3
ENDBRANCH   1   2
BRANCH   1  23
ATOM     23  C   UNL A   1      31.682  31.861  26.765  1.00  0.00     0.023 C 
BRANCH  23  24
ATOM     24  C   UNL A   1      32.841  32.689  27.313  1.00  0.00     0.116 C 
BRANCH  24  25
ATOM     25  N   UNL A   1      32.469  34.054  27.653  1.00  0.00    -0.352 N 
ATOM     26  C   UNL A   1      33.014  34.881  28.604  1.00  0.00     0.251 C 
ATOM     27  H   UNL A   1      31.726  34.436  27.132  1.00  0.00     0.163 HD
ATOM     28  O   UNL A   1      32.514  35.977  28.841  1.00  0.00    -0.269 OA
BRANCH  26  29
ATOM     29  C   UNL A   1      34.189  34.424  29.373  1.00  0.00     0.039 A 
ATOM     30  C   UNL A   1      33.986  33.802  30.606  1.00  0.00     0.014 A 
ATOM     31  C   UNL A   1      35.479  34.573  28.858  1.00  0.00     0.014 A 
ATOM     32  C   UNL A   1      35.075  33.263  31.293  1.00  0.00     0.010 A 
ATOM     33  C   UNL A   1      36.552  33.972  29.506  1.00  0.00     0.010 A 
ATOM     34  C   UNL A   1      36.360  33.309  30.729  1.00  0.00    -0.014 A 
BRANCH  34  35
ATOM     35  C   UNL A   1      37.515  32.656  31.393  1.00  0.00     0.031 A 
ATOM     36  C   UNL A   1      38.212  31.500  30.736  1.00  0.00     0.074 A 
ATOM     37  C   UNL A   1      37.881  33.051  32.628  1.00  0.00     0.049 A 
ATOM     38  N   UNL A   1      39.190  30.757  31.187  1.00  0.00    -0.248 NA
ATOM     39  C   UNL A   1      37.719  31.105  29.407  1.00  0.00     0.031 C 
ATOM     40  C   UNL A   1      37.239  34.117  33.398  1.00  0.00     0.029 A 
ATOM     41  N   UNL A   1      38.871  32.589  33.458  1.00  0.00    -0.354 N 
ATOM     42  C   UNL A   1      39.417  29.799  30.208  1.00  0.00     0.074 A 
ATOM     43  C   UNL A   1      38.437  30.019  29.167  1.00  0.00     0.031 C 
ATOM     44  C   UNL A   1      37.860  34.238  34.581  1.00  0.00     0.029 A 
ATOM     45  C   UNL A   1      38.920  33.238  34.667  1.00  0.00     0.049 A 
ATOM     46  H   UNL A   1      39.486  31.861  33.211  1.00  0.00     0.167 HD
ATOM     47  C   UNL A   1      40.371  28.838  30.171  1.00  0.00     0.037 A 
ATOM     48  C   UNL A   1      39.726  33.043  35.728  1.00  0.00     0.037 A 
ATOM     49  C   UNL A   1      41.357  28.638  31.201  1.00  0.00     0.049 A 
ATOM     50  C   UNL A   1      40.789  31.982  35.661  1.00  0.00     0.074 A 
ATOM     51  C   UNL A   1      42.415  27.747  31.223  1.00  0.00     0.029 A 
ATOM     52  N   UNL A   1      41.398  29.337  32.399  1.00  0.00    -0.354 N 
ATOM     53  N   UNL A   1      41.052  31.138  34.693  1.00  0.00    -0.248 NA
ATOM     54  C   UNL A   1      41.671  31.854  36.828  1.00  0.00     0.031 C 
ATOM     55  C   UNL A   1      43.066  27.870  32.456  1.00  0.00     0.029 A 
ATOM     56  C   UNL A   1      42.447  28.877  33.181  1.00  0.00     0.049 A 
ATOM     57  H   UNL A   1      40.775  30.054  32.657  1.00  0.00     0.167 HD
ATOM     58  C   UNL A   1      42.141  30.392  35.123  1.00  0.00     0.074 A 
ATOM     59  C   UNL A   1      42.498  30.895  36.435  1.00  0.00     0.031 C 
ATOM     60  C   UNL A   1      42.786  29.382  34.488  1.00  0.00     0.037 A 
BRANCH  47  61
ATOM     61  C   UNL A   1      40.384  27.928  28.976  1.00  0.00     0.064 A 
ATOM     62  C   UNL A   1      41.123  28.235  27.822  1.00  0.00     0.173 A 
ATOM     63  C   UNL A   1      39.648  26.734  28.983  1.00  0.00     0.173 A 
ATOM     64  F   UNL A   1      41.835  29.370  27.758  1.00  0.00    -0.203 F 
ATOM     65  C   UNL A   1      41.088  27.405  26.705  1.00  0.00     0.198 A 
ATOM     66  C   UNL A   1      39.643  25.889  27.876  1.00  0.00     0.198 A 
ATOM     67  F   UNL A   1      38.931  26.387  30.061  1.00  0.00    -0.203 F 
ATOM     68  F   UNL A   1      41.746  27.755  25.591  1.00  0.00    -0.200 F 
ATOM     69  C   UNL A   1      40.351  26.230  26.735  1.00  0.00     0.200 A 
ATOM     70  F   UNL A   1      38.942  24.746  27.910  1.00  0.00    -0.200 F 
ATOM     71  F   UNL A   1      40.315  25.434  25.657  1.00  0.00    -0.200 F 
ENDBRANCH  47  61
BRANCH  48  72
ATOM     72  C   UNL A   1      39.568  33.902  36.930  1.00  0.00     0.064 A 
ATOM     73  C   UNL A   1      40.166  35.168  36.992  1.00  0.00     0.173 A 
ATOM     74  C   UNL A   1      38.786  33.493  38.019  1.00  0.00     0.173 A 
ATOM     75  F   UNL A   1      40.937  35.595  35.981  1.00  0.00    -0.203 F 
ATOM     76  C   UNL A   1      39.993  35.991  38.103  1.00  0.00     0.198 A 
ATOM     77  C   UNL A   1      38.595  34.326  39.119  1.00  0.00     0.198 A 
ATOM     78  F   UNL A   1      38.188  32.293  38.004  1.00  0.00    -0.203 F 
ATOM     79  F   UNL A   1      40.597  37.186  38.150  1.00  0.00    -0.200 F 
ATOM     80  C   UNL A   1      39.200  35.573  39.162  1.00  0.00     0.200 A 
ATOM     81  F   UNL A   1      37.814  33.925  40.133  1.00  0.00    -0.200 F 
ATOM     82  F   UNL A   1      39.021  36.370  40.223  1.00  0.00    -0.200 F 
ENDBRANCH  48  72
BRANCH  60  83
ATOM     83  C   UNL A   1      43.959  28.765  35.193  1.00  0.00     0.064 A 
ATOM     84  C   UNL A   1      43.805  27.677  36.064  1.00  0.00     0.173 A 
ATOM     85  C   UNL A   1      45.259  29.241  34.960  1.00  0.00     0.173 A 
ATOM     86  F   UNL A   1      42.582  27.195  36.332  1.00  0.00    -0.203 F 
ATOM     87  C   UNL A   1      44.906  27.103  36.694  1.00  0.00     0.198 A 
ATOM     88  C   UNL A   1      46.360  28.645  35.568  1.00  0.00     0.198 A 
ATOM     89  F   UNL A   1      45.461  30.276  34.131  1.00  0.00    -0.203 F 
ATOM     90  F   UNL A   1      44.731  26.092  37.557  1.00  0.00    -0.200 F 
ATOM     91  C   UNL A   1      46.182  27.581  36.440  1.00  0.00     0.200 A 
ATOM     92  F   UNL A   1      47.594  29.101  35.310  1.00  0.00    -0.200 F 
ATOM     93  F   UNL A   1      47.242  27.021  37.040  1.00  0.00    -0.200 F 
ENDBRANCH  60  83
ENDBRANCH  34  35
ENDBRANCH  26  29
ENDBRANCH  24  25
ENDBRANCH  23  24
ENDBRANCH   1  23
TORSDOF 14
ENDMDL
MODEL 3
REMARK VINA RESULT:     -12.1      0.253      1.999
REMARK SMILES Cc1noc(C)c1CNc1cnc(C(=O)NCCCCNC(=O)c2ccc(-c3c4nc(c(-c5c(F)c(F)c(F)c(F)c5F)c5ccc([nH]5)c(-c5c(F)c(F)c(F)c(F)c5F)c5nc(c(-c6c(F)c(F)c(F)c(F)c6F)c6ccc3[nH]6)C=C5)C=C4)cc2)cn1
REMARK SMILES IDX 18 1 17 2 16 3 14 4 15 5 13 7 10 8 11 9 88 10 12 11 87 12
REMARK SMILES IDX 9 13 8 15 7 16 1 17 2 18 3 19 4 20 5 21 6 22 19 23 20 24
REMARK SMILES IDX 21 25 22 26 23 28 24 29 25 30 86 31 26 32 85 33 27 34 28 35
REMARK SMILES IDX 29 36 79 37 30 38 84 39 78 40 80 41 31 42 83 43 77 44 76 45
REMARK SMILES IDX 32 47 64 48 44 49 63 50 45 51 48 52 62 53 81 54 46 55 47 56
REMARK SMILES IDX 61 58 82 59 49 60 33 61 34 62 42 63 35 64 36 65 40 66 43 67
REMARK SMILES IDX 37 68 38 69 41 70 39 71 65 72 66 73 74 74 67 75 68 76 72 77
REMARK SMILES IDX 75 78 69 79 70 80 73 81 71 82 50 83 51 84 59 85 52 86 53 87
REMARK SMILES IDX 57 88 60 89 54 90 55 91 58 92 56 93
REMARK H PARENT 16 6 9 14 21 27 80 46 48 57
REMARK Flexibility Score: inf
ROOT
ATOM      1  C   UNL A   1      34.373  30.690  27.659  1.00  0.00     0.023 C 
ENDROOT
BRANCH   1   2
ATOM      2  C   UNL A   1      33.235  29.714  27.362  1.00  0.00     0.116 C 
BRANCH   2   3
ATOM      3  N   UNL A   1      33.746  28.406  26.990  1.00  0.00    -0.351 N 
ATOM      4  C   UNL A   1      33.529  27.643  25.864  1.00  0.00     0.271 C 
ATOM      5  O   UNL A   1      34.075  26.540  25.806  1.00  0.00    -0.267 OA
ATOM      6  H   UNL A   1      34.345  27.997  27.654  1.00  0.00     0.163 HD
BRANCH   4   7
ATOM      7  C   UNL A   1      32.698  28.105  24.712  1.00  0.00     0.146 A 
ATOM      8  C   UNL A   1      31.292  29.196  22.658  1.00  0.00     0.144 A 
ATOM      9  C   UNL A   1      30.678  28.527  23.716  1.00  0.00     0.158 A 
ATOM     10  N   UNL A   1      32.635  29.266  22.594  1.00  0.00    -0.235 NA
ATOM     11  N   UNL A   1      31.352  27.971  24.752  1.00  0.00    -0.246 NA
ATOM     12  C   UNL A   1      33.322  28.721  23.637  1.00  0.00     0.147 A 
BRANCH   8  13
ATOM     13  N   UNL A   1      30.610  29.845  21.657  1.00  0.00    -0.365 N 
ATOM     14  H   UNL A   1      31.103  30.179  20.873  1.00  0.00     0.162 HD
BRANCH  13  15
ATOM     15  C   UNL A   1      29.176  30.049  21.739  1.00  0.00     0.156 C 
BRANCH  15  16
ATOM     16  C   UNL A   1      28.752  31.465  21.909  1.00  0.00     0.037 A 
ATOM     17  C   UNL A   1      29.471  31.937  24.380  1.00  0.00     0.071 C 
ATOM     18  C   UNL A   1      28.878  32.283  23.066  1.00  0.00     0.086 A 
ATOM     19  N   UNL A   1      28.372  33.504  22.858  1.00  0.00    -0.085 NA
ATOM     20  O   UNL A   1      27.901  33.502  21.560  1.00  0.00    -0.361 OA
ATOM     21  C   UNL A   1      28.126  32.287  20.997  1.00  0.00     0.138 A 
ATOM     22  C   UNL A   1      27.665  32.112  19.607  1.00  0.00     0.091 C 
ENDBRANCH  15  16
ENDBRANCH  13  15
ENDBRANCH   8  13
ENDBRANCH   4   7
ENDBRANCH   2   3
ENDBRANCH   1   2
BRANCH   1  23
ATOM     23  C   UNL A   1      34.027  32.154  27.368  1.00  0.00     0.023 C 
BRANCH  23  24
ATOM     24  C   UNL A   1      32.581  32.549  27.654  1.00  0.00     0.116 C 
BRANCH  24  25
ATOM     25  N   UNL A   1      32.387  33.986  27.777  1.00  0.00    -0.352 N 
ATOM     26  C   UNL A   1      33.084  34.884  28.548  1.00  0.00     0.251 C 
ATOM     27  H   UNL A   1      31.657  34.366  27.235  1.00  0.00     0.163 HD
ATOM     28  O   UNL A   1      32.726  36.056  28.620  1.00  0.00    -0.269 OA
BRANCH  26  29
ATOM     29  C   UNL A   1      34.250  34.418  29.324  1.00  0.00     0.039 A 
ATOM     30  C   UNL A   1      34.034  33.783  30.548  1.00  0.00     0.014 A 
ATOM     31  C   UNL A   1      35.546  34.574  28.826  1.00  0.00     0.014 A 
ATOM     32  C   UNL A   1      35.114  33.237  31.242  1.00  0.00     0.010 A 
ATOM     33  C   UNL A   1      36.611  33.965  29.480  1.00  0.00     0.010 A 
ATOM     34  C   UNL A   1      36.406  33.289  30.693  1.00  0.00    -0.014 A 
BRANCH  34  35
ATOM     35  C   UNL A   1      37.553  32.628  31.363  1.00  0.00     0.031 A 
ATOM     36  C   UNL A   1      38.245  31.467  30.710  1.00  0.00     0.074 A 
ATOM     37  C   UNL A   1      37.916  33.022  32.599  1.00  0.00     0.049 A 
ATOM     38  N   UNL A   1      39.216  30.718  31.166  1.00  0.00    -0.248 NA
ATOM     39  C   UNL A   1      37.756  31.075  29.379  1.00  0.00     0.031 C 
ATOM     40  C   UNL A   1      37.278  34.093  33.365  1.00  0.00     0.029 A 
ATOM     41  N   UNL A   1      38.899  32.554  33.434  1.00  0.00    -0.354 N 
ATOM     42  C   UNL A   1      39.441  29.758  30.189  1.00  0.00     0.074 A 
ATOM     43  C   UNL A   1      38.467  29.984  29.143  1.00  0.00     0.031 C 
ATOM     44  C   UNL A   1      37.894  34.211  34.551  1.00  0.00     0.029 A 
ATOM     45  C   UNL A   1      38.947  33.203  34.642  1.00  0.00     0.049 A 
ATOM     46  H   UNL A   1      39.510  31.822  33.190  1.00  0.00     0.167 HD
ATOM     47  C   UNL A   1      40.389  28.790  30.157  1.00  0.00     0.037 A 
ATOM     48  C   UNL A   1      39.747  33.004  35.707  1.00  0.00     0.037 A 
ATOM     49  C   UNL A   1      41.369  28.585  31.192  1.00  0.00     0.049 A 
ATOM     50  C   UNL A   1      40.803  31.936  35.646  1.00  0.00     0.074 A 
ATOM     51  C   UNL A   1      42.421  27.687  31.219  1.00  0.00     0.029 A 
ATOM     52  N   UNL A   1      41.409  29.284  32.389  1.00  0.00    -0.354 N 
ATOM     53  N   UNL A   1      41.065  31.089  34.680  1.00  0.00    -0.248 NA
ATOM     54  C   UNL A   1      41.679  31.803  36.818  1.00  0.00     0.031 C 
ATOM     55  C   UNL A   1      43.067  27.807  32.454  1.00  0.00     0.029 A 
ATOM     56  C   UNL A   1      42.452  28.818  33.176  1.00  0.00     0.049 A 
ATOM     57  H   UNL A   1      40.790  30.006  32.644  1.00  0.00     0.167 HD
ATOM     58  C   UNL A   1      42.147  30.336  35.116  1.00  0.00     0.074 A 
ATOM     59  C   UNL A   1      42.501  30.838  36.429  1.00  0.00     0.031 C 
ATOM     60  C   UNL A   1      42.788  29.322  34.485  1.00  0.00     0.037 A 
BRANCH  47  61
ATOM     61  C   UNL A   1      40.402  27.880  28.963  1.00  0.00     0.064 A 
ATOM     62  C   UNL A   1      39.673  26.679  28.941  1.00  0.00     0.173 A 
ATOM     63  C   UNL A   1      41.152  28.209  27.825  1.00  0.00     0.173 A 
ATOM     64  F   UNL A   1      38.948  26.310  30.007  1.00  0.00    -0.203 F 
ATOM     65  C   UNL A   1      39.733  25.823  27.845  1.00  0.00     0.198 A 
ATOM     66  C   UNL A   1      41.182  27.367  26.716  1.00  0.00     0.198 A 
ATOM     67  F   UNL A   1      41.861  29.347  27.787  1.00  0.00    -0.203 F 
ATOM     68  F   UNL A   1      39.083  24.651  27.876  1.00  0.00    -0.200 F 
ATOM     69  C   UNL A   1      40.483  26.170  26.731  1.00  0.00     0.200 A 
ATOM     70  F   UNL A   1      41.896  27.709  25.634  1.00  0.00    -0.200 F 
ATOM     71  F   UNL A   1      40.542  25.343  25.678  1.00  0.00    -0.200 F 
ENDBRANCH  47  61
BRANCH  48  72
ATOM     72  C   UNL A   1      39.589  33.865  36.908  1.00  0.00     0.064 A 
ATOM     73  C   UNL A   1      40.172  35.139  36.961  1.00  0.00     0.173 A 
ATOM     74  C   UNL A   1      38.822  33.450  38.006  1.00  0.00     0.173 A 
ATOM     75  F   UNL A   1      40.929  35.572  35.941  1.00  0.00    -0.203 F 
ATOM     76  C   UNL A   1      39.999  35.963  38.071  1.00  0.00     0.198 A 
ATOM     77  C   UNL A   1      38.630  34.285  39.104  1.00  0.00     0.198 A 
ATOM     78  F   UNL A   1      38.239  32.243  37.999  1.00  0.00    -0.203 F 
ATOM     79  F   UNL A   1      40.590  37.166  38.108  1.00  0.00    -0.200 F 
ATOM     80  C   UNL A   1      39.221  35.539  39.138  1.00  0.00     0.200 A 
ATOM     81  F   UNL A   1      37.864  33.878  40.127  1.00  0.00    -0.200 F 
ATOM     82  F   UNL A   1      39.042  36.338  40.198  1.00  0.00    -0.200 F 
ENDBRANCH  48  72
BRANCH  60  83
ATOM     83  C   UNL A   1      43.953  28.698  35.196  1.00  0.00     0.064 A 
ATOM     84  C   UNL A   1      45.263  29.165  35.014  1.00  0.00     0.173 A 
ATOM     85  C   UNL A   1      43.751  27.646  36.103  1.00  0.00     0.173 A 
ATOM     86  F   UNL A   1      45.511  30.158  34.146  1.00  0.00    -0.203 F 
ATOM     87  C   UNL A   1      46.330  28.588  35.698  1.00  0.00     0.198 A 
ATOM     88  C   UNL A   1      44.816  27.092  36.807  1.00  0.00     0.198 A 
ATOM     89  F   UNL A   1      42.517  27.166  36.318  1.00  0.00    -0.203 F 
ATOM     90  F   UNL A   1      47.579  29.021  35.475  1.00  0.00    -0.200 F 
ATOM     91  C   UNL A   1      46.105  27.558  36.599  1.00  0.00     0.200 A 
ATOM     92  F   UNL A   1      44.595  26.106  37.688  1.00  0.00    -0.200 F 
ATOM     93  F   UNL A   1      47.133  27.010  37.263  1.00  0.00    -0.200 F 
ENDBRANCH  60  83
ENDBRANCH  34  35
ENDBRANCH  26  29
ENDBRANCH  24  25
ENDBRANCH  23  24
ENDBRANCH   1  23
TORSDOF 14
ENDMDL
