MODEL 1
REMARK VINA RESULT:     -11.7      0.000      0.000
REMARK SMILES [NH3+][C@@H](Cc1c[nH]c2ccccc12)C(=O)N[C@@H](CS)C(=O)N[C@@H](CO)C(=O)NCCCCNC(=O)c1ccc(-c2c3nc(c(-c4c(F)c(F)c(F)c(F)c4F)c4ccc([nH]4)c(-c4c(F)c(F)c(F)c(F)c4F)c4nc(c(-c5c(F)c(F)c(F)c(F)c5F)c5ccc2[nH]5)C=C4)C=C3)cc1
REMARK SMILES IDX 25 1 26 2 27 3 22 5 21 6 19 7 20 8 16 10 15 11 13 12 14 13
REMARK SMILES IDX 2 15 1 16 3 20 4 21 5 22 12 23 6 24 7 25 11 26 8 28 10 29
REMARK SMILES IDX 9 30 17 31 18 32 23 34 24 35 28 37 29 38 30 39 31 40 32 41
REMARK SMILES IDX 33 42 34 44 35 45 36 46 97 47 37 48 96 49 38 50 39 51 40 52
REMARK SMILES IDX 90 53 41 54 95 55 89 56 91 57 42 58 94 59 88 60 87 61 43 63
REMARK SMILES IDX 75 64 55 65 74 66 56 67 59 68 73 69 92 70 57 71 58 72 72 74
REMARK SMILES IDX 93 75 60 76 44 77 45 78 53 79 46 80 47 81 51 82 54 83 48 84
REMARK SMILES IDX 49 85 52 86 50 87 76 88 77 89 85 90 78 91 79 92 83 93 86 94
REMARK SMILES IDX 80 95 81 96 84 97 82 98 61 99 62 100 70 101 63 102 64 103
REMARK SMILES IDX 68 104 71 105 65 106 66 107 69 108 67 109
REMARK H PARENT 27 4 21 9 15 14 1 17 1 18 1 19 6 27 18 33 24 36 32 43 91 62
REMARK H PARENT 59 73
REMARK Flexibility Score: inf
ROOT
ATOM      1  C   UNL A   1      32.816  28.638  23.626  1.00  0.00     0.244 C 
ATOM      2  O   UNL A   1      33.732  28.802  22.813  1.00  0.00    -0.273 OA
ATOM      3  N   UNL A   1      32.485  29.706  24.397  1.00  0.00    -0.354 N 
ATOM      4  H   UNL A   1      33.100  30.472  24.325  1.00  0.00     0.163 HD
ENDROOT
BRANCH   1   5
ATOM      5  C   UNL A   1      32.055  27.302  23.661  1.00  0.00     0.197 C 
BRANCH   5   6
ATOM      6  N   UNL A   1      31.674  26.848  24.991  1.00  0.00    -0.340 N 
ATOM      7  C   UNL A   1      31.832  25.680  25.648  1.00  0.00     0.244 C 
ATOM      8  O   UNL A   1      31.143  25.596  26.677  1.00  0.00    -0.273 OA
ATOM      9  H   UNL A   1      31.205  27.534  25.520  1.00  0.00     0.164 HD
BRANCH   7  10
ATOM     10  C   UNL A   1      32.650  24.460  25.159  1.00  0.00     0.181 C 
BRANCH  10  11
ATOM     11  N   UNL A   1      33.119  23.693  26.300  1.00  0.00    -0.338 N 
ATOM     12  C   UNL A   1      34.374  23.276  26.609  1.00  0.00     0.279 C 
ATOM     13  O   UNL A   1      34.483  22.679  27.691  1.00  0.00    -0.268 OA
ATOM     14  H   UNL A   1      32.422  23.435  26.946  1.00  0.00     0.164 HD
BRANCH  12  15
ATOM     15  C   UNL A   1      35.616  23.381  25.672  1.00  0.00     0.275 C 
BRANCH  15  16
ATOM     16  N   UNL A   1      36.780  23.893  26.418  1.00  0.00    -0.347 N 
ATOM     17  H   UNL A   1      36.487  24.660  27.022  1.00  0.00     0.345 HD
ATOM     18  H   UNL A   1      37.485  24.228  25.761  1.00  0.00     0.345 HD
ATOM     19  H   UNL A   1      37.176  23.143  26.987  1.00  0.00     0.345 HD
ENDBRANCH  15  16
BRANCH  15  20
ATOM     20  C   UNL A   1      35.899  22.324  24.586  1.00  0.00     0.113 C 
BRANCH  20  21
ATOM     21  C   UNL A   1      35.725  20.832  24.768  1.00  0.00    -0.016 A 
ATOM     22  C   UNL A   1      36.815  20.016  25.041  1.00  0.00     0.087 A 
ATOM     23  C   UNL A   1      34.587  19.942  24.691  1.00  0.00     0.003 A 
ATOM     24  N   UNL A   1      36.426  18.712  24.977  1.00  0.00    -0.361 N 
ATOM     25  C   UNL A   1      35.090  18.635  24.679  1.00  0.00     0.046 A 
ATOM     26  C   UNL A   1      33.193  20.084  24.505  1.00  0.00     0.010 A 
ATOM     27  H   UNL A   1      37.018  17.939  25.122  1.00  0.00     0.166 HD
ATOM     28  C   UNL A   1      34.308  17.507  24.393  1.00  0.00     0.026 A 
ATOM     29  C   UNL A   1      32.394  18.968  24.213  1.00  0.00     0.001 A 
ATOM     30  C   UNL A   1      32.953  17.699  24.132  1.00  0.00     0.002 A 
ENDBRANCH  20  21
ENDBRANCH  15  20
ENDBRANCH  12  15
ENDBRANCH  10  11
BRANCH  10  31
ATOM     31  C   UNL A   1      32.230  23.644  23.930  1.00  0.00     0.101 C 
BRANCH  31  32
ATOM     32  S   UNL A   1      33.206  23.873  22.395  1.00  0.00    -0.177 SA
ATOM     33  H   UNL A   1      34.516  24.053  22.713  1.00  0.00     0.102 HD
ENDBRANCH  31  32
ENDBRANCH  10  31
ENDBRANCH   7  10
ENDBRANCH   5   6
BRANCH   5  34
ATOM     34  C   UNL A   1      30.876  27.262  22.681  1.00  0.00     0.191 C 
BRANCH  34  35
ATOM     35  O   UNL A   1      31.286  27.085  21.327  1.00  0.00    -0.394 OA
ATOM     36  H   UNL A   1      31.313  27.946  20.882  1.00  0.00     0.210 HD
ENDBRANCH  34  35
ENDBRANCH   5  34
ENDBRANCH   1   5
BRANCH   3  37
ATOM     37  C   UNL A   1      31.379  29.905  25.307  1.00  0.00     0.116 C 
BRANCH  37  38
ATOM     38  C   UNL A   1      31.836  30.496  26.637  1.00  0.00     0.023 C 
BRANCH  38  39
ATOM     39  C   UNL A   1      31.522  31.980  26.829  1.00  0.00     0.023 C 
BRANCH  39  40
ATOM     40  C   UNL A   1      32.734  32.878  27.043  1.00  0.00     0.116 C 
BRANCH  40  41
ATOM     41  N   UNL A   1      32.404  34.178  27.602  1.00  0.00    -0.352 N 
ATOM     42  C   UNL A   1      33.033  34.856  28.619  1.00  0.00     0.251 C 
ATOM     43  H   UNL A   1      31.631  34.633  27.200  1.00  0.00     0.163 HD
ATOM     44  O   UNL A   1      32.600  35.925  29.017  1.00  0.00    -0.269 OA
BRANCH  42  45
ATOM     45  C   UNL A   1      34.215  34.245  29.257  1.00  0.00     0.039 A 
ATOM     46  C   UNL A   1      34.011  33.308  30.271  1.00  0.00     0.014 A 
ATOM     47  C   UNL A   1      35.506  34.567  28.832  1.00  0.00     0.014 A 
ATOM     48  C   UNL A   1      35.107  32.656  30.832  1.00  0.00     0.010 A 
ATOM     49  C   UNL A   1      36.592  33.861  29.338  1.00  0.00     0.010 A 
ATOM     50  C   UNL A   1      36.403  32.912  30.353  1.00  0.00    -0.014 A 
BRANCH  50  51
ATOM     51  C   UNL A   1      37.576  32.227  30.942  1.00  0.00     0.031 A 
ATOM     52  C   UNL A   1      38.037  32.601  32.323  1.00  0.00     0.074 A 
ATOM     53  C   UNL A   1      38.239  31.301  30.226  1.00  0.00     0.049 A 
ATOM     54  N   UNL A   1      39.051  32.143  33.010  1.00  0.00    -0.248 NA
ATOM     55  C   UNL A   1      37.273  33.655  33.011  1.00  0.00     0.031 C 
ATOM     56  C   UNL A   1      37.914  30.897  28.857  1.00  0.00     0.029 A 
ATOM     57  N   UNL A   1      39.327  30.533  30.550  1.00  0.00    -0.354 N 
ATOM     58  C   UNL A   1      39.053  32.861  34.199  1.00  0.00     0.074 A 
ATOM     59  C   UNL A   1      37.981  33.828  34.115  1.00  0.00     0.031 C 
ATOM     60  C   UNL A   1      38.765  29.932  28.471  1.00  0.00     0.029 A 
ATOM     61  C   UNL A   1      39.708  29.669  29.553  1.00  0.00     0.049 A 
ATOM     62  H   UNL A   1      39.792  30.594  31.416  1.00  0.00     0.167 HD
ATOM     63  C   UNL A   1      39.857  32.706  35.276  1.00  0.00     0.037 A 
ATOM     64  C   UNL A   1      40.701  28.760  29.527  1.00  0.00     0.037 A 
ATOM     65  C   UNL A   1      40.899  31.719  35.366  1.00  0.00     0.049 A 
ATOM     66  C   UNL A   1      41.561  28.586  30.750  1.00  0.00     0.074 A 
ATOM     67  C   UNL A   1      41.746  31.447  36.424  1.00  0.00     0.029 A 
ATOM     68  N   UNL A   1      41.228  30.831  34.350  1.00  0.00    -0.354 N 
ATOM     69  N   UNL A   1      41.515  29.227  31.892  1.00  0.00    -0.248 NA
ATOM     70  C   UNL A   1      42.599  27.549  30.685  1.00  0.00     0.031 C 
ATOM     71  C   UNL A   1      42.608  30.415  36.039  1.00  0.00     0.029 A 
ATOM     72  C   UNL A   1      42.268  30.014  34.758  1.00  0.00     0.049 A 
ATOM     73  H   UNL A   1      40.787  30.790  33.472  1.00  0.00     0.167 HD
ATOM     74  C   UNL A   1      42.490  28.648  32.694  1.00  0.00     0.074 A 
ATOM     75  C   UNL A   1      43.103  27.597  31.909  1.00  0.00     0.031 C 
ATOM     76  C   UNL A   1      42.845  28.958  33.965  1.00  0.00     0.037 A 
BRANCH  63  77
ATOM     77  C   UNL A   1      39.626  33.618  36.447  1.00  0.00     0.064 A 
ATOM     78  C   UNL A   1      40.237  34.878  36.526  1.00  0.00     0.173 A 
ATOM     79  C   UNL A   1      38.776  33.233  37.493  1.00  0.00     0.173 A 
ATOM     80  F   UNL A   1      41.073  35.286  35.559  1.00  0.00    -0.203 F 
ATOM     81  C   UNL A   1      40.031  35.707  37.625  1.00  0.00     0.198 A 
ATOM     82  C   UNL A   1      38.547  34.079  38.577  1.00  0.00     0.198 A 
ATOM     83  F   UNL A   1      38.165  32.040  37.468  1.00  0.00    -0.203 F 
ATOM     84  F   UNL A   1      40.669  36.883  37.705  1.00  0.00    -0.200 F 
ATOM     85  C   UNL A   1      39.182  35.310  38.646  1.00  0.00     0.200 A 
ATOM     86  F   UNL A   1      37.719  33.697  39.559  1.00  0.00    -0.200 F 
ATOM     87  F   UNL A   1      38.981  36.110  39.703  1.00  0.00    -0.200 F 
ENDBRANCH  63  77
BRANCH  64  88
ATOM     88  C   UNL A   1      40.901  27.908  28.327  1.00  0.00     0.064 A 
ATOM     89  C   UNL A   1      40.279  26.655  28.224  1.00  0.00     0.173 A 
ATOM     90  C   UNL A   1      41.717  28.320  27.264  1.00  0.00     0.173 A 
ATOM     91  F   UNL A   1      39.502  26.211  29.221  1.00  0.00    -0.203 F 
ATOM     92  C   UNL A   1      40.488  25.836  27.117  1.00  0.00     0.198 A 
ATOM     93  C   UNL A   1      41.905  27.510  26.145  1.00  0.00     0.198 A 
ATOM     94  F   UNL A   1      42.328  29.513  27.309  1.00  0.00    -0.203 F 
ATOM     95  F   UNL A   1      39.919  24.623  27.067  1.00  0.00    -0.200 F 
ATOM     96  C   UNL A   1      41.297  26.265  26.077  1.00  0.00     0.200 A 
ATOM     97  F   UNL A   1      42.676  27.935  25.134  1.00  0.00    -0.200 F 
ATOM     98  F   UNL A   1      41.497  25.478  25.012  1.00  0.00    -0.200 F 
ENDBRANCH  64  88
BRANCH  76  99
ATOM     99  C   UNL A   1      43.908  28.113  34.604  1.00  0.00     0.064 A 
ATOM    100  C   UNL A   1      45.254  28.504  34.613  1.00  0.00     0.173 A 
ATOM    101  C   UNL A   1      43.565  26.913  35.244  1.00  0.00     0.173 A 
ATOM    102  F   UNL A   1      45.633  29.636  34.001  1.00  0.00    -0.203 F 
ATOM    103  C   UNL A   1      46.224  27.706  35.215  1.00  0.00     0.198 A 
ATOM    104  C   UNL A   1      44.532  26.133  35.870  1.00  0.00     0.198 A 
ATOM    105  F   UNL A   1      42.288  26.501  35.269  1.00  0.00    -0.203 F 
ATOM    106  F   UNL A   1      47.513  28.072  35.168  1.00  0.00    -0.200 F 
ATOM    107  C   UNL A   1      45.862  26.526  35.847  1.00  0.00     0.200 A 
ATOM    108  F   UNL A   1      44.178  25.001  36.492  1.00  0.00    -0.200 F 
ATOM    109  F   UNL A   1      46.797  25.763  36.429  1.00  0.00    -0.200 F 
ENDBRANCH  76  99
ENDBRANCH  50  51
ENDBRANCH  42  45
ENDBRANCH  40  41
ENDBRANCH  39  40
ENDBRANCH  38  39
ENDBRANCH  37  38
ENDBRANCH   3  37
TORSDOF 22
ENDMDL
MODEL 2
REMARK VINA RESULT:     -11.6      1.178      2.078
REMARK SMILES [NH3+][C@@H](Cc1c[nH]c2ccccc12)C(=O)N[C@@H](CS)C(=O)N[C@@H](CO)C(=O)NCCCCNC(=O)c1ccc(-c2c3nc(c(-c4c(F)c(F)c(F)c(F)c4F)c4ccc([nH]4)c(-c4c(F)c(F)c(F)c(F)c4F)c4nc(c(-c5c(F)c(F)c(F)c(F)c5F)c5ccc2[nH]5)C=C4)C=C3)cc1
REMARK SMILES IDX 25 1 26 2 27 3 22 5 21 6 19 7 20 8 16 10 15 11 13 12 14 13
REMARK SMILES IDX 2 15 1 16 3 20 4 21 5 22 12 23 6 24 7 25 11 26 8 28 10 29
REMARK SMILES IDX 9 30 17 31 18 32 23 34 24 35 28 37 29 38 30 39 31 40 32 41
REMARK SMILES IDX 33 42 34 44 35 45 36 46 97 47 37 48 96 49 38 50 39 51 40 52
REMARK SMILES IDX 90 53 41 54 95 55 89 56 91 57 42 58 94 59 88 60 87 61 43 63
REMARK SMILES IDX 75 64 55 65 74 66 56 67 59 68 73 69 92 70 57 71 58 72 72 74
REMARK SMILES IDX 93 75 60 76 44 77 45 78 53 79 46 80 47 81 51 82 54 83 48 84
REMARK SMILES IDX 49 85 52 86 50 87 76 88 77 89 85 90 78 91 79 92 83 93 86 94
REMARK SMILES IDX 80 95 81 96 84 97 82 98 61 99 62 100 70 101 63 102 64 103
REMARK SMILES IDX 68 104 71 105 65 106 66 107 69 108 67 109
REMARK H PARENT 27 4 21 9 15 14 1 17 1 18 1 19 6 27 18 33 24 36 32 43 91 62
REMARK H PARENT 59 73
REMARK Flexibility Score: inf
ROOT
ATOM      1  C   UNL A   1      33.014  28.681  23.905  1.00  0.00     0.244 C 
ATOM      2  O   UNL A   1      34.061  28.739  23.250  1.00  0.00    -0.273 OA
ATOM      3  N   UNL A   1      32.620  29.822  24.528  1.00  0.00    -0.354 N 
ATOM      4  H   UNL A   1      33.280  30.552  24.506  1.00  0.00     0.163 HD
ENDROOT
BRANCH   1   5
ATOM      5  C   UNL A   1      32.184  27.386  23.908  1.00  0.00     0.197 C 
BRANCH   5   6
ATOM      6  N   UNL A   1      31.392  27.168  25.111  1.00  0.00    -0.340 N 
ATOM      7  C   UNL A   1      31.126  26.074  25.854  1.00  0.00     0.244 C 
ATOM      8  O   UNL A   1      30.198  26.241  26.662  1.00  0.00    -0.273 OA
ATOM      9  H   UNL A   1      30.963  27.987  25.451  1.00  0.00     0.164 HD
BRANCH   7  10
ATOM     10  C   UNL A   1      31.761  24.673  25.678  1.00  0.00     0.181 C 
BRANCH  10  11
ATOM     11  N   UNL A   1      33.067  24.799  25.056  1.00  0.00    -0.338 N 
ATOM     12  C   UNL A   1      33.692  23.976  24.175  1.00  0.00     0.279 C 
ATOM     13  O   UNL A   1      34.793  24.374  23.766  1.00  0.00    -0.268 OA
ATOM     14  H   UNL A   1      33.576  25.601  25.311  1.00  0.00     0.164 HD
BRANCH  12  15
ATOM     15  C   UNL A   1      33.194  22.557  23.757  1.00  0.00     0.275 C 
BRANCH  15  16
ATOM     16  N   UNL A   1      32.496  22.620  22.461  1.00  0.00    -0.347 N 
ATOM     17  H   UNL A   1      31.516  22.367  22.590  1.00  0.00     0.345 HD
ATOM     18  H   UNL A   1      32.932  21.968  21.808  1.00  0.00     0.345 HD
ATOM     19  H   UNL A   1      32.556  23.567  22.086  1.00  0.00     0.345 HD
ENDBRANCH  15  16
BRANCH  15  20
ATOM     20  C   UNL A   1      34.035  21.295  24.030  1.00  0.00     0.113 C 
BRANCH  20  21
ATOM     21  C   UNL A   1      33.533  20.062  24.751  1.00  0.00    -0.016 A 
ATOM     22  C   UNL A   1      33.048  20.145  26.049  1.00  0.00     0.087 A 
ATOM     23  C   UNL A   1      33.452  18.661  24.397  1.00  0.00     0.003 A 
ATOM     24  N   UNL A   1      32.835  18.888  26.529  1.00  0.00    -0.361 N 
ATOM     25  C   UNL A   1      33.156  17.960  25.573  1.00  0.00     0.046 A 
ATOM     26  C   UNL A   1      33.714  17.884  23.247  1.00  0.00     0.010 A 
ATOM     27  H   UNL A   1      32.501  18.678  27.431  1.00  0.00     0.166 HD
ATOM     28  C   UNL A   1      33.212  16.562  25.675  1.00  0.00     0.026 A 
ATOM     29  C   UNL A   1      33.780  16.485  23.330  1.00  0.00     0.001 A 
ATOM     30  C   UNL A   1      33.559  15.836  24.537  1.00  0.00     0.002 A 
ENDBRANCH  20  21
ENDBRANCH  15  20
ENDBRANCH  12  15
ENDBRANCH  10  11
BRANCH  10  31
ATOM     31  C   UNL A   1      31.633  23.587  26.754  1.00  0.00     0.101 C 
BRANCH  31  32
ATOM     32  S   UNL A   1      30.057  22.652  26.822  1.00  0.00    -0.177 SA
ATOM     33  H   UNL A   1      29.829  22.061  25.618  1.00  0.00     0.102 HD
ENDBRANCH  31  32
ENDBRANCH  10  31
ENDBRANCH   7  10
ENDBRANCH   5   6
BRANCH   5  34
ATOM     34  C   UNL A   1      31.352  27.209  22.632  1.00  0.00     0.191 C 
BRANCH  34  35
ATOM     35  O   UNL A   1      31.184  28.425  21.906  1.00  0.00    -0.394 OA
ATOM     36  H   UNL A   1      30.633  28.261  21.125  1.00  0.00     0.210 HD
ENDBRANCH  34  35
ENDBRANCH   5  34
ENDBRANCH   1   5
BRANCH   3  37
ATOM     37  C   UNL A   1      31.390  30.142  25.220  1.00  0.00     0.116 C 
BRANCH  37  38
ATOM     38  C   UNL A   1      31.653  30.766  26.587  1.00  0.00     0.023 C 
BRANCH  38  39
ATOM     39  C   UNL A   1      31.499  32.286  26.646  1.00  0.00     0.023 C 
BRANCH  39  40
ATOM     40  C   UNL A   1      32.713  33.041  27.173  1.00  0.00     0.116 C 
BRANCH  40  41
ATOM     41  N   UNL A   1      32.388  34.335  27.750  1.00  0.00    -0.352 N 
ATOM     42  C   UNL A   1      33.023  34.998  28.773  1.00  0.00     0.251 C 
ATOM     43  H   UNL A   1      31.613  34.796  27.359  1.00  0.00     0.163 HD
ATOM     44  O   UNL A   1      32.594  36.063  29.187  1.00  0.00    -0.269 OA
BRANCH  42  45
ATOM     45  C   UNL A   1      34.208  34.377  29.397  1.00  0.00     0.039 A 
ATOM     46  C   UNL A   1      34.013  33.527  30.487  1.00  0.00     0.014 A 
ATOM     47  C   UNL A   1      35.488  34.604  28.887  1.00  0.00     0.014 A 
ATOM     48  C   UNL A   1      35.106  32.864  31.041  1.00  0.00     0.010 A 
ATOM     49  C   UNL A   1      36.565  33.883  29.391  1.00  0.00     0.010 A 
ATOM     50  C   UNL A   1      36.386  33.020  30.482  1.00  0.00    -0.014 A 
BRANCH  50  51
ATOM     51  C   UNL A   1      37.555  32.323  31.064  1.00  0.00     0.031 A 
ATOM     52  C   UNL A   1      38.029  32.691  32.442  1.00  0.00     0.074 A 
ATOM     53  C   UNL A   1      38.205  31.391  30.343  1.00  0.00     0.049 A 
ATOM     54  N   UNL A   1      39.042  32.222  33.122  1.00  0.00    -0.248 NA
ATOM     55  C   UNL A   1      37.280  33.752  33.135  1.00  0.00     0.031 C 
ATOM     56  C   UNL A   1      37.867  30.991  28.975  1.00  0.00     0.029 A 
ATOM     57  N   UNL A   1      39.287  30.611  30.659  1.00  0.00    -0.354 N 
ATOM     58  C   UNL A   1      39.059  32.938  34.311  1.00  0.00     0.074 A 
ATOM     59  C   UNL A   1      37.997  33.916  34.236  1.00  0.00     0.031 C 
ATOM     60  C   UNL A   1      38.705  30.018  28.583  1.00  0.00     0.029 A 
ATOM     61  C   UNL A   1      39.652  29.744  29.659  1.00  0.00     0.049 A 
ATOM     62  H   UNL A   1      39.757  30.667  31.523  1.00  0.00     0.167 HD
ATOM     63  C   UNL A   1      39.868  32.774  35.384  1.00  0.00     0.037 A 
ATOM     64  C   UNL A   1      40.635  28.825  29.626  1.00  0.00     0.037 A 
ATOM     65  C   UNL A   1      40.900  31.776  35.466  1.00  0.00     0.049 A 
ATOM     66  C   UNL A   1      41.501  28.640  30.843  1.00  0.00     0.074 A 
ATOM     67  C   UNL A   1      41.751  31.494  36.519  1.00  0.00     0.029 A 
ATOM     68  N   UNL A   1      41.214  30.886  34.448  1.00  0.00    -0.354 N 
ATOM     69  N   UNL A   1      41.469  29.281  31.987  1.00  0.00    -0.248 NA
ATOM     70  C   UNL A   1      42.528  27.593  30.771  1.00  0.00     0.031 C 
ATOM     71  C   UNL A   1      42.600  30.453  36.128  1.00  0.00     0.029 A 
ATOM     72  C   UNL A   1      42.248  30.057  34.848  1.00  0.00     0.049 A 
ATOM     73  H   UNL A   1      40.767  30.850  33.572  1.00  0.00     0.167 HD
ATOM     74  C   UNL A   1      42.443  28.692  32.782  1.00  0.00     0.074 A 
ATOM     75  C   UNL A   1      43.040  27.635  31.992  1.00  0.00     0.031 C 
ATOM     76  C   UNL A   1      42.809  28.996  34.051  1.00  0.00     0.037 A 
BRANCH  63  77
ATOM     77  C   UNL A   1      39.654  33.687  36.556  1.00  0.00     0.064 A 
ATOM     78  C   UNL A   1      40.258  34.952  36.621  1.00  0.00     0.173 A 
ATOM     79  C   UNL A   1      38.827  33.299  37.621  1.00  0.00     0.173 A 
ATOM     80  F   UNL A   1      41.072  35.363  35.637  1.00  0.00    -0.203 F 
ATOM     81  C   UNL A   1      40.068  35.782  37.722  1.00  0.00     0.198 A 
ATOM     82  C   UNL A   1      38.614  34.145  38.707  1.00  0.00     0.198 A 
ATOM     83  F   UNL A   1      38.224  32.101  37.609  1.00  0.00    -0.203 F 
ATOM     84  F   UNL A   1      40.700  36.962  37.787  1.00  0.00    -0.200 F 
ATOM     85  C   UNL A   1      39.241  35.382  38.760  1.00  0.00     0.200 A 
ATOM     86  F   UNL A   1      37.807  33.761  39.705  1.00  0.00    -0.200 F 
ATOM     87  F   UNL A   1      39.056  36.182  39.819  1.00  0.00    -0.200 F 
ENDBRANCH  63  77
BRANCH  64  88
ATOM     88  C   UNL A   1      40.819  27.973  28.424  1.00  0.00     0.064 A 
ATOM     89  C   UNL A   1      41.609  28.408  27.349  1.00  0.00     0.173 A 
ATOM     90  C   UNL A   1      40.208  26.715  28.316  1.00  0.00     0.173 A 
ATOM     91  F   UNL A   1      42.201  29.609  27.398  1.00  0.00    -0.203 F 
ATOM     92  C   UNL A   1      41.759  27.630  26.203  1.00  0.00     0.198 A 
ATOM     93  C   UNL A   1      40.380  25.927  27.180  1.00  0.00     0.198 A 
ATOM     94  F   UNL A   1      39.449  26.249  29.319  1.00  0.00    -0.203 F 
ATOM     95  F   UNL A   1      42.481  28.091  25.173  1.00  0.00    -0.200 F 
ATOM     96  C   UNL A   1      41.148  26.388  26.121  1.00  0.00     0.200 A 
ATOM     97  F   UNL A   1      39.799  24.720  27.110  1.00  0.00    -0.200 F 
ATOM     98  F   UNL A   1      41.293  25.640  25.020  1.00  0.00    -0.200 F 
ENDBRANCH  64  88
BRANCH  76  99
ATOM     99  C   UNL A   1      43.867  28.140  34.682  1.00  0.00     0.064 A 
ATOM    100  C   UNL A   1      43.548  26.954  35.359  1.00  0.00     0.173 A 
ATOM    101  C   UNL A   1      45.220  28.495  34.576  1.00  0.00     0.173 A 
ATOM    102  F   UNL A   1      42.267  26.580  35.500  1.00  0.00    -0.203 F 
ATOM    103  C   UNL A   1      44.545  26.172  35.936  1.00  0.00     0.198 A 
ATOM    104  C   UNL A   1      46.216  27.696  35.126  1.00  0.00     0.198 A 
ATOM    105  F   UNL A   1      45.575  29.616  33.929  1.00  0.00    -0.203 F 
ATOM    106  F   UNL A   1      44.216  25.070  36.623  1.00  0.00    -0.200 F 
ATOM    107  C   UNL A   1      45.877  26.539  35.813  1.00  0.00     0.200 A 
ATOM    108  F   UNL A   1      47.502  28.045  34.996  1.00  0.00    -0.200 F 
ATOM    109  F   UNL A   1      46.835  25.782  36.365  1.00  0.00    -0.200 F 
ENDBRANCH  76  99
ENDBRANCH  50  51
ENDBRANCH  42  45
ENDBRANCH  40  41
ENDBRANCH  39  40
ENDBRANCH  38  39
ENDBRANCH  37  38
ENDBRANCH   3  37
TORSDOF 22
ENDMDL
MODEL 3
REMARK VINA RESULT:     -11.6      5.156     10.917
REMARK SMILES [NH3+][C@@H](Cc1c[nH]c2ccccc12)C(=O)N[C@@H](CS)C(=O)N[C@@H](CO)C(=O)NCCCCNC(=O)c1ccc(-c2c3nc(c(-c4c(F)c(F)c(F)c(F)c4F)c4ccc([nH]4)c(-c4c(F)c(F)c(F)c(F)c4F)c4nc(c(-c5c(F)c(F)c(F)c(F)c5F)c5ccc2[nH]5)C=C4)C=C3)cc1
REMARK SMILES IDX 25 1 26 2 27 3 22 5 21 6 19 7 20 8 16 10 15 11 13 12 14 13
REMARK SMILES IDX 2 15 1 16 3 20 4 21 5 22 12 23 6 24 7 25 11 26 8 28 10 29
REMARK SMILES IDX 9 30 17 31 18 32 23 34 24 35 28 37 29 38 30 39 31 40 32 41
REMARK SMILES IDX 33 42 34 44 35 45 36 46 97 47 37 48 96 49 38 50 39 51 40 52
REMARK SMILES IDX 90 53 41 54 95 55 89 56 91 57 42 58 94 59 88 60 87 61 43 63
REMARK SMILES IDX 75 64 55 65 74 66 56 67 59 68 73 69 92 70 57 71 58 72 72 74
REMARK SMILES IDX 93 75 60 76 44 77 45 78 53 79 46 80 47 81 51 82 54 83 48 84
REMARK SMILES IDX 49 85 52 86 50 87 76 88 77 89 85 90 78 91 79 92 83 93 86 94
REMARK SMILES IDX 80 95 81 96 84 97 82 98 61 99 62 100 70 101 63 102 64 103
REMARK SMILES IDX 68 104 71 105 65 106 66 107 69 108 67 109
REMARK H PARENT 27 4 21 9 15 14 1 17 1 18 1 19 6 27 18 33 24 36 32 43 91 62
REMARK H PARENT 59 73
REMARK Flexibility Score: inf
ROOT
ATOM      1  C   UNL A   1      34.798  18.706  24.632  1.00  0.00     0.244 C 
ATOM      2  O   UNL A   1      34.826  17.564  24.160  1.00  0.00    -0.273 OA
ATOM      3  N   UNL A   1      35.987  19.357  24.726  1.00  0.00    -0.354 N 
ATOM      4  H   UNL A   1      36.777  18.801  24.531  1.00  0.00     0.163 HD
ENDROOT
BRANCH   1   5
ATOM      5  C   UNL A   1      33.450  19.351  24.993  1.00  0.00     0.197 C 
BRANCH   5   6
ATOM      6  N   UNL A   1      32.873  20.189  23.951  1.00  0.00    -0.340 N 
ATOM      7  C   UNL A   1      32.417  21.459  23.936  1.00  0.00     0.244 C 
ATOM      8  O   UNL A   1      31.761  21.735  22.919  1.00  0.00    -0.273 OA
ATOM      9  H   UNL A   1      32.799  19.736  23.081  1.00  0.00     0.164 HD
BRANCH   7  10
ATOM     10  C   UNL A   1      32.527  22.484  25.091  1.00  0.00     0.181 C 
BRANCH  10  11
ATOM     11  N   UNL A   1      31.396  22.335  25.991  1.00  0.00    -0.338 N 
ATOM     12  C   UNL A   1      30.430  23.228  26.326  1.00  0.00     0.279 C 
ATOM     13  O   UNL A   1      29.548  22.797  27.085  1.00  0.00    -0.268 OA
ATOM     14  H   UNL A   1      31.317  21.453  26.422  1.00  0.00     0.164 HD
BRANCH  12  15
ATOM     15  C   UNL A   1      30.426  24.740  25.940  1.00  0.00     0.275 C 
BRANCH  15  16
ATOM     16  N   UNL A   1      31.340  25.496  26.816  1.00  0.00    -0.347 N 
ATOM     17  H   UNL A   1      31.227  26.494  26.643  1.00  0.00     0.345 HD
ATOM     18  H   UNL A   1      32.303  25.224  26.618  1.00  0.00     0.345 HD
ATOM     19  H   UNL A   1      31.123  25.292  27.792  1.00  0.00     0.345 HD
ENDBRANCH  15  16
BRANCH  15  20
ATOM     20  C   UNL A   1      30.340  25.196  24.470  1.00  0.00     0.113 C 
BRANCH  20  21
ATOM     21  C   UNL A   1      30.442  26.633  24.005  1.00  0.00    -0.016 A 
ATOM     22  C   UNL A   1      31.666  27.286  23.976  1.00  0.00     0.087 A 
ATOM     23  C   UNL A   1      29.471  27.612  23.564  1.00  0.00     0.003 A 
ATOM     24  N   UNL A   1      31.464  28.605  23.700  1.00  0.00    -0.361 N 
ATOM     25  C   UNL A   1      30.126  28.850  23.530  1.00  0.00     0.046 A 
ATOM     26  C   UNL A   1      28.082  27.625  23.306  1.00  0.00     0.010 A 
ATOM     27  H   UNL A   1      32.176  29.283  23.634  1.00  0.00     0.166 HD
ATOM     28  C   UNL A   1      29.462  30.072  23.361  1.00  0.00     0.026 A 
ATOM     29  C   UNL A   1      27.398  28.839  23.139  1.00  0.00     0.001 A 
ATOM     30  C   UNL A   1      28.078  30.048  23.194  1.00  0.00     0.002 A 
ENDBRANCH  20  21
ENDBRANCH  15  20
ENDBRANCH  12  15
ENDBRANCH  10  11
BRANCH  10  31
ATOM     31  C   UNL A   1      33.870  22.815  25.753  1.00  0.00     0.101 C 
BRANCH  31  32
ATOM     32  S   UNL A   1      34.015  22.515  27.556  1.00  0.00    -0.177 SA
ATOM     33  H   UNL A   1      35.236  21.982  27.831  1.00  0.00     0.102 HD
ENDBRANCH  31  32
ENDBRANCH  10  31
ENDBRANCH   7  10
ENDBRANCH   5   6
BRANCH   5  34
ATOM     34  C   UNL A   1      32.436  18.343  25.547  1.00  0.00     0.191 C 
BRANCH  34  35
ATOM     35  O   UNL A   1      33.054  17.242  26.211  1.00  0.00    -0.394 OA
ATOM     36  H   UNL A   1      33.275  16.556  25.563  1.00  0.00     0.210 HD
ENDBRANCH  34  35
ENDBRANCH   5  34
ENDBRANCH   1   5
BRANCH   3  37
ATOM     37  C   UNL A   1      36.285  20.730  25.067  1.00  0.00     0.116 C 
BRANCH  37  38
ATOM     38  C   UNL A   1      37.781  21.020  25.001  1.00  0.00     0.023 C 
BRANCH  38  39
ATOM     39  C   UNL A   1      38.682  19.785  25.015  1.00  0.00     0.023 C 
BRANCH  39  40
ATOM     40  C   UNL A   1      39.679  19.721  26.165  1.00  0.00     0.116 C 
BRANCH  40  41
ATOM     41  N   UNL A   1      40.814  18.852  25.904  1.00  0.00    -0.352 N 
ATOM     42  C   UNL A   1      42.154  19.149  25.980  1.00  0.00     0.251 C 
ATOM     43  H   UNL A   1      40.595  17.931  25.639  1.00  0.00     0.163 HD
ATOM     44  O   UNL A   1      42.995  18.320  25.674  1.00  0.00    -0.269 OA
BRANCH  42  45
ATOM     45  C   UNL A   1      42.559  20.508  26.392  1.00  0.00     0.039 A 
ATOM     46  C   UNL A   1      42.855  21.441  25.398  1.00  0.00     0.014 A 
ATOM     47  C   UNL A   1      42.610  20.861  27.743  1.00  0.00     0.014 A 
ATOM     48  C   UNL A   1      43.159  22.752  25.759  1.00  0.00     0.010 A 
ATOM     49  C   UNL A   1      42.838  22.187  28.096  1.00  0.00     0.010 A 
ATOM     50  C   UNL A   1      43.130  23.139  27.109  1.00  0.00    -0.014 A 
BRANCH  50  51
ATOM     51  C   UNL A   1      43.454  24.528  27.504  1.00  0.00     0.031 A 
ATOM     52  C   UNL A   1      44.887  24.981  27.518  1.00  0.00     0.074 A 
ATOM     53  C   UNL A   1      42.469  25.364  27.880  1.00  0.00     0.049 A 
ATOM     54  N   UNL A   1      45.386  26.142  27.854  1.00  0.00    -0.248 NA
ATOM     55  C   UNL A   1      45.898  23.982  27.132  1.00  0.00     0.031 C 
ATOM     56  C   UNL A   1      41.048  25.017  27.957  1.00  0.00     0.029 A 
ATOM     57  N   UNL A   1      42.512  26.677  28.271  1.00  0.00    -0.354 N 
ATOM     58  C   UNL A   1      46.763  26.007  27.734  1.00  0.00     0.074 A 
ATOM     59  C   UNL A   1      47.027  24.637  27.356  1.00  0.00     0.031 C 
ATOM     60  C   UNL A   1      40.353  26.101  28.338  1.00  0.00     0.029 A 
ATOM     61  C   UNL A   1      41.278  27.208  28.557  1.00  0.00     0.049 A 
ATOM     62  H   UNL A   1      43.349  27.191  28.340  1.00  0.00     0.167 HD
ATOM     63  C   UNL A   1      47.720  26.951  27.892  1.00  0.00     0.037 A 
ATOM     64  C   UNL A   1      40.939  28.453  28.940  1.00  0.00     0.037 A 
ATOM     65  C   UNL A   1      47.448  28.321  28.235  1.00  0.00     0.049 A 
ATOM     66  C   UNL A   1      42.018  29.491  29.079  1.00  0.00     0.074 A 
ATOM     67  C   UNL A   1      48.337  29.370  28.382  1.00  0.00     0.029 A 
ATOM     68  N   UNL A   1      46.180  28.833  28.475  1.00  0.00    -0.354 N 
ATOM     69  N   UNL A   1      43.312  29.370  28.903  1.00  0.00    -0.248 NA
ATOM     70  C   UNL A   1      41.588  30.845  29.455  1.00  0.00     0.031 C 
ATOM     71  C   UNL A   1      47.610  30.510  28.740  1.00  0.00     0.029 A 
ATOM     72  C   UNL A   1      46.265  30.182  28.773  1.00  0.00     0.049 A 
ATOM     73  H   UNL A   1      45.345  28.313  28.439  1.00  0.00     0.167 HD
ATOM     74  C   UNL A   1      43.845  30.636  29.108  1.00  0.00     0.074 A 
ATOM     75  C   UNL A   1      42.733  31.511  29.412  1.00  0.00     0.031 C 
ATOM     76  C   UNL A   1      45.139  31.037  29.049  1.00  0.00     0.037 A 
BRANCH  63  77
ATOM     77  C   UNL A   1      49.146  26.531  27.682  1.00  0.00     0.064 A 
ATOM     78  C   UNL A   1      49.686  26.386  26.395  1.00  0.00     0.173 A 
ATOM     79  C   UNL A   1      49.985  26.283  28.778  1.00  0.00     0.173 A 
ATOM     80  F   UNL A   1      48.919  26.595  25.314  1.00  0.00    -0.203 F 
ATOM     81  C   UNL A   1      51.003  25.977  26.212  1.00  0.00     0.198 A 
ATOM     82  C   UNL A   1      51.313  25.904  28.591  1.00  0.00     0.198 A 
ATOM     83  F   UNL A   1      49.521  26.407  30.030  1.00  0.00    -0.203 F 
ATOM     84  F   UNL A   1      51.480  25.792  24.973  1.00  0.00    -0.200 F 
ATOM     85  C   UNL A   1      51.818  25.743  27.309  1.00  0.00     0.200 A 
ATOM     86  F   UNL A   1      52.102  25.687  29.653  1.00  0.00    -0.200 F 
ATOM     87  F   UNL A   1      53.087  25.352  27.132  1.00  0.00    -0.200 F 
ENDBRANCH  63  77
BRANCH  64  88
ATOM     88  C   UNL A   1      39.512  28.800  29.165  1.00  0.00     0.064 A 
ATOM     89  C   UNL A   1      38.713  29.269  28.112  1.00  0.00     0.173 A 
ATOM     90  C   UNL A   1      38.919  28.680  30.430  1.00  0.00     0.173 A 
ATOM     91  F   UNL A   1      39.239  29.417  26.888  1.00  0.00    -0.203 F 
ATOM     92  C   UNL A   1      37.384  29.630  28.321  1.00  0.00     0.198 A 
ATOM     93  C   UNL A   1      37.582  29.016  30.632  1.00  0.00     0.198 A 
ATOM     94  F   UNL A   1      39.637  28.228  31.468  1.00  0.00    -0.203 F 
ATOM     95  F   UNL A   1      36.657  30.119  27.307  1.00  0.00    -0.200 F 
ATOM     96  C   UNL A   1      36.818  29.499  29.580  1.00  0.00     0.200 A 
ATOM     97  F   UNL A   1      37.034  28.874  31.848  1.00  0.00    -0.200 F 
ATOM     98  F   UNL A   1      35.539  29.844  29.781  1.00  0.00    -0.200 F 
ENDBRANCH  64  88
BRANCH  76  99
ATOM     99  C   UNL A   1      45.412  32.497  29.264  1.00  0.00     0.064 A 
ATOM    100  C   UNL A   1      45.383  33.416  28.205  1.00  0.00     0.173 A 
ATOM    101  C   UNL A   1      45.674  32.984  30.553  1.00  0.00     0.173 A 
ATOM    102  F   UNL A   1      45.152  32.995  26.952  1.00  0.00    -0.203 F 
ATOM    103  C   UNL A   1      45.637  34.767  28.426  1.00  0.00     0.198 A 
ATOM    104  C   UNL A   1      45.897  34.339  30.775  1.00  0.00     0.198 A 
ATOM    105  F   UNL A   1      45.704  32.144  31.600  1.00  0.00    -0.203 F 
ATOM    106  F   UNL A   1      45.654  35.620  27.394  1.00  0.00    -0.200 F 
ATOM    107  C   UNL A   1      45.887  35.228  29.710  1.00  0.00     0.200 A 
ATOM    108  F   UNL A   1      46.125  34.784  32.018  1.00  0.00    -0.200 F 
ATOM    109  F   UNL A   1      46.126  36.529  29.921  1.00  0.00    -0.200 F 
ENDBRANCH  76  99
ENDBRANCH  50  51
ENDBRANCH  42  45
ENDBRANCH  40  41
ENDBRANCH  39  40
ENDBRANCH  38  39
ENDBRANCH  37  38
ENDBRANCH   3  37
TORSDOF 22
ENDMDL
