MODEL 1
REMARK VINA RESULT:     -13.8      0.000      0.000
REMARK SMILES CCN(c1cccc(C)c1)c1nc(OCC(=O)NCCCCNC(=O)c2ccc(-c3c4nc(c(-c5c(F)c(F)c(F)c(F)c5F)c5ccc([nH]5)c(-c5c(F)c(F)c(F)c(F)c5F)c5nc(c(-c6c(F)c(F)c(F)c(F)c6F)c6ccc3[nH]6)C=C5)C=C4)cc2)cc(-c2ccc(C)cc2)n1
REMARK SMILES IDX 19 1 18 2 16 3 17 4 15 6 14 7 13 8 11 9 12 10 98 11 90 12
REMARK SMILES IDX 89 13 3 14 2 15 1 16 4 17 5 18 10 19 6 20 8 21 7 22 9 23
REMARK SMILES IDX 91 24 92 25 97 26 93 27 96 28 94 29 95 30 20 31 21 32 22 33
REMARK SMILES IDX 23 34 24 35 25 37 26 38 27 39 88 40 28 41 87 42 29 43 30 44
REMARK SMILES IDX 31 45 81 46 32 47 86 48 80 49 82 50 33 51 85 52 79 53 78 54
REMARK SMILES IDX 34 56 66 57 46 58 65 59 47 60 50 61 64 62 83 63 48 64 49 65
REMARK SMILES IDX 63 67 84 68 51 69 35 70 36 71 44 72 37 73 38 74 42 75 45 76
REMARK SMILES IDX 39 77 40 78 43 79 41 80 67 81 68 82 76 83 69 84 70 85 74 86
REMARK SMILES IDX 77 87 71 88 72 89 75 90 73 91 52 92 53 93 61 94 54 95 55 96
REMARK SMILES IDX 59 97 62 98 56 99 57 100 60 101 58 102
REMARK H PARENT 18 5 23 36 82 55 50 66
REMARK Flexibility Score: inf
ROOT
ATOM      1  C   UNL A   1      40.879  19.911  26.581  1.00  0.00     0.116 C 
ENDROOT
BRANCH   1   2
ATOM      2  N   UNL A   1      40.550  21.252  27.030  1.00  0.00    -0.353 N 
ATOM      3  C   UNL A   1      39.540  22.072  26.623  1.00  0.00     0.258 C 
ATOM      4  O   UNL A   1      39.433  23.181  27.152  1.00  0.00    -0.271 OA
ATOM      5  H   UNL A   1      41.139  21.622  27.727  1.00  0.00     0.163 HD
BRANCH   3   6
ATOM      6  C   UNL A   1      38.553  21.608  25.544  1.00  0.00     0.331 C 
BRANCH   6   7
ATOM      7  O   UNL A   1      37.568  22.534  25.125  1.00  0.00    -0.467 OA
BRANCH   7   8
ATOM      8  C   UNL A   1      36.314  22.061  24.874  1.00  0.00     0.219 A 
ATOM      9  C   UNL A   1      34.172  22.727  24.315  1.00  0.00     0.233 A 
ATOM     10  N   UNL A   1      35.465  23.034  24.513  1.00  0.00    -0.177 NA
ATOM     11  N   UNL A   1      33.702  21.480  24.467  1.00  0.00    -0.212 NA
ATOM     12  C   UNL A   1      34.584  20.508  24.763  1.00  0.00     0.080 A 
ATOM     13  C   UNL A   1      35.921  20.756  24.976  1.00  0.00     0.097 A 
BRANCH   9  14
ATOM     14  N   UNL A   1      33.304  23.757  23.916  1.00  0.00    -0.311 N 
BRANCH  14  15
ATOM     15  C   UNL A   1      32.194  23.363  23.042  1.00  0.00     0.122 C 
ATOM     16  C   UNL A   1      30.825  23.721  23.604  1.00  0.00     0.028 C 
ENDBRANCH  14  15
BRANCH  14  17
ATOM     17  C   UNL A   1      33.420  25.098  24.332  1.00  0.00     0.044 A 
ATOM     18  C   UNL A   1      33.350  25.487  25.676  1.00  0.00     0.026 A 
ATOM     19  C   UNL A   1      33.633  26.113  23.379  1.00  0.00     0.029 A 
ATOM     20  C   UNL A   1      33.470  26.831  26.051  1.00  0.00     0.002 A 
ATOM     21  C   UNL A   1      33.747  27.466  23.739  1.00  0.00    -0.049 A 
ATOM     22  C   UNL A   1      33.661  27.817  25.085  1.00  0.00     0.003 A 
ATOM     23  C   UNL A   1      33.941  28.504  22.674  1.00  0.00     0.044 C 
ENDBRANCH  14  17
ENDBRANCH   9  14
BRANCH  12  24
ATOM     24  C   UNL A   1      34.072  19.136  24.796  1.00  0.00     0.000 A 
ATOM     25  C   UNL A   1      32.797  18.851  25.309  1.00  0.00     0.010 A 
ATOM     26  C   UNL A   1      34.889  18.063  24.408  1.00  0.00     0.010 A 
ATOM     27  C   UNL A   1      32.367  17.531  25.469  1.00  0.00     0.004 A 
ATOM     28  C   UNL A   1      34.464  16.743  24.578  1.00  0.00     0.004 A 
ATOM     29  C   UNL A   1      33.205  16.466  25.120  1.00  0.00    -0.051 A 
ATOM     30  C   UNL A   1      32.787  15.046  25.361  1.00  0.00     0.044 C 
ENDBRANCH  12  24
ENDBRANCH   7   8
ENDBRANCH   6   7
ENDBRANCH   3   6
ENDBRANCH   1   2
BRANCH   1  31
ATOM     31  C   UNL A   1      42.090  19.302  27.298  1.00  0.00     0.023 C 
BRANCH  31  32
ATOM     32  C   UNL A   1      43.184  18.725  26.396  1.00  0.00     0.023 C 
BRANCH  32  33
ATOM     33  C   UNL A   1      43.524  19.574  25.178  1.00  0.00     0.116 C 
BRANCH  33  34
ATOM     34  N   UNL A   1      44.898  20.048  25.124  1.00  0.00    -0.352 N 
ATOM     35  C   UNL A   1      45.402  21.338  25.230  1.00  0.00     0.251 C 
ATOM     36  H   UNL A   1      45.575  19.347  24.991  1.00  0.00     0.163 HD
ATOM     37  O   UNL A   1      46.584  21.543  25.042  1.00  0.00    -0.269 OA
BRANCH  35  38
ATOM     38  C   UNL A   1      44.528  22.444  25.714  1.00  0.00     0.039 A 
ATOM     39  C   UNL A   1      44.485  23.624  24.956  1.00  0.00     0.014 A 
ATOM     40  C   UNL A   1      43.912  22.404  26.959  1.00  0.00     0.014 A 
ATOM     41  C   UNL A   1      44.060  24.811  25.551  1.00  0.00     0.010 A 
ATOM     42  C   UNL A   1      43.595  23.589  27.588  1.00  0.00     0.010 A 
ATOM     43  C   UNL A   1      43.736  24.800  26.905  1.00  0.00    -0.014 A 
BRANCH  43  44
ATOM     44  C   UNL A   1      43.650  25.996  27.731  1.00  0.00     0.031 A 
ATOM     45  C   UNL A   1      42.366  26.704  27.902  1.00  0.00     0.074 A 
ATOM     46  C   UNL A   1      44.728  26.336  28.471  1.00  0.00     0.049 A 
ATOM     47  N   UNL A   1      42.253  27.911  28.344  1.00  0.00    -0.248 NA
ATOM     48  C   UNL A   1      41.086  26.100  27.554  1.00  0.00     0.031 C 
ATOM     49  C   UNL A   1      44.780  27.255  29.605  1.00  0.00     0.029 A 
ATOM     50  N   UNL A   1      46.076  26.030  28.212  1.00  0.00    -0.354 N 
ATOM     51  C   UNL A   1      40.918  28.149  28.587  1.00  0.00     0.074 A 
ATOM     52  C   UNL A   1      40.230  27.007  28.033  1.00  0.00     0.031 C 
ATOM     53  C   UNL A   1      46.045  27.677  29.762  1.00  0.00     0.029 A 
ATOM     54  C   UNL A   1      46.807  27.164  28.637  1.00  0.00     0.049 A 
ATOM     55  H   UNL A   1      46.435  25.202  27.817  1.00  0.00     0.167 HD
ATOM     56  C   UNL A   1      40.566  29.231  29.343  1.00  0.00     0.037 A 
ATOM     57  C   UNL A   1      47.490  27.937  27.744  1.00  0.00     0.037 A 
ATOM     58  C   UNL A   1      41.738  30.032  29.685  1.00  0.00     0.049 A 
ATOM     59  C   UNL A   1      47.025  29.373  27.697  1.00  0.00     0.074 A 
ATOM     60  C   UNL A   1      42.549  30.073  30.808  1.00  0.00     0.029 A 
ATOM     61  N   UNL A   1      42.423  30.703  28.680  1.00  0.00    -0.354 N 
ATOM     62  N   UNL A   1      45.868  29.776  28.143  1.00  0.00    -0.248 NA
ATOM     63  C   UNL A   1      47.807  30.461  27.116  1.00  0.00     0.031 C 
ATOM     64  C   UNL A   1      43.761  30.715  30.451  1.00  0.00     0.029 A 
ATOM     65  C   UNL A   1      43.674  31.088  29.121  1.00  0.00     0.049 A 
ATOM     66  H   UNL A   1      42.066  30.880  27.779  1.00  0.00     0.167 HD
ATOM     67  C   UNL A   1      45.728  31.117  27.909  1.00  0.00     0.074 A 
ATOM     68  C   UNL A   1      46.976  31.506  27.280  1.00  0.00     0.031 C 
ATOM     69  C   UNL A   1      44.589  31.793  28.240  1.00  0.00     0.037 A 
BRANCH  56  70
ATOM     70  C   UNL A   1      39.215  29.401  30.006  1.00  0.00     0.064 A 
ATOM     71  C   UNL A   1      38.231  30.243  29.440  1.00  0.00     0.173 A 
ATOM     72  C   UNL A   1      38.845  28.812  31.228  1.00  0.00     0.173 A 
ATOM     73  F   UNL A   1      38.388  30.787  28.227  1.00  0.00    -0.203 F 
ATOM     74  C   UNL A   1      37.041  30.564  30.101  1.00  0.00     0.198 A 
ATOM     75  C   UNL A   1      37.682  29.176  31.918  1.00  0.00     0.198 A 
ATOM     76  F   UNL A   1      39.566  27.820  31.767  1.00  0.00    -0.203 F 
ATOM     77  F   UNL A   1      36.152  31.377  29.513  1.00  0.00    -0.200 F 
ATOM     78  C   UNL A   1      36.786  30.062  31.359  1.00  0.00     0.200 A 
ATOM     79  F   UNL A   1      37.437  28.655  33.129  1.00  0.00    -0.200 F 
ATOM     80  F   UNL A   1      35.670  30.408  32.016  1.00  0.00    -0.200 F 
ENDBRANCH  56  70
BRANCH  57  81
ATOM     81  C   UNL A   1      48.003  27.162  26.581  1.00  0.00     0.064 A 
ATOM     82  C   UNL A   1      47.394  27.366  25.327  1.00  0.00     0.173 A 
ATOM     83  C   UNL A   1      49.272  26.571  26.595  1.00  0.00     0.173 A 
ATOM     84  F   UNL A   1      46.179  27.932  25.259  1.00  0.00    -0.203 F 
ATOM     85  C   UNL A   1      48.074  27.109  24.139  1.00  0.00     0.198 A 
ATOM     86  C   UNL A   1      49.944  26.298  25.401  1.00  0.00     0.198 A 
ATOM     87  F   UNL A   1      49.914  26.367  27.754  1.00  0.00    -0.203 F 
ATOM     88  F   UNL A   1      47.513  27.429  22.965  1.00  0.00    -0.200 F 
ATOM     89  C   UNL A   1      49.361  26.602  24.178  1.00  0.00     0.200 A 
ATOM     90  F   UNL A   1      51.202  25.834  25.436  1.00  0.00    -0.200 F 
ATOM     91  F   UNL A   1      50.056  26.447  23.043  1.00  0.00    -0.200 F 
ENDBRANCH  57  81
BRANCH  69  92
ATOM     92  C   UNL A   1      44.251  33.203  27.832  1.00  0.00     0.064 A 
ATOM     93  C   UNL A   1      43.826  33.558  26.542  1.00  0.00     0.173 A 
ATOM     94  C   UNL A   1      44.187  34.229  28.805  1.00  0.00     0.173 A 
ATOM     95  F   UNL A   1      43.741  32.647  25.563  1.00  0.00    -0.203 F 
ATOM     96  C   UNL A   1      43.415  34.858  26.235  1.00  0.00     0.198 A 
ATOM     97  C   UNL A   1      43.722  35.509  28.508  1.00  0.00     0.198 A 
ATOM     98  F   UNL A   1      44.549  34.009  30.077  1.00  0.00    -0.203 F 
ATOM     99  F   UNL A   1      43.050  35.158  24.980  1.00  0.00    -0.200 F 
ATOM    100  C   UNL A   1      43.349  35.828  27.219  1.00  0.00     0.200 A 
ATOM    101  F   UNL A   1      43.617  36.422  29.484  1.00  0.00    -0.200 F 
ATOM    102  F   UNL A   1      42.905  37.058  26.931  1.00  0.00    -0.200 F 
ENDBRANCH  69  92
ENDBRANCH  43  44
ENDBRANCH  35  38
ENDBRANCH  33  34
ENDBRANCH  32  33
ENDBRANCH  31  32
ENDBRANCH   1  31
TORSDOF 17
ENDMDL
MODEL 2
REMARK VINA RESULT:     -12.8      5.203     10.737
REMARK SMILES CCN(c1cccc(C)c1)c1nc(OCC(=O)NCCCCNC(=O)c2ccc(-c3c4nc(c(-c5c(F)c(F)c(F)c(F)c5F)c5ccc([nH]5)c(-c5c(F)c(F)c(F)c(F)c5F)c5nc(c(-c6c(F)c(F)c(F)c(F)c6F)c6ccc3[nH]6)C=C5)C=C4)cc2)cc(-c2ccc(C)cc2)n1
REMARK SMILES IDX 19 1 18 2 16 3 17 4 15 6 14 7 13 8 11 9 12 10 98 11 90 12
REMARK SMILES IDX 89 13 3 14 2 15 1 16 4 17 5 18 10 19 6 20 8 21 7 22 9 23
REMARK SMILES IDX 91 24 92 25 97 26 93 27 96 28 94 29 95 30 20 31 21 32 22 33
REMARK SMILES IDX 23 34 24 35 25 37 26 38 27 39 88 40 28 41 87 42 29 43 30 44
REMARK SMILES IDX 31 45 81 46 32 47 86 48 80 49 82 50 33 51 85 52 79 53 78 54
REMARK SMILES IDX 34 56 66 57 46 58 65 59 47 60 50 61 64 62 83 63 48 64 49 65
REMARK SMILES IDX 63 67 84 68 51 69 35 70 36 71 44 72 37 73 38 74 42 75 45 76
REMARK SMILES IDX 39 77 40 78 43 79 41 80 67 81 68 82 76 83 69 84 70 85 74 86
REMARK SMILES IDX 77 87 71 88 72 89 75 90 73 91 52 92 53 93 61 94 54 95 55 96
REMARK SMILES IDX 59 97 62 98 56 99 57 100 60 101 58 102
REMARK H PARENT 18 5 23 36 82 55 50 66
REMARK Flexibility Score: inf
ROOT
ATOM      1  C   UNL A   1      34.071  32.822  28.132  1.00  0.00     0.116 C 
ENDROOT
BRANCH   1   2
ATOM      2  N   UNL A   1      34.870  31.620  27.974  1.00  0.00    -0.353 N 
ATOM      3  C   UNL A   1      34.485  30.380  27.559  1.00  0.00     0.258 C 
ATOM      4  O   UNL A   1      35.340  29.493  27.485  1.00  0.00    -0.271 OA
ATOM      5  H   UNL A   1      35.825  31.713  28.198  1.00  0.00     0.163 HD
BRANCH   3   6
ATOM      6  C   UNL A   1      33.024  30.109  27.180  1.00  0.00     0.331 C 
BRANCH   6   7
ATOM      7  O   UNL A   1      32.523  28.808  27.420  1.00  0.00    -0.467 OA
BRANCH   7   8
ATOM      8  C   UNL A   1      32.620  27.890  26.416  1.00  0.00     0.219 A 
ATOM      9  C   UNL A   1      31.863  27.401  24.287  1.00  0.00     0.233 A 
ATOM     10  N   UNL A   1      31.926  28.250  25.327  1.00  0.00    -0.177 NA
ATOM     11  N   UNL A   1      32.470  26.205  24.303  1.00  0.00    -0.212 NA
ATOM     12  C   UNL A   1      33.216  25.894  25.379  1.00  0.00     0.080 A 
ATOM     13  C   UNL A   1      33.325  26.720  26.474  1.00  0.00     0.097 A 
BRANCH   9  14
ATOM     14  N   UNL A   1      31.148  27.807  23.148  1.00  0.00    -0.311 N 
BRANCH  14  15
ATOM     15  C   UNL A   1      31.776  27.513  21.855  1.00  0.00     0.122 C 
ATOM     16  C   UNL A   1      31.512  26.096  21.363  1.00  0.00     0.028 C 
ENDBRANCH  14  15
BRANCH  14  17
ATOM     17  C   UNL A   1      29.884  28.426  23.183  1.00  0.00     0.044 A 
ATOM     18  C   UNL A   1      28.684  27.705  23.253  1.00  0.00     0.026 A 
ATOM     19  C   UNL A   1      29.789  29.831  23.166  1.00  0.00     0.029 A 
ATOM     20  C   UNL A   1      27.445  28.356  23.287  1.00  0.00     0.002 A 
ATOM     21  C   UNL A   1      28.553  30.499  23.190  1.00  0.00    -0.049 A 
ATOM     22  C   UNL A   1      27.380  29.748  23.249  1.00  0.00     0.003 A 
ATOM     23  C   UNL A   1      28.517  31.997  23.136  1.00  0.00     0.044 C 
ENDBRANCH  14  17
ENDBRANCH   9  14
BRANCH  12  24
ATOM     24  C   UNL A   1      33.975  24.642  25.319  1.00  0.00     0.000 A 
ATOM     25  C   UNL A   1      34.106  23.820  26.449  1.00  0.00     0.010 A 
ATOM     26  C   UNL A   1      34.674  24.289  24.156  1.00  0.00     0.010 A 
ATOM     27  C   UNL A   1      34.944  22.702  26.430  1.00  0.00     0.004 A 
ATOM     28  C   UNL A   1      35.521  23.178  24.138  1.00  0.00     0.004 A 
ATOM     29  C   UNL A   1      35.671  22.383  25.279  1.00  0.00    -0.051 A 
ATOM     30  C   UNL A   1      36.633  21.232  25.270  1.00  0.00     0.044 C 
ENDBRANCH  12  24
ENDBRANCH   7   8
ENDBRANCH   6   7
ENDBRANCH   3   6
ENDBRANCH   1   2
BRANCH   1  31
ATOM     31  C   UNL A   1      34.378  33.600  29.418  1.00  0.00     0.023 C 
BRANCH  31  32
ATOM     32  C   UNL A   1      35.118  32.825  30.511  1.00  0.00     0.023 C 
BRANCH  32  33
ATOM     33  C   UNL A   1      34.399  32.762  31.852  1.00  0.00     0.116 C 
BRANCH  33  34
ATOM     34  N   UNL A   1      34.133  34.053  32.469  1.00  0.00    -0.352 N 
ATOM     35  C   UNL A   1      34.938  34.833  33.289  1.00  0.00     0.251 C 
ATOM     36  H   UNL A   1      33.246  34.431  32.274  1.00  0.00     0.163 HD
ATOM     37  O   UNL A   1      34.486  35.837  33.801  1.00  0.00    -0.269 OA
BRANCH  35  38
ATOM     38  C   UNL A   1      36.388  34.521  33.428  1.00  0.00     0.039 A 
ATOM     39  C   UNL A   1      37.264  35.032  32.459  1.00  0.00     0.014 A 
ATOM     40  C   UNL A   1      36.858  33.609  34.366  1.00  0.00     0.014 A 
ATOM     41  C   UNL A   1      38.513  34.440  32.277  1.00  0.00     0.010 A 
ATOM     42  C   UNL A   1      38.043  32.948  34.123  1.00  0.00     0.010 A 
ATOM     43  C   UNL A   1      38.837  33.319  33.035  1.00  0.00    -0.014 A 
BRANCH  43  44
ATOM     44  C   UNL A   1      39.909  32.391  32.699  1.00  0.00     0.031 A 
ATOM     45  C   UNL A   1      39.646  31.208  31.857  1.00  0.00     0.074 A 
ATOM     46  C   UNL A   1      41.173  32.735  33.031  1.00  0.00     0.049 A 
ATOM     47  N   UNL A   1      40.433  30.190  31.765  1.00  0.00    -0.248 NA
ATOM     48  C   UNL A   1      38.436  31.069  31.057  1.00  0.00     0.031 C 
ATOM     49  C   UNL A   1      42.417  32.167  32.518  1.00  0.00     0.029 A 
ATOM     50  N   UNL A   1      41.584  33.585  34.073  1.00  0.00    -0.354 N 
ATOM     51  C   UNL A   1      39.988  29.402  30.727  1.00  0.00     0.074 A 
ATOM     52  C   UNL A   1      38.714  29.968  30.352  1.00  0.00     0.031 C 
ATOM     53  C   UNL A   1      43.403  32.422  33.394  1.00  0.00     0.029 A 
ATOM     54  C   UNL A   1      42.786  33.022  34.564  1.00  0.00     0.049 A 
ATOM     55  H   UNL A   1      41.132  34.399  34.394  1.00  0.00     0.167 HD
ATOM     56  C   UNL A   1      40.814  28.436  30.227  1.00  0.00     0.037 A 
ATOM     57  C   UNL A   1      42.860  32.513  35.828  1.00  0.00     0.037 A 
ATOM     58  C   UNL A   1      42.049  28.354  31.002  1.00  0.00     0.049 A 
ATOM     59  C   UNL A   1      43.209  31.044  35.876  1.00  0.00     0.074 A 
ATOM     60  C   UNL A   1      43.310  28.899  30.818  1.00  0.00     0.029 A 
ATOM     61  N   UNL A   1      42.000  27.914  32.320  1.00  0.00    -0.354 N 
ATOM     62  N   UNL A   1      43.077  30.234  34.864  1.00  0.00    -0.248 NA
ATOM     63  C   UNL A   1      43.699  30.366  37.073  1.00  0.00     0.031 C 
ATOM     64  C   UNL A   1      43.996  28.848  32.057  1.00  0.00     0.029 A 
ATOM     65  C   UNL A   1      43.164  28.246  32.984  1.00  0.00     0.049 A 
ATOM     66  H   UNL A   1      41.240  27.433  32.722  1.00  0.00     0.167 HD
ATOM     67  C   UNL A   1      43.426  28.966  35.244  1.00  0.00     0.074 A 
ATOM     68  C   UNL A   1      43.826  29.101  36.631  1.00  0.00     0.031 C 
ATOM     69  C   UNL A   1      43.342  27.907  34.386  1.00  0.00     0.037 A 
BRANCH  56  70
ATOM     70  C   UNL A   1      40.630  27.775  28.877  1.00  0.00     0.064 A 
ATOM     71  C   UNL A   1      39.805  26.636  28.735  1.00  0.00     0.173 A 
ATOM     72  C   UNL A   1      41.280  28.175  27.696  1.00  0.00     0.173 A 
ATOM     73  F   UNL A   1      39.033  26.200  29.739  1.00  0.00    -0.203 F 
ATOM     74  C   UNL A   1      39.740  25.894  27.552  1.00  0.00     0.198 A 
ATOM     75  C   UNL A   1      41.263  27.402  26.529  1.00  0.00     0.198 A 
ATOM     76  F   UNL A   1      41.905  29.356  27.613  1.00  0.00    -0.203 F 
ATOM     77  F   UNL A   1      38.945  24.817  27.485  1.00  0.00    -0.200 F 
ATOM     78  C   UNL A   1      40.502  26.254  26.461  1.00  0.00     0.200 A 
ATOM     79  F   UNL A   1      41.989  27.784  25.468  1.00  0.00    -0.200 F 
ATOM     80  F   UNL A   1      40.481  25.515  25.343  1.00  0.00    -0.200 F 
ENDBRANCH  56  70
BRANCH  57  81
ATOM     81  C   UNL A   1      41.966  33.216  36.789  1.00  0.00     0.064 A 
ATOM     82  C   UNL A   1      42.382  34.465  37.291  1.00  0.00     0.173 A 
ATOM     83  C   UNL A   1      40.607  32.896  36.896  1.00  0.00     0.173 A 
ATOM     84  F   UNL A   1      43.674  34.821  37.209  1.00  0.00    -0.203 F 
ATOM     85  C   UNL A   1      41.464  35.400  37.760  1.00  0.00     0.198 A 
ATOM     86  C   UNL A   1      39.692  33.831  37.385  1.00  0.00     0.198 A 
ATOM     87  F   UNL A   1      40.144  31.732  36.421  1.00  0.00    -0.203 F 
ATOM     88  F   UNL A   1      41.879  36.624  38.116  1.00  0.00    -0.200 F 
ATOM     89  C   UNL A   1      40.115  35.093  37.780  1.00  0.00     0.200 A 
ATOM     90  F   UNL A   1      38.381  33.546  37.377  1.00  0.00    -0.200 F 
ATOM     91  F   UNL A   1      39.219  36.023  38.137  1.00  0.00    -0.200 F 
ENDBRANCH  57  81
BRANCH  69  92
ATOM     92  C   UNL A   1      43.490  26.456  34.761  1.00  0.00     0.064 A 
ATOM     93  C   UNL A   1      42.405  25.610  35.039  1.00  0.00     0.173 A 
ATOM     94  C   UNL A   1      44.756  25.826  34.684  1.00  0.00     0.173 A 
ATOM     95  F   UNL A   1      41.146  26.071  35.034  1.00  0.00    -0.203 F 
ATOM     96  C   UNL A   1      42.578  24.243  35.274  1.00  0.00     0.198 A 
ATOM     97  C   UNL A   1      44.918  24.454  34.862  1.00  0.00     0.198 A 
ATOM     98  F   UNL A   1      45.867  26.524  34.407  1.00  0.00    -0.203 F 
ATOM     99  F   UNL A   1      41.515  23.482  35.569  1.00  0.00    -0.200 F 
ATOM    100  C   UNL A   1      43.830  23.663  35.170  1.00  0.00     0.200 A 
ATOM    101  F   UNL A   1      46.128  23.900  34.708  1.00  0.00    -0.200 F 
ATOM    102  F   UNL A   1      43.982  22.345  35.344  1.00  0.00    -0.200 F 
ENDBRANCH  69  92
ENDBRANCH  43  44
ENDBRANCH  35  38
ENDBRANCH  33  34
ENDBRANCH  32  33
ENDBRANCH  31  32
ENDBRANCH   1  31
TORSDOF 17
ENDMDL
MODEL 3
REMARK VINA RESULT:     -12.6      5.993      8.972
REMARK SMILES CCN(c1cccc(C)c1)c1nc(OCC(=O)NCCCCNC(=O)c2ccc(-c3c4nc(c(-c5c(F)c(F)c(F)c(F)c5F)c5ccc([nH]5)c(-c5c(F)c(F)c(F)c(F)c5F)c5nc(c(-c6c(F)c(F)c(F)c(F)c6F)c6ccc3[nH]6)C=C5)C=C4)cc2)cc(-c2ccc(C)cc2)n1
REMARK SMILES IDX 19 1 18 2 16 3 17 4 15 6 14 7 13 8 11 9 12 10 98 11 90 12
REMARK SMILES IDX 89 13 3 14 2 15 1 16 4 17 5 18 10 19 6 20 8 21 7 22 9 23
REMARK SMILES IDX 91 24 92 25 97 26 93 27 96 28 94 29 95 30 20 31 21 32 22 33
REMARK SMILES IDX 23 34 24 35 25 37 26 38 27 39 88 40 28 41 87 42 29 43 30 44
REMARK SMILES IDX 31 45 81 46 32 47 86 48 80 49 82 50 33 51 85 52 79 53 78 54
REMARK SMILES IDX 34 56 66 57 46 58 65 59 47 60 50 61 64 62 83 63 48 64 49 65
REMARK SMILES IDX 63 67 84 68 51 69 35 70 36 71 44 72 37 73 38 74 42 75 45 76
REMARK SMILES IDX 39 77 40 78 43 79 41 80 67 81 68 82 76 83 69 84 70 85 74 86
REMARK SMILES IDX 77 87 71 88 72 89 75 90 73 91 52 92 53 93 61 94 54 95 55 96
REMARK SMILES IDX 59 97 62 98 56 99 57 100 60 101 58 102
REMARK H PARENT 18 5 23 36 82 55 50 66
REMARK Flexibility Score: inf
ROOT
ATOM      1  C   UNL A   1      44.654  21.390  24.673  1.00  0.00     0.116 C 
ENDROOT
BRANCH   1   2
ATOM      2  N   UNL A   1      44.916  20.001  25.003  1.00  0.00    -0.353 N 
ATOM      3  C   UNL A   1      44.055  19.049  25.462  1.00  0.00     0.258 C 
ATOM      4  O   UNL A   1      44.490  17.913  25.669  1.00  0.00    -0.271 OA
ATOM      5  H   UNL A   1      45.847  19.704  24.879  1.00  0.00     0.163 HD
BRANCH   3   6
ATOM      6  C   UNL A   1      42.578  19.388  25.693  1.00  0.00     0.331 C 
BRANCH   6   7
ATOM      7  O   UNL A   1      42.240  20.012  26.917  1.00  0.00    -0.467 OA
BRANCH   7   8
ATOM      8  C   UNL A   1      41.310  21.010  26.891  1.00  0.00     0.219 A 
ATOM      9  C   UNL A   1      39.243  21.580  26.028  1.00  0.00     0.233 A 
ATOM     10  N   UNL A   1      40.210  20.664  26.208  1.00  0.00    -0.177 NA
ATOM     11  N   UNL A   1      39.343  22.829  26.507  1.00  0.00    -0.212 NA
ATOM     12  C   UNL A   1      40.425  23.132  27.248  1.00  0.00     0.080 A 
ATOM     13  C   UNL A   1      41.448  22.239  27.472  1.00  0.00     0.097 A 
BRANCH   9  14
ATOM     14  N   UNL A   1      38.090  21.190  25.327  1.00  0.00    -0.311 N 
BRANCH  14  15
ATOM     15  C   UNL A   1      38.040  19.789  24.897  1.00  0.00     0.122 C 
ATOM     16  C   UNL A   1      36.625  19.228  24.827  1.00  0.00     0.028 C 
ENDBRANCH  14  15
BRANCH  14  17
ATOM     17  C   UNL A   1      36.998  22.039  25.060  1.00  0.00     0.044 A 
ATOM     18  C   UNL A   1      36.838  22.714  23.843  1.00  0.00     0.026 A 
ATOM     19  C   UNL A   1      35.998  22.224  26.035  1.00  0.00     0.029 A 
ATOM     20  C   UNL A   1      35.737  23.550  23.614  1.00  0.00     0.002 A 
ATOM     21  C   UNL A   1      34.894  23.066  25.824  1.00  0.00    -0.049 A 
ATOM     22  C   UNL A   1      34.773  23.730  24.604  1.00  0.00     0.003 A 
ATOM     23  C   UNL A   1      33.879  23.248  26.913  1.00  0.00     0.044 C 
ENDBRANCH  14  17
ENDBRANCH   9  14
BRANCH  12  24
ATOM     24  C   UNL A   1      40.451  24.458  27.871  1.00  0.00     0.000 A 
ATOM     25  C   UNL A   1      39.291  25.244  27.948  1.00  0.00     0.010 A 
ATOM     26  C   UNL A   1      41.661  25.013  28.311  1.00  0.00     0.010 A 
ATOM     27  C   UNL A   1      39.346  26.561  28.413  1.00  0.00     0.004 A 
ATOM     28  C   UNL A   1      41.720  26.332  28.766  1.00  0.00     0.004 A 
ATOM     29  C   UNL A   1      40.565  27.120  28.810  1.00  0.00    -0.051 A 
ATOM     30  C   UNL A   1      40.651  28.555  29.236  1.00  0.00     0.044 C 
ENDBRANCH  12  24
ENDBRANCH   7   8
ENDBRANCH   6   7
ENDBRANCH   3   6
ENDBRANCH   1   2
BRANCH   1  31
ATOM     31  C   UNL A   1      44.903  22.357  25.838  1.00  0.00     0.023 C 
BRANCH  31  32
ATOM     32  C   UNL A   1      45.622  23.662  25.486  1.00  0.00     0.023 C 
BRANCH  32  33
ATOM     33  C   UNL A   1      46.869  23.949  26.311  1.00  0.00     0.116 C 
BRANCH  33  34
ATOM     34  N   UNL A   1      47.154  25.360  26.523  1.00  0.00    -0.352 N 
ATOM     35  C   UNL A   1      46.898  26.168  27.623  1.00  0.00     0.251 C 
ATOM     36  H   UNL A   1      47.597  25.812  25.769  1.00  0.00     0.163 HD
ATOM     37  O   UNL A   1      47.111  27.362  27.559  1.00  0.00    -0.269 OA
BRANCH  35  38
ATOM     38  C   UNL A   1      46.499  25.557  28.922  1.00  0.00     0.039 A 
ATOM     39  C   UNL A   1      45.278  24.867  28.974  1.00  0.00     0.014 A 
ATOM     40  C   UNL A   1      47.201  25.801  30.096  1.00  0.00     0.014 A 
ATOM     41  C   UNL A   1      44.654  24.662  30.204  1.00  0.00     0.010 A 
ATOM     42  C   UNL A   1      46.543  25.701  31.303  1.00  0.00     0.010 A 
ATOM     43  C   UNL A   1      45.241  25.196  31.347  1.00  0.00    -0.014 A 
BRANCH  43  44
ATOM     44  C   UNL A   1      44.538  25.391  32.607  1.00  0.00     0.031 A 
ATOM     45  C   UNL A   1      43.949  26.702  32.947  1.00  0.00     0.074 A 
ATOM     46  C   UNL A   1      44.289  24.305  33.372  1.00  0.00     0.049 A 
ATOM     47  N   UNL A   1      43.591  27.053  34.135  1.00  0.00    -0.248 NA
ATOM     48  C   UNL A   1      43.739  27.748  31.954  1.00  0.00     0.031 C 
ATOM     49  C   UNL A   1      43.333  24.184  34.469  1.00  0.00     0.029 A 
ATOM     50  N   UNL A   1      45.014  23.101  33.410  1.00  0.00    -0.354 N 
ATOM     51  C   UNL A   1      42.879  28.228  34.033  1.00  0.00     0.074 A 
ATOM     52  C   UNL A   1      43.043  28.644  32.660  1.00  0.00     0.031 C 
ATOM     53  C   UNL A   1      43.698  23.155  35.250  1.00  0.00     0.029 A 
ATOM     54  C   UNL A   1      44.986  22.689  34.763  1.00  0.00     0.049 A 
ATOM     55  H   UNL A   1      45.451  22.642  32.656  1.00  0.00     0.167 HD
ATOM     56  C   UNL A   1      42.132  28.645  35.098  1.00  0.00     0.037 A 
ATOM     57  C   UNL A   1      46.127  22.641  35.509  1.00  0.00     0.037 A 
ATOM     58  C   UNL A   1      42.321  27.761  36.245  1.00  0.00     0.049 A 
ATOM     59  C   UNL A   1      46.104  23.542  36.721  1.00  0.00     0.074 A 
ATOM     60  C   UNL A   1      41.595  26.684  36.727  1.00  0.00     0.029 A 
ATOM     61  N   UNL A   1      43.559  27.715  36.874  1.00  0.00    -0.354 N 
ATOM     62  N   UNL A   1      45.286  24.548  36.862  1.00  0.00    -0.248 NA
ATOM     63  C   UNL A   1      47.020  23.406  37.851  1.00  0.00     0.031 C 
ATOM     64  C   UNL A   1      42.432  25.946  37.601  1.00  0.00     0.029 A 
ATOM     65  C   UNL A   1      43.654  26.591  37.671  1.00  0.00     0.049 A 
ATOM     66  H   UNL A   1      44.268  28.389  36.767  1.00  0.00     0.167 HD
ATOM     67  C   UNL A   1      45.552  25.193  38.040  1.00  0.00     0.074 A 
ATOM     68  C   UNL A   1      46.634  24.431  38.633  1.00  0.00     0.031 C 
ATOM     69  C   UNL A   1      44.868  26.311  38.420  1.00  0.00     0.037 A 
BRANCH  56  70
ATOM     70  C   UNL A   1      41.022  29.672  35.008  1.00  0.00     0.064 A 
ATOM     71  C   UNL A   1      41.033  30.823  35.828  1.00  0.00     0.173 A 
ATOM     72  C   UNL A   1      39.891  29.555  34.180  1.00  0.00     0.173 A 
ATOM     73  F   UNL A   1      42.090  31.133  36.588  1.00  0.00    -0.203 F 
ATOM     74  C   UNL A   1      39.951  31.706  35.902  1.00  0.00     0.198 A 
ATOM     75  C   UNL A   1      38.784  30.404  34.295  1.00  0.00     0.198 A 
ATOM     76  F   UNL A   1      39.845  28.654  33.191  1.00  0.00    -0.203 F 
ATOM     77  F   UNL A   1      40.019  32.775  36.707  1.00  0.00    -0.200 F 
ATOM     78  C   UNL A   1      38.809  31.473  35.166  1.00  0.00     0.200 A 
ATOM     79  F   UNL A   1      37.693  30.178  33.549  1.00  0.00    -0.200 F 
ATOM     80  F   UNL A   1      37.752  32.289  35.274  1.00  0.00    -0.200 F 
ENDBRANCH  56  70
BRANCH  57  81
ATOM     81  C   UNL A   1      47.335  22.320  34.700  1.00  0.00     0.064 A 
ATOM     82  C   UNL A   1      48.209  23.374  34.367  1.00  0.00     0.173 A 
ATOM     83  C   UNL A   1      47.831  21.014  34.606  1.00  0.00     0.173 A 
ATOM     84  F   UNL A   1      47.784  24.645  34.443  1.00  0.00    -0.203 F 
ATOM     85  C   UNL A   1      49.551  23.139  34.079  1.00  0.00     0.198 A 
ATOM     86  C   UNL A   1      49.173  20.783  34.299  1.00  0.00     0.198 A 
ATOM     87  F   UNL A   1      47.056  19.969  34.927  1.00  0.00    -0.203 F 
ATOM     88  F   UNL A   1      50.384  24.172  33.887  1.00  0.00    -0.200 F 
ATOM     89  C   UNL A   1      50.039  21.844  34.073  1.00  0.00     0.200 A 
ATOM     90  F   UNL A   1      49.655  19.531  34.322  1.00  0.00    -0.200 F 
ATOM     91  F   UNL A   1      51.348  21.620  33.894  1.00  0.00    -0.200 F 
ENDBRANCH  57  81
BRANCH  69  92
ATOM     92  C   UNL A   1      45.225  27.212  39.573  1.00  0.00     0.064 A 
ATOM     93  C   UNL A   1      45.857  28.456  39.421  1.00  0.00     0.173 A 
ATOM     94  C   UNL A   1      44.774  26.907  40.880  1.00  0.00     0.173 A 
ATOM     95  F   UNL A   1      46.233  28.901  38.214  1.00  0.00    -0.203 F 
ATOM     96  C   UNL A   1      46.069  29.311  40.506  1.00  0.00     0.198 A 
ATOM     97  C   UNL A   1      44.936  27.788  41.948  1.00  0.00     0.198 A 
ATOM     98  F   UNL A   1      44.139  25.757  41.150  1.00  0.00    -0.203 F 
ATOM     99  F   UNL A   1      46.708  30.474  40.317  1.00  0.00    -0.200 F 
ATOM    100  C   UNL A   1      45.596  28.985  41.764  1.00  0.00     0.200 A 
ATOM    101  F   UNL A   1      44.428  27.478  43.149  1.00  0.00    -0.200 F 
ATOM    102  F   UNL A   1      45.756  29.831  42.789  1.00  0.00    -0.200 F 
ENDBRANCH  69  92
ENDBRANCH  43  44
ENDBRANCH  35  38
ENDBRANCH  33  34
ENDBRANCH  32  33
ENDBRANCH  31  32
ENDBRANCH   1  31
TORSDOF 17
ENDMDL
