MODEL 1
REMARK VINA RESULT:     -12.7      0.000      0.000
REMARK SMILES Nc1cc(C(=O)NCCCCNC(=O)c2ccc(-c3c4nc(c(-c5c(F)c(F)c(F)c(F)c5F)c5ccc([nH]5)c(-c5c(F)c(F)c(F)c(F)c5F)c5nc(c(-c6c(F)c(F)c(F)c(F)c6F)c6ccc3[nH]6)C=C5)C=C4)cc2)c(-c2ccc(F)cc2O)cn1
REMARK SMILES IDX 9 1 8 2 7 3 5 4 6 5 4 7 2 8 3 9 88 10 87 11 78 12 1 13 79 16
REMARK SMILES IDX 80 17 85 18 81 19 84 20 82 21 83 22 86 23 10 25 11 26 12 27
REMARK SMILES IDX 13 28 14 30 15 31 16 32 77 33 17 34 76 35 18 36 19 37 20 38
REMARK SMILES IDX 70 39 21 40 75 41 69 42 71 43 22 44 74 45 68 46 67 47 23 49
REMARK SMILES IDX 55 50 35 51 54 52 36 53 39 54 53 55 72 56 37 57 38 58 52 60
REMARK SMILES IDX 73 61 40 62 24 63 25 64 33 65 26 66 27 67 31 68 34 69 28 70
REMARK SMILES IDX 29 71 32 72 30 73 56 74 57 75 65 76 58 77 59 78 63 79 66 80
REMARK SMILES IDX 60 81 61 82 64 83 62 84 41 85 42 86 50 87 43 88 44 89 48 90
REMARK SMILES IDX 51 91 45 92 46 93 49 94 47 95
REMARK H PARENT 7 6 1 14 1 15 86 24 12 29 71 48 39 59
REMARK Flexibility Score: inf
ROOT
ATOM      1  C   UNL A   1      36.489  20.358  25.046  1.00  0.00     0.023 C 
ENDROOT
BRANCH   1   2
ATOM      2  C   UNL A   1      36.148  21.795  25.455  1.00  0.00     0.116 C 
BRANCH   2   3
ATOM      3  N   UNL A   1      35.673  22.531  24.303  1.00  0.00    -0.352 N 
ATOM      4  C   UNL A   1      34.442  22.983  23.900  1.00  0.00     0.252 C 
ATOM      5  O   UNL A   1      34.383  23.288  22.707  1.00  0.00    -0.269 OA
ATOM      6  H   UNL A   1      36.391  22.757  23.668  1.00  0.00     0.163 HD
BRANCH   4   7
ATOM      7  C   UNL A   1      33.229  23.119  24.776  1.00  0.00     0.052 A 
ATOM      8  C   UNL A   1      31.740  24.480  26.116  1.00  0.00     0.124 A 
ATOM      9  C   UNL A   1      32.914  24.337  25.395  1.00  0.00     0.061 A 
ATOM     10  N   UNL A   1      30.903  23.465  26.326  1.00  0.00    -0.239 NA
ATOM     11  C   UNL A   1      31.249  22.267  25.804  1.00  0.00     0.123 A 
ATOM     12  C   UNL A   1      32.384  22.012  25.022  1.00  0.00     0.017 A 
BRANCH   8  13
ATOM     13  N   UNL A   1      31.414  25.685  26.706  1.00  0.00    -0.384 N 
ATOM     14  H   UNL A   1      31.201  26.465  26.145  1.00  0.00     0.158 HD
ATOM     15  H   UNL A   1      31.394  25.763  27.686  1.00  0.00     0.158 HD
ENDBRANCH   8  13
BRANCH  12  16
ATOM     16  C   UNL A   1      32.590  20.615  24.579  1.00  0.00     0.026 A 
ATOM     17  C   UNL A   1      32.305  20.239  23.253  1.00  0.00     0.015 A 
ATOM     18  C   UNL A   1      32.976  19.589  25.465  1.00  0.00     0.126 A 
ATOM     19  C   UNL A   1      32.411  18.904  22.845  1.00  0.00     0.040 A 
ATOM     20  C   UNL A   1      33.080  18.259  25.072  1.00  0.00     0.086 A 
ATOM     21  C   UNL A   1      32.799  17.930  23.758  1.00  0.00     0.126 A 
ATOM     22  F   UNL A   1      32.908  16.656  23.358  1.00  0.00    -0.207 F 
BRANCH  18  23
ATOM     23  O   UNL A   1      33.343  19.877  26.753  1.00  0.00    -0.507 OA
ATOM     24  H   UNL A   1      33.966  20.557  26.921  1.00  0.00     0.293 HD
ENDBRANCH  18  23
ENDBRANCH  12  16
ENDBRANCH   4   7
ENDBRANCH   2   3
ENDBRANCH   1   2
BRANCH   1  25
ATOM     25  C   UNL A   1      37.957  20.149  24.645  1.00  0.00     0.023 C 
BRANCH  25  26
ATOM     26  C   UNL A   1      38.967  20.327  25.774  1.00  0.00     0.116 C 
BRANCH  26  27
ATOM     27  N   UNL A   1      39.922  19.235  25.865  1.00  0.00    -0.352 N 
ATOM     28  C   UNL A   1      41.269  19.290  26.128  1.00  0.00     0.251 C 
ATOM     29  H   UNL A   1      39.554  18.333  25.719  1.00  0.00     0.163 HD
ATOM     30  O   UNL A   1      41.954  18.277  26.072  1.00  0.00    -0.269 OA
BRANCH  28  31
ATOM     31  C   UNL A   1      41.893  20.593  26.435  1.00  0.00     0.039 A 
ATOM     32  C   UNL A   1      42.170  21.465  25.379  1.00  0.00     0.014 A 
ATOM     33  C   UNL A   1      42.182  20.958  27.752  1.00  0.00     0.014 A 
ATOM     34  C   UNL A   1      42.678  22.735  25.652  1.00  0.00     0.010 A 
ATOM     35  C   UNL A   1      42.631  22.245  28.026  1.00  0.00     0.010 A 
ATOM     36  C   UNL A   1      42.881  23.146  26.979  1.00  0.00    -0.014 A 
BRANCH  36  37
ATOM     37  C   UNL A   1      43.344  24.519  27.293  1.00  0.00     0.031 A 
ATOM     38  C   UNL A   1      42.381  25.534  27.839  1.00  0.00     0.074 A 
ATOM     39  C   UNL A   1      44.617  24.868  27.022  1.00  0.00     0.049 A 
ATOM     40  N   UNL A   1      42.576  26.800  28.106  1.00  0.00    -0.248 NA
ATOM     41  C   UNL A   1      41.009  25.070  28.094  1.00  0.00     0.031 C 
ATOM     42  C   UNL A   1      45.632  23.983  26.446  1.00  0.00     0.029 A 
ATOM     43  N   UNL A   1      45.272  26.062  27.184  1.00  0.00    -0.354 N 
ATOM     44  C   UNL A   1      41.352  27.285  28.545  1.00  0.00     0.074 A 
ATOM     45  C   UNL A   1      40.408  26.191  28.464  1.00  0.00     0.031 C 
ATOM     46  C   UNL A   1      46.784  24.660  26.318  1.00  0.00     0.029 A 
ATOM     47  C   UNL A   1      46.581  26.033  26.771  1.00  0.00     0.049 A 
ATOM     48  H   UNL A   1      44.844  26.865  27.561  1.00  0.00     0.167 HD
ATOM     49  C   UNL A   1      41.050  28.525  28.999  1.00  0.00     0.037 A 
ATOM     50  C   UNL A   1      47.511  27.006  26.755  1.00  0.00     0.037 A 
ATOM     51  C   UNL A   1      42.000  29.602  29.105  1.00  0.00     0.049 A 
ATOM     52  C   UNL A   1      47.148  28.374  27.267  1.00  0.00     0.074 A 
ATOM     53  C   UNL A   1      41.805  30.877  29.606  1.00  0.00     0.029 A 
ATOM     54  N   UNL A   1      43.325  29.527  28.702  1.00  0.00    -0.354 N 
ATOM     55  N   UNL A   1      46.005  28.803  27.744  1.00  0.00    -0.248 NA
ATOM     56  C   UNL A   1      48.209  29.391  27.246  1.00  0.00     0.031 C 
ATOM     57  C   UNL A   1      43.004  31.586  29.472  1.00  0.00     0.029 A 
ATOM     58  C   UNL A   1      43.956  30.739  28.927  1.00  0.00     0.049 A 
ATOM     59  H   UNL A   1      43.753  28.730  28.313  1.00  0.00     0.167 HD
ATOM     60  C   UNL A   1      46.215  30.127  28.104  1.00  0.00     0.074 A 
ATOM     61  C   UNL A   1      47.599  30.427  27.805  1.00  0.00     0.031 C 
ATOM     62  C   UNL A   1      45.338  31.015  28.633  1.00  0.00     0.037 A 
BRANCH  49  63
ATOM     63  C   UNL A   1      39.635  28.783  29.425  1.00  0.00     0.064 A 
ATOM     64  C   UNL A   1      39.208  28.536  30.739  1.00  0.00     0.173 A 
ATOM     65  C   UNL A   1      38.705  29.319  28.522  1.00  0.00     0.173 A 
ATOM     66  F   UNL A   1      40.056  28.011  31.636  1.00  0.00    -0.203 F 
ATOM     67  C   UNL A   1      37.897  28.795  31.126  1.00  0.00     0.198 A 
ATOM     68  C   UNL A   1      37.401  29.604  28.921  1.00  0.00     0.198 A 
ATOM     69  F   UNL A   1      39.062  29.577  27.255  1.00  0.00    -0.203 F 
ATOM     70  F   UNL A   1      37.501  28.511  32.375  1.00  0.00    -0.200 F 
ATOM     71  C   UNL A   1      36.996  29.335  30.221  1.00  0.00     0.200 A 
ATOM     72  F   UNL A   1      36.535  30.135  28.048  1.00  0.00    -0.200 F 
ATOM     73  F   UNL A   1      35.736  29.591  30.598  1.00  0.00    -0.200 F 
ENDBRANCH  49  63
BRANCH  50  74
ATOM     74  C   UNL A   1      48.881  26.719  26.258  1.00  0.00     0.064 A 
ATOM     75  C   UNL A   1      49.242  27.014  24.936  1.00  0.00     0.173 A 
ATOM     76  C   UNL A   1      49.852  26.135  27.086  1.00  0.00     0.173 A 
ATOM     77  F   UNL A   1      48.342  27.554  24.102  1.00  0.00    -0.203 F 
ATOM     78  C   UNL A   1      50.514  26.715  24.454  1.00  0.00     0.198 A 
ATOM     79  C   UNL A   1      51.132  25.861  26.609  1.00  0.00     0.198 A 
ATOM     80  F   UNL A   1      49.558  25.838  28.360  1.00  0.00    -0.203 F 
ATOM     81  F   UNL A   1      50.817  26.964  23.172  1.00  0.00    -0.200 F 
ATOM     82  C   UNL A   1      51.459  26.142  25.292  1.00  0.00     0.200 A 
ATOM     83  F   UNL A   1      52.046  25.321  27.426  1.00  0.00    -0.200 F 
ATOM     84  F   UNL A   1      52.683  25.855  24.827  1.00  0.00    -0.200 F 
ENDBRANCH  50  74
BRANCH  62  85
ATOM     85  C   UNL A   1      45.860  32.384  28.956  1.00  0.00     0.064 A 
ATOM     86  C   UNL A   1      46.456  32.670  30.193  1.00  0.00     0.173 A 
ATOM     87  C   UNL A   1      45.799  33.410  28.001  1.00  0.00     0.173 A 
ATOM     88  F   UNL A   1      46.525  31.725  31.144  1.00  0.00    -0.203 F 
ATOM     89  C   UNL A   1      46.951  33.941  30.471  1.00  0.00     0.198 A 
ATOM     90  C   UNL A   1      46.319  34.672  28.273  1.00  0.00     0.198 A 
ATOM     91  F   UNL A   1      45.243  33.185  26.801  1.00  0.00    -0.203 F 
ATOM     92  F   UNL A   1      47.476  34.205  31.675  1.00  0.00    -0.200 F 
ATOM     93  C   UNL A   1      46.889  34.938  29.508  1.00  0.00     0.200 A 
ATOM     94  F   UNL A   1      46.270  35.630  27.337  1.00  0.00    -0.200 F 
ATOM     95  F   UNL A   1      47.373  36.160  29.775  1.00  0.00    -0.200 F 
ENDBRANCH  62  85
ENDBRANCH  36  37
ENDBRANCH  28  31
ENDBRANCH  26  27
ENDBRANCH  25  26
ENDBRANCH   1  25
TORSDOF 14
ENDMDL
MODEL 2
REMARK VINA RESULT:     -12.7      0.142      1.608
REMARK SMILES Nc1cc(C(=O)NCCCCNC(=O)c2ccc(-c3c4nc(c(-c5c(F)c(F)c(F)c(F)c5F)c5ccc([nH]5)c(-c5c(F)c(F)c(F)c(F)c5F)c5nc(c(-c6c(F)c(F)c(F)c(F)c6F)c6ccc3[nH]6)C=C5)C=C4)cc2)c(-c2ccc(F)cc2O)cn1
REMARK SMILES IDX 9 1 8 2 7 3 5 4 6 5 4 7 2 8 3 9 88 10 87 11 78 12 1 13 79 16
REMARK SMILES IDX 80 17 85 18 81 19 84 20 82 21 83 22 86 23 10 25 11 26 12 27
REMARK SMILES IDX 13 28 14 30 15 31 16 32 77 33 17 34 76 35 18 36 19 37 20 38
REMARK SMILES IDX 70 39 21 40 75 41 69 42 71 43 22 44 74 45 68 46 67 47 23 49
REMARK SMILES IDX 55 50 35 51 54 52 36 53 39 54 53 55 72 56 37 57 38 58 52 60
REMARK SMILES IDX 73 61 40 62 24 63 25 64 33 65 26 66 27 67 31 68 34 69 28 70
REMARK SMILES IDX 29 71 32 72 30 73 56 74 57 75 65 76 58 77 59 78 63 79 66 80
REMARK SMILES IDX 60 81 61 82 64 83 62 84 41 85 42 86 50 87 43 88 44 89 48 90
REMARK SMILES IDX 51 91 45 92 46 93 49 94 47 95
REMARK H PARENT 7 6 1 14 1 15 86 24 12 29 71 48 39 59
REMARK Flexibility Score: inf
ROOT
ATOM      1  C   UNL A   1      36.480  20.287  25.012  1.00  0.00     0.023 C 
ENDROOT
BRANCH   1   2
ATOM      2  C   UNL A   1      36.113  21.708  25.452  1.00  0.00     0.116 C 
BRANCH   2   3
ATOM      3  N   UNL A   1      35.660  22.472  24.310  1.00  0.00    -0.352 N 
ATOM      4  C   UNL A   1      34.438  22.943  23.898  1.00  0.00     0.252 C 
ATOM      5  O   UNL A   1      34.400  23.274  22.712  1.00  0.00    -0.269 OA
ATOM      6  H   UNL A   1      36.389  22.706  23.691  1.00  0.00     0.163 HD
BRANCH   4   7
ATOM      7  C   UNL A   1      33.214  23.070  24.760  1.00  0.00     0.052 A 
ATOM      8  C   UNL A   1      31.708  24.416  26.095  1.00  0.00     0.124 A 
ATOM      9  C   UNL A   1      32.892  24.280  25.389  1.00  0.00     0.061 A 
ATOM     10  N   UNL A   1      30.867  23.399  26.281  1.00  0.00    -0.239 NA
ATOM     11  C   UNL A   1      31.219  22.207  25.749  1.00  0.00     0.123 A 
ATOM     12  C   UNL A   1      32.364  21.960  24.980  1.00  0.00     0.017 A 
BRANCH   8  13
ATOM     13  N   UNL A   1      31.375  25.613  26.696  1.00  0.00    -0.384 N 
ATOM     14  H   UNL A   1      31.207  25.647  27.666  1.00  0.00     0.158 HD
ATOM     15  H   UNL A   1      31.306  26.432  26.156  1.00  0.00     0.158 HD
ENDBRANCH   8  13
BRANCH  12  16
ATOM     16  C   UNL A   1      32.575  20.569  24.522  1.00  0.00     0.026 A 
ATOM     17  C   UNL A   1      32.317  20.212  23.185  1.00  0.00     0.015 A 
ATOM     18  C   UNL A   1      32.938  19.530  25.403  1.00  0.00     0.126 A 
ATOM     19  C   UNL A   1      32.428  18.883  22.761  1.00  0.00     0.040 A 
ATOM     20  C   UNL A   1      33.046  18.204  24.993  1.00  0.00     0.086 A 
ATOM     21  C   UNL A   1      32.791  17.894  23.669  1.00  0.00     0.126 A 
ATOM     22  F   UNL A   1      32.905  16.626  23.254  1.00  0.00    -0.207 F 
BRANCH  18  23
ATOM     23  O   UNL A   1      33.278  19.799  26.701  1.00  0.00    -0.507 OA
ATOM     24  H   UNL A   1      33.167  20.664  27.045  1.00  0.00     0.293 HD
ENDBRANCH  18  23
ENDBRANCH  12  16
ENDBRANCH   4   7
ENDBRANCH   2   3
ENDBRANCH   1   2
BRANCH   1  25
ATOM     25  C   UNL A   1      37.955  20.109  24.625  1.00  0.00     0.023 C 
BRANCH  25  26
ATOM     26  C   UNL A   1      38.949  20.280  25.770  1.00  0.00     0.116 C 
BRANCH  26  27
ATOM     27  N   UNL A   1      39.900  19.186  25.870  1.00  0.00    -0.352 N 
ATOM     28  C   UNL A   1      41.248  19.240  26.127  1.00  0.00     0.251 C 
ATOM     29  H   UNL A   1      39.528  18.284  25.737  1.00  0.00     0.163 HD
ATOM     30  O   UNL A   1      41.929  18.224  26.081  1.00  0.00    -0.269 OA
BRANCH  28  31
ATOM     31  C   UNL A   1      41.878  20.544  26.415  1.00  0.00     0.039 A 
ATOM     32  C   UNL A   1      42.186  21.388  25.345  1.00  0.00     0.014 A 
ATOM     33  C   UNL A   1      42.142  20.939  27.729  1.00  0.00     0.014 A 
ATOM     34  C   UNL A   1      42.701  22.659  25.597  1.00  0.00     0.010 A 
ATOM     35  C   UNL A   1      42.598  22.229  27.981  1.00  0.00     0.010 A 
ATOM     36  C   UNL A   1      42.879  23.101  26.917  1.00  0.00    -0.014 A 
BRANCH  36  37
ATOM     37  C   UNL A   1      43.349  24.477  27.208  1.00  0.00     0.031 A 
ATOM     38  C   UNL A   1      42.397  25.498  27.761  1.00  0.00     0.074 A 
ATOM     39  C   UNL A   1      44.617  24.822  26.909  1.00  0.00     0.049 A 
ATOM     40  N   UNL A   1      42.597  26.768  28.010  1.00  0.00    -0.248 NA
ATOM     41  C   UNL A   1      41.029  25.038  28.047  1.00  0.00     0.031 C 
ATOM     42  C   UNL A   1      45.619  23.930  26.322  1.00  0.00     0.029 A 
ATOM     43  N   UNL A   1      45.275  26.018  27.045  1.00  0.00    -0.354 N 
ATOM     44  C   UNL A   1      41.382  27.257  28.468  1.00  0.00     0.074 A 
ATOM     45  C   UNL A   1      40.436  26.164  28.416  1.00  0.00     0.031 C 
ATOM     46  C   UNL A   1      46.769  24.605  26.165  1.00  0.00     0.029 A 
ATOM     47  C   UNL A   1      46.576  25.983  26.607  1.00  0.00     0.049 A 
ATOM     48  H   UNL A   1      44.854  26.824  27.421  1.00  0.00     0.167 HD
ATOM     49  C   UNL A   1      41.090  28.503  28.913  1.00  0.00     0.037 A 
ATOM     50  C   UNL A   1      47.505  26.956  26.562  1.00  0.00     0.037 A 
ATOM     51  C   UNL A   1      42.041  29.580  28.989  1.00  0.00     0.049 A 
ATOM     52  C   UNL A   1      47.153  28.330  27.067  1.00  0.00     0.074 A 
ATOM     53  C   UNL A   1      41.857  30.861  29.480  1.00  0.00     0.029 A 
ATOM     54  N   UNL A   1      43.358  29.500  28.562  1.00  0.00    -0.354 N 
ATOM     55  N   UNL A   1      46.019  28.764  27.561  1.00  0.00    -0.248 NA
ATOM     56  C   UNL A   1      48.214  29.346  27.015  1.00  0.00     0.031 C 
ATOM     57  C   UNL A   1      43.053  31.568  29.315  1.00  0.00     0.029 A 
ATOM     58  C   UNL A   1      43.994  30.714  28.762  1.00  0.00     0.049 A 
ATOM     59  H   UNL A   1      43.778  28.699  28.173  1.00  0.00     0.167 HD
ATOM     60  C   UNL A   1      46.236  30.092  27.902  1.00  0.00     0.074 A 
ATOM     61  C   UNL A   1      47.615  30.388  27.574  1.00  0.00     0.031 C 
ATOM     62  C   UNL A   1      45.371  30.986  28.438  1.00  0.00     0.037 A 
BRANCH  49  63
ATOM     63  C   UNL A   1      39.682  28.766  29.364  1.00  0.00     0.064 A 
ATOM     64  C   UNL A   1      39.287  28.557  30.693  1.00  0.00     0.173 A 
ATOM     65  C   UNL A   1      38.729  29.270  28.466  1.00  0.00     0.173 A 
ATOM     66  F   UNL A   1      40.158  28.064  31.586  1.00  0.00    -0.203 F 
ATOM     67  C   UNL A   1      37.984  28.821  31.103  1.00  0.00     0.198 A 
ATOM     68  C   UNL A   1      37.433  29.560  28.886  1.00  0.00     0.198 A 
ATOM     69  F   UNL A   1      39.056  29.492  27.184  1.00  0.00    -0.203 F 
ATOM     70  F   UNL A   1      37.617  28.572  32.368  1.00  0.00    -0.200 F 
ATOM     71  C   UNL A   1      37.060  29.329  30.202  1.00  0.00     0.200 A 
ATOM     72  F   UNL A   1      36.544  30.060  28.018  1.00  0.00    -0.200 F 
ATOM     73  F   UNL A   1      35.807  29.589  30.600  1.00  0.00    -0.200 F 
ENDBRANCH  49  63
BRANCH  50  74
ATOM     74  C   UNL A   1      48.866  26.663  26.043  1.00  0.00     0.064 A 
ATOM     75  C   UNL A   1      49.838  26.077  26.867  1.00  0.00     0.173 A 
ATOM     76  C   UNL A   1      49.227  26.971  24.723  1.00  0.00     0.173 A 
ATOM     77  F   UNL A   1      49.546  25.784  28.142  1.00  0.00    -0.203 F 
ATOM     78  C   UNL A   1      51.127  25.833  26.397  1.00  0.00     0.198 A 
ATOM     79  C   UNL A   1      50.509  26.701  24.247  1.00  0.00     0.198 A 
ATOM     80  F   UNL A   1      48.332  27.527  23.894  1.00  0.00    -0.203 F 
ATOM     81  F   UNL A   1      52.050  25.317  27.220  1.00  0.00    -0.200 F 
ATOM     82  C   UNL A   1      51.459  26.141  25.086  1.00  0.00     0.200 A 
ATOM     83  F   UNL A   1      50.822  26.987  22.976  1.00  0.00    -0.200 F 
ATOM     84  F   UNL A   1      52.699  25.905  24.635  1.00  0.00    -0.200 F 
ENDBRANCH  50  74
BRANCH  62  85
ATOM     85  C   UNL A   1      45.899  32.358  28.736  1.00  0.00     0.064 A 
ATOM     86  C   UNL A   1      45.807  33.399  27.801  1.00  0.00     0.173 A 
ATOM     87  C   UNL A   1      46.467  32.645  29.986  1.00  0.00     0.173 A 
ATOM     88  F   UNL A   1      45.285  33.171  26.585  1.00  0.00    -0.203 F 
ATOM     89  C   UNL A   1      46.286  34.672  28.098  1.00  0.00     0.198 A 
ATOM     90  C   UNL A   1      46.920  33.925  30.290  1.00  0.00     0.198 A 
ATOM     91  F   UNL A   1      46.572  31.684  30.917  1.00  0.00    -0.203 F 
ATOM     92  F   UNL A   1      46.228  35.640  27.174  1.00  0.00    -0.200 F 
ATOM     93  C   UNL A   1      46.835  34.935  29.345  1.00  0.00     0.200 A 
ATOM     94  F   UNL A   1      47.438  34.181  31.499  1.00  0.00    -0.200 F 
ATOM     95  F   UNL A   1      47.289  36.163  29.632  1.00  0.00    -0.200 F 
ENDBRANCH  62  85
ENDBRANCH  36  37
ENDBRANCH  28  31
ENDBRANCH  26  27
ENDBRANCH  25  26
ENDBRANCH   1  25
TORSDOF 14
ENDMDL
MODEL 3
REMARK VINA RESULT:     -12.6      6.007     11.350
REMARK SMILES Nc1cc(C(=O)NCCCCNC(=O)c2ccc(-c3c4nc(c(-c5c(F)c(F)c(F)c(F)c5F)c5ccc([nH]5)c(-c5c(F)c(F)c(F)c(F)c5F)c5nc(c(-c6c(F)c(F)c(F)c(F)c6F)c6ccc3[nH]6)C=C5)C=C4)cc2)c(-c2ccc(F)cc2O)cn1
REMARK SMILES IDX 9 1 8 2 7 3 5 4 6 5 4 7 2 8 3 9 88 10 87 11 78 12 1 13 79 16
REMARK SMILES IDX 80 17 85 18 81 19 84 20 82 21 83 22 86 23 10 25 11 26 12 27
REMARK SMILES IDX 13 28 14 30 15 31 16 32 77 33 17 34 76 35 18 36 19 37 20 38
REMARK SMILES IDX 70 39 21 40 75 41 69 42 71 43 22 44 74 45 68 46 67 47 23 49
REMARK SMILES IDX 55 50 35 51 54 52 36 53 39 54 53 55 72 56 37 57 38 58 52 60
REMARK SMILES IDX 73 61 40 62 24 63 25 64 33 65 26 66 27 67 31 68 34 69 28 70
REMARK SMILES IDX 29 71 32 72 30 73 56 74 57 75 65 76 58 77 59 78 63 79 66 80
REMARK SMILES IDX 60 81 61 82 64 83 62 84 41 85 42 86 50 87 43 88 44 89 48 90
REMARK SMILES IDX 51 91 45 92 46 93 49 94 47 95
REMARK H PARENT 7 6 1 14 1 15 86 24 12 29 71 48 39 59
REMARK Flexibility Score: inf
ROOT
ATOM      1  C   UNL A   1      31.692  30.827  25.885  1.00  0.00     0.023 C 
ENDROOT
BRANCH   1   2
ATOM      2  C   UNL A   1      32.747  29.819  26.352  1.00  0.00     0.116 C 
BRANCH   2   3
ATOM      3  N   UNL A   1      32.097  28.678  26.961  1.00  0.00    -0.352 N 
ATOM      4  C   UNL A   1      31.894  27.377  26.577  1.00  0.00     0.252 C 
ATOM      5  O   UNL A   1      31.020  26.792  27.220  1.00  0.00    -0.269 OA
ATOM      6  H   UNL A   1      31.717  28.881  27.846  1.00  0.00     0.163 HD
BRANCH   4   7
ATOM      7  C   UNL A   1      32.632  26.663  25.480  1.00  0.00     0.052 A 
ATOM      8  C   UNL A   1      34.399  25.176  24.751  1.00  0.00     0.124 A 
ATOM      9  C   UNL A   1      33.787  25.915  25.750  1.00  0.00     0.061 A 
ATOM     10  N   UNL A   1      33.982  25.202  23.486  1.00  0.00    -0.239 NA
ATOM     11  C   UNL A   1      32.922  25.992  23.206  1.00  0.00     0.123 A 
ATOM     12  C   UNL A   1      32.195  26.747  24.137  1.00  0.00     0.017 A 
BRANCH   8  13
ATOM     13  N   UNL A   1      35.522  24.419  25.018  1.00  0.00    -0.384 N 
ATOM     14  H   UNL A   1      36.399  24.856  25.113  1.00  0.00     0.158 HD
ATOM     15  H   UNL A   1      35.446  23.443  25.112  1.00  0.00     0.158 HD
ENDBRANCH   8  13
BRANCH  12  16
ATOM     16  C   UNL A   1      31.085  27.572  23.610  1.00  0.00     0.026 A 
ATOM     17  C   UNL A   1      29.755  27.120  23.700  1.00  0.00     0.015 A 
ATOM     18  C   UNL A   1      31.305  28.778  22.913  1.00  0.00     0.126 A 
ATOM     19  C   UNL A   1      28.707  27.849  23.127  1.00  0.00     0.040 A 
ATOM     20  C   UNL A   1      30.271  29.508  22.335  1.00  0.00     0.086 A 
ATOM     21  C   UNL A   1      28.976  29.035  22.452  1.00  0.00     0.126 A 
ATOM     22  F   UNL A   1      27.967  29.732  21.915  1.00  0.00    -0.207 F 
BRANCH  18  23
ATOM     23  O   UNL A   1      32.557  29.328  22.842  1.00  0.00    -0.507 OA
ATOM     24  H   UNL A   1      32.660  30.259  22.852  1.00  0.00     0.293 HD
ENDBRANCH  18  23
ENDBRANCH  12  16
ENDBRANCH   4   7
ENDBRANCH   2   3
ENDBRANCH   1   2
BRANCH   1  25
ATOM     25  C   UNL A   1      31.429  31.969  26.879  1.00  0.00     0.023 C 
BRANCH  25  26
ATOM     26  C   UNL A   1      32.662  32.769  27.286  1.00  0.00     0.116 C 
BRANCH  26  27
ATOM     27  N   UNL A   1      32.362  34.150  27.624  1.00  0.00    -0.352 N 
ATOM     28  C   UNL A   1      32.970  34.960  28.552  1.00  0.00     0.251 C 
ATOM     29  H   UNL A   1      31.623  34.562  27.120  1.00  0.00     0.163 HD
ATOM     30  O   UNL A   1      32.529  36.077  28.784  1.00  0.00    -0.269 OA
BRANCH  28  31
ATOM     31  C   UNL A   1      34.137  34.452  29.301  1.00  0.00     0.039 A 
ATOM     32  C   UNL A   1      33.921  33.842  30.539  1.00  0.00     0.014 A 
ATOM     33  C   UNL A   1      35.427  34.555  28.776  1.00  0.00     0.014 A 
ATOM     34  C   UNL A   1      34.997  33.277  31.225  1.00  0.00     0.010 A 
ATOM     35  C   UNL A   1      36.488  33.939  29.432  1.00  0.00     0.010 A 
ATOM     36  C   UNL A   1      36.282  33.292  30.661  1.00  0.00    -0.014 A 
BRANCH  36  37
ATOM     37  C   UNL A   1      37.422  32.627  31.335  1.00  0.00     0.031 A 
ATOM     38  C   UNL A   1      38.126  31.478  30.672  1.00  0.00     0.074 A 
ATOM     39  C   UNL A   1      37.779  33.018  32.575  1.00  0.00     0.049 A 
ATOM     40  N   UNL A   1      39.091  30.723  31.130  1.00  0.00    -0.248 NA
ATOM     41  C   UNL A   1      37.664  31.112  29.324  1.00  0.00     0.031 C 
ATOM     42  C   UNL A   1      37.139  34.089  33.341  1.00  0.00     0.029 A 
ATOM     43  N   UNL A   1      38.758  32.550  33.414  1.00  0.00    -0.354 N 
ATOM     44  C   UNL A   1      39.341  29.787  30.135  1.00  0.00     0.074 A 
ATOM     45  C   UNL A   1      38.395  30.037  29.069  1.00  0.00     0.031 C 
ATOM     46  C   UNL A   1      37.752  34.207  34.528  1.00  0.00     0.029 A 
ATOM     47  C   UNL A   1      38.806  33.200  34.622  1.00  0.00     0.049 A 
ATOM     48  H   UNL A   1      39.369  31.817  33.172  1.00  0.00     0.167 HD
ATOM     49  C   UNL A   1      40.292  28.822  30.106  1.00  0.00     0.037 A 
ATOM     50  C   UNL A   1      39.605  33.002  35.686  1.00  0.00     0.037 A 
ATOM     51  C   UNL A   1      41.249  28.596  31.156  1.00  0.00     0.049 A 
ATOM     52  C   UNL A   1      40.654  31.924  35.624  1.00  0.00     0.074 A 
ATOM     53  C   UNL A   1      42.288  27.683  31.195  1.00  0.00     0.029 A 
ATOM     54  N   UNL A   1      41.284  29.294  32.355  1.00  0.00    -0.354 N 
ATOM     55  N   UNL A   1      40.926  31.090  34.651  1.00  0.00    -0.248 NA
ATOM     56  C   UNL A   1      41.512  31.768  36.807  1.00  0.00     0.031 C 
ATOM     57  C   UNL A   1      42.928  27.802  32.433  1.00  0.00     0.029 A 
ATOM     58  C   UNL A   1      42.316  28.819  33.148  1.00  0.00     0.049 A 
ATOM     59  H   UNL A   1      40.666  30.018  32.605  1.00  0.00     0.167 HD
ATOM     60  C   UNL A   1      42.000  30.329  35.091  1.00  0.00     0.074 A 
ATOM     61  C   UNL A   1      42.341  30.811  36.412  1.00  0.00     0.031 C 
ATOM     62  C   UNL A   1      42.646  29.320  34.457  1.00  0.00     0.037 A 
BRANCH  49  63
ATOM     63  C   UNL A   1      40.349  27.943  28.891  1.00  0.00     0.064 A 
ATOM     64  C   UNL A   1      39.627  26.742  28.820  1.00  0.00     0.173 A 
ATOM     65  C   UNL A   1      41.102  28.324  27.771  1.00  0.00     0.173 A 
ATOM     66  F   UNL A   1      38.902  26.328  29.871  1.00  0.00    -0.203 F 
ATOM     67  C   UNL A   1      39.675  25.944  27.682  1.00  0.00     0.198 A 
ATOM     68  C   UNL A   1      41.125  27.536  26.622  1.00  0.00     0.198 A 
ATOM     69  F   UNL A   1      41.808  29.464  27.785  1.00  0.00    -0.203 F 
ATOM     70  F   UNL A   1      39.011  24.779  27.654  1.00  0.00    -0.200 F 
ATOM     71  C   UNL A   1      40.417  26.344  26.581  1.00  0.00     0.200 A 
ATOM     72  F   UNL A   1      41.835  27.929  25.555  1.00  0.00    -0.200 F 
ATOM     73  F   UNL A   1      40.456  25.577  25.483  1.00  0.00    -0.200 F 
ENDBRANCH  49  63
BRANCH  50  74
ATOM     74  C   UNL A   1      39.463  33.855  36.894  1.00  0.00     0.064 A 
ATOM     75  C   UNL A   1      38.706  33.424  37.993  1.00  0.00     0.173 A 
ATOM     76  C   UNL A   1      40.065  35.120  36.971  1.00  0.00     0.173 A 
ATOM     77  F   UNL A   1      38.094  32.231  37.957  1.00  0.00    -0.203 F 
ATOM     78  C   UNL A   1      38.539  34.234  39.114  1.00  0.00     0.198 A 
ATOM     79  C   UNL A   1      39.919  35.918  38.104  1.00  0.00     0.198 A 
ATOM     80  F   UNL A   1      40.802  35.576  35.948  1.00  0.00    -0.203 F 
ATOM     81  F   UNL A   1      37.772  33.817  40.130  1.00  0.00    -0.200 F 
ATOM     82  C   UNL A   1      39.149  35.478  39.170  1.00  0.00     0.200 A 
ATOM     83  F   UNL A   1      40.521  37.113  38.160  1.00  0.00    -0.200 F 
ATOM     84  F   UNL A   1      38.988  36.257  40.249  1.00  0.00    -0.200 F 
ENDBRANCH  50  74
BRANCH  62  85
ATOM     85  C   UNL A   1      43.808  28.694  35.170  1.00  0.00     0.064 A 
ATOM     86  C   UNL A   1      45.111  29.193  35.028  1.00  0.00     0.173 A 
ATOM     87  C   UNL A   1      43.609  27.609  36.036  1.00  0.00     0.173 A 
ATOM     88  F   UNL A   1      45.355  30.220  34.198  1.00  0.00    -0.203 F 
ATOM     89  C   UNL A   1      46.177  28.612  35.709  1.00  0.00     0.198 A 
ATOM     90  C   UNL A   1      44.672  27.048  36.738  1.00  0.00     0.198 A 
ATOM     91  F   UNL A   1      42.380  27.101  36.211  1.00  0.00    -0.203 F 
ATOM     92  F   UNL A   1      47.420  29.075  35.525  1.00  0.00    -0.200 F 
ATOM     93  C   UNL A   1      45.955  27.545  36.569  1.00  0.00     0.200 A 
ATOM     94  F   UNL A   1      44.454  26.027  37.577  1.00  0.00    -0.200 F 
ATOM     95  F   UNL A   1      46.982  26.992  37.230  1.00  0.00    -0.200 F 
ENDBRANCH  62  85
ENDBRANCH  36  37
ENDBRANCH  28  31
ENDBRANCH  26  27
ENDBRANCH  25  26
ENDBRANCH   1  25
TORSDOF 14
ENDMDL
