MODEL 1
REMARK VINA RESULT:     -12.7      0.000      0.000
REMARK SMILES Cc1cc(S(=O)(=O)Nc2ccc(F)cc2C(=O)NCCCCNC(=O)c2ccc(-c3c4nc(c(-c5c(F)c(F)c(F)c(F)c5F)c5ccc([nH]5)c(-c5c(F)c(F)c(F)c(F)c5F)c5nc(c(-c6c(F)c(F)c(F)c(F)c6F)c6ccc3[nH]6)C=C5)C=C4)cc2)c(C)s1
REMARK SMILES IDX 20 1 19 2 18 3 16 4 17 5 15 7 9 8 10 9 11 10 14 11 12 12
REMARK SMILES IDX 13 13 8 14 5 16 6 17 7 18 4 19 1 20 2 21 3 22 91 23 89 24
REMARK SMILES IDX 90 25 21 26 22 27 23 28 24 29 25 31 26 32 27 33 88 34 28 35
REMARK SMILES IDX 87 36 29 37 30 38 31 39 81 40 32 41 86 42 80 43 82 44 33 45
REMARK SMILES IDX 85 46 79 47 78 48 34 50 66 51 46 52 65 53 47 54 50 55 64 56
REMARK SMILES IDX 83 57 48 58 49 59 63 61 84 62 51 63 35 64 36 65 44 66 37 67
REMARK SMILES IDX 38 68 42 69 45 70 39 71 40 72 43 73 41 74 67 75 68 76 76 77
REMARK SMILES IDX 69 78 70 79 74 80 77 81 71 82 72 83 75 84 73 85 52 86 53 87
REMARK SMILES IDX 61 88 54 89 55 90 59 91 62 92 56 93 57 94 60 95 58 96
REMARK H PARENT 18 6 8 15 23 30 82 49 50 60
REMARK Flexibility Score: inf
ROOT
ATOM      1  C   UNL A   1      33.515  28.853  24.584  1.00  0.00     0.023 C 
ENDROOT
BRANCH   1   2
ATOM      2  C   UNL A   1      33.542  27.335  24.722  1.00  0.00     0.116 C 
BRANCH   2   3
ATOM      3  N   UNL A   1      33.510  26.601  23.482  1.00  0.00    -0.352 N 
ATOM      4  C   UNL A   1      32.471  26.286  22.646  1.00  0.00     0.253 C 
ATOM      5  O   UNL A   1      32.778  25.672  21.617  1.00  0.00    -0.269 OA
ATOM      6  H   UNL A   1      34.388  26.268  23.184  1.00  0.00     0.163 HD
BRANCH   4   7
ATOM      7  C   UNL A   1      31.014  26.580  22.859  1.00  0.00     0.066 A 
ATOM      8  C   UNL A   1      30.034  25.791  23.502  1.00  0.00     0.062 A 
ATOM      9  C   UNL A   1      28.812  26.372  23.895  1.00  0.00     0.030 A 
ATOM     10  C   UNL A   1      28.480  27.666  23.500  1.00  0.00     0.041 A 
ATOM     11  C   UNL A   1      30.648  27.885  22.466  1.00  0.00     0.055 A 
ATOM     12  C   UNL A   1      29.392  28.402  22.763  1.00  0.00     0.124 A 
ATOM     13  F   UNL A   1      29.070  29.634  22.354  1.00  0.00    -0.207 F 
BRANCH   8  14
ATOM     14  N   UNL A   1      30.279  24.441  23.867  1.00  0.00    -0.279 N 
ATOM     15  H   UNL A   1      29.917  23.724  23.300  1.00  0.00     0.180 HD
BRANCH  14  16
ATOM     16  S   UNL A   1      31.175  24.019  25.245  1.00  0.00     0.263 S 
ATOM     17  O   UNL A   1      30.541  22.829  25.776  1.00  0.00    -0.201 OA
ATOM     18  O   UNL A   1      31.257  25.232  26.029  1.00  0.00    -0.201 OA
BRANCH  16  19
ATOM     19  C   UNL A   1      32.838  23.526  25.048  1.00  0.00     0.101 A 
ATOM     20  C   UNL A   1      36.500  24.074  25.810  1.00  0.00     0.056 C 
ATOM     21  C   UNL A   1      35.156  23.636  25.331  1.00  0.00     0.003 A 
ATOM     22  C   UNL A   1      33.926  23.844  25.919  1.00  0.00     0.037 A 
ATOM     23  S   UNL A   1      35.006  22.780  23.868  1.00  0.00    -0.145 S 
ATOM     24  C   UNL A   1      33.289  22.832  23.932  1.00  0.00     0.022 A 
ATOM     25  C   UNL A   1      32.539  22.202  22.803  1.00  0.00     0.058 C 
ENDBRANCH  16  19
ENDBRANCH  14  16
ENDBRANCH   8  14
ENDBRANCH   4   7
ENDBRANCH   2   3
ENDBRANCH   1   2
BRANCH   1  26
ATOM     26  C   UNL A   1      32.258  29.570  25.078  1.00  0.00     0.023 C 
BRANCH  26  27
ATOM     27  C   UNL A   1      32.179  29.908  26.565  1.00  0.00     0.116 C 
BRANCH  27  28
ATOM     28  N   UNL A   1      32.237  31.329  26.876  1.00  0.00    -0.352 N 
ATOM     29  C   UNL A   1      33.231  32.113  27.414  1.00  0.00     0.251 C 
ATOM     30  H   UNL A   1      31.411  31.820  26.662  1.00  0.00     0.163 HD
ATOM     31  O   UNL A   1      33.031  33.316  27.566  1.00  0.00    -0.269 OA
BRANCH  29  32
ATOM     32  C   UNL A   1      34.514  31.538  27.887  1.00  0.00     0.039 A 
ATOM     33  C   UNL A   1      35.560  32.423  28.174  1.00  0.00     0.014 A 
ATOM     34  C   UNL A   1      34.713  30.169  28.056  1.00  0.00     0.014 A 
ATOM     35  C   UNL A   1      36.748  31.950  28.737  1.00  0.00     0.010 A 
ATOM     36  C   UNL A   1      35.859  29.705  28.706  1.00  0.00     0.010 A 
ATOM     37  C   UNL A   1      36.880  30.593  29.075  1.00  0.00    -0.014 A 
BRANCH  37  38
ATOM     38  C   UNL A   1      38.051  30.112  29.856  1.00  0.00     0.031 A 
ATOM     39  C   UNL A   1      38.270  30.550  31.278  1.00  0.00     0.074 A 
ATOM     40  C   UNL A   1      38.965  29.322  29.255  1.00  0.00     0.049 A 
ATOM     41  N   UNL A   1      39.263  30.273  32.084  1.00  0.00    -0.248 NA
ATOM     42  C   UNL A   1      37.257  31.443  31.860  1.00  0.00     0.031 C 
ATOM     43  C   UNL A   1      38.913  28.879  27.860  1.00  0.00     0.029 A 
ATOM     44  N   UNL A   1      40.115  28.749  29.739  1.00  0.00    -0.354 N 
ATOM     45  C   UNL A   1      39.009  30.974  33.255  1.00  0.00     0.074 A 
ATOM     46  C   UNL A   1      37.790  31.725  33.041  1.00  0.00     0.031 C 
ATOM     47  C   UNL A   1      39.954  28.068  27.614  1.00  0.00     0.029 A 
ATOM     48  C   UNL A   1      40.767  27.959  28.822  1.00  0.00     0.049 A 
ATOM     49  H   UNL A   1      40.442  28.889  30.657  1.00  0.00     0.167 HD
ATOM     50  C   UNL A   1      39.714  30.974  34.411  1.00  0.00     0.037 A 
ATOM     51  C   UNL A   1      41.887  27.223  28.940  1.00  0.00     0.037 A 
ATOM     52  C   UNL A   1      40.897  30.188  34.646  1.00  0.00     0.049 A 
ATOM     53  C   UNL A   1      42.621  27.199  30.249  1.00  0.00     0.074 A 
ATOM     54  C   UNL A   1      41.634  30.067  35.810  1.00  0.00     0.029 A 
ATOM     55  N   UNL A   1      41.509  29.382  33.699  1.00  0.00    -0.354 N 
ATOM     56  N   UNL A   1      42.340  27.826  31.364  1.00  0.00    -0.248 NA
ATOM     57  C   UNL A   1      43.829  26.363  30.318  1.00  0.00     0.031 C 
ATOM     58  C   UNL A   1      42.708  29.207  35.562  1.00  0.00     0.029 A 
ATOM     59  C   UNL A   1      42.621  28.767  34.251  1.00  0.00     0.049 A 
ATOM     60  H   UNL A   1      41.200  29.264  32.772  1.00  0.00     0.167 HD
ATOM     61  C   UNL A   1      43.324  27.456  32.269  1.00  0.00     0.074 A 
ATOM     62  C   UNL A   1      44.200  26.532  31.580  1.00  0.00     0.031 C 
ATOM     63  C   UNL A   1      43.487  27.853  33.553  1.00  0.00     0.037 A 
BRANCH  50  64
ATOM     64  C   UNL A   1      39.212  31.836  35.531  1.00  0.00     0.064 A 
ATOM     65  C   UNL A   1      39.654  33.162  35.665  1.00  0.00     0.173 A 
ATOM     66  C   UNL A   1      38.333  31.335  36.503  1.00  0.00     0.173 A 
ATOM     67  F   UNL A   1      40.500  33.687  34.766  1.00  0.00    -0.203 F 
ATOM     68  C   UNL A   1      39.237  33.950  36.735  1.00  0.00     0.198 A 
ATOM     69  C   UNL A   1      37.899  32.133  37.557  1.00  0.00     0.198 A 
ATOM     70  F   UNL A   1      37.874  30.077  36.411  1.00  0.00    -0.203 F 
ATOM     71  F   UNL A   1      39.689  35.206  36.856  1.00  0.00    -0.200 F 
ATOM     72  C   UNL A   1      38.357  33.437  37.677  1.00  0.00     0.200 A 
ATOM     73  F   UNL A   1      37.031  31.643  38.452  1.00  0.00    -0.200 F 
ATOM     74  F   UNL A   1      37.946  34.201  38.697  1.00  0.00    -0.200 F 
ENDBRANCH  50  64
BRANCH  51  75
ATOM     75  C   UNL A   1      42.351  26.404  27.791  1.00  0.00     0.064 A 
ATOM     76  C   UNL A   1      41.859  25.112  27.564  1.00  0.00     0.173 A 
ATOM     77  C   UNL A   1      43.323  26.899  26.912  1.00  0.00     0.173 A 
ATOM     78  F   UNL A   1      40.931  24.593  28.381  1.00  0.00    -0.203 F 
ATOM     79  C   UNL A   1      42.335  24.339  26.505  1.00  0.00     0.198 A 
ATOM     80  C   UNL A   1      43.783  26.135  25.843  1.00  0.00     0.198 A 
ATOM     81  F   UNL A   1      43.807  28.139  27.080  1.00  0.00    -0.203 F 
ATOM     82  F   UNL A   1      41.868  23.097  26.323  1.00  0.00    -0.200 F 
ATOM     83  C   UNL A   1      43.293  24.853  25.644  1.00  0.00     0.200 A 
ATOM     84  F   UNL A   1      44.693  26.643  25.001  1.00  0.00    -0.200 F 
ATOM     85  F   UNL A   1      43.742  24.114  24.620  1.00  0.00    -0.200 F 
ENDBRANCH  51  75
BRANCH  63  86
ATOM     86  C   UNL A   1      44.655  27.289  34.304  1.00  0.00     0.064 A 
ATOM     87  C   UNL A   1      44.547  26.063  34.975  1.00  0.00     0.173 A 
ATOM     88  C   UNL A   1      45.864  27.993  34.405  1.00  0.00     0.173 A 
ATOM     89  F   UNL A   1      43.409  25.354  34.912  1.00  0.00    -0.203 F 
ATOM     90  C   UNL A   1      45.606  25.565  35.730  1.00  0.00     0.198 A 
ATOM     91  C   UNL A   1      46.928  27.482  35.142  1.00  0.00     0.198 A 
ATOM     92  F   UNL A   1      46.017  29.164  33.768  1.00  0.00    -0.203 F 
ATOM     93  F   UNL A   1      45.474  24.402  36.381  1.00  0.00    -0.200 F 
ATOM     94  C   UNL A   1      46.796  26.274  35.809  1.00  0.00     0.200 A 
ATOM     95  F   UNL A   1      48.084  28.156  35.201  1.00  0.00    -0.200 F 
ATOM     96  F   UNL A   1      47.818  25.787  36.526  1.00  0.00    -0.200 F 
ENDBRANCH  63  86
ENDBRANCH  37  38
ENDBRANCH  29  32
ENDBRANCH  27  28
ENDBRANCH  26  27
ENDBRANCH   1  26
TORSDOF 14
ENDMDL
MODEL 2
REMARK VINA RESULT:     -12.7      1.960      7.516
REMARK SMILES Cc1cc(S(=O)(=O)Nc2ccc(F)cc2C(=O)NCCCCNC(=O)c2ccc(-c3c4nc(c(-c5c(F)c(F)c(F)c(F)c5F)c5ccc([nH]5)c(-c5c(F)c(F)c(F)c(F)c5F)c5nc(c(-c6c(F)c(F)c(F)c(F)c6F)c6ccc3[nH]6)C=C5)C=C4)cc2)c(C)s1
REMARK SMILES IDX 20 1 19 2 18 3 16 4 17 5 15 7 9 8 10 9 11 10 14 11 12 12
REMARK SMILES IDX 13 13 8 14 5 16 6 17 7 18 4 19 1 20 2 21 3 22 91 23 89 24
REMARK SMILES IDX 90 25 21 26 22 27 23 28 24 29 25 31 26 32 27 33 88 34 28 35
REMARK SMILES IDX 87 36 29 37 30 38 31 39 81 40 32 41 86 42 80 43 82 44 33 45
REMARK SMILES IDX 85 46 79 47 78 48 34 50 66 51 46 52 65 53 47 54 50 55 64 56
REMARK SMILES IDX 83 57 48 58 49 59 63 61 84 62 51 63 35 64 36 65 44 66 37 67
REMARK SMILES IDX 38 68 42 69 45 70 39 71 40 72 43 73 41 74 67 75 68 76 76 77
REMARK SMILES IDX 69 78 70 79 74 80 77 81 71 82 72 83 75 84 73 85 52 86 53 87
REMARK SMILES IDX 61 88 54 89 55 90 59 91 62 92 56 93 57 94 60 95 58 96
REMARK H PARENT 18 6 8 15 23 30 82 49 50 60
REMARK Flexibility Score: inf
ROOT
ATOM      1  C   UNL A   1      31.803  30.508  26.181  1.00  0.00     0.023 C 
ENDROOT
BRANCH   1   2
ATOM      2  C   UNL A   1      32.113  29.429  27.211  1.00  0.00     0.116 C 
BRANCH   2   3
ATOM      3  N   UNL A   1      33.063  28.429  26.793  1.00  0.00    -0.352 N 
ATOM      4  C   UNL A   1      32.942  27.377  25.923  1.00  0.00     0.253 C 
ATOM      5  O   UNL A   1      33.969  26.715  25.737  1.00  0.00    -0.269 OA
ATOM      6  H   UNL A   1      33.954  28.518  27.203  1.00  0.00     0.163 HD
BRANCH   4   7
ATOM      7  C   UNL A   1      31.701  26.933  25.204  1.00  0.00     0.066 A 
ATOM      8  C   UNL A   1      30.742  25.972  25.598  1.00  0.00     0.062 A 
ATOM      9  C   UNL A   1      29.486  25.931  24.961  1.00  0.00     0.030 A 
ATOM     10  C   UNL A   1      29.238  26.703  23.827  1.00  0.00     0.041 A 
ATOM     11  C   UNL A   1      31.425  27.696  24.049  1.00  0.00     0.055 A 
ATOM     12  C   UNL A   1      30.223  27.559  23.364  1.00  0.00     0.124 A 
ATOM     13  F   UNL A   1      30.005  28.280  22.259  1.00  0.00    -0.207 F 
BRANCH   8  14
ATOM     14  N   UNL A   1      30.960  25.103  26.700  1.00  0.00    -0.279 N 
ATOM     15  H   UNL A   1      30.700  25.404  27.599  1.00  0.00     0.180 HD
BRANCH  14  16
ATOM     16  S   UNL A   1      31.652  23.564  26.521  1.00  0.00     0.263 S 
ATOM     17  O   UNL A   1      30.714  22.802  25.722  1.00  0.00    -0.201 OA
ATOM     18  O   UNL A   1      31.999  23.147  27.861  1.00  0.00    -0.201 OA
BRANCH  16  19
ATOM     19  C   UNL A   1      33.145  23.413  25.628  1.00  0.00     0.101 A 
ATOM     20  C   UNL A   1      36.916  23.662  25.540  1.00  0.00     0.056 C 
ATOM     21  C   UNL A   1      35.456  23.502  25.281  1.00  0.00     0.003 A 
ATOM     22  C   UNL A   1      34.449  23.224  26.182  1.00  0.00     0.037 A 
ATOM     23  S   UNL A   1      34.841  23.687  23.705  1.00  0.00    -0.145 S 
ATOM     24  C   UNL A   1      33.215  23.563  24.249  1.00  0.00     0.022 A 
ATOM     25  C   UNL A   1      32.135  23.683  23.223  1.00  0.00     0.058 C 
ENDBRANCH  16  19
ENDBRANCH  14  16
ENDBRANCH   8  14
ENDBRANCH   4   7
ENDBRANCH   2   3
ENDBRANCH   1   2
BRANCH   1  26
ATOM     26  C   UNL A   1      31.510  31.911  26.715  1.00  0.00     0.023 C 
BRANCH  26  27
ATOM     27  C   UNL A   1      32.688  32.720  27.254  1.00  0.00     0.116 C 
BRANCH  27  28
ATOM     28  N   UNL A   1      32.359  34.068  27.693  1.00  0.00    -0.352 N 
ATOM     29  C   UNL A   1      32.981  34.927  28.568  1.00  0.00     0.251 C 
ATOM     30  H   UNL A   1      31.538  34.432  27.288  1.00  0.00     0.163 HD
ATOM     31  O   UNL A   1      32.499  36.042  28.760  1.00  0.00    -0.269 OA
BRANCH  29  32
ATOM     32  C   UNL A   1      34.178  34.524  29.346  1.00  0.00     0.039 A 
ATOM     33  C   UNL A   1      33.981  34.046  30.648  1.00  0.00     0.014 A 
ATOM     34  C   UNL A   1      35.473  34.601  28.836  1.00  0.00     0.014 A 
ATOM     35  C   UNL A   1      35.056  33.539  31.381  1.00  0.00     0.010 A 
ATOM     36  C   UNL A   1      36.531  34.008  29.528  1.00  0.00     0.010 A 
ATOM     37  C   UNL A   1      36.331  33.450  30.799  1.00  0.00    -0.014 A 
BRANCH  37  38
ATOM     38  C   UNL A   1      37.436  32.731  31.488  1.00  0.00     0.031 A 
ATOM     39  C   UNL A   1      38.140  31.575  30.831  1.00  0.00     0.074 A 
ATOM     40  C   UNL A   1      37.766  33.081  32.748  1.00  0.00     0.049 A 
ATOM     41  N   UNL A   1      39.083  30.803  31.309  1.00  0.00    -0.248 NA
ATOM     42  C   UNL A   1      37.706  31.220  29.471  1.00  0.00     0.031 C 
ATOM     43  C   UNL A   1      37.117  34.136  33.530  1.00  0.00     0.029 A 
ATOM     44  N   UNL A   1      38.730  32.590  33.595  1.00  0.00    -0.354 N 
ATOM     45  C   UNL A   1      39.336  29.859  30.323  1.00  0.00     0.074 A 
ATOM     46  C   UNL A   1      38.418  30.126  29.236  1.00  0.00     0.031 C 
ATOM     47  C   UNL A   1      37.729  34.245  34.719  1.00  0.00     0.029 A 
ATOM     48  C   UNL A   1      38.791  33.247  34.801  1.00  0.00     0.049 A 
ATOM     49  H   UNL A   1      39.321  31.839  33.360  1.00  0.00     0.167 HD
ATOM     50  C   UNL A   1      40.264  28.873  30.314  1.00  0.00     0.037 A 
ATOM     51  C   UNL A   1      39.614  33.073  35.851  1.00  0.00     0.037 A 
ATOM     52  C   UNL A   1      41.214  28.636  31.369  1.00  0.00     0.049 A 
ATOM     53  C   UNL A   1      40.669  32.006  35.795  1.00  0.00     0.074 A 
ATOM     54  C   UNL A   1      42.240  27.709  31.413  1.00  0.00     0.029 A 
ATOM     55  N   UNL A   1      41.260  29.341  32.562  1.00  0.00    -0.354 N 
ATOM     56  N   UNL A   1      40.931  31.155  34.834  1.00  0.00    -0.248 NA
ATOM     57  C   UNL A   1      41.546  31.877  36.968  1.00  0.00     0.031 C 
ATOM     58  C   UNL A   1      42.891  27.834  32.644  1.00  0.00     0.029 A 
ATOM     59  C   UNL A   1      42.291  28.862  33.353  1.00  0.00     0.049 A 
ATOM     60  H   UNL A   1      40.649  30.072  32.810  1.00  0.00     0.167 HD
ATOM     61  C   UNL A   1      42.005  30.397  35.278  1.00  0.00     0.074 A 
ATOM     62  C   UNL A   1      42.361  30.902  36.587  1.00  0.00     0.031 C 
ATOM     63  C   UNL A   1      42.632  29.371  34.656  1.00  0.00     0.037 A 
BRANCH  50  64
ATOM     64  C   UNL A   1      40.319  27.982  29.109  1.00  0.00     0.064 A 
ATOM     65  C   UNL A   1      41.063  28.355  27.978  1.00  0.00     0.173 A 
ATOM     66  C   UNL A   1      39.593  26.783  29.051  1.00  0.00     0.173 A 
ATOM     67  F   UNL A   1      41.769  29.495  27.978  1.00  0.00    -0.203 F 
ATOM     68  C   UNL A   1      41.072  27.560  26.834  1.00  0.00     0.198 A 
ATOM     69  C   UNL A   1      39.624  25.979  27.915  1.00  0.00     0.198 A 
ATOM     70  F   UNL A   1      38.876  26.378  30.112  1.00  0.00    -0.203 F 
ATOM     71  F   UNL A   1      41.770  27.946  25.757  1.00  0.00    -0.200 F 
ATOM     72  C   UNL A   1      40.356  26.372  26.805  1.00  0.00     0.200 A 
ATOM     73  F   UNL A   1      38.952  24.820  27.899  1.00  0.00    -0.200 F 
ATOM     74  F   UNL A   1      40.378  25.602  25.709  1.00  0.00    -0.200 F 
ENDBRANCH  50  64
BRANCH  51  75
ATOM     75  C   UNL A   1      39.501  33.971  37.028  1.00  0.00     0.064 A 
ATOM     76  C   UNL A   1      38.745  33.617  38.153  1.00  0.00     0.173 A 
ATOM     77  C   UNL A   1      40.134  35.221  37.031  1.00  0.00     0.173 A 
ATOM     78  F   UNL A   1      38.116  32.433  38.195  1.00  0.00    -0.203 F 
ATOM     79  C   UNL A   1      38.614  34.489  39.233  1.00  0.00     0.198 A 
ATOM     80  C   UNL A   1      40.021  36.083  38.118  1.00  0.00     0.198 A 
ATOM     81  F   UNL A   1      40.885  35.593  35.983  1.00  0.00    -0.203 F 
ATOM     82  F   UNL A   1      37.864  34.139  40.287  1.00  0.00    -0.200 F 
ATOM     83  C   UNL A   1      39.255  35.719  39.216  1.00  0.00     0.200 A 
ATOM     84  F   UNL A   1      40.659  37.261  38.107  1.00  0.00    -0.200 F 
ATOM     85  F   UNL A   1      39.139  36.552  40.259  1.00  0.00    -0.200 F 
ENDBRANCH  51  75
BRANCH  63  86
ATOM     86  C   UNL A   1      43.774  28.724  35.380  1.00  0.00     0.064 A 
ATOM     87  C   UNL A   1      43.540  27.709  36.319  1.00  0.00     0.173 A 
ATOM     88  C   UNL A   1      45.096  29.149  35.183  1.00  0.00     0.173 A 
ATOM     89  F   UNL A   1      42.292  27.271  36.545  1.00  0.00    -0.203 F 
ATOM     90  C   UNL A   1      44.589  27.150  37.044  1.00  0.00     0.198 A 
ATOM     91  C   UNL A   1      46.144  28.572  35.893  1.00  0.00     0.198 A 
ATOM     92  F   UNL A   1      45.369  30.107  34.284  1.00  0.00    -0.203 F 
ATOM     93  F   UNL A   1      44.340  26.197  37.953  1.00  0.00    -0.200 F 
ATOM     94  C   UNL A   1      45.890  27.580  36.828  1.00  0.00     0.200 A 
ATOM     95  F   UNL A   1      47.403  28.973  35.668  1.00  0.00    -0.200 F 
ATOM     96  F   UNL A   1      46.899  27.032  37.517  1.00  0.00    -0.200 F 
ENDBRANCH  63  86
ENDBRANCH  37  38
ENDBRANCH  29  32
ENDBRANCH  27  28
ENDBRANCH  26  27
ENDBRANCH   1  26
TORSDOF 14
ENDMDL
MODEL 3
REMARK VINA RESULT:     -12.7      1.956      7.743
REMARK SMILES Cc1cc(S(=O)(=O)Nc2ccc(F)cc2C(=O)NCCCCNC(=O)c2ccc(-c3c4nc(c(-c5c(F)c(F)c(F)c(F)c5F)c5ccc([nH]5)c(-c5c(F)c(F)c(F)c(F)c5F)c5nc(c(-c6c(F)c(F)c(F)c(F)c6F)c6ccc3[nH]6)C=C5)C=C4)cc2)c(C)s1
REMARK SMILES IDX 20 1 19 2 18 3 16 4 17 5 15 7 9 8 10 9 11 10 14 11 12 12
REMARK SMILES IDX 13 13 8 14 5 16 6 17 7 18 4 19 1 20 2 21 3 22 91 23 89 24
REMARK SMILES IDX 90 25 21 26 22 27 23 28 24 29 25 31 26 32 27 33 88 34 28 35
REMARK SMILES IDX 87 36 29 37 30 38 31 39 81 40 32 41 86 42 80 43 82 44 33 45
REMARK SMILES IDX 85 46 79 47 78 48 34 50 66 51 46 52 65 53 47 54 50 55 64 56
REMARK SMILES IDX 83 57 48 58 49 59 63 61 84 62 51 63 35 64 36 65 44 66 37 67
REMARK SMILES IDX 38 68 42 69 45 70 39 71 40 72 43 73 41 74 67 75 68 76 76 77
REMARK SMILES IDX 69 78 70 79 74 80 77 81 71 82 72 83 75 84 73 85 52 86 53 87
REMARK SMILES IDX 61 88 54 89 55 90 59 91 62 92 56 93 57 94 60 95 58 96
REMARK H PARENT 18 6 8 15 23 30 82 49 50 60
REMARK Flexibility Score: inf
ROOT
ATOM      1  C   UNL A   1      31.783  30.593  26.174  1.00  0.00     0.023 C 
ENDROOT
BRANCH   1   2
ATOM      2  C   UNL A   1      31.849  29.455  27.186  1.00  0.00     0.116 C 
BRANCH   2   3
ATOM      3  N   UNL A   1      32.809  28.421  26.892  1.00  0.00    -0.352 N 
ATOM      4  C   UNL A   1      32.725  27.311  26.092  1.00  0.00     0.253 C 
ATOM      5  O   UNL A   1      33.753  26.630  26.010  1.00  0.00    -0.269 OA
ATOM      6  H   UNL A   1      33.677  28.533  27.344  1.00  0.00     0.163 HD
BRANCH   4   7
ATOM      7  C   UNL A   1      31.521  26.827  25.338  1.00  0.00     0.066 A 
ATOM      8  C   UNL A   1      30.604  25.810  25.688  1.00  0.00     0.062 A 
ATOM      9  C   UNL A   1      29.363  25.725  25.026  1.00  0.00     0.030 A 
ATOM     10  C   UNL A   1      29.097  26.514  23.909  1.00  0.00     0.041 A 
ATOM     11  C   UNL A   1      31.228  27.607  24.199  1.00  0.00     0.055 A 
ATOM     12  C   UNL A   1      30.046  27.430  23.488  1.00  0.00     0.124 A 
ATOM     13  F   UNL A   1      29.812  28.171  22.399  1.00  0.00    -0.207 F 
BRANCH   8  14
ATOM     14  N   UNL A   1      30.845  24.922  26.769  1.00  0.00    -0.279 N 
ATOM     15  H   UNL A   1      30.554  25.184  27.671  1.00  0.00     0.180 HD
BRANCH  14  16
ATOM     16  S   UNL A   1      31.616  23.425  26.563  1.00  0.00     0.263 S 
ATOM     17  O   UNL A   1      30.709  22.623  25.766  1.00  0.00    -0.201 OA
ATOM     18  O   UNL A   1      32.003  23.011  27.893  1.00  0.00    -0.201 OA
BRANCH  16  19
ATOM     19  C   UNL A   1      33.103  23.365  25.649  1.00  0.00     0.101 A 
ATOM     20  C   UNL A   1      36.862  23.747  25.535  1.00  0.00     0.056 C 
ATOM     21  C   UNL A   1      35.405  23.548  25.282  1.00  0.00     0.003 A 
ATOM     22  C   UNL A   1      34.419  23.196  26.181  1.00  0.00     0.037 A 
ATOM     23  S   UNL A   1      34.766  23.782  23.723  1.00  0.00    -0.145 S 
ATOM     24  C   UNL A   1      33.152  23.578  24.277  1.00  0.00     0.022 A 
ATOM     25  C   UNL A   1      32.056  23.707  23.268  1.00  0.00     0.058 C 
ENDBRANCH  16  19
ENDBRANCH  14  16
ENDBRANCH   8  14
ENDBRANCH   4   7
ENDBRANCH   2   3
ENDBRANCH   1   2
BRANCH   1  26
ATOM     26  C   UNL A   1      31.485  31.990  26.722  1.00  0.00     0.023 C 
BRANCH  26  27
ATOM     27  C   UNL A   1      32.668  32.823  27.209  1.00  0.00     0.116 C 
BRANCH  27  28
ATOM     28  N   UNL A   1      32.326  34.154  27.689  1.00  0.00    -0.352 N 
ATOM     29  C   UNL A   1      32.944  34.995  28.585  1.00  0.00     0.251 C 
ATOM     30  H   UNL A   1      31.499  34.520  27.299  1.00  0.00     0.163 HD
ATOM     31  O   UNL A   1      32.450  36.098  28.812  1.00  0.00    -0.269 OA
BRANCH  29  32
ATOM     32  C   UNL A   1      34.150  34.583  29.343  1.00  0.00     0.039 A 
ATOM     33  C   UNL A   1      33.971  34.117  30.652  1.00  0.00     0.014 A 
ATOM     34  C   UNL A   1      35.436  34.640  28.810  1.00  0.00     0.014 A 
ATOM     35  C   UNL A   1      35.054  33.602  31.369  1.00  0.00     0.010 A 
ATOM     36  C   UNL A   1      36.500  34.040  29.486  1.00  0.00     0.010 A 
ATOM     37  C   UNL A   1      36.317  33.494  30.765  1.00  0.00    -0.014 A 
BRANCH  37  38
ATOM     38  C   UNL A   1      37.426  32.767  31.439  1.00  0.00     0.031 A 
ATOM     39  C   UNL A   1      38.112  31.607  30.772  1.00  0.00     0.074 A 
ATOM     40  C   UNL A   1      37.774  33.114  32.695  1.00  0.00     0.049 A 
ATOM     41  N   UNL A   1      39.056  30.827  31.237  1.00  0.00    -0.248 NA
ATOM     42  C   UNL A   1      37.658  31.255  29.419  1.00  0.00     0.031 C 
ATOM     43  C   UNL A   1      37.143  34.173  33.485  1.00  0.00     0.029 A 
ATOM     44  N   UNL A   1      38.745  32.615  33.529  1.00  0.00    -0.354 N 
ATOM     45  C   UNL A   1      39.289  29.882  30.248  1.00  0.00     0.074 A 
ATOM     46  C   UNL A   1      38.360  30.157  29.174  1.00  0.00     0.031 C 
ATOM     47  C   UNL A   1      37.771  34.277  34.667  1.00  0.00     0.029 A 
ATOM     48  C   UNL A   1      38.827  33.271  34.734  1.00  0.00     0.049 A 
ATOM     49  H   UNL A   1      39.328  31.861  33.286  1.00  0.00     0.167 HD
ATOM     50  C   UNL A   1      40.211  28.889  30.226  1.00  0.00     0.037 A 
ATOM     51  C   UNL A   1      39.662  33.091  35.774  1.00  0.00     0.037 A 
ATOM     52  C   UNL A   1      41.173  28.646  31.268  1.00  0.00     0.049 A 
ATOM     53  C   UNL A   1      40.710  32.017  35.703  1.00  0.00     0.074 A 
ATOM     54  C   UNL A   1      42.192  27.711  31.299  1.00  0.00     0.029 A 
ATOM     55  N   UNL A   1      41.239  29.349  32.462  1.00  0.00    -0.354 N 
ATOM     56  N   UNL A   1      40.952  31.164  34.738  1.00  0.00    -0.248 NA
ATOM     57  C   UNL A   1      41.601  31.881  36.864  1.00  0.00     0.031 C 
ATOM     58  C   UNL A   1      42.861  27.832  32.522  1.00  0.00     0.029 A 
ATOM     59  C   UNL A   1      42.277  28.863  33.239  1.00  0.00     0.049 A 
ATOM     60  H   UNL A   1      40.637  30.085  32.718  1.00  0.00     0.167 HD
ATOM     61  C   UNL A   1      42.027  30.399  35.168  1.00  0.00     0.074 A 
ATOM     62  C   UNL A   1      42.404  30.901  36.472  1.00  0.00     0.031 C 
ATOM     63  C   UNL A   1      42.639  29.369  34.537  1.00  0.00     0.037 A 
BRANCH  50  64
ATOM     64  C   UNL A   1      40.244  27.999  29.020  1.00  0.00     0.064 A 
ATOM     65  C   UNL A   1      39.553  26.777  29.016  1.00  0.00     0.173 A 
ATOM     66  C   UNL A   1      41.002  28.329  27.887  1.00  0.00     0.173 A 
ATOM     67  F   UNL A   1      38.819  26.410  30.077  1.00  0.00    -0.203 F 
ATOM     68  C   UNL A   1      39.627  25.918  27.922  1.00  0.00     0.198 A 
ATOM     69  C   UNL A   1      41.053  27.479  26.786  1.00  0.00     0.198 A 
ATOM     70  F   UNL A   1      41.671  29.491  27.840  1.00  0.00    -0.203 F 
ATOM     71  F   UNL A   1      38.977  24.745  27.948  1.00  0.00    -0.200 F 
ATOM     72  C   UNL A   1      40.373  26.271  26.807  1.00  0.00     0.200 A 
ATOM     73  F   UNL A   1      41.755  27.834  25.701  1.00  0.00    -0.200 F 
ATOM     74  F   UNL A   1      40.430  25.450  25.750  1.00  0.00    -0.200 F 
ENDBRANCH  50  64
BRANCH  51  75
ATOM     75  C   UNL A   1      39.571  33.989  36.952  1.00  0.00     0.064 A 
ATOM     76  C   UNL A   1      40.225  35.228  36.984  1.00  0.00     0.173 A 
ATOM     77  C   UNL A   1      38.843  33.603  38.086  1.00  0.00     0.173 A 
ATOM     78  F   UNL A   1      40.938  35.639  35.926  1.00  0.00    -0.203 F 
ATOM     79  C   UNL A   1      40.164  36.042  38.114  1.00  0.00     0.198 A 
ATOM     80  C   UNL A   1      38.765  34.426  39.206  1.00  0.00     0.198 A 
ATOM     81  F   UNL A   1      38.185  32.434  38.091  1.00  0.00    -0.203 F 
ATOM     82  F   UNL A   1      40.818  37.211  38.131  1.00  0.00    -0.200 F 
ATOM     83  C   UNL A   1      39.431  35.642  39.222  1.00  0.00     0.200 A 
ATOM     84  F   UNL A   1      38.039  34.045  40.266  1.00  0.00    -0.200 F 
ATOM     85  F   UNL A   1      39.364  36.430  40.304  1.00  0.00    -0.200 F 
ENDBRANCH  51  75
BRANCH  63  86
ATOM     86  C   UNL A   1      43.786  28.713  35.246  1.00  0.00     0.064 A 
ATOM     87  C   UNL A   1      45.104  29.124  35.001  1.00  0.00     0.173 A 
ATOM     88  C   UNL A   1      43.581  27.640  36.124  1.00  0.00     0.173 A 
ATOM     89  F   UNL A   1      45.351  30.144  34.164  1.00  0.00    -0.203 F 
ATOM     90  C   UNL A   1      46.178  28.476  35.604  1.00  0.00     0.198 A 
ATOM     91  C   UNL A   1      44.656  27.008  36.742  1.00  0.00     0.198 A 
ATOM     92  F   UNL A   1      42.336  27.222  36.399  1.00  0.00    -0.203 F 
ATOM     93  F   UNL A   1      47.431  28.870  35.339  1.00  0.00    -0.200 F 
ATOM     94  C   UNL A   1      45.953  27.421  36.476  1.00  0.00     0.200 A 
ATOM     95  F   UNL A   1      44.436  26.004  37.602  1.00  0.00    -0.200 F 
ATOM     96  F   UNL A   1      46.987  26.806  37.065  1.00  0.00    -0.200 F 
ENDBRANCH  63  86
ENDBRANCH  37  38
ENDBRANCH  29  32
ENDBRANCH  27  28
ENDBRANCH  26  27
ENDBRANCH   1  26
TORSDOF 14
ENDMDL
