MODEL 1
REMARK VINA RESULT:     -12.1      0.000      0.000
REMARK SMILES C[C@@H](Sc1nc2c(cc1C#N)CCC2)C(=O)NCCCCNC(=O)c1ccc(-c2c3nc(c(-c4c(F)c(F)c(F)c(F)c4F)c4ccc([nH]4)c(-c4c(F)c(F)c(F)c(F)c4F)c4nc(c(-c5c(F)c(F)c(F)c(F)c5F)c5ccc2[nH]5)C=C4)C=C3)cc1
REMARK SMILES IDX 19 1 18 2 17 3 15 4 16 5 2 7 1 8 3 9 4 10 5 11 9 12 6 13
REMARK SMILES IDX 8 14 7 15 14 16 12 17 13 18 10 19 11 20 20 21 21 22 22 23
REMARK SMILES IDX 23 24 24 26 25 27 26 28 87 29 27 30 86 31 28 32 29 33 30 34
REMARK SMILES IDX 80 35 31 36 85 37 79 38 81 39 32 40 84 41 78 42 77 43 33 45
REMARK SMILES IDX 65 46 45 47 64 48 46 49 49 50 63 51 82 52 47 53 48 54 62 56
REMARK SMILES IDX 83 57 50 58 34 59 35 60 43 61 36 62 37 63 41 64 44 65 38 66
REMARK SMILES IDX 39 67 42 68 40 69 66 70 67 71 75 72 68 73 69 74 73 75 76 76
REMARK SMILES IDX 70 77 71 78 74 79 72 80 51 81 52 82 60 83 53 84 54 85 58 86
REMARK SMILES IDX 61 87 55 88 56 89 59 90 57 91
REMARK H PARENT 17 6 22 25 81 44 49 55
REMARK Flexibility Score: inf
ROOT
ATOM      1  C   UNL A   1      31.610  30.808  26.099  1.00  0.00     0.023 C 
ENDROOT
BRANCH   1   2
ATOM      2  C   UNL A   1      32.406  29.979  27.102  1.00  0.00     0.116 C 
BRANCH   2   3
ATOM      3  N   UNL A   1      31.745  28.717  27.387  1.00  0.00    -0.355 N 
ATOM      4  C   UNL A   1      31.721  27.549  26.677  1.00  0.00     0.233 C 
ATOM      5  O   UNL A   1      31.068  26.614  27.149  1.00  0.00    -0.274 OA
ATOM      6  H   UNL A   1      31.231  28.701  28.226  1.00  0.00     0.163 HD
BRANCH   4   7
ATOM      7  C   UNL A   1      32.461  27.402  25.341  1.00  0.00     0.139 C 
ATOM      8  C   UNL A   1      33.932  27.058  25.563  1.00  0.00     0.030 C 
BRANCH   7   9
ATOM      9  S   UNL A   1      31.463  26.263  24.290  1.00  0.00    -0.092 SA
BRANCH   9  10
ATOM     10  C   UNL A   1      32.483  24.809  24.231  1.00  0.00     0.115 A 
ATOM     11  N   UNL A   1      32.468  24.047  25.355  1.00  0.00    -0.245 NA
ATOM     12  C   UNL A   1      33.318  24.546  23.131  1.00  0.00     0.085 A 
ATOM     13  C   UNL A   1      33.344  23.032  25.382  1.00  0.00     0.045 A 
ATOM     14  C   UNL A   1      34.206  23.464  23.195  1.00  0.00     0.028 A 
ATOM     15  C   UNL A   1      34.223  22.717  24.354  1.00  0.00    -0.025 A 
ATOM     16  C   UNL A   1      33.495  22.074  26.529  1.00  0.00     0.057 C 
ATOM     17  C   UNL A   1      35.061  21.532  24.702  1.00  0.00     0.038 C 
ATOM     18  C   UNL A   1      34.876  21.475  26.227  1.00  0.00     0.011 C 
BRANCH  12  19
ATOM     19  C   UNL A   1      33.275  25.341  21.943  1.00  0.00     0.102 C 
ATOM     20  N   UNL A   1      33.205  25.994  20.983  1.00  0.00    -0.192 NA
ENDBRANCH  12  19
ENDBRANCH   9  10
ENDBRANCH   7   9
ENDBRANCH   4   7
ENDBRANCH   2   3
ENDBRANCH   1   2
BRANCH   1  21
ATOM     21  C   UNL A   1      31.387  32.255  26.531  1.00  0.00     0.023 C 
BRANCH  21  22
ATOM     22  C   UNL A   1      32.554  32.876  27.287  1.00  0.00     0.116 C 
BRANCH  22  23
ATOM     23  N   UNL A   1      32.316  34.264  27.656  1.00  0.00    -0.352 N 
ATOM     24  C   UNL A   1      32.942  35.019  28.617  1.00  0.00     0.251 C 
ATOM     25  H   UNL A   1      31.610  34.724  27.147  1.00  0.00     0.163 HD
ATOM     26  O   UNL A   1      32.519  36.129  28.920  1.00  0.00    -0.269 OA
BRANCH  24  27
ATOM     27  C   UNL A   1      34.119  34.462  29.313  1.00  0.00     0.039 A 
ATOM     28  C   UNL A   1      33.931  33.765  30.507  1.00  0.00     0.014 A 
ATOM     29  C   UNL A   1      35.396  34.590  28.759  1.00  0.00     0.014 A 
ATOM     30  C   UNL A   1      35.019  33.140  31.115  1.00  0.00     0.010 A 
ATOM     31  C   UNL A   1      36.460  33.888  29.313  1.00  0.00     0.010 A 
ATOM     32  C   UNL A   1      36.284  33.165  30.502  1.00  0.00    -0.014 A 
BRANCH  32  33
ATOM     33  C   UNL A   1      37.438  32.455  31.105  1.00  0.00     0.031 A 
ATOM     34  C   UNL A   1      37.924  32.842  32.472  1.00  0.00     0.074 A 
ATOM     35  C   UNL A   1      38.064  31.485  30.411  1.00  0.00     0.049 A 
ATOM     36  N   UNL A   1      38.925  32.356  33.161  1.00  0.00    -0.248 NA
ATOM     37  C   UNL A   1      37.204  33.933  33.148  1.00  0.00     0.031 C 
ATOM     38  C   UNL A   1      37.702  31.044  29.064  1.00  0.00     0.029 A 
ATOM     39  N   UNL A   1      39.133  30.692  30.744  1.00  0.00    -0.354 N 
ATOM     40  C   UNL A   1      38.949  33.078  34.346  1.00  0.00     0.074 A 
ATOM     41  C   UNL A   1      37.915  34.084  34.254  1.00  0.00     0.031 C 
ATOM     42  C   UNL A   1      38.507  30.033  28.702  1.00  0.00     0.029 A 
ATOM     43  C   UNL A   1      39.471  29.784  29.771  1.00  0.00     0.049 A 
ATOM     44  H   UNL A   1      39.614  30.766  31.600  1.00  0.00     0.167 HD
ATOM     45  C   UNL A   1      39.740  32.894  35.429  1.00  0.00     0.037 A 
ATOM     46  C   UNL A   1      40.448  28.856  29.742  1.00  0.00     0.037 A 
ATOM     47  C   UNL A   1      40.762  31.885  35.517  1.00  0.00     0.049 A 
ATOM     48  C   UNL A   1      41.353  28.709  30.936  1.00  0.00     0.074 A 
ATOM     49  C   UNL A   1      41.596  31.597  36.582  1.00  0.00     0.029 A 
ATOM     50  N   UNL A   1      41.094  31.004  34.498  1.00  0.00    -0.354 N 
ATOM     51  N   UNL A   1      41.327  29.355  32.076  1.00  0.00    -0.248 NA
ATOM     52  C   UNL A   1      42.419  27.703  30.840  1.00  0.00     0.031 C 
ATOM     53  C   UNL A   1      42.476  30.588  36.186  1.00  0.00     0.029 A 
ATOM     54  C   UNL A   1      42.146  30.194  34.899  1.00  0.00     0.049 A 
ATOM     55  H   UNL A   1      40.650  30.960  33.621  1.00  0.00     0.167 HD
ATOM     56  C   UNL A   1      42.353  28.819  32.843  1.00  0.00     0.074 A 
ATOM     57  C   UNL A   1      42.971  27.780  32.043  1.00  0.00     0.031 C 
ATOM     58  C   UNL A   1      42.750  29.161  34.094  1.00  0.00     0.037 A 
BRANCH  45  59
ATOM     59  C   UNL A   1      39.524  33.794  36.612  1.00  0.00     0.064 A 
ATOM     60  C   UNL A   1      38.756  33.387  37.714  1.00  0.00     0.173 A 
ATOM     61  C   UNL A   1      40.133  35.056  36.669  1.00  0.00     0.173 A 
ATOM     62  F   UNL A   1      38.141  32.194  37.707  1.00  0.00    -0.203 F 
ATOM     63  C   UNL A   1      38.585  34.219  38.817  1.00  0.00     0.198 A 
ATOM     64  C   UNL A   1      39.990  35.871  37.790  1.00  0.00     0.198 A 
ATOM     65  F   UNL A   1      40.881  35.495  35.646  1.00  0.00    -0.203 F 
ATOM     66  F   UNL A   1      37.806  33.829  39.836  1.00  0.00    -0.200 F 
ATOM     67  C   UNL A   1      39.211  35.456  38.858  1.00  0.00     0.200 A 
ATOM     68  F   UNL A   1      40.612  37.058  37.836  1.00  0.00    -0.200 F 
ATOM     69  F   UNL A   1      39.060  36.249  39.928  1.00  0.00    -0.200 F 
ENDBRANCH  45  59
BRANCH  46  70
ATOM     70  C   UNL A   1      40.586  27.972  28.555  1.00  0.00     0.064 A 
ATOM     71  C   UNL A   1      39.934  26.732  28.502  1.00  0.00     0.173 A 
ATOM     72  C   UNL A   1      41.340  28.359  27.435  1.00  0.00     0.173 A 
ATOM     73  F   UNL A   1      39.220  26.307  29.554  1.00  0.00    -0.203 F 
ATOM     74  C   UNL A   1      40.032  25.913  27.380  1.00  0.00     0.198 A 
ATOM     75  C   UNL A   1      41.411  27.553  26.301  1.00  0.00     0.198 A 
ATOM     76  F   UNL A   1      41.981  29.536  27.432  1.00  0.00    -0.203 F 
ATOM     77  F   UNL A   1      39.423  24.719  27.369  1.00  0.00    -0.200 F 
ATOM     78  C   UNL A   1      40.761  26.329  26.275  1.00  0.00     0.200 A 
ATOM     79  F   UNL A   1      42.100  27.968  25.230  1.00  0.00    -0.200 F 
ATOM     80  F   UNL A   1      40.837  25.550  25.188  1.00  0.00    -0.200 F 
ENDBRANCH  46  70
BRANCH  58  81
ATOM     81  C   UNL A   1      43.897  28.400  34.698  1.00  0.00     0.064 A 
ATOM     82  C   UNL A   1      45.220  28.851  34.582  1.00  0.00     0.173 A 
ATOM     83  C   UNL A   1      43.660  27.257  35.479  1.00  0.00     0.173 A 
ATOM     84  F   UNL A   1      45.503  29.931  33.838  1.00  0.00    -0.203 F 
ATOM     85  C   UNL A   1      46.264  28.178  35.211  1.00  0.00     0.198 A 
ATOM     86  C   UNL A   1      44.702  26.609  36.137  1.00  0.00     0.198 A 
ATOM     87  F   UNL A   1      42.412  26.789  35.634  1.00  0.00    -0.203 F 
ATOM     88  F   UNL A   1      47.524  28.604  35.052  1.00  0.00    -0.200 F 
ATOM     89  C   UNL A   1      46.003  27.066  35.998  1.00  0.00     0.200 A 
ATOM     90  F   UNL A   1      44.443  25.548  36.915  1.00  0.00    -0.200 F 
ATOM     91  F   UNL A   1      47.006  26.435  36.622  1.00  0.00    -0.200 F 
ENDBRANCH  58  81
ENDBRANCH  32  33
ENDBRANCH  24  27
ENDBRANCH  22  23
ENDBRANCH  21  22
ENDBRANCH   1  21
TORSDOF 14
ENDMDL
MODEL 2
REMARK VINA RESULT:     -12.1      0.228      1.627
REMARK SMILES C[C@@H](Sc1nc2c(cc1C#N)CCC2)C(=O)NCCCCNC(=O)c1ccc(-c2c3nc(c(-c4c(F)c(F)c(F)c(F)c4F)c4ccc([nH]4)c(-c4c(F)c(F)c(F)c(F)c4F)c4nc(c(-c5c(F)c(F)c(F)c(F)c5F)c5ccc2[nH]5)C=C4)C=C3)cc1
REMARK SMILES IDX 19 1 18 2 17 3 15 4 16 5 2 7 1 8 3 9 4 10 5 11 9 12 6 13
REMARK SMILES IDX 8 14 7 15 14 16 12 17 13 18 10 19 11 20 20 21 21 22 22 23
REMARK SMILES IDX 23 24 24 26 25 27 26 28 87 29 27 30 86 31 28 32 29 33 30 34
REMARK SMILES IDX 80 35 31 36 85 37 79 38 81 39 32 40 84 41 78 42 77 43 33 45
REMARK SMILES IDX 65 46 45 47 64 48 46 49 49 50 63 51 82 52 47 53 48 54 62 56
REMARK SMILES IDX 83 57 50 58 34 59 35 60 43 61 36 62 37 63 41 64 44 65 38 66
REMARK SMILES IDX 39 67 42 68 40 69 66 70 67 71 75 72 68 73 69 74 73 75 76 76
REMARK SMILES IDX 70 77 71 78 74 79 72 80 51 81 52 82 60 83 53 84 54 85 58 86
REMARK SMILES IDX 61 87 55 88 56 89 59 90 57 91
REMARK H PARENT 17 6 22 25 81 44 49 55
REMARK Flexibility Score: inf
ROOT
ATOM      1  C   UNL A   1      31.665  30.728  26.156  1.00  0.00     0.023 C 
ENDROOT
BRANCH   1   2
ATOM      2  C   UNL A   1      32.386  29.765  27.094  1.00  0.00     0.116 C 
BRANCH   2   3
ATOM      3  N   UNL A   1      31.610  28.556  27.309  1.00  0.00    -0.355 N 
ATOM      4  C   UNL A   1      31.521  27.415  26.560  1.00  0.00     0.233 C 
ATOM      5  O   UNL A   1      30.771  26.525  26.972  1.00  0.00    -0.274 OA
ATOM      6  H   UNL A   1      31.059  28.558  28.124  1.00  0.00     0.163 HD
BRANCH   4   7
ATOM      7  C   UNL A   1      32.305  27.245  25.253  1.00  0.00     0.139 C 
ATOM      8  C   UNL A   1      33.776  26.943  25.531  1.00  0.00     0.030 C 
BRANCH   7   9
ATOM      9  S   UNL A   1      31.366  26.053  24.207  1.00  0.00    -0.092 SA
BRANCH   9  10
ATOM     10  C   UNL A   1      32.442  24.639  24.185  1.00  0.00     0.115 A 
ATOM     11  N   UNL A   1      32.458  23.908  25.329  1.00  0.00    -0.245 NA
ATOM     12  C   UNL A   1      33.286  24.378  23.090  1.00  0.00     0.085 A 
ATOM     13  C   UNL A   1      33.374  22.928  25.382  1.00  0.00     0.045 A 
ATOM     14  C   UNL A   1      34.215  23.334  23.182  1.00  0.00     0.028 A 
ATOM     15  C   UNL A   1      34.263  22.620  24.360  1.00  0.00    -0.025 A 
ATOM     16  C   UNL A   1      33.563  22.009  26.554  1.00  0.00     0.057 C 
ATOM     17  C   UNL A   1      35.146  21.478  24.740  1.00  0.00     0.038 C 
ATOM     18  C   UNL A   1      34.966  21.456  26.265  1.00  0.00     0.011 C 
BRANCH  12  19
ATOM     19  C   UNL A   1      33.210  25.138  21.881  1.00  0.00     0.102 C 
ATOM     20  N   UNL A   1      33.137  25.728  20.882  1.00  0.00    -0.192 NA
ENDBRANCH  12  19
ENDBRANCH   9  10
ENDBRANCH   7   9
ENDBRANCH   4   7
ENDBRANCH   2   3
ENDBRANCH   1   2
BRANCH   1  21
ATOM     21  C   UNL A   1      31.410  32.106  26.762  1.00  0.00     0.023 C 
BRANCH  21  22
ATOM     22  C   UNL A   1      32.657  32.811  27.278  1.00  0.00     0.116 C 
BRANCH  22  23
ATOM     23  N   UNL A   1      32.408  34.191  27.667  1.00  0.00    -0.352 N 
ATOM     24  C   UNL A   1      33.022  34.934  28.646  1.00  0.00     0.251 C 
ATOM     25  H   UNL A   1      31.704  34.655  27.160  1.00  0.00     0.163 HD
ATOM     26  O   UNL A   1      32.589  36.036  28.964  1.00  0.00    -0.269 OA
BRANCH  24  27
ATOM     27  C   UNL A   1      34.195  34.372  29.343  1.00  0.00     0.039 A 
ATOM     28  C   UNL A   1      33.992  33.542  30.447  1.00  0.00     0.014 A 
ATOM     29  C   UNL A   1      35.487  34.630  28.877  1.00  0.00     0.014 A 
ATOM     30  C   UNL A   1      35.086  32.917  31.044  1.00  0.00     0.010 A 
ATOM     31  C   UNL A   1      36.564  33.933  29.412  1.00  0.00     0.010 A 
ATOM     32  C   UNL A   1      36.375  33.078  30.508  1.00  0.00    -0.014 A 
BRANCH  32  33
ATOM     33  C   UNL A   1      37.540  32.373  31.096  1.00  0.00     0.031 A 
ATOM     34  C   UNL A   1      38.033  32.753  32.462  1.00  0.00     0.074 A 
ATOM     35  C   UNL A   1      38.169  31.415  30.389  1.00  0.00     0.049 A 
ATOM     36  N   UNL A   1      39.044  32.270  33.139  1.00  0.00    -0.248 NA
ATOM     37  C   UNL A   1      37.309  33.831  33.153  1.00  0.00     0.031 C 
ATOM     38  C   UNL A   1      37.801  30.982  29.040  1.00  0.00     0.029 A 
ATOM     39  N   UNL A   1      39.248  30.629  30.707  1.00  0.00    -0.354 N 
ATOM     40  C   UNL A   1      39.071  32.982  34.331  1.00  0.00     0.074 A 
ATOM     41  C   UNL A   1      38.027  33.979  34.255  1.00  0.00     0.031 C 
ATOM     42  C   UNL A   1      38.612  29.981  28.664  1.00  0.00     0.029 A 
ATOM     43  C   UNL A   1      39.586  29.732  29.723  1.00  0.00     0.049 A 
ATOM     44  H   UNL A   1      39.735  30.700  31.560  1.00  0.00     0.167 HD
ATOM     45  C   UNL A   1      39.871  32.795  35.406  1.00  0.00     0.037 A 
ATOM     46  C   UNL A   1      40.571  28.813  29.679  1.00  0.00     0.037 A 
ATOM     47  C   UNL A   1      40.902  31.794  35.477  1.00  0.00     0.049 A 
ATOM     48  C   UNL A   1      41.487  28.664  30.864  1.00  0.00     0.074 A 
ATOM     49  C   UNL A   1      41.748  31.505  36.533  1.00  0.00     0.029 A 
ATOM     50  N   UNL A   1      41.235  30.925  34.448  1.00  0.00    -0.354 N 
ATOM     51  N   UNL A   1      41.464  29.300  32.010  1.00  0.00    -0.248 NA
ATOM     52  C   UNL A   1      42.561  27.668  30.752  1.00  0.00     0.031 C 
ATOM     53  C   UNL A   1      42.633  30.507  36.122  1.00  0.00     0.029 A 
ATOM     54  C   UNL A   1      42.297  30.122  34.834  1.00  0.00     0.049 A 
ATOM     55  H   UNL A   1      40.784  30.886  33.574  1.00  0.00     0.167 HD
ATOM     56  C   UNL A   1      42.501  28.766  32.765  1.00  0.00     0.074 A 
ATOM     57  C   UNL A   1      43.121  27.740  31.951  1.00  0.00     0.031 C 
ATOM     58  C   UNL A   1      42.904  29.101  34.016  1.00  0.00     0.037 A 
BRANCH  45  59
ATOM     59  C   UNL A   1      39.656  33.683  36.598  1.00  0.00     0.064 A 
ATOM     60  C   UNL A   1      40.224  34.965  36.671  1.00  0.00     0.173 A 
ATOM     61  C   UNL A   1      38.831  33.273  37.655  1.00  0.00     0.173 A 
ATOM     62  F   UNL A   1      41.031  35.404  35.693  1.00  0.00    -0.203 F 
ATOM     63  C   UNL A   1      39.995  35.791  37.768  1.00  0.00     0.198 A 
ATOM     64  C   UNL A   1      38.574  34.116  38.734  1.00  0.00     0.198 A 
ATOM     65  F   UNL A   1      38.258  32.060  37.636  1.00  0.00    -0.203 F 
ATOM     66  F   UNL A   1      40.589  36.990  37.838  1.00  0.00    -0.200 F 
ATOM     67  C   UNL A   1      39.162  35.370  38.793  1.00  0.00     0.200 A 
ATOM     68  F   UNL A   1      37.753  33.715  39.715  1.00  0.00    -0.200 F 
ATOM     69  F   UNL A   1      38.928  36.173  39.841  1.00  0.00    -0.200 F 
ENDBRANCH  45  59
BRANCH  46  70
ATOM     70  C   UNL A   1      40.708  27.941  28.483  1.00  0.00     0.064 A 
ATOM     71  C   UNL A   1      40.074  26.692  28.427  1.00  0.00     0.173 A 
ATOM     72  C   UNL A   1      41.442  28.347  27.358  1.00  0.00     0.173 A 
ATOM     73  F   UNL A   1      39.378  26.248  29.485  1.00  0.00    -0.203 F 
ATOM     74  C   UNL A   1      40.170  25.883  27.298  1.00  0.00     0.198 A 
ATOM     75  C   UNL A   1      41.511  27.551  26.216  1.00  0.00     0.198 A 
ATOM     76  F   UNL A   1      42.067  29.534  27.356  1.00  0.00    -0.203 F 
ATOM     77  F   UNL A   1      39.578  24.681  27.285  1.00  0.00    -0.200 F 
ATOM     78  C   UNL A   1      40.879  26.318  26.188  1.00  0.00     0.200 A 
ATOM     79  F   UNL A   1      42.182  27.985  25.140  1.00  0.00    -0.200 F 
ATOM     80  F   UNL A   1      40.954  25.549  25.094  1.00  0.00    -0.200 F 
ENDBRANCH  46  70
BRANCH  58  81
ATOM     81  C   UNL A   1      44.062  28.345  34.604  1.00  0.00     0.064 A 
ATOM     82  C   UNL A   1      43.879  27.130  35.282  1.00  0.00     0.173 A 
ATOM     83  C   UNL A   1      45.378  28.795  34.408  1.00  0.00     0.173 A 
ATOM     84  F   UNL A   1      42.643  26.661  35.505  1.00  0.00    -0.203 F 
ATOM     85  C   UNL A   1      44.968  26.403  35.754  1.00  0.00     0.198 A 
ATOM     86  C   UNL A   1      46.465  28.046  34.850  1.00  0.00     0.198 A 
ATOM     87  F   UNL A   1      45.611  29.944  33.757  1.00  0.00    -0.203 F 
ATOM     88  F   UNL A   1      44.767  25.266  36.433  1.00  0.00    -0.200 F 
ATOM     89  C   UNL A   1      46.260  26.854  35.527  1.00  0.00     0.200 A 
ATOM     90  F   UNL A   1      47.713  28.474  34.608  1.00  0.00    -0.200 F 
ATOM     91  F   UNL A   1      47.307  26.140  35.961  1.00  0.00    -0.200 F 
ENDBRANCH  58  81
ENDBRANCH  32  33
ENDBRANCH  24  27
ENDBRANCH  22  23
ENDBRANCH  21  22
ENDBRANCH   1  21
TORSDOF 14
ENDMDL
MODEL 3
REMARK VINA RESULT:     -12.1      0.245      7.578
REMARK SMILES C[C@@H](Sc1nc2c(cc1C#N)CCC2)C(=O)NCCCCNC(=O)c1ccc(-c2c3nc(c(-c4c(F)c(F)c(F)c(F)c4F)c4ccc([nH]4)c(-c4c(F)c(F)c(F)c(F)c4F)c4nc(c(-c5c(F)c(F)c(F)c(F)c5F)c5ccc2[nH]5)C=C4)C=C3)cc1
REMARK SMILES IDX 19 1 18 2 17 3 15 4 16 5 2 7 1 8 3 9 4 10 5 11 9 12 6 13
REMARK SMILES IDX 8 14 7 15 14 16 12 17 13 18 10 19 11 20 20 21 21 22 22 23
REMARK SMILES IDX 23 24 24 26 25 27 26 28 87 29 27 30 86 31 28 32 29 33 30 34
REMARK SMILES IDX 80 35 31 36 85 37 79 38 81 39 32 40 84 41 78 42 77 43 33 45
REMARK SMILES IDX 65 46 45 47 64 48 46 49 49 50 63 51 82 52 47 53 48 54 62 56
REMARK SMILES IDX 83 57 50 58 34 59 35 60 43 61 36 62 37 63 41 64 44 65 38 66
REMARK SMILES IDX 39 67 42 68 40 69 66 70 67 71 75 72 68 73 69 74 73 75 76 76
REMARK SMILES IDX 70 77 71 78 74 79 72 80 51 81 52 82 60 83 53 84 54 85 58 86
REMARK SMILES IDX 61 87 55 88 56 89 59 90 57 91
REMARK H PARENT 17 6 22 25 81 44 49 55
REMARK Flexibility Score: inf
ROOT
ATOM      1  C   UNL A   1      31.748  30.718  26.170  1.00  0.00     0.023 C 
ENDROOT
BRANCH   1   2
ATOM      2  C   UNL A   1      32.452  29.755  27.120  1.00  0.00     0.116 C 
BRANCH   2   3
ATOM      3  N   UNL A   1      31.660  28.556  27.339  1.00  0.00    -0.355 N 
ATOM      4  C   UNL A   1      31.531  27.428  26.577  1.00  0.00     0.233 C 
ATOM      5  O   UNL A   1      30.778  26.545  26.997  1.00  0.00    -0.274 OA
ATOM      6  H   UNL A   1      31.132  28.556  28.169  1.00  0.00     0.163 HD
BRANCH   4   7
ATOM      7  C   UNL A   1      32.277  27.264  25.247  1.00  0.00     0.139 C 
ATOM      8  C   UNL A   1      33.759  26.981  25.479  1.00  0.00     0.030 C 
BRANCH   7   9
ATOM      9  S   UNL A   1      31.321  26.057  24.233  1.00  0.00    -0.092 SA
BRANCH   9  10
ATOM     10  C   UNL A   1      32.408  24.651  24.195  1.00  0.00     0.115 A 
ATOM     11  N   UNL A   1      32.423  23.901  25.326  1.00  0.00    -0.245 NA
ATOM     12  C   UNL A   1      33.259  24.414  23.100  1.00  0.00     0.085 A 
ATOM     13  C   UNL A   1      33.345  22.928  25.368  1.00  0.00     0.045 A 
ATOM     14  C   UNL A   1      34.195  23.376  23.179  1.00  0.00     0.028 A 
ATOM     15  C   UNL A   1      34.242  22.643  24.346  1.00  0.00    -0.025 A 
ATOM     16  C   UNL A   1      33.535  21.991  26.526  1.00  0.00     0.057 C 
ATOM     17  C   UNL A   1      35.132  21.502  24.711  1.00  0.00     0.038 C 
ATOM     18  C   UNL A   1      34.944  21.453  26.236  1.00  0.00     0.011 C 
BRANCH  12  19
ATOM     19  C   UNL A   1      33.183  25.194  21.903  1.00  0.00     0.102 C 
ATOM     20  N   UNL A   1      33.148  25.809  20.917  1.00  0.00    -0.192 NA
ENDBRANCH  12  19
ENDBRANCH   9  10
ENDBRANCH   7   9
ENDBRANCH   4   7
ENDBRANCH   2   3
ENDBRANCH   1   2
BRANCH   1  21
ATOM     21  C   UNL A   1      31.452  32.085  26.782  1.00  0.00     0.023 C 
BRANCH  21  22
ATOM     22  C   UNL A   1      32.674  32.812  27.327  1.00  0.00     0.116 C 
BRANCH  22  23
ATOM     23  N   UNL A   1      32.408  34.205  27.653  1.00  0.00    -0.352 N 
ATOM     24  C   UNL A   1      32.987  34.989  28.620  1.00  0.00     0.251 C 
ATOM     25  H   UNL A   1      31.718  34.645  27.105  1.00  0.00     0.163 HD
ATOM     26  O   UNL A   1      32.540  36.101  28.880  1.00  0.00    -0.269 OA
BRANCH  24  27
ATOM     27  C   UNL A   1      34.140  34.462  29.376  1.00  0.00     0.039 A 
ATOM     28  C   UNL A   1      33.913  33.817  30.593  1.00  0.00     0.014 A 
ATOM     29  C   UNL A   1      35.434  34.566  28.858  1.00  0.00     0.014 A 
ATOM     30  C   UNL A   1      34.980  33.218  31.260  1.00  0.00     0.010 A 
ATOM     31  C   UNL A   1      36.479  33.888  29.475  1.00  0.00     0.010 A 
ATOM     32  C   UNL A   1      36.264  33.216  30.687  1.00  0.00    -0.014 A 
BRANCH  32  33
ATOM     33  C   UNL A   1      37.397  32.532  31.356  1.00  0.00     0.031 A 
ATOM     34  C   UNL A   1      38.101  31.400  30.665  1.00  0.00     0.074 A 
ATOM     35  C   UNL A   1      37.771  32.910  32.593  1.00  0.00     0.049 A 
ATOM     36  N   UNL A   1      39.098  30.664  31.090  1.00  0.00    -0.248 NA
ATOM     37  C   UNL A   1      37.610  31.029  29.328  1.00  0.00     0.031 C 
ATOM     38  C   UNL A   1      37.142  33.974  33.376  1.00  0.00     0.029 A 
ATOM     39  N   UNL A   1      38.771  32.444  33.409  1.00  0.00    -0.354 N 
ATOM     40  C   UNL A   1      39.351  29.753  30.074  1.00  0.00     0.074 A 
ATOM     41  C   UNL A   1      38.358  29.975  29.046  1.00  0.00     0.031 C 
ATOM     42  C   UNL A   1      37.798  34.109  34.540  1.00  0.00     0.029 A 
ATOM     43  C   UNL A   1      38.862  33.112  34.606  1.00  0.00     0.049 A 
ATOM     44  H   UNL A   1      39.369  31.703  33.161  1.00  0.00     0.167 HD
ATOM     45  C   UNL A   1      40.345  28.839  29.990  1.00  0.00     0.037 A 
ATOM     46  C   UNL A   1      39.707  32.938  35.641  1.00  0.00     0.037 A 
ATOM     47  C   UNL A   1      41.334  28.630  31.014  1.00  0.00     0.049 A 
ATOM     48  C   UNL A   1      40.768  31.874  35.550  1.00  0.00     0.074 A 
ATOM     49  C   UNL A   1      42.400  27.748  31.011  1.00  0.00     0.029 A 
ATOM     50  N   UNL A   1      41.374  29.305  32.226  1.00  0.00    -0.354 N 
ATOM     51  N   UNL A   1      41.038  31.060  34.558  1.00  0.00    -0.248 NA
ATOM     52  C   UNL A   1      41.644  31.708  36.718  1.00  0.00     0.031 C 
ATOM     53  C   UNL A   1      43.045  27.843  32.246  1.00  0.00     0.029 A 
ATOM     54  C   UNL A   1      42.428  28.833  32.993  1.00  0.00     0.049 A 
ATOM     55  H   UNL A   1      40.747  30.012  32.500  1.00  0.00     0.167 HD
ATOM     56  C   UNL A   1      42.127  30.303  34.970  1.00  0.00     0.074 A 
ATOM     57  C   UNL A   1      42.480  30.769  36.296  1.00  0.00     0.031 C 
ATOM     58  C   UNL A   1      42.771  29.308  34.311  1.00  0.00     0.037 A 
BRANCH  45  59
ATOM     59  C   UNL A   1      40.419  28.002  28.745  1.00  0.00     0.064 A 
ATOM     60  C   UNL A   1      41.177  28.404  27.634  1.00  0.00     0.173 A 
ATOM     61  C   UNL A   1      39.771  26.760  28.679  1.00  0.00     0.173 A 
ATOM     62  F   UNL A   1      41.809  29.589  27.639  1.00  0.00    -0.203 F 
ATOM     63  C   UNL A   1      41.262  27.608  26.495  1.00  0.00     0.198 A 
ATOM     64  C   UNL A   1      39.888  25.949  27.553  1.00  0.00     0.198 A 
ATOM     65  F   UNL A   1      39.036  26.323  29.713  1.00  0.00    -0.203 F 
ATOM     66  F   UNL A   1      41.951  28.037  25.429  1.00  0.00    -0.200 F 
ATOM     67  C   UNL A   1      40.626  26.376  26.460  1.00  0.00     0.200 A 
ATOM     68  F   UNL A   1      39.288  24.750  27.528  1.00  0.00    -0.200 F 
ATOM     69  F   UNL A   1      40.723  25.602  25.371  1.00  0.00    -0.200 F 
ENDBRANCH  45  59
BRANCH  46  70
ATOM     70  C   UNL A   1      39.603  33.824  36.831  1.00  0.00     0.064 A 
ATOM     71  C   UNL A   1      40.235  35.075  36.854  1.00  0.00     0.173 A 
ATOM     72  C   UNL A   1      38.842  33.459  37.953  1.00  0.00     0.173 A 
ATOM     73  F   UNL A   1      40.991  35.460  35.816  1.00  0.00    -0.203 F 
ATOM     74  C   UNL A   1      40.115  35.924  37.951  1.00  0.00     0.198 A 
ATOM     75  C   UNL A   1      38.696  34.323  39.037  1.00  0.00     0.198 A 
ATOM     76  F   UNL A   1      38.213  32.275  37.982  1.00  0.00    -0.203 F 
ATOM     77  F   UNL A   1      40.755  37.101  37.958  1.00  0.00    -0.200 F 
ATOM     78  C   UNL A   1      39.336  35.553  39.037  1.00  0.00     0.200 A 
ATOM     79  F   UNL A   1      37.927  33.967  40.075  1.00  0.00    -0.200 F 
ATOM     80  F   UNL A   1      39.203  36.379  40.083  1.00  0.00    -0.200 F 
ENDBRANCH  46  70
BRANCH  58  81
ATOM     81  C   UNL A   1      43.941  28.657  34.995  1.00  0.00     0.064 A 
ATOM     82  C   UNL A   1      43.787  27.496  35.767  1.00  0.00     0.173 A 
ATOM     83  C   UNL A   1      45.242  29.148  34.800  1.00  0.00     0.173 A 
ATOM     84  F   UNL A   1      42.565  26.992  35.993  1.00  0.00    -0.203 F 
ATOM     85  C   UNL A   1      44.890  26.861  36.331  1.00  0.00     0.198 A 
ATOM     86  C   UNL A   1      46.345  28.488  35.335  1.00  0.00     0.198 A 
ATOM     87  F   UNL A   1      45.448  30.248  34.060  1.00  0.00    -0.203 F 
ATOM     88  F   UNL A   1      44.715  25.776  37.098  1.00  0.00    -0.200 F 
ATOM     89  C   UNL A   1      46.168  27.349  36.104  1.00  0.00     0.200 A 
ATOM     90  F   UNL A   1      47.581  28.949  35.094  1.00  0.00    -0.200 F 
ATOM     91  F   UNL A   1      47.229  26.721  36.627  1.00  0.00    -0.200 F 
ENDBRANCH  58  81
ENDBRANCH  32  33
ENDBRANCH  24  27
ENDBRANCH  22  23
ENDBRANCH  21  22
ENDBRANCH   1  21
TORSDOF 14
ENDMDL
