MODEL 1
REMARK VINA RESULT:     -12.5      0.000      0.000
REMARK SMILES CC(C)(C)C(=O)NCC(=O)Nc1cc(Cl)ccc1C(=O)NCCCCNC(=O)c1ccc(-c2c3nc(c(-c4c(F)c(F)c(F)c(F)c4F)c4ccc([nH]4)c(-c4c(F)c(F)c(F)c(F)c4F)c4nc(c(-c5c(F)c(F)c(F)c(F)c5F)c5ccc2[nH]5)C=C4)C=C3)cc1
REMARK SMILES IDX 22 1 21 2 19 3 20 4 18 6 12 7 13 8 14 9 17 10 15 11 16 12
REMARK SMILES IDX 11 13 9 14 10 15 8 17 7 18 5 19 6 20 2 22 1 23 3 24 4 25
REMARK SMILES IDX 23 26 24 27 25 28 26 29 27 30 28 32 29 33 30 34 91 35 31 36
REMARK SMILES IDX 90 37 32 38 33 39 34 40 84 41 35 42 89 43 83 44 85 45 36 46
REMARK SMILES IDX 88 47 82 48 81 49 37 51 69 52 49 53 68 54 50 55 53 56 67 57
REMARK SMILES IDX 86 58 51 59 52 60 66 62 87 63 54 64 38 65 39 66 47 67 40 68
REMARK SMILES IDX 41 69 45 70 48 71 42 72 43 73 46 74 44 75 70 76 71 77 79 78
REMARK SMILES IDX 72 79 73 80 77 81 80 82 74 83 75 84 78 85 76 86 55 87 56 88
REMARK SMILES IDX 64 89 57 90 58 91 62 92 65 93 59 94 60 95 63 96 61 97
REMARK H PARENT 21 5 11 16 7 21 26 31 85 50 53 61
REMARK Flexibility Score: inf
ROOT
ATOM      1  C   UNL A   1      35.361  21.233  24.575  1.00  0.00     0.116 C 
ENDROOT
BRANCH   1   2
ATOM      2  N   UNL A   1      34.108  20.625  24.938  1.00  0.00    -0.352 N 
ATOM      3  C   UNL A   1      32.817  20.975  24.616  1.00  0.00     0.253 C 
ATOM      4  O   UNL A   1      31.928  20.211  25.001  1.00  0.00    -0.269 OA
ATOM      5  H   UNL A   1      34.187  19.829  25.511  1.00  0.00     0.163 HD
BRANCH   3   6
ATOM      6  C   UNL A   1      32.404  22.232  23.908  1.00  0.00     0.063 A 
ATOM      7  C   UNL A   1      31.351  23.117  24.224  1.00  0.00     0.055 A 
ATOM      8  C   UNL A   1      31.198  24.303  23.483  1.00  0.00     0.047 A 
ATOM      9  C   UNL A   1      32.017  24.584  22.391  1.00  0.00     0.043 A 
ATOM     10  C   UNL A   1      33.220  22.544  22.794  1.00  0.00     0.017 A 
ATOM     11  Cl  UNL A   1      31.798  26.039  21.504  1.00  0.00    -0.084 Cl
ATOM     12  C   UNL A   1      33.022  23.699  22.033  1.00  0.00     0.021 A 
BRANCH   7  13
ATOM     13  N   UNL A   1      30.555  22.978  25.367  1.00  0.00    -0.324 N 
ATOM     14  C   UNL A   1      30.657  23.582  26.597  1.00  0.00     0.243 C 
ATOM     15  O   UNL A   1      29.764  23.314  27.411  1.00  0.00    -0.273 OA
ATOM     16  H   UNL A   1      29.803  22.349  25.275  1.00  0.00     0.170 HD
BRANCH  14  17
ATOM     17  C   UNL A   1      31.593  24.788  26.873  1.00  0.00     0.216 C 
BRANCH  17  18
ATOM     18  N   UNL A   1      31.180  26.078  26.375  1.00  0.00    -0.347 N 
ATOM     19  C   UNL A   1      31.805  27.116  25.775  1.00  0.00     0.225 C 
ATOM     20  O   UNL A   1      31.049  28.050  25.477  1.00  0.00    -0.275 OA
ATOM     21  H   UNL A   1      30.218  26.240  26.501  1.00  0.00     0.164 HD
BRANCH  19  22
ATOM     22  C   UNL A   1      33.305  27.166  25.399  1.00  0.00     0.041 C 
ATOM     23  C   UNL A   1      34.026  27.980  26.503  1.00  0.00     0.021 C 
ATOM     24  C   UNL A   1      33.468  27.901  24.064  1.00  0.00     0.021 C 
ATOM     25  C   UNL A   1      34.028  25.819  25.337  1.00  0.00     0.021 C 
ENDBRANCH  19  22
ENDBRANCH  17  18
ENDBRANCH  14  17
ENDBRANCH   7  13
ENDBRANCH   3   6
ENDBRANCH   1   2
BRANCH   1  26
ATOM     26  C   UNL A   1      36.510  21.079  25.559  1.00  0.00     0.023 C 
BRANCH  26  27
ATOM     27  C   UNL A   1      37.719  20.293  25.060  1.00  0.00     0.023 C 
BRANCH  27  28
ATOM     28  C   UNL A   1      39.052  20.577  25.746  1.00  0.00     0.116 C 
BRANCH  28  29
ATOM     29  N   UNL A   1      39.972  19.448  25.764  1.00  0.00    -0.352 N 
ATOM     30  C   UNL A   1      41.332  19.415  25.979  1.00  0.00     0.251 C 
ATOM     31  H   UNL A   1      39.558  18.571  25.597  1.00  0.00     0.163 HD
ATOM     32  O   UNL A   1      41.950  18.361  25.863  1.00  0.00    -0.269 OA
BRANCH  30  33
ATOM     33  C   UNL A   1      42.069  20.655  26.305  1.00  0.00     0.039 A 
ATOM     34  C   UNL A   1      42.565  21.441  25.260  1.00  0.00     0.014 A 
ATOM     35  C   UNL A   1      42.252  21.064  27.628  1.00  0.00     0.014 A 
ATOM     36  C   UNL A   1      43.139  22.683  25.537  1.00  0.00     0.010 A 
ATOM     37  C   UNL A   1      42.731  22.342  27.896  1.00  0.00     0.010 A 
ATOM     38  C   UNL A   1      43.171  23.172  26.853  1.00  0.00    -0.014 A 
BRANCH  38  39
ATOM     39  C   UNL A   1      43.635  24.550  27.160  1.00  0.00     0.031 A 
ATOM     40  C   UNL A   1      42.668  25.582  27.670  1.00  0.00     0.074 A 
ATOM     41  C   UNL A   1      44.907  24.902  26.889  1.00  0.00     0.049 A 
ATOM     42  N   UNL A   1      42.860  26.857  27.901  1.00  0.00    -0.248 NA
ATOM     43  C   UNL A   1      41.292  25.128  27.918  1.00  0.00     0.031 C 
ATOM     44  C   UNL A   1      45.928  24.016  26.327  1.00  0.00     0.029 A 
ATOM     45  N   UNL A   1      45.555  26.104  27.032  1.00  0.00    -0.354 N 
ATOM     46  C   UNL A   1      41.628  27.359  28.297  1.00  0.00     0.074 A 
ATOM     47  C   UNL A   1      40.683  26.266  28.217  1.00  0.00     0.031 C 
ATOM     48  C   UNL A   1      47.077  24.698  26.193  1.00  0.00     0.029 A 
ATOM     49  C   UNL A   1      46.866  26.077  26.622  1.00  0.00     0.049 A 
ATOM     50  H   UNL A   1      45.121  26.911  27.394  1.00  0.00     0.167 HD
ATOM     51  C   UNL A   1      41.316  28.609  28.715  1.00  0.00     0.037 A 
ATOM     52  C   UNL A   1      47.792  27.053  26.586  1.00  0.00     0.037 A 
ATOM     53  C   UNL A   1      42.264  29.687  28.821  1.00  0.00     0.049 A 
ATOM     54  C   UNL A   1      47.431  28.430  27.073  1.00  0.00     0.074 A 
ATOM     55  C   UNL A   1      42.064  30.968  29.305  1.00  0.00     0.029 A 
ATOM     56  N   UNL A   1      43.594  29.610  28.432  1.00  0.00    -0.354 N 
ATOM     57  N   UNL A   1      46.282  28.873  27.520  1.00  0.00    -0.248 NA
ATOM     58  C   UNL A   1      48.498  29.439  27.057  1.00  0.00     0.031 C 
ATOM     59  C   UNL A   1      43.261  31.680  29.166  1.00  0.00     0.029 A 
ATOM     60  C   UNL A   1      44.221  30.828  28.643  1.00  0.00     0.049 A 
ATOM     61  H   UNL A   1      44.028  28.809  28.060  1.00  0.00     0.167 HD
ATOM     62  C   UNL A   1      46.490  30.203  27.860  1.00  0.00     0.074 A 
ATOM     63  C   UNL A   1      47.881  30.491  27.579  1.00  0.00     0.031 C 
ATOM     64  C   UNL A   1      45.607  31.102  28.359  1.00  0.00     0.037 A 
BRANCH  51  65
ATOM     65  C   UNL A   1      39.886  28.871  29.090  1.00  0.00     0.064 A 
ATOM     66  C   UNL A   1      39.424  28.697  30.404  1.00  0.00     0.173 A 
ATOM     67  C   UNL A   1      38.963  29.305  28.125  1.00  0.00     0.173 A 
ATOM     68  F   UNL A   1      40.262  28.274  31.362  1.00  0.00    -0.203 F 
ATOM     69  C   UNL A   1      38.086  28.903  30.728  1.00  0.00     0.198 A 
ATOM     70  C   UNL A   1      37.633  29.543  28.461  1.00  0.00     0.198 A 
ATOM     71  F   UNL A   1      39.352  29.495  26.855  1.00  0.00    -0.203 F 
ATOM     72  F   UNL A   1      37.657  28.664  31.975  1.00  0.00    -0.200 F 
ATOM     73  C   UNL A   1      37.192  29.330  29.758  1.00  0.00     0.200 A 
ATOM     74  F   UNL A   1      36.774  29.968  27.525  1.00  0.00    -0.200 F 
ATOM     75  F   UNL A   1      35.904  29.524  30.071  1.00  0.00    -0.200 F 
ENDBRANCH  51  65
BRANCH  52  76
ATOM     76  C   UNL A   1      49.162  26.747  26.100  1.00  0.00     0.064 A 
ATOM     77  C   UNL A   1      49.513  26.963  24.762  1.00  0.00     0.173 A 
ATOM     78  C   UNL A   1      50.152  26.263  26.967  1.00  0.00     0.173 A 
ATOM     79  F   UNL A   1      48.594  27.407  23.891  1.00  0.00    -0.203 F 
ATOM     80  C   UNL A   1      50.803  26.697  24.304  1.00  0.00     0.198 A 
ATOM     81  C   UNL A   1      51.448  26.022  26.514  1.00  0.00     0.198 A 
ATOM     82  F   UNL A   1      49.867  26.048  28.260  1.00  0.00    -0.203 F 
ATOM     83  F   UNL A   1      51.105  26.883  23.012  1.00  0.00    -0.200 F 
ATOM     84  C   UNL A   1      51.770  26.234  25.183  1.00  0.00     0.200 A 
ATOM     85  F   UNL A   1      52.385  25.590  27.370  1.00  0.00    -0.200 F 
ATOM     86  F   UNL A   1      53.014  25.992  24.746  1.00  0.00    -0.200 F 
ENDBRANCH  52  76
BRANCH  64  87
ATOM     87  C   UNL A   1      46.123  32.480  28.657  1.00  0.00     0.064 A 
ATOM     88  C   UNL A   1      46.770  32.778  29.866  1.00  0.00     0.173 A 
ATOM     89  C   UNL A   1      46.008  33.503  27.703  1.00  0.00     0.173 A 
ATOM     90  F   UNL A   1      46.891  31.839  30.815  1.00  0.00    -0.203 F 
ATOM     91  C   UNL A   1      47.262  34.057  30.116  1.00  0.00     0.198 A 
ATOM     92  C   UNL A   1      46.527  34.772  27.946  1.00  0.00     0.198 A 
ATOM     93  F   UNL A   1      45.403  33.268  26.529  1.00  0.00    -0.203 F 
ATOM     94  F   UNL A   1      47.838  34.331  31.295  1.00  0.00    -0.200 F 
ATOM     95  C   UNL A   1      47.148  35.049  29.154  1.00  0.00     0.200 A 
ATOM     96  F   UNL A   1      46.427  35.725  27.010  1.00  0.00    -0.200 F 
ATOM     97  F   UNL A   1      47.630  36.276  29.395  1.00  0.00    -0.200 F 
ENDBRANCH  64  87
ENDBRANCH  38  39
ENDBRANCH  30  33
ENDBRANCH  28  29
ENDBRANCH  27  28
ENDBRANCH  26  27
ENDBRANCH   1  26
TORSDOF 15
ENDMDL
MODEL 2
REMARK VINA RESULT:     -12.4      1.000      7.430
REMARK SMILES CC(C)(C)C(=O)NCC(=O)Nc1cc(Cl)ccc1C(=O)NCCCCNC(=O)c1ccc(-c2c3nc(c(-c4c(F)c(F)c(F)c(F)c4F)c4ccc([nH]4)c(-c4c(F)c(F)c(F)c(F)c4F)c4nc(c(-c5c(F)c(F)c(F)c(F)c5F)c5ccc2[nH]5)C=C4)C=C3)cc1
REMARK SMILES IDX 22 1 21 2 19 3 20 4 18 6 12 7 13 8 14 9 17 10 15 11 16 12
REMARK SMILES IDX 11 13 9 14 10 15 8 17 7 18 5 19 6 20 2 22 1 23 3 24 4 25
REMARK SMILES IDX 23 26 24 27 25 28 26 29 27 30 28 32 29 33 30 34 91 35 31 36
REMARK SMILES IDX 90 37 32 38 33 39 34 40 84 41 35 42 89 43 83 44 85 45 36 46
REMARK SMILES IDX 88 47 82 48 81 49 37 51 69 52 49 53 68 54 50 55 53 56 67 57
REMARK SMILES IDX 86 58 51 59 52 60 66 62 87 63 54 64 38 65 39 66 47 67 40 68
REMARK SMILES IDX 41 69 45 70 48 71 42 72 43 73 46 74 44 75 70 76 71 77 79 78
REMARK SMILES IDX 72 79 73 80 77 81 80 82 74 83 75 84 78 85 76 86 55 87 56 88
REMARK SMILES IDX 64 89 57 90 58 91 62 92 65 93 59 94 60 95 63 96 61 97
REMARK H PARENT 21 5 11 16 7 21 26 31 85 50 53 61
REMARK Flexibility Score: inf
ROOT
ATOM      1  C   UNL A   1      36.067  21.590  25.676  1.00  0.00     0.116 C 
ENDROOT
BRANCH   1   2
ATOM      2  N   UNL A   1      34.906  20.751  25.821  1.00  0.00    -0.352 N 
ATOM      3  C   UNL A   1      33.667  20.830  25.231  1.00  0.00     0.253 C 
ATOM      4  O   UNL A   1      32.881  19.912  25.479  1.00  0.00    -0.269 OA
ATOM      5  H   UNL A   1      35.018  19.998  26.444  1.00  0.00     0.163 HD
BRANCH   3   6
ATOM      6  C   UNL A   1      33.174  21.965  24.382  1.00  0.00     0.063 A 
ATOM      7  C   UNL A   1      32.054  22.798  24.587  1.00  0.00     0.055 A 
ATOM      8  C   UNL A   1      31.826  23.878  23.716  1.00  0.00     0.047 A 
ATOM      9  C   UNL A   1      32.639  24.096  22.606  1.00  0.00     0.043 A 
ATOM     10  C   UNL A   1      33.983  22.210  23.247  1.00  0.00     0.017 A 
ATOM     11  Cl  UNL A   1      32.328  25.421  21.558  1.00  0.00    -0.084 Cl
ATOM     12  C   UNL A   1      33.713  23.255  22.358  1.00  0.00     0.021 A 
BRANCH   7  13
ATOM     13  N   UNL A   1      31.251  22.729  25.732  1.00  0.00    -0.324 N 
ATOM     14  C   UNL A   1      30.611  23.727  26.429  1.00  0.00     0.243 C 
ATOM     15  O   UNL A   1      29.909  23.362  27.380  1.00  0.00    -0.273 OA
ATOM     16  H   UNL A   1      31.124  21.822  26.096  1.00  0.00     0.170 HD
BRANCH  14  17
ATOM     17  C   UNL A   1      30.459  25.173  25.887  1.00  0.00     0.216 C 
BRANCH  17  18
ATOM     18  N   UNL A   1      30.729  26.256  26.801  1.00  0.00    -0.347 N 
ATOM     19  C   UNL A   1      31.706  27.184  26.923  1.00  0.00     0.225 C 
ATOM     20  O   UNL A   1      31.534  27.970  27.864  1.00  0.00    -0.275 OA
ATOM     21  H   UNL A   1      30.042  26.340  27.500  1.00  0.00     0.164 HD
BRANCH  19  22
ATOM     22  C   UNL A   1      32.912  27.350  25.967  1.00  0.00     0.041 C 
ATOM     23  C   UNL A   1      33.836  28.430  26.582  1.00  0.00     0.021 C 
ATOM     24  C   UNL A   1      32.413  27.849  24.607  1.00  0.00     0.021 C 
ATOM     25  C   UNL A   1      33.791  26.114  25.772  1.00  0.00     0.021 C 
ENDBRANCH  19  22
ENDBRANCH  17  18
ENDBRANCH  14  17
ENDBRANCH   7  13
ENDBRANCH   3   6
ENDBRANCH   1   2
BRANCH   1  26
ATOM     26  C   UNL A   1      37.094  21.168  24.637  1.00  0.00     0.023 C 
BRANCH  26  27
ATOM     27  C   UNL A   1      37.979  19.982  25.013  1.00  0.00     0.023 C 
BRANCH  27  28
ATOM     28  C   UNL A   1      39.199  20.285  25.877  1.00  0.00     0.116 C 
BRANCH  28  29
ATOM     29  N   UNL A   1      40.222  19.248  25.860  1.00  0.00    -0.352 N 
ATOM     30  C   UNL A   1      41.580  19.337  26.071  1.00  0.00     0.251 C 
ATOM     31  H   UNL A   1      39.890  18.341  25.667  1.00  0.00     0.163 HD
ATOM     32  O   UNL A   1      42.294  18.349  25.922  1.00  0.00    -0.269 OA
BRANCH  30  33
ATOM     33  C   UNL A   1      42.198  20.631  26.432  1.00  0.00     0.039 A 
ATOM     34  C   UNL A   1      42.677  21.459  25.413  1.00  0.00     0.014 A 
ATOM     35  C   UNL A   1      42.286  21.045  27.763  1.00  0.00     0.014 A 
ATOM     36  C   UNL A   1      43.136  22.742  25.718  1.00  0.00     0.010 A 
ATOM     37  C   UNL A   1      42.648  22.356  28.054  1.00  0.00     0.010 A 
ATOM     38  C   UNL A   1      43.067  23.225  27.034  1.00  0.00    -0.014 A 
BRANCH  38  39
ATOM     39  C   UNL A   1      43.404  24.634  27.365  1.00  0.00     0.031 A 
ATOM     40  C   UNL A   1      44.837  25.088  27.392  1.00  0.00     0.074 A 
ATOM     41  C   UNL A   1      42.426  25.484  27.736  1.00  0.00     0.049 A 
ATOM     42  N   UNL A   1      45.334  26.245  27.752  1.00  0.00    -0.248 NA
ATOM     43  C   UNL A   1      45.848  24.096  26.999  1.00  0.00     0.031 C 
ATOM     44  C   UNL A   1      41.003  25.151  27.820  1.00  0.00     0.029 A 
ATOM     45  N   UNL A   1      42.483  26.798  28.131  1.00  0.00    -0.354 N 
ATOM     46  C   UNL A   1      46.712  26.111  27.649  1.00  0.00     0.074 A 
ATOM     47  C   UNL A   1      46.975  24.744  27.253  1.00  0.00     0.031 C 
ATOM     48  C   UNL A   1      40.321  26.237  28.219  1.00  0.00     0.029 A 
ATOM     49  C   UNL A   1      41.258  27.330  28.457  1.00  0.00     0.049 A 
ATOM     50  H   UNL A   1      43.322  27.311  28.178  1.00  0.00     0.167 HD
ATOM     51  C   UNL A   1      47.671  27.048  27.841  1.00  0.00     0.037 A 
ATOM     52  C   UNL A   1      40.927  28.555  28.903  1.00  0.00     0.037 A 
ATOM     53  C   UNL A   1      47.407  28.415  28.207  1.00  0.00     0.049 A 
ATOM     54  C   UNL A   1      42.005  29.587  29.092  1.00  0.00     0.074 A 
ATOM     55  C   UNL A   1      48.303  29.460  28.351  1.00  0.00     0.029 A 
ATOM     56  N   UNL A   1      46.148  28.927  28.490  1.00  0.00    -0.354 N 
ATOM     57  N   UNL A   1      43.298  29.472  28.916  1.00  0.00    -0.248 NA
ATOM     58  C   UNL A   1      41.575  30.921  29.534  1.00  0.00     0.031 C 
ATOM     59  C   UNL A   1      47.592  30.591  28.767  1.00  0.00     0.029 A 
ATOM     60  C   UNL A   1      46.247  30.267  28.832  1.00  0.00     0.049 A 
ATOM     61  H   UNL A   1      45.309  28.414  28.455  1.00  0.00     0.167 HD
ATOM     62  C   UNL A   1      43.836  30.720  29.202  1.00  0.00     0.074 A 
ATOM     63  C   UNL A   1      42.725  31.581  29.551  1.00  0.00     0.031 C 
ATOM     64  C   UNL A   1      45.133  31.113  29.178  1.00  0.00     0.037 A 
BRANCH  51  65
ATOM     65  C   UNL A   1      49.098  26.618  27.656  1.00  0.00     0.064 A 
ATOM     66  C   UNL A   1      49.669  26.486  26.379  1.00  0.00     0.173 A 
ATOM     67  C   UNL A   1      49.910  26.339  28.766  1.00  0.00     0.173 A 
ATOM     68  F   UNL A   1      48.934  26.731  25.284  1.00  0.00    -0.203 F 
ATOM     69  C   UNL A   1      50.980  26.045  26.221  1.00  0.00     0.198 A 
ATOM     70  C   UNL A   1      51.231  25.931  28.604  1.00  0.00     0.198 A 
ATOM     71  F   UNL A   1      49.419  26.457  30.009  1.00  0.00    -0.203 F 
ATOM     72  F   UNL A   1      51.478  25.861  24.990  1.00  0.00    -0.200 F 
ATOM     73  C   UNL A   1      51.761  25.773  27.333  1.00  0.00     0.200 A 
ATOM     74  F   UNL A   1      51.990  25.681  29.680  1.00  0.00    -0.200 F 
ATOM     75  F   UNL A   1      53.022  25.346  27.179  1.00  0.00    -0.200 F 
ENDBRANCH  51  65
BRANCH  52  76
ATOM     76  C   UNL A   1      39.502  28.878  29.171  1.00  0.00     0.064 A 
ATOM     77  C   UNL A   1      38.954  28.704  30.448  1.00  0.00     0.173 A 
ATOM     78  C   UNL A   1      38.670  29.395  28.166  1.00  0.00     0.173 A 
ATOM     79  F   UNL A   1      39.705  28.195  31.435  1.00  0.00    -0.203 F 
ATOM     80  C   UNL A   1      37.622  29.024  30.709  1.00  0.00     0.198 A 
ATOM     81  C   UNL A   1      37.347  29.739  28.435  1.00  0.00     0.198 A 
ATOM     82  F   UNL A   1      39.151  29.588  26.929  1.00  0.00    -0.203 F 
ATOM     83  F   UNL A   1      37.114  28.819  31.932  1.00  0.00    -0.200 F 
ATOM     84  C   UNL A   1      36.824  29.549  29.705  1.00  0.00     0.200 A 
ATOM     85  F   UNL A   1      36.582  30.261  27.466  1.00  0.00    -0.200 F 
ATOM     86  F   UNL A   1      35.548  29.871  29.960  1.00  0.00    -0.200 F 
ENDBRANCH  52  76
BRANCH  64  87
ATOM     87  C   UNL A   1      45.423  32.548  29.515  1.00  0.00     0.064 A 
ATOM     88  C   UNL A   1      45.396  33.553  28.538  1.00  0.00     0.173 A 
ATOM     89  C   UNL A   1      45.687  32.925  30.841  1.00  0.00     0.173 A 
ATOM     90  F   UNL A   1      45.164  33.241  27.255  1.00  0.00    -0.203 F 
ATOM     91  C   UNL A   1      45.646  34.882  28.873  1.00  0.00     0.198 A 
ATOM     92  C   UNL A   1      45.907  34.258  31.177  1.00  0.00     0.198 A 
ATOM     93  F   UNL A   1      45.718  32.002  31.814  1.00  0.00    -0.203 F 
ATOM     94  F   UNL A   1      45.659  35.821  27.916  1.00  0.00    -0.200 F 
ATOM     95  C   UNL A   1      45.893  35.234  30.192  1.00  0.00     0.200 A 
ATOM     96  F   UNL A   1      46.133  34.597  32.453  1.00  0.00    -0.200 F 
ATOM     97  F   UNL A   1      46.124  36.514  30.512  1.00  0.00    -0.200 F 
ENDBRANCH  64  87
ENDBRANCH  38  39
ENDBRANCH  30  33
ENDBRANCH  28  29
ENDBRANCH  27  28
ENDBRANCH  26  27
ENDBRANCH   1  26
TORSDOF 15
ENDMDL
MODEL 3
REMARK VINA RESULT:     -12.4      4.702     10.002
REMARK SMILES CC(C)(C)C(=O)NCC(=O)Nc1cc(Cl)ccc1C(=O)NCCCCNC(=O)c1ccc(-c2c3nc(c(-c4c(F)c(F)c(F)c(F)c4F)c4ccc([nH]4)c(-c4c(F)c(F)c(F)c(F)c4F)c4nc(c(-c5c(F)c(F)c(F)c(F)c5F)c5ccc2[nH]5)C=C4)C=C3)cc1
REMARK SMILES IDX 22 1 21 2 19 3 20 4 18 6 12 7 13 8 14 9 17 10 15 11 16 12
REMARK SMILES IDX 11 13 9 14 10 15 8 17 7 18 5 19 6 20 2 22 1 23 3 24 4 25
REMARK SMILES IDX 23 26 24 27 25 28 26 29 27 30 28 32 29 33 30 34 91 35 31 36
REMARK SMILES IDX 90 37 32 38 33 39 34 40 84 41 35 42 89 43 83 44 85 45 36 46
REMARK SMILES IDX 88 47 82 48 81 49 37 51 69 52 49 53 68 54 50 55 53 56 67 57
REMARK SMILES IDX 86 58 51 59 52 60 66 62 87 63 54 64 38 65 39 66 47 67 40 68
REMARK SMILES IDX 41 69 45 70 48 71 42 72 43 73 46 74 44 75 70 76 71 77 79 78
REMARK SMILES IDX 72 79 73 80 77 81 80 82 74 83 75 84 78 85 76 86 55 87 56 88
REMARK SMILES IDX 64 89 57 90 58 91 62 92 65 93 59 94 60 95 63 96 61 97
REMARK H PARENT 21 5 11 16 7 21 26 31 85 50 53 61
REMARK Flexibility Score: inf
ROOT
ATOM      1  C   UNL A   1      33.596  26.466  23.784  1.00  0.00     0.116 C 
ENDROOT
BRANCH   1   2
ATOM      2  N   UNL A   1      33.165  25.309  23.044  1.00  0.00    -0.352 N 
ATOM      3  C   UNL A   1      33.576  23.999  23.113  1.00  0.00     0.253 C 
ATOM      4  O   UNL A   1      32.963  23.192  22.409  1.00  0.00    -0.269 OA
ATOM      5  H   UNL A   1      32.460  25.484  22.380  1.00  0.00     0.163 HD
BRANCH   3   6
ATOM      6  C   UNL A   1      34.745  23.491  23.907  1.00  0.00     0.063 A 
ATOM      7  C   UNL A   1      34.864  23.346  25.306  1.00  0.00     0.055 A 
ATOM      8  C   UNL A   1      36.019  22.750  25.844  1.00  0.00     0.047 A 
ATOM      9  C   UNL A   1      37.083  22.372  25.029  1.00  0.00     0.043 A 
ATOM     10  C   UNL A   1      35.842  23.098  23.104  1.00  0.00     0.017 A 
ATOM     11  Cl  UNL A   1      38.482  21.653  25.720  1.00  0.00    -0.084 Cl
ATOM     12  C   UNL A   1      37.006  22.557  23.657  1.00  0.00     0.021 A 
BRANCH   7  13
ATOM     13  N   UNL A   1      33.806  23.588  26.191  1.00  0.00    -0.324 N 
ATOM     14  C   UNL A   1      32.731  22.800  26.525  1.00  0.00     0.243 C 
ATOM     15  O   UNL A   1      31.976  23.250  27.396  1.00  0.00    -0.273 OA
ATOM     16  H   UNL A   1      33.838  24.461  26.647  1.00  0.00     0.170 HD
BRANCH  14  17
ATOM     17  C   UNL A   1      32.626  21.302  26.134  1.00  0.00     0.216 C 
BRANCH  17  18
ATOM     18  N   UNL A   1      32.309  20.995  24.760  1.00  0.00    -0.347 N 
ATOM     19  C   UNL A   1      32.544  19.948  23.936  1.00  0.00     0.225 C 
ATOM     20  O   UNL A   1      32.057  20.084  22.805  1.00  0.00    -0.275 OA
ATOM     21  H   UNL A   1      31.803  21.715  24.319  1.00  0.00     0.164 HD
BRANCH  19  22
ATOM     22  C   UNL A   1      33.276  18.642  24.327  1.00  0.00     0.041 C 
ATOM     23  C   UNL A   1      33.157  17.674  23.124  1.00  0.00     0.021 C 
ATOM     24  C   UNL A   1      32.575  18.012  25.535  1.00  0.00     0.021 C 
ATOM     25  C   UNL A   1      34.774  18.771  24.609  1.00  0.00     0.021 C 
ENDBRANCH  19  22
ENDBRANCH  17  18
ENDBRANCH  14  17
ENDBRANCH   7  13
ENDBRANCH   3   6
ENDBRANCH   1   2
BRANCH   1  26
ATOM     26  C   UNL A   1      32.856  27.767  23.516  1.00  0.00     0.023 C 
BRANCH  26  27
ATOM     27  C   UNL A   1      33.294  28.970  24.347  1.00  0.00     0.023 C 
BRANCH  27  28
ATOM     28  C   UNL A   1      32.753  29.052  25.771  1.00  0.00     0.116 C 
BRANCH  28  29
ATOM     29  N   UNL A   1      32.400  30.397  26.205  1.00  0.00    -0.352 N 
ATOM     30  C   UNL A   1      33.082  31.276  27.015  1.00  0.00     0.251 C 
ATOM     31  H   UNL A   1      31.537  30.729  25.866  1.00  0.00     0.163 HD
ATOM     32  O   UNL A   1      32.568  32.343  27.341  1.00  0.00    -0.269 OA
BRANCH  30  33
ATOM     33  C   UNL A   1      34.420  30.926  27.541  1.00  0.00     0.039 A 
ATOM     34  C   UNL A   1      35.369  31.940  27.702  1.00  0.00     0.014 A 
ATOM     35  C   UNL A   1      34.737  29.615  27.900  1.00  0.00     0.014 A 
ATOM     36  C   UNL A   1      36.587  31.660  28.326  1.00  0.00     0.010 A 
ATOM     37  C   UNL A   1      35.905  29.357  28.610  1.00  0.00     0.010 A 
ATOM     38  C   UNL A   1      36.840  30.378  28.841  1.00  0.00    -0.014 A 
BRANCH  38  39
ATOM     39  C   UNL A   1      38.058  30.088  29.642  1.00  0.00     0.031 A 
ATOM     40  C   UNL A   1      39.100  29.136  29.124  1.00  0.00     0.074 A 
ATOM     41  C   UNL A   1      38.182  30.607  30.879  1.00  0.00     0.049 A 
ATOM     42  N   UNL A   1      40.177  28.683  29.716  1.00  0.00    -0.248 NA
ATOM     43  C   UNL A   1      38.882  28.592  27.776  1.00  0.00     0.031 C 
ATOM     44  C   UNL A   1      37.209  31.488  31.528  1.00  0.00     0.029 A 
ATOM     45  N   UNL A   1      39.169  30.453  31.822  1.00  0.00    -0.354 N 
ATOM     46  C   UNL A   1      40.749  27.787  28.823  1.00  0.00     0.074 A 
ATOM     47  C   UNL A   1      39.869  27.715  27.677  1.00  0.00     0.031 C 
ATOM     48  C   UNL A   1      37.658  31.813  32.751  1.00  0.00     0.029 A 
ATOM     49  C   UNL A   1      38.927  31.134  32.990  1.00  0.00     0.049 A 
ATOM     50  H   UNL A   1      39.973  29.904  31.675  1.00  0.00     0.167 HD
ATOM     51  C   UNL A   1      41.915  27.106  28.936  1.00  0.00     0.037 A 
ATOM     52  C   UNL A   1      39.643  31.200  34.129  1.00  0.00     0.037 A 
ATOM     53  C   UNL A   1      42.803  27.201  30.065  1.00  0.00     0.049 A 
ATOM     54  C   UNL A   1      40.943  30.451  34.226  1.00  0.00     0.074 A 
ATOM     55  C   UNL A   1      44.043  26.611  30.241  1.00  0.00     0.029 A 
ATOM     56  N   UNL A   1      42.542  27.934  31.214  1.00  0.00    -0.354 N 
ATOM     57  N   UNL A   1      41.514  29.668  33.343  1.00  0.00    -0.248 NA
ATOM     58  C   UNL A   1      41.703  30.602  35.474  1.00  0.00     0.031 C 
ATOM     59  C   UNL A   1      44.510  26.950  31.515  1.00  0.00     0.029 A 
ATOM     60  C   UNL A   1      43.587  27.791  32.114  1.00  0.00     0.049 A 
ATOM     61  H   UNL A   1      41.734  28.474  31.369  1.00  0.00     0.167 HD
ATOM     62  C   UNL A   1      42.707  29.251  33.917  1.00  0.00     0.074 A 
ATOM     63  C   UNL A   1      42.785  29.879  35.220  1.00  0.00     0.031 C 
ATOM     64  C   UNL A   1      43.652  28.422  33.408  1.00  0.00     0.037 A 
BRANCH  51  65
ATOM     65  C   UNL A   1      42.292  26.198  27.800  1.00  0.00     0.064 A 
ATOM     66  C   UNL A   1      41.739  24.914  27.668  1.00  0.00     0.173 A 
ATOM     67  C   UNL A   1      43.214  26.615  26.828  1.00  0.00     0.173 A 
ATOM     68  F   UNL A   1      40.861  24.462  28.576  1.00  0.00    -0.203 F 
ATOM     69  C   UNL A   1      42.130  24.066  26.635  1.00  0.00     0.198 A 
ATOM     70  C   UNL A   1      43.576  25.778  25.777  1.00  0.00     0.198 A 
ATOM     71  F   UNL A   1      43.767  27.836  26.901  1.00  0.00    -0.203 F 
ATOM     72  F   UNL A   1      41.639  22.821  26.572  1.00  0.00    -0.200 F 
ATOM     73  C   UNL A   1      43.044  24.500  25.688  1.00  0.00     0.200 A 
ATOM     74  F   UNL A   1      44.450  26.203  24.854  1.00  0.00    -0.200 F 
ATOM     75  F   UNL A   1      43.422  23.683  24.695  1.00  0.00    -0.200 F 
ENDBRANCH  51  65
BRANCH  52  76
ATOM     76  C   UNL A   1      39.153  32.035  35.255  1.00  0.00     0.064 A 
ATOM     77  C   UNL A   1      38.434  31.463  36.313  1.00  0.00     0.173 A 
ATOM     78  C   UNL A   1      39.420  33.411  35.313  1.00  0.00     0.173 A 
ATOM     79  F   UNL A   1      38.138  30.155  36.291  1.00  0.00    -0.203 F 
ATOM     80  C   UNL A   1      37.989  32.238  37.383  1.00  0.00     0.198 A 
ATOM     81  C   UNL A   1      38.997  34.180  36.396  1.00  0.00     0.198 A 
ATOM     82  F   UNL A   1      40.112  34.003  34.329  1.00  0.00    -0.203 F 
ATOM     83  F   UNL A   1      37.276  31.673  38.366  1.00  0.00    -0.200 F 
ATOM     84  C   UNL A   1      38.279  33.594  37.426  1.00  0.00     0.200 A 
ATOM     85  F   UNL A   1      39.293  35.486  36.443  1.00  0.00    -0.200 F 
ATOM     86  F   UNL A   1      37.864  34.336  38.462  1.00  0.00    -0.200 F 
ENDBRANCH  52  76
BRANCH  64  87
ATOM     87  C   UNL A   1      44.866  28.163  34.253  1.00  0.00     0.064 A 
ATOM     88  C   UNL A   1      45.989  29.002  34.205  1.00  0.00     0.173 A 
ATOM     89  C   UNL A   1      44.887  27.086  35.153  1.00  0.00     0.173 A 
ATOM     90  F   UNL A   1      46.023  30.034  33.350  1.00  0.00    -0.203 F 
ATOM     91  C   UNL A   1      47.097  28.758  35.012  1.00  0.00     0.198 A 
ATOM     92  C   UNL A   1      45.986  26.863  35.978  1.00  0.00     0.198 A 
ATOM     93  F   UNL A   1      43.837  26.257  35.241  1.00  0.00    -0.203 F 
ATOM     94  F   UNL A   1      48.177  29.548  34.918  1.00  0.00    -0.200 F 
ATOM     95  C   UNL A   1      47.092  27.696  35.903  1.00  0.00     0.200 A 
ATOM     96  F   UNL A   1      45.973  25.844  36.847  1.00  0.00    -0.200 F 
ATOM     97  F   UNL A   1      48.157  27.469  36.684  1.00  0.00    -0.200 F 
ENDBRANCH  64  87
ENDBRANCH  38  39
ENDBRANCH  30  33
ENDBRANCH  28  29
ENDBRANCH  27  28
ENDBRANCH  26  27
ENDBRANCH   1  26
TORSDOF 15
ENDMDL
