MODEL 1
REMARK VINA RESULT:     -12.1      0.000      0.000
REMARK SMILES CC[C@@](C)(NC(=O)Nc1c(C)cccc1Cl)C(=O)NCCCCNC(=O)c1ccc(-c2c3nc(c(-c4c(F)c(F)c(F)c(F)c4F)c4ccc([nH]4)c(-c4c(F)c(F)c(F)c(F)c4F)c4nc(c(-c5c(F)c(F)c(F)c(F)c5F)c5ccc2[nH]5)C=C4)C=C3)cc1
REMARK SMILES IDX 21 1 20 2 19 3 17 4 18 5 3 7 4 8 2 9 1 10 5 11 6 12 7 14
REMARK SMILES IDX 8 15 9 17 10 18 15 19 11 20 12 21 14 22 16 23 13 24 22 25
REMARK SMILES IDX 23 26 24 27 25 28 26 30 27 31 28 32 89 33 29 34 88 35 30 36
REMARK SMILES IDX 31 37 32 38 82 39 33 40 87 41 81 42 83 43 34 44 86 45 80 46
REMARK SMILES IDX 79 47 35 49 67 50 47 51 66 52 48 53 51 54 65 55 84 56 49 57
REMARK SMILES IDX 50 58 64 60 85 61 52 62 36 63 37 64 45 65 38 66 39 67 43 68
REMARK SMILES IDX 46 69 40 70 41 71 44 72 42 73 68 74 69 75 77 76 70 77 71 78
REMARK SMILES IDX 75 79 78 80 72 81 73 82 76 83 74 84 53 85 54 86 62 87 55 88
REMARK SMILES IDX 56 89 60 90 63 91 57 92 58 93 61 94 59 95
REMARK H PARENT 19 6 5 13 8 16 24 29 83 48 51 59
REMARK Flexibility Score: inf
ROOT
ATOM      1  C   UNL A   1      31.469  30.683  26.253  1.00  0.00     0.023 C 
ENDROOT
BRANCH   1   2
ATOM      2  C   UNL A   1      32.709  29.876  26.704  1.00  0.00     0.116 C 
BRANCH   2   3
ATOM      3  N   UNL A   1      33.631  29.499  25.642  1.00  0.00    -0.354 N 
ATOM      4  C   UNL A   1      33.402  28.794  24.459  1.00  0.00     0.245 C 
ATOM      5  O   UNL A   1      33.555  29.328  23.362  1.00  0.00    -0.272 OA
ATOM      6  H   UNL A   1      34.563  29.786  25.781  1.00  0.00     0.163 HD
BRANCH   4   7
ATOM      7  C   UNL A   1      32.879  27.344  24.594  1.00  0.00     0.117 C 
ATOM      8  C   UNL A   1      33.827  26.812  25.711  1.00  0.00     0.045 C 
BRANCH   7   9
ATOM      9  C   UNL A   1      31.437  26.986  25.054  1.00  0.00     0.035 C 
ATOM     10  C   UNL A   1      30.260  27.280  24.153  1.00  0.00     0.007 C 
ENDBRANCH   7   9
BRANCH   7  11
ATOM     11  N   UNL A   1      33.067  26.672  23.300  1.00  0.00    -0.324 N 
ATOM     12  C   UNL A   1      33.253  25.362  22.992  1.00  0.00     0.320 C 
ATOM     13  H   UNL A   1      33.057  27.275  22.522  1.00  0.00     0.166 HD
ATOM     14  O   UNL A   1      33.654  25.115  21.851  1.00  0.00    -0.248 OA
ATOM     15  N   UNL A   1      32.718  24.325  23.729  1.00  0.00    -0.306 N 
ATOM     16  H   UNL A   1      31.918  23.909  23.334  1.00  0.00     0.171 HD
BRANCH  15  17
ATOM     17  C   UNL A   1      33.140  23.752  24.984  1.00  0.00     0.064 A 
ATOM     18  C   UNL A   1      32.262  23.486  26.075  1.00  0.00    -0.026 A 
ATOM     19  C   UNL A   1      34.373  23.064  25.017  1.00  0.00     0.064 A 
ATOM     20  C   UNL A   1      30.748  23.466  26.058  1.00  0.00     0.046 C 
ATOM     21  C   UNL A   1      32.773  22.948  27.273  1.00  0.00     0.005 A 
ATOM     22  C   UNL A   1      34.795  22.359  26.152  1.00  0.00     0.023 A 
ATOM     23  Cl  UNL A   1      35.340  22.877  23.590  1.00  0.00    -0.082 Cl
ATOM     24  C   UNL A   1      34.028  22.369  27.307  1.00  0.00     0.002 A 
ENDBRANCH  15  17
ENDBRANCH   7  11
ENDBRANCH   4   7
ENDBRANCH   2   3
ENDBRANCH   1   2
BRANCH   1  25
ATOM     25  C   UNL A   1      31.358  32.191  26.533  1.00  0.00     0.023 C 
BRANCH  25  26
ATOM     26  C   UNL A   1      32.601  32.948  26.976  1.00  0.00     0.116 C 
BRANCH  26  27
ATOM     27  N   UNL A   1      32.318  34.203  27.626  1.00  0.00    -0.352 N 
ATOM     28  C   UNL A   1      32.977  34.859  28.636  1.00  0.00     0.251 C 
ATOM     29  H   UNL A   1      31.519  34.669  27.288  1.00  0.00     0.163 HD
ATOM     30  O   UNL A   1      32.532  35.928  29.038  1.00  0.00    -0.269 OA
BRANCH  28  31
ATOM     31  C   UNL A   1      34.184  34.288  29.288  1.00  0.00     0.039 A 
ATOM     32  C   UNL A   1      33.984  33.485  30.416  1.00  0.00     0.014 A 
ATOM     33  C   UNL A   1      35.488  34.569  28.868  1.00  0.00     0.014 A 
ATOM     34  C   UNL A   1      35.074  32.927  31.090  1.00  0.00     0.010 A 
ATOM     35  C   UNL A   1      36.576  33.962  29.508  1.00  0.00     0.010 A 
ATOM     36  C   UNL A   1      36.381  33.133  30.626  1.00  0.00    -0.014 A 
BRANCH  36  37
ATOM     37  C   UNL A   1      37.537  32.471  31.295  1.00  0.00     0.031 A 
ATOM     38  C   UNL A   1      38.285  31.354  30.619  1.00  0.00     0.074 A 
ATOM     39  C   UNL A   1      37.899  32.858  32.534  1.00  0.00     0.049 A 
ATOM     40  N   UNL A   1      39.292  30.641  31.062  1.00  0.00    -0.248 NA
ATOM     41  C   UNL A   1      37.830  30.972  29.273  1.00  0.00     0.031 C 
ATOM     42  C   UNL A   1      37.243  33.908  33.314  1.00  0.00     0.029 A 
ATOM     43  N   UNL A   1      38.902  32.410  33.361  1.00  0.00    -0.354 N 
ATOM     44  C   UNL A   1      39.582  29.724  30.059  1.00  0.00     0.074 A 
ATOM     45  C   UNL A   1      38.615  29.939  29.004  1.00  0.00     0.031 C 
ATOM     46  C   UNL A   1      37.872  34.041  34.491  1.00  0.00     0.029 A 
ATOM     47  C   UNL A   1      38.949  33.057  34.572  1.00  0.00     0.049 A 
ATOM     48  H   UNL A   1      39.528  31.693  33.108  1.00  0.00     0.167 HD
ATOM     49  C   UNL A   1      40.574  28.800  30.016  1.00  0.00     0.037 A 
ATOM     50  C   UNL A   1      39.759  32.874  35.633  1.00  0.00     0.037 A 
ATOM     51  C   UNL A   1      41.547  28.598  31.061  1.00  0.00     0.049 A 
ATOM     52  C   UNL A   1      40.832  31.821  35.569  1.00  0.00     0.074 A 
ATOM     53  C   UNL A   1      42.623  27.727  31.082  1.00  0.00     0.029 A 
ATOM     54  N   UNL A   1      41.556  29.269  32.275  1.00  0.00    -0.354 N 
ATOM     55  N   UNL A   1      41.139  31.008  34.588  1.00  0.00    -0.248 NA
ATOM     56  C   UNL A   1      41.678  31.664  36.762  1.00  0.00     0.031 C 
ATOM     57  C   UNL A   1      43.246  27.827  32.329  1.00  0.00     0.029 A 
ATOM     58  C   UNL A   1      42.600  28.808  33.063  1.00  0.00     0.049 A 
ATOM     59  H   UNL A   1      40.917  29.970  32.538  1.00  0.00     0.167 HD
ATOM     60  C   UNL A   1      42.229  30.269  35.029  1.00  0.00     0.074 A 
ATOM     61  C   UNL A   1      42.540  30.740  36.363  1.00  0.00     0.031 C 
ATOM     62  C   UNL A   1      42.909  29.288  34.387  1.00  0.00     0.037 A 
BRANCH  49  63
ATOM     63  C   UNL A   1      40.656  27.922  28.798  1.00  0.00     0.064 A 
ATOM     64  C   UNL A   1      39.936  26.721  28.703  1.00  0.00     0.173 A 
ATOM     65  C   UNL A   1      41.428  28.310  27.691  1.00  0.00     0.173 A 
ATOM     66  F   UNL A   1      39.188  26.299  29.733  1.00  0.00    -0.203 F 
ATOM     67  C   UNL A   1      40.012  25.927  27.561  1.00  0.00     0.198 A 
ATOM     68  C   UNL A   1      41.474  27.530  26.538  1.00  0.00     0.198 A 
ATOM     69  F   UNL A   1      42.128  29.454  27.722  1.00  0.00    -0.203 F 
ATOM     70  F   UNL A   1      39.357  24.758  27.515  1.00  0.00    -0.200 F 
ATOM     71  C   UNL A   1      40.775  26.335  26.477  1.00  0.00     0.200 A 
ATOM     72  F   UNL A   1      42.197  27.937  25.486  1.00  0.00    -0.200 F 
ATOM     73  F   UNL A   1      40.839  25.575  25.376  1.00  0.00    -0.200 F 
ENDBRANCH  49  63
BRANCH  50  74
ATOM     74  C   UNL A   1      39.597  33.719  36.847  1.00  0.00     0.064 A 
ATOM     75  C   UNL A   1      38.791  33.301  37.915  1.00  0.00     0.173 A 
ATOM     76  C   UNL A   1      40.230  34.967  36.959  1.00  0.00     0.173 A 
ATOM     77  F   UNL A   1      38.146  32.127  37.845  1.00  0.00    -0.203 F 
ATOM     78  C   UNL A   1      38.603  34.106  39.036  1.00  0.00     0.198 A 
ATOM     79  C   UNL A   1      40.067  35.757  38.095  1.00  0.00     0.198 A 
ATOM     80  F   UNL A   1      41.014  35.414  35.968  1.00  0.00    -0.203 F 
ATOM     81  F   UNL A   1      37.784  33.703  40.017  1.00  0.00    -0.200 F 
ATOM     82  C   UNL A   1      39.246  35.331  39.128  1.00  0.00     0.200 A 
ATOM     83  F   UNL A   1      40.703  36.933  38.186  1.00  0.00    -0.200 F 
ATOM     84  F   UNL A   1      39.069  36.103  40.208  1.00  0.00    -0.200 F 
ENDBRANCH  50  74
BRANCH  62  85
ATOM     85  C   UNL A   1      44.088  28.685  35.096  1.00  0.00     0.064 A 
ATOM     86  C   UNL A   1      45.375  29.234  34.992  1.00  0.00     0.173 A 
ATOM     87  C   UNL A   1      43.921  27.560  35.920  1.00  0.00     0.173 A 
ATOM     88  F   UNL A   1      45.594  30.299  34.206  1.00  0.00    -0.203 F 
ATOM     89  C   UNL A   1      46.454  28.664  35.664  1.00  0.00     0.198 A 
ATOM     90  C   UNL A   1      44.995  27.014  36.618  1.00  0.00     0.198 A 
ATOM     91  F   UNL A   1      42.711  26.998  36.060  1.00  0.00    -0.203 F 
ATOM     92  F   UNL A   1      47.683  29.174  35.508  1.00  0.00    -0.200 F 
ATOM     93  C   UNL A   1      46.261  27.560  36.482  1.00  0.00     0.200 A 
ATOM     94  F   UNL A   1      44.803  25.959  37.421  1.00  0.00    -0.200 F 
ATOM     95  F   UNL A   1      47.300  27.020  37.135  1.00  0.00    -0.200 F 
ENDBRANCH  62  85
ENDBRANCH  36  37
ENDBRANCH  28  31
ENDBRANCH  26  27
ENDBRANCH  25  26
ENDBRANCH   1  25
TORSDOF 14
ENDMDL
MODEL 2
REMARK VINA RESULT:     -12.1      0.200      1.143
REMARK SMILES CC[C@@](C)(NC(=O)Nc1c(C)cccc1Cl)C(=O)NCCCCNC(=O)c1ccc(-c2c3nc(c(-c4c(F)c(F)c(F)c(F)c4F)c4ccc([nH]4)c(-c4c(F)c(F)c(F)c(F)c4F)c4nc(c(-c5c(F)c(F)c(F)c(F)c5F)c5ccc2[nH]5)C=C4)C=C3)cc1
REMARK SMILES IDX 21 1 20 2 19 3 17 4 18 5 3 7 4 8 2 9 1 10 5 11 6 12 7 14
REMARK SMILES IDX 8 15 9 17 10 18 15 19 11 20 12 21 14 22 16 23 13 24 22 25
REMARK SMILES IDX 23 26 24 27 25 28 26 30 27 31 28 32 89 33 29 34 88 35 30 36
REMARK SMILES IDX 31 37 32 38 82 39 33 40 87 41 81 42 83 43 34 44 86 45 80 46
REMARK SMILES IDX 79 47 35 49 67 50 47 51 66 52 48 53 51 54 65 55 84 56 49 57
REMARK SMILES IDX 50 58 64 60 85 61 52 62 36 63 37 64 45 65 38 66 39 67 43 68
REMARK SMILES IDX 46 69 40 70 41 71 44 72 42 73 68 74 69 75 77 76 70 77 71 78
REMARK SMILES IDX 75 79 78 80 72 81 73 82 76 83 74 84 53 85 54 86 62 87 55 88
REMARK SMILES IDX 56 89 60 90 63 91 57 92 58 93 61 94 59 95
REMARK H PARENT 19 6 5 13 8 16 24 29 83 48 51 59
REMARK Flexibility Score: inf
ROOT
ATOM      1  C   UNL A   1      31.402  30.843  26.015  1.00  0.00     0.023 C 
ENDROOT
BRANCH   1   2
ATOM      2  C   UNL A   1      32.555  29.922  26.477  1.00  0.00     0.116 C 
BRANCH   2   3
ATOM      3  N   UNL A   1      33.501  29.534  25.441  1.00  0.00    -0.354 N 
ATOM      4  C   UNL A   1      33.300  28.809  24.265  1.00  0.00     0.245 C 
ATOM      5  O   UNL A   1      33.472  29.327  23.162  1.00  0.00    -0.272 OA
ATOM      6  H   UNL A   1      34.428  29.829  25.594  1.00  0.00     0.163 HD
BRANCH   4   7
ATOM      7  C   UNL A   1      32.783  27.358  24.411  1.00  0.00     0.117 C 
ATOM      8  C   UNL A   1      33.707  26.851  25.559  1.00  0.00     0.045 C 
BRANCH   7   9
ATOM      9  C   UNL A   1      31.332  26.999  24.844  1.00  0.00     0.035 C 
ATOM     10  C   UNL A   1      30.195  27.132  23.858  1.00  0.00     0.007 C 
ENDBRANCH   7   9
BRANCH   7  11
ATOM     11  N   UNL A   1      33.006  26.666  23.134  1.00  0.00    -0.324 N 
ATOM     12  C   UNL A   1      33.230  25.356  22.854  1.00  0.00     0.320 C 
ATOM     13  H   UNL A   1      32.989  27.254  22.344  1.00  0.00     0.166 HD
ATOM     14  O   UNL A   1      33.653  25.097  21.724  1.00  0.00    -0.248 OA
ATOM     15  N   UNL A   1      32.714  24.320  23.605  1.00  0.00    -0.306 N 
ATOM     16  H   UNL A   1      31.930  23.875  23.209  1.00  0.00     0.171 HD
BRANCH  15  17
ATOM     17  C   UNL A   1      33.135  23.783  24.876  1.00  0.00     0.064 A 
ATOM     18  C   UNL A   1      32.251  23.519  25.963  1.00  0.00    -0.026 A 
ATOM     19  C   UNL A   1      34.384  23.126  24.937  1.00  0.00     0.064 A 
ATOM     20  C   UNL A   1      30.739  23.461  25.929  1.00  0.00     0.046 C 
ATOM     21  C   UNL A   1      32.761  23.018  27.178  1.00  0.00     0.005 A 
ATOM     22  C   UNL A   1      34.809  22.455  26.092  1.00  0.00     0.023 A 
ATOM     23  Cl  UNL A   1      35.371  22.933  23.526  1.00  0.00    -0.082 Cl
ATOM     24  C   UNL A   1      34.029  22.470  27.238  1.00  0.00     0.002 A 
ENDBRANCH  15  17
ENDBRANCH   7  11
ENDBRANCH   4   7
ENDBRANCH   2   3
ENDBRANCH   1   2
BRANCH   1  25
ATOM     25  C   UNL A   1      31.277  32.283  26.538  1.00  0.00     0.023 C 
BRANCH  25  26
ATOM     26  C   UNL A   1      32.534  33.012  26.985  1.00  0.00     0.116 C 
BRANCH  26  27
ATOM     27  N   UNL A   1      32.278  34.278  27.626  1.00  0.00    -0.352 N 
ATOM     28  C   UNL A   1      32.950  34.928  28.632  1.00  0.00     0.251 C 
ATOM     29  H   UNL A   1      31.489  34.758  27.284  1.00  0.00     0.163 HD
ATOM     30  O   UNL A   1      32.528  36.008  29.025  1.00  0.00    -0.269 OA
BRANCH  28  31
ATOM     31  C   UNL A   1      34.145  34.336  29.288  1.00  0.00     0.039 A 
ATOM     32  C   UNL A   1      33.928  33.554  30.428  1.00  0.00     0.014 A 
ATOM     33  C   UNL A   1      35.454  34.577  28.861  1.00  0.00     0.014 A 
ATOM     34  C   UNL A   1      35.006  32.978  31.107  1.00  0.00     0.010 A 
ATOM     35  C   UNL A   1      36.529  33.953  29.507  1.00  0.00     0.010 A 
ATOM     36  C   UNL A   1      36.317  33.146  30.637  1.00  0.00    -0.014 A 
BRANCH  36  37
ATOM     37  C   UNL A   1      37.457  32.464  31.312  1.00  0.00     0.031 A 
ATOM     38  C   UNL A   1      38.173  31.316  30.652  1.00  0.00     0.074 A 
ATOM     39  C   UNL A   1      37.836  32.862  32.543  1.00  0.00     0.049 A 
ATOM     40  N   UNL A   1      39.162  30.585  31.103  1.00  0.00    -0.248 NA
ATOM     41  C   UNL A   1      37.702  30.924  29.315  1.00  0.00     0.031 C 
ATOM     42  C   UNL A   1      37.211  33.943  33.307  1.00  0.00     0.029 A 
ATOM     43  N   UNL A   1      38.830  32.402  33.373  1.00  0.00    -0.354 N 
ATOM     44  C   UNL A   1      39.423  29.644  30.115  1.00  0.00     0.074 A 
ATOM     45  C   UNL A   1      38.457  29.866  29.060  1.00  0.00     0.031 C 
ATOM     46  C   UNL A   1      37.849  34.078  34.480  1.00  0.00     0.029 A 
ATOM     47  C   UNL A   1      38.899  33.068  34.573  1.00  0.00     0.049 A 
ATOM     48  H   UNL A   1      39.436  31.665  33.130  1.00  0.00     0.167 HD
ATOM     49  C   UNL A   1      40.390  28.693  30.083  1.00  0.00     0.037 A 
ATOM     50  C   UNL A   1      39.709  32.881  35.633  1.00  0.00     0.037 A 
ATOM     51  C   UNL A   1      41.362  28.482  31.127  1.00  0.00     0.049 A 
ATOM     52  C   UNL A   1      40.754  31.799  35.582  1.00  0.00     0.074 A 
ATOM     53  C   UNL A   1      42.415  27.584  31.158  1.00  0.00     0.029 A 
ATOM     54  N   UNL A   1      41.395  29.174  32.329  1.00  0.00    -0.354 N 
ATOM     55  N   UNL A   1      41.034  30.962  34.615  1.00  0.00    -0.248 NA
ATOM     56  C   UNL A   1      41.601  31.640  36.774  1.00  0.00     0.031 C 
ATOM     57  C   UNL A   1      43.046  27.688  32.401  1.00  0.00     0.029 A 
ATOM     58  C   UNL A   1      42.430  28.698  33.121  1.00  0.00     0.049 A 
ATOM     59  H   UNL A   1      40.775  29.896  32.583  1.00  0.00     0.167 HD
ATOM     60  C   UNL A   1      42.106  30.201  35.064  1.00  0.00     0.074 A 
ATOM     61  C   UNL A   1      42.436  30.687  36.388  1.00  0.00     0.031 C 
ATOM     62  C   UNL A   1      42.757  29.192  34.435  1.00  0.00     0.037 A 
BRANCH  49  63
ATOM     63  C   UNL A   1      40.444  27.792  28.880  1.00  0.00     0.064 A 
ATOM     64  C   UNL A   1      41.267  28.076  27.780  1.00  0.00     0.173 A 
ATOM     65  C   UNL A   1      39.698  26.602  28.848  1.00  0.00     0.173 A 
ATOM     66  F   UNL A   1      41.997  29.201  27.754  1.00  0.00    -0.203 F 
ATOM     67  C   UNL A   1      41.316  27.222  26.680  1.00  0.00     0.198 A 
ATOM     68  C   UNL A   1      39.775  25.734  27.762  1.00  0.00     0.198 A 
ATOM     69  F   UNL A   1      38.903  26.275  29.878  1.00  0.00    -0.203 F 
ATOM     70  F   UNL A   1      42.069  27.542  25.619  1.00  0.00    -0.200 F 
ATOM     71  C   UNL A   1      40.576  26.049  26.675  1.00  0.00     0.200 A 
ATOM     72  F   UNL A   1      39.073  24.593  27.768  1.00  0.00    -0.200 F 
ATOM     73  F   UNL A   1      40.631  25.224  25.621  1.00  0.00    -0.200 F 
ENDBRANCH  49  63
BRANCH  50  74
ATOM     74  C   UNL A   1      39.576  33.751  36.834  1.00  0.00     0.064 A 
ATOM     75  C   UNL A   1      38.769  33.368  37.915  1.00  0.00     0.173 A 
ATOM     76  C   UNL A   1      40.235  34.986  36.919  1.00  0.00     0.173 A 
ATOM     77  F   UNL A   1      38.099  32.207  37.871  1.00  0.00    -0.203 F 
ATOM     78  C   UNL A   1      38.609  34.197  39.023  1.00  0.00     0.198 A 
ATOM     79  C   UNL A   1      40.099  35.800  38.041  1.00  0.00     0.198 A 
ATOM     80  F   UNL A   1      41.020  35.400  35.913  1.00  0.00    -0.203 F 
ATOM     81  F   UNL A   1      37.789  33.829  40.018  1.00  0.00    -0.200 F 
ATOM     82  C   UNL A   1      39.278  35.409  39.088  1.00  0.00     0.200 A 
ATOM     83  F   UNL A   1      40.760  36.964  38.107  1.00  0.00    -0.200 F 
ATOM     84  F   UNL A   1      39.126  36.204  40.156  1.00  0.00    -0.200 F 
ENDBRANCH  50  74
BRANCH  62  85
ATOM     85  C   UNL A   1      43.924  28.570  35.149  1.00  0.00     0.064 A 
ATOM     86  C   UNL A   1      45.225  29.080  35.026  1.00  0.00     0.173 A 
ATOM     87  C   UNL A   1      43.730  27.468  35.998  1.00  0.00     0.173 A 
ATOM     88  F   UNL A   1      45.469  30.122  34.217  1.00  0.00    -0.203 F 
ATOM     89  C   UNL A   1      46.292  28.493  35.703  1.00  0.00     0.198 A 
ATOM     90  C   UNL A   1      44.792  26.906  36.700  1.00  0.00     0.198 A 
ATOM     91  F   UNL A   1      42.505  26.944  36.157  1.00  0.00    -0.203 F 
ATOM     92  F   UNL A   1      47.534  28.964  35.529  1.00  0.00    -0.200 F 
ATOM     93  C   UNL A   1      46.073  27.412  36.546  1.00  0.00     0.200 A 
ATOM     94  F   UNL A   1      44.576  25.873  37.526  1.00  0.00    -0.200 F 
ATOM     95  F   UNL A   1      47.100  26.856  37.203  1.00  0.00    -0.200 F 
ENDBRANCH  62  85
ENDBRANCH  36  37
ENDBRANCH  28  31
ENDBRANCH  26  27
ENDBRANCH  25  26
ENDBRANCH   1  25
TORSDOF 14
ENDMDL
MODEL 3
REMARK VINA RESULT:     -12.0      5.562     11.088
REMARK SMILES CC[C@@](C)(NC(=O)Nc1c(C)cccc1Cl)C(=O)NCCCCNC(=O)c1ccc(-c2c3nc(c(-c4c(F)c(F)c(F)c(F)c4F)c4ccc([nH]4)c(-c4c(F)c(F)c(F)c(F)c4F)c4nc(c(-c5c(F)c(F)c(F)c(F)c5F)c5ccc2[nH]5)C=C4)C=C3)cc1
REMARK SMILES IDX 21 1 20 2 19 3 17 4 18 5 3 7 4 8 2 9 1 10 5 11 6 12 7 14
REMARK SMILES IDX 8 15 9 17 10 18 15 19 11 20 12 21 14 22 16 23 13 24 22 25
REMARK SMILES IDX 23 26 24 27 25 28 26 30 27 31 28 32 89 33 29 34 88 35 30 36
REMARK SMILES IDX 31 37 32 38 82 39 33 40 87 41 81 42 83 43 34 44 86 45 80 46
REMARK SMILES IDX 79 47 35 49 67 50 47 51 66 52 48 53 51 54 65 55 84 56 49 57
REMARK SMILES IDX 50 58 64 60 85 61 52 62 36 63 37 64 45 65 38 66 39 67 43 68
REMARK SMILES IDX 46 69 40 70 41 71 44 72 42 73 68 74 69 75 77 76 70 77 71 78
REMARK SMILES IDX 75 79 78 80 72 81 73 82 76 83 74 84 53 85 54 86 62 87 55 88
REMARK SMILES IDX 56 89 60 90 63 91 57 92 58 93 61 94 59 95
REMARK H PARENT 19 6 5 13 8 16 24 29 83 48 51 59
REMARK Flexibility Score: inf
ROOT
ATOM      1  C   UNL A   1      36.851  20.543  24.795  1.00  0.00     0.023 C 
ENDROOT
BRANCH   1   2
ATOM      2  C   UNL A   1      37.030  22.031  25.178  1.00  0.00     0.116 C 
BRANCH   2   3
ATOM      3  N   UNL A   1      36.249  22.483  26.320  1.00  0.00    -0.354 N 
ATOM      4  C   UNL A   1      34.867  22.479  26.523  1.00  0.00     0.245 C 
ATOM      5  O   UNL A   1      34.358  21.797  27.411  1.00  0.00    -0.272 OA
ATOM      6  H   UNL A   1      36.777  22.848  27.066  1.00  0.00     0.163 HD
BRANCH   4   7
ATOM      7  C   UNL A   1      34.009  23.309  25.539  1.00  0.00     0.117 C 
ATOM      8  C   UNL A   1      34.891  24.588  25.415  1.00  0.00     0.045 C 
BRANCH   7   9
ATOM      9  C   UNL A   1      33.696  22.866  24.081  1.00  0.00     0.035 C 
ATOM     10  C   UNL A   1      32.998  21.551  23.825  1.00  0.00     0.007 C 
ENDBRANCH   7   9
BRANCH   7  11
ATOM     11  N   UNL A   1      32.706  23.559  26.173  1.00  0.00    -0.324 N 
ATOM     12  C   UNL A   1      31.817  24.574  26.019  1.00  0.00     0.320 C 
ATOM     13  H   UNL A   1      32.430  22.871  26.821  1.00  0.00     0.166 HD
ATOM     14  O   UNL A   1      30.933  24.669  26.876  1.00  0.00    -0.248 OA
ATOM     15  N   UNL A   1      31.647  25.261  24.835  1.00  0.00    -0.306 N 
ATOM     16  H   UNL A   1      30.853  24.997  24.315  1.00  0.00     0.171 HD
BRANCH  15  17
ATOM     17  C   UNL A   1      32.443  26.303  24.232  1.00  0.00     0.064 A 
ATOM     18  C   UNL A   1      32.852  26.305  22.867  1.00  0.00    -0.026 A 
ATOM     19  C   UNL A   1      32.499  27.554  24.884  1.00  0.00     0.064 A 
ATOM     20  C   UNL A   1      32.331  25.432  21.745  1.00  0.00     0.046 C 
ATOM     21  C   UNL A   1      33.653  27.356  22.375  1.00  0.00     0.005 A 
ATOM     22  C   UNL A   1      33.131  28.662  24.302  1.00  0.00     0.023 A 
ATOM     23  Cl  UNL A   1      31.613  27.851  26.344  1.00  0.00    -0.082 Cl
ATOM     24  C   UNL A   1      33.777  28.538  23.082  1.00  0.00     0.002 A 
ENDBRANCH  15  17
ENDBRANCH   7  11
ENDBRANCH   4   7
ENDBRANCH   2   3
ENDBRANCH   1   2
BRANCH   1  25
ATOM     25  C   UNL A   1      37.992  19.531  24.985  1.00  0.00     0.023 C 
BRANCH  25  26
ATOM     26  C   UNL A   1      39.078  19.834  26.006  1.00  0.00     0.116 C 
BRANCH  26  27
ATOM     27  N   UNL A   1      40.222  18.962  25.916  1.00  0.00    -0.352 N 
ATOM     28  C   UNL A   1      41.559  19.211  26.109  1.00  0.00     0.251 C 
ATOM     29  H   UNL A   1      40.010  18.031  25.677  1.00  0.00     0.163 HD
ATOM     30  O   UNL A   1      42.360  18.296  25.962  1.00  0.00    -0.269 OA
BRANCH  28  31
ATOM     31  C   UNL A   1      42.065  20.568  26.444  1.00  0.00     0.039 A 
ATOM     32  C   UNL A   1      42.368  21.419  25.376  1.00  0.00     0.014 A 
ATOM     33  C   UNL A   1      42.307  20.995  27.752  1.00  0.00     0.014 A 
ATOM     34  C   UNL A   1      42.863  22.705  25.614  1.00  0.00     0.010 A 
ATOM     35  C   UNL A   1      42.748  22.303  27.992  1.00  0.00     0.010 A 
ATOM     36  C   UNL A   1      43.029  23.173  26.926  1.00  0.00    -0.014 A 
BRANCH  36  37
ATOM     37  C   UNL A   1      43.478  24.571  27.180  1.00  0.00     0.031 A 
ATOM     38  C   UNL A   1      42.526  25.602  27.725  1.00  0.00     0.074 A 
ATOM     39  C   UNL A   1      44.746  24.926  26.892  1.00  0.00     0.049 A 
ATOM     40  N   UNL A   1      42.733  26.871  27.977  1.00  0.00    -0.248 NA
ATOM     41  C   UNL A   1      41.154  25.152  28.007  1.00  0.00     0.031 C 
ATOM     42  C   UNL A   1      45.764  24.034  26.334  1.00  0.00     0.029 A 
ATOM     43  N   UNL A   1      45.397  26.130  27.019  1.00  0.00    -0.354 N 
ATOM     44  C   UNL A   1      41.520  27.372  28.434  1.00  0.00     0.074 A 
ATOM     45  C   UNL A   1      40.570  26.281  28.380  1.00  0.00     0.031 C 
ATOM     46  C   UNL A   1      46.913  24.712  26.189  1.00  0.00     0.029 A 
ATOM     47  C   UNL A   1      46.705  26.097  26.602  1.00  0.00     0.049 A 
ATOM     48  H   UNL A   1      44.965  26.940  27.376  1.00  0.00     0.167 HD
ATOM     49  C   UNL A   1      41.229  28.622  28.875  1.00  0.00     0.037 A 
ATOM     50  C   UNL A   1      47.633  27.074  26.547  1.00  0.00     0.037 A 
ATOM     51  C   UNL A   1      42.180  29.704  28.944  1.00  0.00     0.049 A 
ATOM     52  C   UNL A   1      47.274  28.459  27.014  1.00  0.00     0.074 A 
ATOM     53  C   UNL A   1      41.994  30.987  29.429  1.00  0.00     0.029 A 
ATOM     54  N   UNL A   1      43.495  29.632  28.506  1.00  0.00    -0.354 N 
ATOM     55  N   UNL A   1      46.144  28.901  27.507  1.00  0.00    -0.248 NA
ATOM     56  C   UNL A   1      48.327  29.481  26.921  1.00  0.00     0.031 C 
ATOM     57  C   UNL A   1      43.175  31.708  29.230  1.00  0.00     0.029 A 
ATOM     58  C   UNL A   1      44.120  30.858  28.680  1.00  0.00     0.049 A 
ATOM     59  H   UNL A   1      43.921  28.829  28.127  1.00  0.00     0.167 HD
ATOM     60  C   UNL A   1      46.357  30.239  27.814  1.00  0.00     0.074 A 
ATOM     61  C   UNL A   1      47.731  30.534  27.463  1.00  0.00     0.031 C 
ATOM     62  C   UNL A   1      45.491  31.141  28.337  1.00  0.00     0.037 A 
BRANCH  49  63
ATOM     63  C   UNL A   1      39.817  28.898  29.310  1.00  0.00     0.064 A 
ATOM     64  C   UNL A   1      38.846  29.369  28.414  1.00  0.00     0.173 A 
ATOM     65  C   UNL A   1      39.416  28.640  30.631  1.00  0.00     0.173 A 
ATOM     66  F   UNL A   1      39.175  29.637  27.141  1.00  0.00    -0.203 F 
ATOM     67  C   UNL A   1      37.538  29.605  28.831  1.00  0.00     0.198 A 
ATOM     68  C   UNL A   1      38.099  28.845  31.036  1.00  0.00     0.198 A 
ATOM     69  F   UNL A   1      40.300  28.177  31.528  1.00  0.00    -0.203 F 
ATOM     70  F   UNL A   1      36.641  30.105  27.968  1.00  0.00    -0.200 F 
ATOM     71  C   UNL A   1      37.163  29.335  30.139  1.00  0.00     0.200 A 
ATOM     72  F   UNL A   1      37.737  28.567  32.295  1.00  0.00    -0.200 F 
ATOM     73  F   UNL A   1      35.903  29.554  30.535  1.00  0.00    -0.200 F 
ENDBRANCH  49  63
BRANCH  50  74
ATOM     74  C   UNL A   1      49.000  26.774  26.042  1.00  0.00     0.064 A 
ATOM     75  C   UNL A   1      49.997  26.293  26.903  1.00  0.00     0.173 A 
ATOM     76  C   UNL A   1      49.344  26.977  24.698  1.00  0.00     0.173 A 
ATOM     77  F   UNL A   1      49.724  26.105  28.203  1.00  0.00    -0.203 F 
ATOM     78  C   UNL A   1      51.290  26.049  26.444  1.00  0.00     0.198 A 
ATOM     79  C   UNL A   1      50.628  26.703  24.233  1.00  0.00     0.198 A 
ATOM     80  F   UNL A   1      48.429  27.435  23.831  1.00  0.00    -0.203 F 
ATOM     81  F   UNL A   1      52.235  25.640  27.301  1.00  0.00    -0.200 F 
ATOM     82  C   UNL A   1      51.603  26.249  25.109  1.00  0.00     0.200 A 
ATOM     83  F   UNL A   1      50.923  26.882  22.938  1.00  0.00    -0.200 F 
ATOM     84  F   UNL A   1      52.845  26.010  24.668  1.00  0.00    -0.200 F 
ENDBRANCH  50  74
BRANCH  62  85
ATOM     85  C   UNL A   1      46.012  32.524  28.608  1.00  0.00     0.064 A 
ATOM     86  C   UNL A   1      46.631  32.858  29.822  1.00  0.00     0.173 A 
ATOM     87  C   UNL A   1      45.921  33.521  27.624  1.00  0.00     0.173 A 
ATOM     88  F   UNL A   1      46.730  31.947  30.802  1.00  0.00    -0.203 F 
ATOM     89  C   UNL A   1      47.114  34.144  30.050  1.00  0.00     0.198 A 
ATOM     90  C   UNL A   1      46.436  34.796  27.842  1.00  0.00     0.198 A 
ATOM     91  F   UNL A   1      45.344  33.255  26.442  1.00  0.00    -0.203 F 
ATOM     92  F   UNL A   1      47.655  34.454  31.236  1.00  0.00    -0.200 F 
ATOM     93  C   UNL A   1      47.024  35.109  29.058  1.00  0.00     0.200 A 
ATOM     94  F   UNL A   1      46.363  35.721  26.876  1.00  0.00    -0.200 F 
ATOM     95  F   UNL A   1      47.499  36.343  29.276  1.00  0.00    -0.200 F 
ENDBRANCH  62  85
ENDBRANCH  36  37
ENDBRANCH  28  31
ENDBRANCH  26  27
ENDBRANCH  25  26
ENDBRANCH   1  25
TORSDOF 14
ENDMDL
