MODEL 1
REMARK VINA RESULT:     -13.4      0.000      0.000
REMARK SMILES C[C@H](NC(=O)c1c(C(=O)NCCCCNC(=O)c2ccc(-c3c4nc(c(-c5c(F)c(F)c(F)c(F)c5F)c5ccc([nH]5)c(-c5c(F)c(F)c(F)c(F)c5F)c5nc(c(-c6c(F)c(F)c(F)c(F)c6F)c6ccc3[nH]6)C=C5)C=C4)cc2)cnn1C)[C@]12C[C@H]3C[C@H](C[C@H](C3)C1)C2
REMARK SMILES IDX 12 1 11 2 10 3 8 4 9 5 7 7 6 8 83 9 81 10 82 11 84 12 4 13
REMARK SMILES IDX 3 14 5 16 2 17 1 18 85 19 86 20 93 21 94 22 87 23 91 24
REMARK SMILES IDX 89 25 88 26 92 27 90 28 13 29 14 30 15 31 16 32 17 34 18 35
REMARK SMILES IDX 19 36 80 37 20 38 79 39 21 40 22 41 23 42 73 43 24 44 78 45
REMARK SMILES IDX 72 46 74 47 25 48 77 49 71 50 70 51 26 53 58 54 38 55 57 56
REMARK SMILES IDX 39 57 42 58 56 59 75 60 40 61 41 62 55 64 76 65 43 66 27 67
REMARK SMILES IDX 28 68 36 69 29 70 30 71 34 72 37 73 31 74 32 75 35 76 33 77
REMARK SMILES IDX 59 78 60 79 68 80 61 81 62 82 66 83 69 84 63 85 64 86 67 87
REMARK SMILES IDX 65 88 44 89 45 90 53 91 46 92 47 93 51 94 54 95 48 96 49 97
REMARK SMILES IDX 52 98 50 99
REMARK H PARENT 10 6 3 15 15 33 74 52 42 63
REMARK Flexibility Score: inf
ROOT
ATOM      1  C   UNL A   1      32.094  30.059  27.028  1.00  0.00     0.023 C 
ENDROOT
BRANCH   1   2
ATOM      2  C   UNL A   1      33.535  29.603  26.830  1.00  0.00     0.116 C 
BRANCH   2   3
ATOM      3  N   UNL A   1      33.866  29.342  25.460  1.00  0.00    -0.352 N 
ATOM      4  C   UNL A   1      33.916  28.187  24.730  1.00  0.00     0.255 C 
ATOM      5  O   UNL A   1      34.301  28.345  23.566  1.00  0.00    -0.269 OA
ATOM      6  H   UNL A   1      34.103  30.148  24.947  1.00  0.00     0.163 HD
BRANCH   4   7
ATOM      7  C   UNL A   1      33.544  26.845  25.187  1.00  0.00     0.090 A 
ATOM      8  C   UNL A   1      32.387  26.181  25.620  1.00  0.00     0.138 A 
ATOM      9  N   UNL A   1      32.723  24.840  25.571  1.00  0.00    -0.262 N 
ATOM     10  C   UNL A   1      34.532  25.813  25.205  1.00  0.00     0.149 A 
ATOM     11  N   UNL A   1      34.041  24.612  25.493  1.00  0.00    -0.180 NA
ATOM     12  C   UNL A   1      31.845  23.692  25.526  1.00  0.00     0.174 C 
BRANCH   8  13
ATOM     13  C   UNL A   1      31.031  26.611  25.807  1.00  0.00     0.270 C 
ATOM     14  N   UNL A   1      30.351  27.323  24.840  1.00  0.00    -0.348 N 
ATOM     15  H   UNL A   1      29.399  27.427  25.065  1.00  0.00     0.164 HD
ATOM     16  O   UNL A   1      30.409  26.345  26.837  1.00  0.00    -0.267 OA
BRANCH  14  17
ATOM     17  C   UNL A   1      30.686  27.972  23.553  1.00  0.00     0.085 C 
ATOM     18  C   UNL A   1      31.057  26.986  22.451  1.00  0.00     0.031 C 
BRANCH  17  19
ATOM     19  C   UNL A   1      29.780  29.195  23.105  1.00  0.00    -0.009 C 
ATOM     20  C   UNL A   1      30.150  29.777  21.727  1.00  0.00     0.012 C 
ATOM     21  C   UNL A   1      29.820  30.363  24.134  1.00  0.00     0.012 C 
ATOM     22  C   UNL A   1      28.293  28.723  22.994  1.00  0.00     0.012 C 
ATOM     23  C   UNL A   1      29.231  30.948  21.318  1.00  0.00    -0.010 C 
ATOM     24  C   UNL A   1      28.891  31.518  23.734  1.00  0.00    -0.010 C 
ATOM     25  C   UNL A   1      27.355  29.881  22.602  1.00  0.00    -0.010 C 
ATOM     26  C   UNL A   1      27.780  30.447  21.239  1.00  0.00     0.007 C 
ATOM     27  C   UNL A   1      29.324  32.062  22.366  1.00  0.00     0.007 C 
ATOM     28  C   UNL A   1      27.450  30.995  23.655  1.00  0.00     0.007 C 
ENDBRANCH  17  19
ENDBRANCH  14  17
ENDBRANCH   8  13
ENDBRANCH   4   7
ENDBRANCH   2   3
ENDBRANCH   1   2
BRANCH   1  29
ATOM     29  C   UNL A   1      31.845  31.544  26.859  1.00  0.00     0.023 C 
BRANCH  29  30
ATOM     30  C   UNL A   1      32.967  32.438  27.364  1.00  0.00     0.116 C 
BRANCH  30  31
ATOM     31  N   UNL A   1      32.558  33.816  27.613  1.00  0.00    -0.352 N 
ATOM     32  C   UNL A   1      33.036  34.742  28.512  1.00  0.00     0.251 C 
ATOM     33  H   UNL A   1      31.818  34.135  27.046  1.00  0.00     0.163 HD
ATOM     34  O   UNL A   1      32.481  35.822  28.645  1.00  0.00    -0.269 OA
BRANCH  32  35
ATOM     35  C   UNL A   1      34.202  34.399  29.354  1.00  0.00     0.039 A 
ATOM     36  C   UNL A   1      33.986  33.853  30.621  1.00  0.00     0.014 A 
ATOM     37  C   UNL A   1      35.500  34.555  28.870  1.00  0.00     0.014 A 
ATOM     38  C   UNL A   1      35.068  33.354  31.348  1.00  0.00     0.010 A 
ATOM     39  C   UNL A   1      36.557  33.951  29.537  1.00  0.00     0.010 A 
ATOM     40  C   UNL A   1      36.353  33.340  30.781  1.00  0.00    -0.014 A 
BRANCH  40  41
ATOM     41  C   UNL A   1      37.497  32.682  31.464  1.00  0.00     0.031 A 
ATOM     42  C   UNL A   1      38.204  31.528  30.806  1.00  0.00     0.074 A 
ATOM     43  C   UNL A   1      37.841  33.065  32.710  1.00  0.00     0.049 A 
ATOM     44  N   UNL A   1      39.158  30.765  31.276  1.00  0.00    -0.248 NA
ATOM     45  C   UNL A   1      37.750  31.155  29.457  1.00  0.00     0.031 C 
ATOM     46  C   UNL A   1      37.184  34.117  33.488  1.00  0.00     0.029 A 
ATOM     47  N   UNL A   1      38.825  32.602  33.549  1.00  0.00    -0.354 N 
ATOM     48  C   UNL A   1      39.399  29.816  30.293  1.00  0.00     0.074 A 
ATOM     49  C   UNL A   1      38.449  30.055  29.229  1.00  0.00     0.031 C 
ATOM     50  C   UNL A   1      37.801  34.241  34.674  1.00  0.00     0.029 A 
ATOM     51  C   UNL A   1      38.873  33.255  34.757  1.00  0.00     0.049 A 
ATOM     52  H   UNL A   1      39.438  31.871  33.307  1.00  0.00     0.167 HD
ATOM     53  C   UNL A   1      40.349  28.851  30.263  1.00  0.00     0.037 A 
ATOM     54  C   UNL A   1      39.690  33.076  35.813  1.00  0.00     0.037 A 
ATOM     55  C   UNL A   1      41.321  28.643  31.302  1.00  0.00     0.049 A 
ATOM     56  C   UNL A   1      40.759  32.021  35.738  1.00  0.00     0.074 A 
ATOM     57  C   UNL A   1      42.366  27.738  31.338  1.00  0.00     0.029 A 
ATOM     58  N   UNL A   1      41.368  29.360  32.489  1.00  0.00    -0.354 N 
ATOM     59  N   UNL A   1      41.025  31.178  34.770  1.00  0.00    -0.248 NA
ATOM     60  C   UNL A   1      41.650  31.899  36.901  1.00  0.00     0.031 C 
ATOM     61  C   UNL A   1      43.028  27.884  32.562  1.00  0.00     0.029 A 
ATOM     62  C   UNL A   1      42.420  28.908  33.269  1.00  0.00     0.049 A 
ATOM     63  H   UNL A   1      40.748  30.081  32.740  1.00  0.00     0.167 HD
ATOM     64  C   UNL A   1      42.126  30.446  35.193  1.00  0.00     0.074 A 
ATOM     65  C   UNL A   1      42.490  30.957  36.498  1.00  0.00     0.031 C 
ATOM     66  C   UNL A   1      42.774  29.438  34.560  1.00  0.00     0.037 A 
BRANCH  53  67
ATOM     67  C   UNL A   1      40.397  27.963  29.053  1.00  0.00     0.064 A 
ATOM     68  C   UNL A   1      39.654  26.774  28.989  1.00  0.00     0.173 A 
ATOM     69  C   UNL A   1      41.163  28.320  27.935  1.00  0.00     0.173 A 
ATOM     70  F   UNL A   1      38.916  26.381  30.038  1.00  0.00    -0.203 F 
ATOM     71  C   UNL A   1      39.699  25.961  27.860  1.00  0.00     0.198 A 
ATOM     72  C   UNL A   1      41.182  27.520  26.795  1.00  0.00     0.198 A 
ATOM     73  F   UNL A   1      41.889  29.448  27.943  1.00  0.00    -0.203 F 
ATOM     74  F   UNL A   1      39.020  24.806  27.842  1.00  0.00    -0.200 F 
ATOM     75  C   UNL A   1      40.456  26.338  26.762  1.00  0.00     0.200 A 
ATOM     76  F   UNL A   1      41.905  27.890  25.729  1.00  0.00    -0.200 F 
ATOM     77  F   UNL A   1      40.492  25.559  25.672  1.00  0.00    -0.200 F 
ENDBRANCH  53  67
BRANCH  54  78
ATOM     78  C   UNL A   1      39.554  33.938  37.016  1.00  0.00     0.064 A 
ATOM     79  C   UNL A   1      38.808  33.510  38.124  1.00  0.00     0.173 A 
ATOM     80  C   UNL A   1      40.150  35.205  37.082  1.00  0.00     0.173 A 
ATOM     81  F   UNL A   1      38.203  32.313  38.101  1.00  0.00    -0.203 F 
ATOM     82  C   UNL A   1      38.642  34.327  39.240  1.00  0.00     0.198 A 
ATOM     83  C   UNL A   1      40.008  36.010  38.210  1.00  0.00     0.198 A 
ATOM     84  F   UNL A   1      40.880  35.658  36.051  1.00  0.00    -0.203 F 
ATOM     85  F   UNL A   1      37.882  33.913  40.264  1.00  0.00    -0.200 F 
ATOM     86  C   UNL A   1      39.246  35.575  39.284  1.00  0.00     0.200 A 
ATOM     87  F   UNL A   1      40.603  37.209  38.255  1.00  0.00    -0.200 F 
ATOM     88  F   UNL A   1      39.086  36.361  40.358  1.00  0.00    -0.200 F 
ENDBRANCH  54  78
BRANCH  66  89
ATOM     89  C   UNL A   1      43.965  28.847  35.255  1.00  0.00     0.064 A 
ATOM     90  C   UNL A   1      45.260  29.337  35.037  1.00  0.00     0.173 A 
ATOM     91  C   UNL A   1      43.802  27.803  36.178  1.00  0.00     0.173 A 
ATOM     92  F   UNL A   1      45.469  30.325  34.152  1.00  0.00    -0.203 F 
ATOM     93  C   UNL A   1      46.354  28.784  35.697  1.00  0.00     0.198 A 
ATOM     94  C   UNL A   1      44.894  27.272  36.857  1.00  0.00     0.198 A 
ATOM     95  F   UNL A   1      42.581  27.304  36.427  1.00  0.00    -0.203 F 
ATOM     96  F   UNL A   1      47.589  29.234  35.436  1.00  0.00    -0.200 F 
ATOM     97  C   UNL A   1      46.169  27.757  36.611  1.00  0.00     0.200 A 
ATOM     98  F   UNL A   1      44.712  26.289  37.750  1.00  0.00    -0.200 F 
ATOM     99  F   UNL A   1      47.223  27.229  37.249  1.00  0.00    -0.200 F 
ENDBRANCH  66  89
ENDBRANCH  40  41
ENDBRANCH  32  35
ENDBRANCH  30  31
ENDBRANCH  29  30
ENDBRANCH   1  29
TORSDOF 14
ENDMDL
MODEL 2
REMARK VINA RESULT:     -13.4      1.560      8.056
REMARK SMILES C[C@H](NC(=O)c1c(C(=O)NCCCCNC(=O)c2ccc(-c3c4nc(c(-c5c(F)c(F)c(F)c(F)c5F)c5ccc([nH]5)c(-c5c(F)c(F)c(F)c(F)c5F)c5nc(c(-c6c(F)c(F)c(F)c(F)c6F)c6ccc3[nH]6)C=C5)C=C4)cc2)cnn1C)[C@]12C[C@H]3C[C@H](C[C@H](C3)C1)C2
REMARK SMILES IDX 12 1 11 2 10 3 8 4 9 5 7 7 6 8 83 9 81 10 82 11 84 12 4 13
REMARK SMILES IDX 3 14 5 16 2 17 1 18 85 19 86 20 93 21 94 22 87 23 91 24
REMARK SMILES IDX 89 25 88 26 92 27 90 28 13 29 14 30 15 31 16 32 17 34 18 35
REMARK SMILES IDX 19 36 80 37 20 38 79 39 21 40 22 41 23 42 73 43 24 44 78 45
REMARK SMILES IDX 72 46 74 47 25 48 77 49 71 50 70 51 26 53 58 54 38 55 57 56
REMARK SMILES IDX 39 57 42 58 56 59 75 60 40 61 41 62 55 64 76 65 43 66 27 67
REMARK SMILES IDX 28 68 36 69 29 70 30 71 34 72 37 73 31 74 32 75 35 76 33 77
REMARK SMILES IDX 59 78 60 79 68 80 61 81 62 82 66 83 69 84 63 85 64 86 67 87
REMARK SMILES IDX 65 88 44 89 45 90 53 91 46 92 47 93 51 94 54 95 48 96 49 97
REMARK SMILES IDX 52 98 50 99
REMARK H PARENT 10 6 3 15 15 33 74 52 42 63
REMARK Flexibility Score: inf
ROOT
ATOM      1  C   UNL A   1      31.778  30.709  26.136  1.00  0.00     0.023 C 
ENDROOT
BRANCH   1   2
ATOM      2  C   UNL A   1      31.943  29.554  27.118  1.00  0.00     0.116 C 
BRANCH   2   3
ATOM      3  N   UNL A   1      32.884  28.566  26.681  1.00  0.00    -0.352 N 
ATOM      4  C   UNL A   1      32.785  27.534  25.788  1.00  0.00     0.255 C 
ATOM      5  O   UNL A   1      33.807  26.844  25.704  1.00  0.00    -0.269 OA
ATOM      6  H   UNL A   1      33.770  28.644  27.103  1.00  0.00     0.163 HD
BRANCH   4   7
ATOM      7  C   UNL A   1      31.629  27.211  24.947  1.00  0.00     0.090 A 
ATOM      8  C   UNL A   1      30.584  26.275  24.938  1.00  0.00     0.138 A 
ATOM      9  N   UNL A   1      29.681  26.781  24.021  1.00  0.00    -0.262 N 
ATOM     10  C   UNL A   1      31.342  28.024  23.809  1.00  0.00     0.149 A 
ATOM     11  N   UNL A   1      30.191  27.724  23.218  1.00  0.00    -0.180 NA
ATOM     12  C   UNL A   1      28.275  26.473  23.876  1.00  0.00     0.174 C 
BRANCH   8  13
ATOM     13  C   UNL A   1      30.242  25.188  25.810  1.00  0.00     0.270 C 
ATOM     14  N   UNL A   1      30.713  23.909  25.600  1.00  0.00    -0.348 N 
ATOM     15  H   UNL A   1      30.497  23.312  26.353  1.00  0.00     0.164 HD
ATOM     16  O   UNL A   1      29.524  25.358  26.796  1.00  0.00    -0.267 OA
BRANCH  14  17
ATOM     17  C   UNL A   1      31.459  23.202  24.535  1.00  0.00     0.085 C 
ATOM     18  C   UNL A   1      31.029  23.596  23.126  1.00  0.00     0.031 C 
BRANCH  17  19
ATOM     19  C   UNL A   1      33.019  23.011  24.751  1.00  0.00    -0.009 C 
ATOM     20  C   UNL A   1      33.890  23.897  23.838  1.00  0.00     0.012 C 
ATOM     21  C   UNL A   1      33.465  21.535  24.537  1.00  0.00     0.012 C 
ATOM     22  C   UNL A   1      33.388  23.403  26.219  1.00  0.00     0.012 C 
ATOM     23  C   UNL A   1      35.399  23.699  24.095  1.00  0.00    -0.010 C 
ATOM     24  C   UNL A   1      34.963  21.338  24.812  1.00  0.00    -0.010 C 
ATOM     25  C   UNL A   1      34.889  23.198  26.503  1.00  0.00    -0.010 C 
ATOM     26  C   UNL A   1      35.716  24.076  25.552  1.00  0.00     0.007 C 
ATOM     27  C   UNL A   1      35.771  22.231  23.861  1.00  0.00     0.007 C 
ATOM     28  C   UNL A   1      35.257  21.725  26.268  1.00  0.00     0.007 C 
ENDBRANCH  17  19
ENDBRANCH  14  17
ENDBRANCH   8  13
ENDBRANCH   4   7
ENDBRANCH   2   3
ENDBRANCH   1   2
BRANCH   1  29
ATOM     29  C   UNL A   1      31.461  32.057  26.753  1.00  0.00     0.023 C 
BRANCH  29  30
ATOM     30  C   UNL A   1      32.670  32.811  27.286  1.00  0.00     0.116 C 
BRANCH  30  31
ATOM     31  N   UNL A   1      32.395  34.202  27.626  1.00  0.00    -0.352 N 
ATOM     32  C   UNL A   1      32.991  35.032  28.550  1.00  0.00     0.251 C 
ATOM     33  H   UNL A   1      31.663  34.615  27.112  1.00  0.00     0.163 HD
ATOM     34  O   UNL A   1      32.539  36.146  28.765  1.00  0.00    -0.269 OA
BRANCH  32  35
ATOM     35  C   UNL A   1      34.156  34.543  29.317  1.00  0.00     0.039 A 
ATOM     36  C   UNL A   1      33.949  33.983  30.580  1.00  0.00     0.014 A 
ATOM     37  C   UNL A   1      35.436  34.578  28.766  1.00  0.00     0.014 A 
ATOM     38  C   UNL A   1      35.009  33.352  31.233  1.00  0.00     0.010 A 
ATOM     39  C   UNL A   1      36.456  33.846  29.358  1.00  0.00     0.010 A 
ATOM     40  C   UNL A   1      36.254  33.221  30.596  1.00  0.00    -0.014 A 
BRANCH  40  41
ATOM     41  C   UNL A   1      37.356  32.426  31.197  1.00  0.00     0.031 A 
ATOM     42  C   UNL A   1      37.860  32.760  32.575  1.00  0.00     0.074 A 
ATOM     43  C   UNL A   1      37.961  31.466  30.470  1.00  0.00     0.049 A 
ATOM     44  N   UNL A   1      38.869  32.248  33.234  1.00  0.00    -0.248 NA
ATOM     45  C   UNL A   1      37.163  33.840  33.292  1.00  0.00     0.031 C 
ATOM     46  C   UNL A   1      37.619  31.099  29.094  1.00  0.00     0.029 A 
ATOM     47  N   UNL A   1      39.002  30.627  30.784  1.00  0.00    -0.354 N 
ATOM     48  C   UNL A   1      38.938  32.958  34.425  1.00  0.00     0.074 A 
ATOM     49  C   UNL A   1      37.914  33.978  34.373  1.00  0.00     0.031 C 
ATOM     50  C   UNL A   1      38.411  30.092  28.695  1.00  0.00     0.029 A 
ATOM     51  C   UNL A   1      39.341  29.764  29.770  1.00  0.00     0.049 A 
ATOM     52  H   UNL A   1      39.462  30.643  31.654  1.00  0.00     0.167 HD
ATOM     53  C   UNL A   1      39.758  32.756  35.484  1.00  0.00     0.037 A 
ATOM     54  C   UNL A   1      40.296  28.815  29.716  1.00  0.00     0.037 A 
ATOM     55  C   UNL A   1      40.746  31.713  35.551  1.00  0.00     0.049 A 
ATOM     56  C   UNL A   1      41.170  28.589  30.919  1.00  0.00     0.074 A 
ATOM     57  C   UNL A   1      41.581  31.383  36.603  1.00  0.00     0.029 A 
ATOM     58  N   UNL A   1      41.025  30.826  34.522  1.00  0.00    -0.354 N 
ATOM     59  N   UNL A   1      41.175  29.218  32.069  1.00  0.00    -0.248 NA
ATOM     60  C   UNL A   1      42.166  27.513  30.819  1.00  0.00     0.031 C 
ATOM     61  C   UNL A   1      42.390  30.315  36.200  1.00  0.00     0.029 A 
ATOM     62  C   UNL A   1      42.028  29.954  34.912  1.00  0.00     0.049 A 
ATOM     63  H   UNL A   1      40.577  30.817  33.646  1.00  0.00     0.167 HD
ATOM     64  C   UNL A   1      42.151  28.599  32.838  1.00  0.00     0.074 A 
ATOM     65  C   UNL A   1      42.705  27.533  32.029  1.00  0.00     0.031 C 
ATOM     66  C   UNL A   1      42.557  28.891  34.097  1.00  0.00     0.037 A 
BRANCH  53  67
ATOM     67  C   UNL A   1      39.604  33.670  36.664  1.00  0.00     0.064 A 
ATOM     68  C   UNL A   1      40.254  34.913  36.717  1.00  0.00     0.173 A 
ATOM     69  C   UNL A   1      38.772  33.318  37.736  1.00  0.00     0.173 A 
ATOM     70  F   UNL A   1      41.072  35.291  35.724  1.00  0.00    -0.203 F 
ATOM     71  C   UNL A   1      40.098  35.756  37.814  1.00  0.00     0.198 A 
ATOM     72  C   UNL A   1      38.594  34.178  38.817  1.00  0.00     0.198 A 
ATOM     73  F   UNL A   1      38.125  32.143  37.733  1.00  0.00    -0.203 F 
ATOM     74  F   UNL A   1      40.768  36.916  37.864  1.00  0.00    -0.200 F 
ATOM     75  C   UNL A   1      39.262  35.393  38.858  1.00  0.00     0.200 A 
ATOM     76  F   UNL A   1      37.777  33.830  39.821  1.00  0.00    -0.200 F 
ATOM     77  F   UNL A   1      39.106  36.210  39.909  1.00  0.00    -0.200 F 
ENDBRANCH  53  67
BRANCH  54  78
ATOM     78  C   UNL A   1      40.453  27.984  28.493  1.00  0.00     0.064 A 
ATOM     79  C   UNL A   1      39.805  26.746  28.380  1.00  0.00     0.173 A 
ATOM     80  C   UNL A   1      41.261  28.398  27.425  1.00  0.00     0.173 A 
ATOM     81  F   UNL A   1      39.036  26.298  29.384  1.00  0.00    -0.203 F 
ATOM     82  C   UNL A   1      39.979  25.942  27.255  1.00  0.00     0.198 A 
ATOM     83  C   UNL A   1      41.412  27.606  26.288  1.00  0.00     0.198 A 
ATOM     84  F   UNL A   1      41.897  29.577  27.482  1.00  0.00    -0.203 F 
ATOM     85  F   UNL A   1      39.387  24.741  27.195  1.00  0.00    -0.200 F 
ATOM     86  C   UNL A   1      40.779  26.375  26.208  1.00  0.00     0.200 A 
ATOM     87  F   UNL A   1      42.174  28.033  25.273  1.00  0.00    -0.200 F 
ATOM     88  F   UNL A   1      40.946  25.602  25.126  1.00  0.00    -0.200 F 
ENDBRANCH  54  78
BRANCH  66  89
ATOM     89  C   UNL A   1      43.625  28.021  34.691  1.00  0.00     0.064 A 
ATOM     90  C   UNL A   1      43.320  26.794  35.298  1.00  0.00     0.173 A 
ATOM     91  C   UNL A   1      44.973  28.403  34.619  1.00  0.00     0.173 A 
ATOM     92  F   UNL A   1      42.044  26.392  35.405  1.00  0.00    -0.203 F 
ATOM     93  C   UNL A   1      44.324  25.994  35.837  1.00  0.00     0.198 A 
ATOM     94  C   UNL A   1      45.976  27.588  35.133  1.00  0.00     0.198 A 
ATOM     95  F   UNL A   1      45.317  29.565  34.042  1.00  0.00    -0.203 F 
ATOM     96  F   UNL A   1      44.005  24.849  36.456  1.00  0.00    -0.200 F 
ATOM     97  C   UNL A   1      45.651  26.388  35.748  1.00  0.00     0.200 A 
ATOM     98  F   UNL A   1      47.259  27.964  35.034  1.00  0.00    -0.200 F 
ATOM     99  F   UNL A   1      46.616  25.614  36.262  1.00  0.00    -0.200 F 
ENDBRANCH  66  89
ENDBRANCH  40  41
ENDBRANCH  32  35
ENDBRANCH  30  31
ENDBRANCH  29  30
ENDBRANCH   1  29
TORSDOF 14
ENDMDL
MODEL 3
REMARK VINA RESULT:     -13.4      0.105      1.101
REMARK SMILES C[C@H](NC(=O)c1c(C(=O)NCCCCNC(=O)c2ccc(-c3c4nc(c(-c5c(F)c(F)c(F)c(F)c5F)c5ccc([nH]5)c(-c5c(F)c(F)c(F)c(F)c5F)c5nc(c(-c6c(F)c(F)c(F)c(F)c6F)c6ccc3[nH]6)C=C5)C=C4)cc2)cnn1C)[C@]12C[C@H]3C[C@H](C[C@H](C3)C1)C2
REMARK SMILES IDX 12 1 11 2 10 3 8 4 9 5 7 7 6 8 83 9 81 10 82 11 84 12 4 13
REMARK SMILES IDX 3 14 5 16 2 17 1 18 85 19 86 20 93 21 94 22 87 23 91 24
REMARK SMILES IDX 89 25 88 26 92 27 90 28 13 29 14 30 15 31 16 32 17 34 18 35
REMARK SMILES IDX 19 36 80 37 20 38 79 39 21 40 22 41 23 42 73 43 24 44 78 45
REMARK SMILES IDX 72 46 74 47 25 48 77 49 71 50 70 51 26 53 58 54 38 55 57 56
REMARK SMILES IDX 39 57 42 58 56 59 75 60 40 61 41 62 55 64 76 65 43 66 27 67
REMARK SMILES IDX 28 68 36 69 29 70 30 71 34 72 37 73 31 74 32 75 35 76 33 77
REMARK SMILES IDX 59 78 60 79 68 80 61 81 62 82 66 83 69 84 63 85 64 86 67 87
REMARK SMILES IDX 65 88 44 89 45 90 53 91 46 92 47 93 51 94 54 95 48 96 49 97
REMARK SMILES IDX 52 98 50 99
REMARK H PARENT 10 6 3 15 15 33 74 52 42 63
REMARK Flexibility Score: inf
ROOT
ATOM      1  C   UNL A   1      32.049  30.087  26.917  1.00  0.00     0.023 C 
ENDROOT
BRANCH   1   2
ATOM      2  C   UNL A   1      33.509  29.682  26.753  1.00  0.00     0.116 C 
BRANCH   2   3
ATOM      3  N   UNL A   1      33.871  29.391  25.398  1.00  0.00    -0.352 N 
ATOM      4  C   UNL A   1      33.944  28.219  24.697  1.00  0.00     0.255 C 
ATOM      5  O   UNL A   1      34.352  28.351  23.538  1.00  0.00    -0.269 OA
ATOM      6  H   UNL A   1      34.113  30.186  24.870  1.00  0.00     0.163 HD
BRANCH   4   7
ATOM      7  C   UNL A   1      33.572  26.886  25.179  1.00  0.00     0.090 A 
ATOM      8  C   UNL A   1      32.418  26.234  25.638  1.00  0.00     0.138 A 
ATOM      9  N   UNL A   1      32.746  24.891  25.604  1.00  0.00    -0.262 N 
ATOM     10  C   UNL A   1      34.554  25.849  25.198  1.00  0.00     0.149 A 
ATOM     11  N   UNL A   1      34.061  24.655  25.511  1.00  0.00    -0.180 NA
ATOM     12  C   UNL A   1      31.861  23.747  25.588  1.00  0.00     0.174 C 
BRANCH   8  13
ATOM     13  C   UNL A   1      31.067  26.674  25.838  1.00  0.00     0.270 C 
ATOM     14  N   UNL A   1      30.377  27.377  24.872  1.00  0.00    -0.348 N 
ATOM     15  H   UNL A   1      29.429  27.489  25.109  1.00  0.00     0.164 HD
ATOM     16  O   UNL A   1      30.459  26.427  26.881  1.00  0.00    -0.267 OA
BRANCH  14  17
ATOM     17  C   UNL A   1      30.697  28.006  23.571  1.00  0.00     0.085 C 
ATOM     18  C   UNL A   1      31.060  27.003  22.481  1.00  0.00     0.031 C 
BRANCH  17  19
ATOM     19  C   UNL A   1      29.783  29.219  23.113  1.00  0.00    -0.009 C 
ATOM     20  C   UNL A   1      30.145  29.787  21.726  1.00  0.00     0.012 C 
ATOM     21  C   UNL A   1      29.821  30.398  24.128  1.00  0.00     0.012 C 
ATOM     22  C   UNL A   1      28.298  28.737  23.012  1.00  0.00     0.012 C 
ATOM     23  C   UNL A   1      29.219  30.949  21.308  1.00  0.00    -0.010 C 
ATOM     24  C   UNL A   1      28.884  31.544  23.719  1.00  0.00    -0.010 C 
ATOM     25  C   UNL A   1      27.352  29.886  22.610  1.00  0.00    -0.010 C 
ATOM     26  C   UNL A   1      27.770  30.439  21.239  1.00  0.00     0.007 C 
ATOM     27  C   UNL A   1      29.308  32.075  22.343  1.00  0.00     0.007 C 
ATOM     28  C   UNL A   1      27.445  31.012  23.651  1.00  0.00     0.007 C 
ENDBRANCH  17  19
ENDBRANCH  14  17
ENDBRANCH   8  13
ENDBRANCH   4   7
ENDBRANCH   2   3
ENDBRANCH   1   2
BRANCH   1  29
ATOM     29  C   UNL A   1      31.770  31.576  26.873  1.00  0.00     0.023 C 
BRANCH  29  30
ATOM     30  C   UNL A   1      32.900  32.450  27.395  1.00  0.00     0.116 C 
BRANCH  30  31
ATOM     31  N   UNL A   1      32.513  33.836  27.632  1.00  0.00    -0.352 N 
ATOM     32  C   UNL A   1      33.020  34.768  28.510  1.00  0.00     0.251 C 
ATOM     33  H   UNL A   1      31.767  34.157  27.075  1.00  0.00     0.163 HD
ATOM     34  O   UNL A   1      32.482  35.858  28.638  1.00  0.00    -0.269 OA
BRANCH  32  35
ATOM     35  C   UNL A   1      34.197  34.422  29.335  1.00  0.00     0.039 A 
ATOM     36  C   UNL A   1      33.997  33.883  30.608  1.00  0.00     0.014 A 
ATOM     37  C   UNL A   1      35.488  34.567  28.829  1.00  0.00     0.014 A 
ATOM     38  C   UNL A   1      35.087  33.381  31.320  1.00  0.00     0.010 A 
ATOM     39  C   UNL A   1      36.551  33.959  29.482  1.00  0.00     0.010 A 
ATOM     40  C   UNL A   1      36.363  33.355  30.733  1.00  0.00    -0.014 A 
BRANCH  40  41
ATOM     41  C   UNL A   1      37.514  32.693  31.401  1.00  0.00     0.031 A 
ATOM     42  C   UNL A   1      38.214  31.544  30.729  1.00  0.00     0.074 A 
ATOM     43  C   UNL A   1      37.868  33.067  32.646  1.00  0.00     0.049 A 
ATOM     44  N   UNL A   1      39.173  30.778  31.185  1.00  0.00    -0.248 NA
ATOM     45  C   UNL A   1      37.749  31.180  29.381  1.00  0.00     0.031 C 
ATOM     46  C   UNL A   1      37.218  34.114  33.438  1.00  0.00     0.029 A 
ATOM     47  N   UNL A   1      38.860  32.599  33.473  1.00  0.00    -0.354 N 
ATOM     48  C   UNL A   1      39.405  29.835  30.193  1.00  0.00     0.074 A 
ATOM     49  C   UNL A   1      38.446  30.081  29.139  1.00  0.00     0.031 C 
ATOM     50  C   UNL A   1      37.846  34.230  34.618  1.00  0.00     0.029 A 
ATOM     51  C   UNL A   1      38.919  33.244  34.685  1.00  0.00     0.049 A 
ATOM     52  H   UNL A   1      39.471  31.870  33.221  1.00  0.00     0.167 HD
ATOM     53  C   UNL A   1      40.355  28.871  30.148  1.00  0.00     0.037 A 
ATOM     54  C   UNL A   1      39.745  33.058  35.732  1.00  0.00     0.037 A 
ATOM     55  C   UNL A   1      41.336  28.656  31.177  1.00  0.00     0.049 A 
ATOM     56  C   UNL A   1      40.814  32.003  35.641  1.00  0.00     0.074 A 
ATOM     57  C   UNL A   1      42.382  27.751  31.197  1.00  0.00     0.029 A 
ATOM     58  N   UNL A   1      41.394  29.364  32.368  1.00  0.00    -0.354 N 
ATOM     59  N   UNL A   1      41.072  31.167  34.665  1.00  0.00    -0.248 NA
ATOM     60  C   UNL A   1      41.715  31.874  36.794  1.00  0.00     0.031 C 
ATOM     61  C   UNL A   1      43.055  27.888  32.416  1.00  0.00     0.029 A 
ATOM     62  C   UNL A   1      42.453  28.908  33.136  1.00  0.00     0.049 A 
ATOM     63  H   UNL A   1      40.776  30.084  32.630  1.00  0.00     0.167 HD
ATOM     64  C   UNL A   1      42.176  30.433  35.073  1.00  0.00     0.074 A 
ATOM     65  C   UNL A   1      42.552  30.935  36.378  1.00  0.00     0.031 C 
ATOM     66  C   UNL A   1      42.819  29.429  34.427  1.00  0.00     0.037 A 
BRANCH  53  67
ATOM     67  C   UNL A   1      40.392  27.991  28.932  1.00  0.00     0.064 A 
ATOM     68  C   UNL A   1      41.152  28.335  27.804  1.00  0.00     0.173 A 
ATOM     69  C   UNL A   1      39.691  26.777  28.907  1.00  0.00     0.173 A 
ATOM     70  F   UNL A   1      41.830  29.492  27.771  1.00  0.00    -0.203 F 
ATOM     71  C   UNL A   1      41.186  27.508  26.684  1.00  0.00     0.198 A 
ATOM     72  C   UNL A   1      39.752  25.938  27.797  1.00  0.00     0.198 A 
ATOM     73  F   UNL A   1      38.952  26.401  29.961  1.00  0.00    -0.203 F 
ATOM     74  F   UNL A   1      41.879  27.881  25.600  1.00  0.00    -0.200 F 
ATOM     75  C   UNL A   1      40.493  26.307  26.684  1.00  0.00     0.200 A 
ATOM     76  F   UNL A   1      39.090  24.772  27.803  1.00  0.00    -0.200 F 
ATOM     77  F   UNL A   1      40.534  25.508  25.609  1.00  0.00    -0.200 F 
ENDBRANCH  53  67
BRANCH  54  78
ATOM     78  C   UNL A   1      39.620  33.911  36.943  1.00  0.00     0.064 A 
ATOM     79  C   UNL A   1      38.881  33.478  38.052  1.00  0.00     0.173 A 
ATOM     80  C   UNL A   1      40.221  35.176  37.013  1.00  0.00     0.173 A 
ATOM     81  F   UNL A   1      38.272  32.283  38.025  1.00  0.00    -0.203 F 
ATOM     82  C   UNL A   1      38.724  34.287  39.175  1.00  0.00     0.198 A 
ATOM     83  C   UNL A   1      40.088  35.974  38.148  1.00  0.00     0.198 A 
ATOM     84  F   UNL A   1      40.944  35.634  35.981  1.00  0.00    -0.203 F 
ATOM     85  F   UNL A   1      37.971  33.869  40.201  1.00  0.00    -0.200 F 
ATOM     86  C   UNL A   1      39.333  35.533  39.224  1.00  0.00     0.200 A 
ATOM     87  F   UNL A   1      40.688  37.171  38.197  1.00  0.00    -0.200 F 
ATOM     88  F   UNL A   1      39.183  36.312  40.305  1.00  0.00    -0.200 F 
ENDBRANCH  54  78
BRANCH  66  89
ATOM     89  C   UNL A   1      44.016  28.834  35.107  1.00  0.00     0.064 A 
ATOM     90  C   UNL A   1      45.310  29.324  34.879  1.00  0.00     0.173 A 
ATOM     91  C   UNL A   1      43.861  27.785  36.026  1.00  0.00     0.173 A 
ATOM     92  F   UNL A   1      45.510  30.316  33.997  1.00  0.00    -0.203 F 
ATOM     93  C   UNL A   1      46.409  28.767  35.525  1.00  0.00     0.198 A 
ATOM     94  C   UNL A   1      44.960  27.250  36.692  1.00  0.00     0.198 A 
ATOM     95  F   UNL A   1      42.643  27.286  36.284  1.00  0.00    -0.203 F 
ATOM     96  F   UNL A   1      47.642  29.217  35.254  1.00  0.00    -0.200 F 
ATOM     97  C   UNL A   1      46.233  27.735  36.435  1.00  0.00     0.200 A 
ATOM     98  F   UNL A   1      44.785  26.262  37.581  1.00  0.00    -0.200 F 
ATOM     99  F   UNL A   1      47.292  27.203  37.060  1.00  0.00    -0.200 F 
ENDBRANCH  66  89
ENDBRANCH  40  41
ENDBRANCH  32  35
ENDBRANCH  30  31
ENDBRANCH  29  30
ENDBRANCH   1  29
TORSDOF 14
ENDMDL
