MODEL 1
REMARK VINA RESULT:     -12.9      0.000      0.000
REMARK SMILES C[C@H](C(=O)NCCCCNC(=O)c1ccc(-c2c3nc(c(-c4c(F)c(F)c(F)c(F)c4F)c4ccc([nH]4)c(-c4c(F)c(F)c(F)c(F)c4F)c4nc(c(-c5c(F)c(F)c(F)c(F)c5F)c5ccc2[nH]5)C=C4)C=C3)cc1)c1ccc(-c2ccccc2)c(F)c1
REMARK SMILES IDX 7 1 6 2 5 3 3 4 4 5 2 7 1 8 76 9 77 10 88 11 78 12 86 13
REMARK SMILES IDX 79 14 87 15 80 16 81 17 85 18 82 19 84 20 83 21 8 22 9 23
REMARK SMILES IDX 10 24 11 25 12 27 13 28 14 29 75 30 15 31 74 32 16 33 17 34
REMARK SMILES IDX 18 35 68 36 19 37 73 38 67 39 69 40 20 41 72 42 66 43 65 44
REMARK SMILES IDX 21 46 53 47 33 48 52 49 34 50 37 51 51 52 70 53 35 54 36 55
REMARK SMILES IDX 50 57 71 58 38 59 22 60 23 61 31 62 24 63 25 64 29 65 32 66
REMARK SMILES IDX 26 67 27 68 30 69 28 70 54 71 55 72 63 73 56 74 57 75 61 76
REMARK SMILES IDX 64 77 58 78 59 79 62 80 60 81 39 82 40 83 48 84 41 85 42 86
REMARK SMILES IDX 46 87 49 88 43 89 44 90 47 91 45 92
REMARK H PARENT 5 6 10 26 69 45 37 56
REMARK Flexibility Score: inf
ROOT
ATOM      1  C   UNL A   1      31.648  28.319  27.176  1.00  0.00     0.023 C 
ENDROOT
BRANCH   1   2
ATOM      2  C   UNL A   1      32.266  27.043  26.611  1.00  0.00     0.116 C 
BRANCH   2   3
ATOM      3  N   UNL A   1      31.479  25.836  26.777  1.00  0.00    -0.356 N 
ATOM      4  C   UNL A   1      31.236  24.814  25.905  1.00  0.00     0.227 C 
ATOM      5  O   UNL A   1      30.814  23.767  26.418  1.00  0.00    -0.274 OA
ATOM      6  H   UNL A   1      31.052  25.739  27.659  1.00  0.00     0.163 HD
BRANCH   4   7
ATOM      7  C   UNL A   1      31.302  24.919  24.367  1.00  0.00     0.105 C 
ATOM      8  C   UNL A   1      30.847  23.548  23.837  1.00  0.00     0.023 C 
BRANCH   7   9
ATOM      9  C   UNL A   1      30.634  26.112  23.696  1.00  0.00    -0.033 A 
ATOM     10  C   UNL A   1      31.365  26.977  22.874  1.00  0.00     0.005 A 
ATOM     11  C   UNL A   1      29.276  26.403  23.872  1.00  0.00     0.044 A 
ATOM     12  C   UNL A   1      30.833  28.218  22.486  1.00  0.00     0.012 A 
ATOM     13  C   UNL A   1      28.733  27.610  23.425  1.00  0.00     0.131 A 
ATOM     14  C   UNL A   1      29.515  28.594  22.805  1.00  0.00     0.017 A 
ATOM     15  F   UNL A   1      27.427  27.813  23.658  1.00  0.00    -0.206 F 
BRANCH  14  16
ATOM     16  C   UNL A   1      29.015  29.972  22.565  1.00  0.00    -0.015 A 
ATOM     17  C   UNL A   1      28.518  30.378  21.314  1.00  0.00     0.009 A 
ATOM     18  C   UNL A   1      29.080  30.960  23.570  1.00  0.00     0.009 A 
ATOM     19  C   UNL A   1      28.115  31.699  21.077  1.00  0.00     0.001 A 
ATOM     20  C   UNL A   1      28.661  32.275  23.344  1.00  0.00     0.001 A 
ATOM     21  C   UNL A   1      28.183  32.645  22.093  1.00  0.00     0.000 A 
ENDBRANCH  14  16
ENDBRANCH   7   9
ENDBRANCH   4   7
ENDBRANCH   2   3
ENDBRANCH   1   2
BRANCH   1  22
ATOM     22  C   UNL A   1      31.579  29.529  26.246  1.00  0.00     0.023 C 
BRANCH  22  23
ATOM     23  C   UNL A   1      32.855  30.348  26.079  1.00  0.00     0.116 C 
BRANCH  23  24
ATOM     24  N   UNL A   1      32.759  31.704  26.596  1.00  0.00    -0.352 N 
ATOM     25  C   UNL A   1      33.552  32.397  27.484  1.00  0.00     0.251 C 
ATOM     26  H   UNL A   1      31.992  32.216  26.252  1.00  0.00     0.163 HD
ATOM     27  O   UNL A   1      33.208  33.519  27.839  1.00  0.00    -0.269 OA
BRANCH  25  28
ATOM     28  C   UNL A   1      34.789  31.804  28.052  1.00  0.00     0.039 A 
ATOM     29  C   UNL A   1      35.924  32.616  28.155  1.00  0.00     0.014 A 
ATOM     30  C   UNL A   1      34.864  30.471  28.458  1.00  0.00     0.014 A 
ATOM     31  C   UNL A   1      37.093  32.118  28.736  1.00  0.00     0.010 A 
ATOM     32  C   UNL A   1      36.000  30.002  29.123  1.00  0.00     0.010 A 
ATOM     33  C   UNL A   1      37.129  30.820  29.275  1.00  0.00    -0.014 A 
BRANCH  33  34
ATOM     34  C   UNL A   1      38.329  30.341  30.015  1.00  0.00     0.031 A 
ATOM     35  C   UNL A   1      38.601  30.785  31.428  1.00  0.00     0.074 A 
ATOM     36  C   UNL A   1      39.200  29.517  29.398  1.00  0.00     0.049 A 
ATOM     37  N   UNL A   1      39.584  30.446  32.228  1.00  0.00    -0.248 NA
ATOM     38  C   UNL A   1      37.664  31.753  32.016  1.00  0.00     0.031 C 
ATOM     39  C   UNL A   1      39.097  29.072  28.006  1.00  0.00     0.029 A 
ATOM     40  N   UNL A   1      40.342  28.905  29.855  1.00  0.00    -0.354 N 
ATOM     41  C   UNL A   1      39.378  31.150  33.406  1.00  0.00     0.074 A 
ATOM     42  C   UNL A   1      38.220  31.991  33.195  1.00  0.00     0.031 C 
ATOM     43  C   UNL A   1      40.107  28.230  27.736  1.00  0.00     0.029 A 
ATOM     44  C   UNL A   1      40.951  28.104  28.919  1.00  0.00     0.049 A 
ATOM     45  H   UNL A   1      40.690  29.029  30.768  1.00  0.00     0.167 HD
ATOM     46  C   UNL A   1      40.068  31.079  34.571  1.00  0.00     0.037 A 
ATOM     47  C   UNL A   1      42.063  27.348  29.004  1.00  0.00     0.037 A 
ATOM     48  C   UNL A   1      41.220  30.240  34.785  1.00  0.00     0.049 A 
ATOM     49  C   UNL A   1      42.809  27.286  30.309  1.00  0.00     0.074 A 
ATOM     50  C   UNL A   1      41.966  30.073  35.939  1.00  0.00     0.029 A 
ATOM     51  N   UNL A   1      41.798  29.430  33.818  1.00  0.00    -0.354 N 
ATOM     52  N   UNL A   1      42.554  27.898  31.440  1.00  0.00    -0.248 NA
ATOM     53  C   UNL A   1      43.991  26.415  30.353  1.00  0.00     0.031 C 
ATOM     54  C   UNL A   1      43.022  29.199  35.658  1.00  0.00     0.029 A 
ATOM     55  C   UNL A   1      42.901  28.775  34.345  1.00  0.00     0.049 A 
ATOM     56  H   UNL A   1      41.473  29.335  32.893  1.00  0.00     0.167 HD
ATOM     57  C   UNL A   1      43.527  27.471  32.334  1.00  0.00     0.074 A 
ATOM     58  C   UNL A   1      44.356  26.520  31.622  1.00  0.00     0.031 C 
ATOM     59  C   UNL A   1      43.724  27.837  33.624  1.00  0.00     0.037 A 
BRANCH  46  60
ATOM     60  C   UNL A   1      39.583  31.921  35.719  1.00  0.00     0.064 A 
ATOM     61  C   UNL A   1      40.103  33.203  35.957  1.00  0.00     0.173 A 
ATOM     62  C   UNL A   1      38.553  31.469  36.558  1.00  0.00     0.173 A 
ATOM     63  F   UNL A   1      41.097  33.682  35.192  1.00  0.00    -0.203 F 
ATOM     64  C   UNL A   1      39.632  33.987  37.008  1.00  0.00     0.198 A 
ATOM     65  C   UNL A   1      38.060  32.269  37.587  1.00  0.00     0.198 A 
ATOM     66  F   UNL A   1      38.013  30.255  36.373  1.00  0.00    -0.203 F 
ATOM     67  F   UNL A   1      40.179  35.188  37.243  1.00  0.00    -0.200 F 
ATOM     68  C   UNL A   1      38.605  33.524  37.815  1.00  0.00     0.200 A 
ATOM     69  F   UNL A   1      37.058  31.826  38.356  1.00  0.00    -0.200 F 
ATOM     70  F   UNL A   1      38.143  34.284  38.817  1.00  0.00    -0.200 F 
ENDBRANCH  46  60
BRANCH  47  71
ATOM     71  C   UNL A   1      42.532  26.575  27.822  1.00  0.00     0.064 A 
ATOM     72  C   UNL A   1      43.467  27.112  26.925  1.00  0.00     0.173 A 
ATOM     73  C   UNL A   1      42.035  25.291  27.551  1.00  0.00     0.173 A 
ATOM     74  F   UNL A   1      43.958  28.344  27.127  1.00  0.00    -0.203 F 
ATOM     75  C   UNL A   1      43.863  26.409  25.788  1.00  0.00     0.198 A 
ATOM     76  C   UNL A   1      42.459  24.574  26.434  1.00  0.00     0.198 A 
ATOM     77  F   UNL A   1      41.145  24.727  28.380  1.00  0.00    -0.203 F 
ATOM     78  F   UNL A   1      44.710  26.972  24.917  1.00  0.00    -0.200 F 
ATOM     79  C   UNL A   1      43.362  25.139  25.547  1.00  0.00     0.200 A 
ATOM     80  F   UNL A   1      41.987  23.340  26.215  1.00  0.00    -0.200 F 
ATOM     81  F   UNL A   1      43.743  24.462  24.454  1.00  0.00    -0.200 F 
ENDBRANCH  47  71
BRANCH  59  82
ATOM     82  C   UNL A   1      44.869  27.187  34.350  1.00  0.00     0.064 A 
ATOM     83  C   UNL A   1      46.147  27.766  34.382  1.00  0.00     0.173 A 
ATOM     84  C   UNL A   1      44.687  25.968  35.022  1.00  0.00     0.173 A 
ATOM     85  F   UNL A   1      46.379  28.925  33.746  1.00  0.00    -0.203 F 
ATOM     86  C   UNL A   1      47.210  27.125  35.013  1.00  0.00     0.198 A 
ATOM     87  C   UNL A   1      45.742  25.349  35.685  1.00  0.00     0.198 A 
ATOM     88  F   UNL A   1      43.483  25.375  35.034  1.00  0.00    -0.203 F 
ATOM     89  F   UNL A   1      48.437  27.661  34.964  1.00  0.00    -0.200 F 
ATOM     90  C   UNL A   1      47.006  25.920  35.668  1.00  0.00     0.200 A 
ATOM     91  F   UNL A   1      45.540  24.193  36.332  1.00  0.00    -0.200 F 
ATOM     92  F   UNL A   1      48.030  25.302  36.271  1.00  0.00    -0.200 F 
ENDBRANCH  59  82
ENDBRANCH  33  34
ENDBRANCH  25  28
ENDBRANCH  23  24
ENDBRANCH  22  23
ENDBRANCH   1  22
TORSDOF 13
ENDMDL
MODEL 2
REMARK VINA RESULT:     -12.7      4.658     10.262
REMARK SMILES C[C@H](C(=O)NCCCCNC(=O)c1ccc(-c2c3nc(c(-c4c(F)c(F)c(F)c(F)c4F)c4ccc([nH]4)c(-c4c(F)c(F)c(F)c(F)c4F)c4nc(c(-c5c(F)c(F)c(F)c(F)c5F)c5ccc2[nH]5)C=C4)C=C3)cc1)c1ccc(-c2ccccc2)c(F)c1
REMARK SMILES IDX 7 1 6 2 5 3 3 4 4 5 2 7 1 8 76 9 77 10 88 11 78 12 86 13
REMARK SMILES IDX 79 14 87 15 80 16 81 17 85 18 82 19 84 20 83 21 8 22 9 23
REMARK SMILES IDX 10 24 11 25 12 27 13 28 14 29 75 30 15 31 74 32 16 33 17 34
REMARK SMILES IDX 18 35 68 36 19 37 73 38 67 39 69 40 20 41 72 42 66 43 65 44
REMARK SMILES IDX 21 46 53 47 33 48 52 49 34 50 37 51 51 52 70 53 35 54 36 55
REMARK SMILES IDX 50 57 71 58 38 59 22 60 23 61 31 62 24 63 25 64 29 65 32 66
REMARK SMILES IDX 26 67 27 68 30 69 28 70 54 71 55 72 63 73 56 74 57 75 61 76
REMARK SMILES IDX 64 77 58 78 59 79 62 80 60 81 39 82 40 83 48 84 41 85 42 86
REMARK SMILES IDX 46 87 49 88 43 89 44 90 47 91 45 92
REMARK H PARENT 5 6 10 26 69 45 37 56
REMARK Flexibility Score: inf
ROOT
ATOM      1  C   UNL A   1      35.683  23.727  23.987  1.00  0.00     0.023 C 
ENDROOT
BRANCH   1   2
ATOM      2  C   UNL A   1      34.867  24.685  24.850  1.00  0.00     0.116 C 
BRANCH   2   3
ATOM      3  N   UNL A   1      34.023  25.618  24.128  1.00  0.00    -0.356 N 
ATOM      4  C   UNL A   1      32.699  25.914  24.285  1.00  0.00     0.227 C 
ATOM      5  O   UNL A   1      32.327  26.975  23.764  1.00  0.00    -0.274 OA
ATOM      6  H   UNL A   1      34.477  26.116  23.410  1.00  0.00     0.163 HD
BRANCH   4   7
ATOM      7  C   UNL A   1      31.645  24.977  24.912  1.00  0.00     0.105 C 
ATOM      8  C   UNL A   1      30.279  25.591  24.553  1.00  0.00     0.023 C 
BRANCH   7   9
ATOM      9  C   UNL A   1      31.758  23.482  24.645  1.00  0.00    -0.033 A 
ATOM     10  C   UNL A   1      31.803  22.565  25.702  1.00  0.00     0.005 A 
ATOM     11  C   UNL A   1      31.830  22.958  23.349  1.00  0.00     0.044 A 
ATOM     12  C   UNL A   1      32.186  21.232  25.478  1.00  0.00     0.012 A 
ATOM     13  C   UNL A   1      32.144  21.615  23.130  1.00  0.00     0.131 A 
ATOM     14  C   UNL A   1      32.427  20.736  24.184  1.00  0.00     0.017 A 
ATOM     15  F   UNL A   1      32.213  21.207  21.854  1.00  0.00    -0.206 F 
BRANCH  14  16
ATOM     16  C   UNL A   1      33.014  19.389  23.959  1.00  0.00    -0.015 A 
ATOM     17  C   UNL A   1      34.177  18.962  24.625  1.00  0.00     0.009 A 
ATOM     18  C   UNL A   1      32.466  18.500  23.012  1.00  0.00     0.009 A 
ATOM     19  C   UNL A   1      34.763  17.719  24.355  1.00  0.00     0.001 A 
ATOM     20  C   UNL A   1      33.037  17.250  22.752  1.00  0.00     0.001 A 
ATOM     21  C   UNL A   1      34.190  16.862  23.422  1.00  0.00     0.000 A 
ENDBRANCH  14  16
ENDBRANCH   7   9
ENDBRANCH   4   7
ENDBRANCH   2   3
ENDBRANCH   1   2
BRANCH   1  22
ATOM     22  C   UNL A   1      35.685  22.254  24.393  1.00  0.00     0.023 C 
BRANCH  22  23
ATOM     23  C   UNL A   1      36.279  21.912  25.756  1.00  0.00     0.116 C 
BRANCH  23  24
ATOM     24  N   UNL A   1      37.396  20.982  25.697  1.00  0.00    -0.352 N 
ATOM     25  C   UNL A   1      38.736  21.153  25.962  1.00  0.00     0.251 C 
ATOM     26  H   UNL A   1      37.150  20.071  25.417  1.00  0.00     0.163 HD
ATOM     27  O   UNL A   1      39.509  20.224  25.749  1.00  0.00    -0.269 OA
BRANCH  25  28
ATOM     28  C   UNL A   1      39.275  22.444  26.459  1.00  0.00     0.039 A 
ATOM     29  C   UNL A   1      40.388  22.412  27.308  1.00  0.00     0.014 A 
ATOM     30  C   UNL A   1      38.699  23.673  26.134  1.00  0.00     0.014 A 
ATOM     31  C   UNL A   1      40.964  23.605  27.754  1.00  0.00     0.010 A 
ATOM     32  C   UNL A   1      39.329  24.864  26.503  1.00  0.00     0.010 A 
ATOM     33  C   UNL A   1      40.473  24.846  27.314  1.00  0.00    -0.014 A 
BRANCH  33  34
ATOM     34  C   UNL A   1      41.173  26.109  27.680  1.00  0.00     0.031 A 
ATOM     35  C   UNL A   1      42.596  26.362  27.258  1.00  0.00     0.074 A 
ATOM     36  C   UNL A   1      40.527  27.029  28.426  1.00  0.00     0.049 A 
ATOM     37  N   UNL A   1      43.347  27.416  27.468  1.00  0.00    -0.248 NA
ATOM     38  C   UNL A   1      43.276  25.284  26.523  1.00  0.00     0.031 C 
ATOM     39  C   UNL A   1      39.174  26.877  28.967  1.00  0.00     0.029 A 
ATOM     40  N   UNL A   1      40.917  28.274  28.859  1.00  0.00    -0.354 N 
ATOM     41  C   UNL A   1      44.576  27.130  26.889  1.00  0.00     0.074 A 
ATOM     42  C   UNL A   1      44.497  25.777  26.382  1.00  0.00     0.031 C 
ATOM     43  C   UNL A   1      38.833  27.997  29.623  1.00  0.00     0.029 A 
ATOM     44  C   UNL A   1      39.953  28.932  29.584  1.00  0.00     0.049 A 
ATOM     45  H   UNL A   1      41.803  28.657  28.667  1.00  0.00     0.167 HD
ATOM     46  C   UNL A   1      45.663  27.932  26.760  1.00  0.00     0.037 A 
ATOM     47  C   UNL A   1      39.966  30.153  30.154  1.00  0.00     0.037 A 
ATOM     48  C   UNL A   1      45.743  29.280  27.262  1.00  0.00     0.049 A 
ATOM     49  C   UNL A   1      41.183  31.022  29.993  1.00  0.00     0.074 A 
ATOM     50  C   UNL A   1      46.786  30.184  27.150  1.00  0.00     0.029 A 
ATOM     51  N   UNL A   1      44.740  29.919  27.978  1.00  0.00    -0.354 N 
ATOM     52  N   UNL A   1      42.309  30.767  29.372  1.00  0.00    -0.248 NA
ATOM     53  C   UNL A   1      41.124  32.359  30.600  1.00  0.00     0.031 C 
ATOM     54  C   UNL A   1      46.433  31.350  27.838  1.00  0.00     0.029 A 
ATOM     55  C   UNL A   1      45.147  31.197  28.329  1.00  0.00     0.049 A 
ATOM     56  H   UNL A   1      43.867  29.522  28.203  1.00  0.00     0.167 HD
ATOM     57  C   UNL A   1      43.083  31.914  29.495  1.00  0.00     0.074 A 
ATOM     58  C   UNL A   1      42.281  32.879  30.219  1.00  0.00     0.031 C 
ATOM     59  C   UNL A   1      44.345  32.146  29.057  1.00  0.00     0.037 A 
BRANCH  46  60
ATOM     60  C   UNL A   1      46.853  27.377  26.027  1.00  0.00     0.064 A 
ATOM     61  C   UNL A   1      47.015  27.568  24.646  1.00  0.00     0.173 A 
ATOM     62  C   UNL A   1      47.868  26.695  26.715  1.00  0.00     0.173 A 
ATOM     63  F   UNL A   1      46.071  28.205  23.935  1.00  0.00    -0.203 F 
ATOM     64  C   UNL A   1      48.133  27.072  23.977  1.00  0.00     0.198 A 
ATOM     65  C   UNL A   1      49.000  26.231  26.050  1.00  0.00     0.198 A 
ATOM     66  F   UNL A   1      47.770  26.491  28.038  1.00  0.00    -0.203 F 
ATOM     67  F   UNL A   1      48.240  27.226  22.650  1.00  0.00    -0.200 F 
ATOM     68  C   UNL A   1      49.128  26.413  24.682  1.00  0.00     0.200 A 
ATOM     69  F   UNL A   1      49.969  25.607  26.734  1.00  0.00    -0.200 F 
ATOM     70  F   UNL A   1      50.209  25.949  24.040  1.00  0.00    -0.200 F 
ENDBRANCH  46  60
BRANCH  47  71
ATOM     71  C   UNL A   1      38.781  30.634  30.915  1.00  0.00     0.064 A 
ATOM     72  C   UNL A   1      37.705  31.257  30.267  1.00  0.00     0.173 A 
ATOM     73  C   UNL A   1      38.712  30.503  32.310  1.00  0.00     0.173 A 
ATOM     74  F   UNL A   1      37.731  31.425  28.936  1.00  0.00    -0.203 F 
ATOM     75  C   UNL A   1      36.621  31.757  30.987  1.00  0.00     0.198 A 
ATOM     76  C   UNL A   1      37.611  30.971  33.025  1.00  0.00     0.198 A 
ATOM     77  F   UNL A   1      39.710  29.909  32.979  1.00  0.00    -0.203 F 
ATOM     78  F   UNL A   1      35.636  32.403  30.347  1.00  0.00    -0.200 F 
ATOM     79  C   UNL A   1      36.573  31.609  32.364  1.00  0.00     0.200 A 
ATOM     80  F   UNL A   1      37.561  30.808  34.353  1.00  0.00    -0.200 F 
ATOM     81  F   UNL A   1      35.531  32.090  33.057  1.00  0.00    -0.200 F 
ENDBRANCH  47  71
BRANCH  59  82
ATOM     82  C   UNL A   1      44.922  33.506  29.333  1.00  0.00     0.064 A 
ATOM     83  C   UNL A   1      45.638  33.780  30.509  1.00  0.00     0.173 A 
ATOM     84  C   UNL A   1      44.756  34.552  28.411  1.00  0.00     0.173 A 
ATOM     85  F   UNL A   1      45.816  32.820  31.430  1.00  0.00    -0.203 F 
ATOM     86  C   UNL A   1      46.121  35.059  30.774  1.00  0.00     0.198 A 
ATOM     87  C   UNL A   1      45.273  35.819  28.662  1.00  0.00     0.198 A 
ATOM     88  F   UNL A   1      44.089  34.344  27.265  1.00  0.00    -0.203 F 
ATOM     89  F   UNL A   1      46.735  35.313  31.938  1.00  0.00    -0.200 F 
ATOM     90  C   UNL A   1      45.942  36.076  29.849  1.00  0.00     0.200 A 
ATOM     91  F   UNL A   1      45.114  36.797  27.759  1.00  0.00    -0.200 F 
ATOM     92  F   UNL A   1      46.402  37.307  30.108  1.00  0.00    -0.200 F 
ENDBRANCH  59  82
ENDBRANCH  33  34
ENDBRANCH  25  28
ENDBRANCH  23  24
ENDBRANCH  22  23
ENDBRANCH   1  22
TORSDOF 13
ENDMDL
MODEL 3
REMARK VINA RESULT:     -12.6      1.176      2.177
REMARK SMILES C[C@H](C(=O)NCCCCNC(=O)c1ccc(-c2c3nc(c(-c4c(F)c(F)c(F)c(F)c4F)c4ccc([nH]4)c(-c4c(F)c(F)c(F)c(F)c4F)c4nc(c(-c5c(F)c(F)c(F)c(F)c5F)c5ccc2[nH]5)C=C4)C=C3)cc1)c1ccc(-c2ccccc2)c(F)c1
REMARK SMILES IDX 7 1 6 2 5 3 3 4 4 5 2 7 1 8 76 9 77 10 88 11 78 12 86 13
REMARK SMILES IDX 79 14 87 15 80 16 81 17 85 18 82 19 84 20 83 21 8 22 9 23
REMARK SMILES IDX 10 24 11 25 12 27 13 28 14 29 75 30 15 31 74 32 16 33 17 34
REMARK SMILES IDX 18 35 68 36 19 37 73 38 67 39 69 40 20 41 72 42 66 43 65 44
REMARK SMILES IDX 21 46 53 47 33 48 52 49 34 50 37 51 51 52 70 53 35 54 36 55
REMARK SMILES IDX 50 57 71 58 38 59 22 60 23 61 31 62 24 63 25 64 29 65 32 66
REMARK SMILES IDX 26 67 27 68 30 69 28 70 54 71 55 72 63 73 56 74 57 75 61 76
REMARK SMILES IDX 64 77 58 78 59 79 62 80 60 81 39 82 40 83 48 84 41 85 42 86
REMARK SMILES IDX 46 87 49 88 43 89 44 90 47 91 45 92
REMARK H PARENT 5 6 10 26 69 45 37 56
REMARK Flexibility Score: inf
ROOT
ATOM      1  C   UNL A   1      33.354  26.630  26.230  1.00  0.00     0.023 C 
ENDROOT
BRANCH   1   2
ATOM      2  C   UNL A   1      33.155  25.135  25.998  1.00  0.00     0.116 C 
BRANCH   2   3
ATOM      3  N   UNL A   1      34.074  24.515  25.062  1.00  0.00    -0.356 N 
ATOM      4  C   UNL A   1      33.902  24.173  23.752  1.00  0.00     0.227 C 
ATOM      5  O   UNL A   1      34.946  23.972  23.114  1.00  0.00    -0.274 OA
ATOM      6  H   UNL A   1      34.964  24.310  25.431  1.00  0.00     0.163 HD
BRANCH   4   7
ATOM      7  C   UNL A   1      32.545  23.880  23.078  1.00  0.00     0.105 C 
ATOM      8  C   UNL A   1      31.982  22.642  23.800  1.00  0.00     0.023 C 
BRANCH   7   9
ATOM      9  C   UNL A   1      31.555  25.027  22.920  1.00  0.00    -0.033 A 
ATOM     10  C   UNL A   1      31.761  26.027  21.962  1.00  0.00     0.005 A 
ATOM     11  C   UNL A   1      30.411  25.141  23.719  1.00  0.00     0.044 A 
ATOM     12  C   UNL A   1      31.018  27.218  22.000  1.00  0.00     0.012 A 
ATOM     13  C   UNL A   1      29.635  26.302  23.704  1.00  0.00     0.131 A 
ATOM     14  C   UNL A   1      29.969  27.412  22.917  1.00  0.00     0.017 A 
ATOM     15  F   UNL A   1      28.569  26.331  24.520  1.00  0.00    -0.206 F 
BRANCH  14  16
ATOM     16  C   UNL A   1      29.312  28.733  23.086  1.00  0.00    -0.015 A 
ATOM     17  C   UNL A   1      29.983  29.833  23.652  1.00  0.00     0.009 A 
ATOM     18  C   UNL A   1      27.957  28.926  22.748  1.00  0.00     0.009 A 
ATOM     19  C   UNL A   1      29.334  31.055  23.873  1.00  0.00     0.001 A 
ATOM     20  C   UNL A   1      27.310  30.150  22.949  1.00  0.00     0.001 A 
ATOM     21  C   UNL A   1      27.999  31.214  23.517  1.00  0.00     0.000 A 
ENDBRANCH  14  16
ENDBRANCH   7   9
ENDBRANCH   4   7
ENDBRANCH   2   3
ENDBRANCH   1   2
BRANCH   1  22
ATOM     22  C   UNL A   1      33.136  27.554  25.033  1.00  0.00     0.023 C 
BRANCH  22  23
ATOM     23  C   UNL A   1      33.918  28.864  25.018  1.00  0.00     0.116 C 
BRANCH  23  24
ATOM     24  N   UNL A   1      33.177  30.000  25.543  1.00  0.00    -0.352 N 
ATOM     25  C   UNL A   1      33.391  30.793  26.649  1.00  0.00     0.251 C 
ATOM     26  H   UNL A   1      32.383  30.246  25.016  1.00  0.00     0.163 HD
ATOM     27  O   UNL A   1      32.561  31.649  26.938  1.00  0.00    -0.269 OA
BRANCH  25  28
ATOM     28  C   UNL A   1      34.578  30.610  27.522  1.00  0.00     0.039 A 
ATOM     29  C   UNL A   1      34.662  29.441  28.287  1.00  0.00     0.014 A 
ATOM     30  C   UNL A   1      35.587  31.569  27.625  1.00  0.00     0.014 A 
ATOM     31  C   UNL A   1      35.788  29.201  29.080  1.00  0.00     0.010 A 
ATOM     32  C   UNL A   1      36.753  31.287  28.342  1.00  0.00     0.010 A 
ATOM     33  C   UNL A   1      36.871  30.097  29.076  1.00  0.00    -0.014 A 
BRANCH  33  34
ATOM     34  C   UNL A   1      38.124  29.771  29.812  1.00  0.00     0.031 A 
ATOM     35  C   UNL A   1      38.396  30.340  31.179  1.00  0.00     0.074 A 
ATOM     36  C   UNL A   1      39.042  28.973  29.229  1.00  0.00     0.049 A 
ATOM     37  N   UNL A   1      39.422  30.140  31.970  1.00  0.00    -0.248 NA
ATOM     38  C   UNL A   1      37.399  31.274  31.724  1.00  0.00     0.031 C 
ATOM     39  C   UNL A   1      38.941  28.417  27.878  1.00  0.00     0.029 A 
ATOM     40  N   UNL A   1      40.241  28.488  29.695  1.00  0.00    -0.354 N 
ATOM     41  C   UNL A   1      39.190  30.913  33.100  1.00  0.00     0.074 A 
ATOM     42  C   UNL A   1      37.964  31.643  32.864  1.00  0.00     0.031 C 
ATOM     43  C   UNL A   1      40.007  27.639  27.639  1.00  0.00     0.029 A 
ATOM     44  C   UNL A   1      40.888  27.668  28.801  1.00  0.00     0.049 A 
ATOM     45  H   UNL A   1      40.601  28.708  30.584  1.00  0.00     0.167 HD
ATOM     46  C   UNL A   1      39.913  30.984  34.245  1.00  0.00     0.037 A 
ATOM     47  C   UNL A   1      42.060  27.011  28.906  1.00  0.00     0.037 A 
ATOM     48  C   UNL A   1      41.134  30.256  34.483  1.00  0.00     0.049 A 
ATOM     49  C   UNL A   1      42.841  27.106  30.188  1.00  0.00     0.074 A 
ATOM     50  C   UNL A   1      41.920  30.235  35.623  1.00  0.00     0.029 A 
ATOM     51  N   UNL A   1      41.751  29.423  33.561  1.00  0.00    -0.354 N 
ATOM     52  N   UNL A   1      42.566  27.779  31.279  1.00  0.00    -0.248 NA
ATOM     53  C   UNL A   1      44.089  26.335  30.259  1.00  0.00     0.031 C 
ATOM     54  C   UNL A   1      43.035  29.428  35.373  1.00  0.00     0.029 A 
ATOM     55  C   UNL A   1      42.915  28.898  34.100  1.00  0.00     0.049 A 
ATOM     56  H   UNL A   1      41.411  29.233  32.656  1.00  0.00     0.167 HD
ATOM     57  C   UNL A   1      43.593  27.498  32.171  1.00  0.00     0.074 A 
ATOM     58  C   UNL A   1      44.477  26.563  31.505  1.00  0.00     0.031 C 
ATOM     59  C   UNL A   1      43.792  27.975  33.425  1.00  0.00     0.037 A 
BRANCH  46  60
ATOM     60  C   UNL A   1      39.392  31.870  35.343  1.00  0.00     0.064 A 
ATOM     61  C   UNL A   1      39.728  33.232  35.406  1.00  0.00     0.173 A 
ATOM     62  C   UNL A   1      38.507  31.371  36.311  1.00  0.00     0.173 A 
ATOM     63  F   UNL A   1      40.578  33.760  34.512  1.00  0.00    -0.203 F 
ATOM     64  C   UNL A   1      39.221  34.052  36.412  1.00  0.00     0.198 A 
ATOM     65  C   UNL A   1      37.975  32.201  37.294  1.00  0.00     0.198 A 
ATOM     66  F   UNL A   1      38.144  30.079  36.294  1.00  0.00    -0.203 F 
ATOM     67  F   UNL A   1      39.596  35.337  36.478  1.00  0.00    -0.200 F 
ATOM     68  C   UNL A   1      38.338  33.538  37.348  1.00  0.00     0.200 A 
ATOM     69  F   UNL A   1      37.110  31.707  38.190  1.00  0.00    -0.200 F 
ATOM     70  F   UNL A   1      37.841  34.331  38.307  1.00  0.00    -0.200 F 
ENDBRANCH  46  60
BRANCH  47  71
ATOM     71  C   UNL A   1      42.558  26.189  27.770  1.00  0.00     0.064 A 
ATOM     72  C   UNL A   1      42.147  24.859  27.599  1.00  0.00     0.173 A 
ATOM     73  C   UNL A   1      43.475  26.710  26.845  1.00  0.00     0.173 A 
ATOM     74  F   UNL A   1      41.287  24.307  28.468  1.00  0.00    -0.203 F 
ATOM     75  C   UNL A   1      42.658  24.074  26.566  1.00  0.00     0.198 A 
ATOM     76  C   UNL A   1      43.957  25.935  25.792  1.00  0.00     0.198 A 
ATOM     77  F   UNL A   1      43.896  27.978  26.957  1.00  0.00    -0.203 F 
ATOM     78  F   UNL A   1      42.295  22.788  26.464  1.00  0.00    -0.200 F 
ATOM     79  C   UNL A   1      43.558  24.614  25.661  1.00  0.00     0.200 A 
ATOM     80  F   UNL A   1      44.812  26.467  24.909  1.00  0.00    -0.200 F 
ATOM     81  F   UNL A   1      44.049  23.859  24.668  1.00  0.00    -0.200 F 
ENDBRANCH  47  71
BRANCH  59  82
ATOM     82  C   UNL A   1      45.003  27.473  34.160  1.00  0.00     0.064 A 
ATOM     83  C   UNL A   1      44.960  26.311  34.947  1.00  0.00     0.173 A 
ATOM     84  C   UNL A   1      46.223  28.164  34.081  1.00  0.00     0.173 A 
ATOM     85  F   UNL A   1      43.817  25.620  35.068  1.00  0.00    -0.203 F 
ATOM     86  C   UNL A   1      46.076  25.890  35.665  1.00  0.00     0.198 A 
ATOM     87  C   UNL A   1      47.347  27.718  34.769  1.00  0.00     0.198 A 
ATOM     88  F   UNL A   1      46.325  29.275  33.334  1.00  0.00    -0.203 F 
ATOM     89  F   UNL A   1      45.988  24.821  36.468  1.00  0.00    -0.200 F 
ATOM     90  C   UNL A   1      47.270  26.589  35.572  1.00  0.00     0.200 A 
ATOM     91  F   UNL A   1      48.504  28.386  34.665  1.00  0.00    -0.200 F 
ATOM     92  F   UNL A   1      48.341  26.185  36.267  1.00  0.00    -0.200 F 
ENDBRANCH  59  82
ENDBRANCH  33  34
ENDBRANCH  25  28
ENDBRANCH  23  24
ENDBRANCH  22  23
ENDBRANCH   1  22
TORSDOF 13
ENDMDL
