MODEL 1
REMARK VINA RESULT:     -13.4      0.000      0.000
REMARK SMILES Cc1ccc(C(=O)NCCCCNC(=O)c2ccc(-c3c4nc(c(-c5c(F)c(F)c(F)c(F)c5F)c5ccc([nH]5)c(-c5c(F)c(F)c(F)c(F)c5F)c5nc(c(-c6c(F)c(F)c(F)c(F)c6F)c6ccc3[nH]6)C=C5)C=C4)cc2)cc1/[NH+]=C1\NCCS1
REMARK SMILES IDX 11 1 10 2 9 3 8 4 6 5 7 6 5 8 1 9 2 10 3 11 80 12 4 13 79 14
REMARK SMILES IDX 81 15 82 16 83 18 86 19 84 20 85 22 12 23 13 24 14 25 15 27
REMARK SMILES IDX 16 28 17 29 78 30 18 31 77 32 19 33 20 34 21 35 71 36 22 37
REMARK SMILES IDX 76 38 70 39 72 40 23 41 75 42 69 43 68 44 24 46 56 47 36 48
REMARK SMILES IDX 55 49 37 50 40 51 54 52 73 53 38 54 39 55 53 57 74 58 41 59
REMARK SMILES IDX 25 60 26 61 34 62 27 63 28 64 32 65 35 66 29 67 30 68 33 69
REMARK SMILES IDX 31 70 57 71 58 72 66 73 59 74 60 75 64 76 67 77 61 78 62 79
REMARK SMILES IDX 65 80 63 81 42 82 43 83 51 84 44 85 45 86 49 87 52 88 46 89
REMARK SMILES IDX 47 90 50 91 48 92
REMARK H PARENT 8 7 81 17 83 21 13 26 72 45 40 56
REMARK Flexibility Score: inf
ROOT
ATOM      1  C   UNL A   1      33.908  29.244  26.302  1.00  0.00     0.023 C 
ENDROOT
BRANCH   1   2
ATOM      2  C   UNL A   1      33.853  27.713  26.404  1.00  0.00     0.023 C 
BRANCH   2   3
ATOM      3  C   UNL A   1      32.796  27.049  25.506  1.00  0.00     0.116 C 
BRANCH   3   4
ATOM      4  N   UNL A   1      31.926  26.160  26.253  1.00  0.00    -0.352 N 
ATOM      5  C   UNL A   1      31.935  24.813  26.513  1.00  0.00     0.251 C 
ATOM      6  O   UNL A   1      31.029  24.398  27.240  1.00  0.00    -0.269 OA
ATOM      7  H   UNL A   1      31.160  26.625  26.660  1.00  0.00     0.163 HD
BRANCH   5   8
ATOM      8  C   UNL A   1      32.950  23.840  26.009  1.00  0.00     0.044 A 
ATOM      9  C   UNL A   1      36.174  21.270  24.650  1.00  0.00     0.049 C 
ATOM     10  C   UNL A   1      35.040  22.143  25.105  1.00  0.00    -0.004 A 
ATOM     11  C   UNL A   1      35.318  23.244  25.925  1.00  0.00     0.008 A 
ATOM     12  C   UNL A   1      33.703  21.868  24.777  1.00  0.00     0.129 A 
ATOM     13  C   UNL A   1      34.288  24.084  26.359  1.00  0.00     0.014 A 
ATOM     14  C   UNL A   1      32.681  22.709  25.241  1.00  0.00     0.065 A 
BRANCH  12  15
ATOM     15  N   UNL A   1      33.333  20.814  23.930  1.00  0.00    -0.235 N 
ATOM     16  C   UNL A   1      33.049  19.671  24.440  1.00  0.00     0.309 C 
ATOM     17  H   UNL A   1      33.291  20.949  22.956  1.00  0.00     0.313 HD
ATOM     18  N   UNL A   1      33.040  19.237  25.730  1.00  0.00    -0.268 N 
ATOM     19  S   UNL A   1      32.590  18.359  23.358  1.00  0.00    -0.035 SA
ATOM     20  C   UNL A   1      32.605  17.882  25.968  1.00  0.00     0.246 C 
ATOM     21  H   UNL A   1      33.319  19.824  26.471  1.00  0.00     0.305 HD
ATOM     22  C   UNL A   1      32.830  17.117  24.666  1.00  0.00     0.128 C 
ENDBRANCH  12  15
ENDBRANCH   5   8
ENDBRANCH   3   4
ENDBRANCH   2   3
ENDBRANCH   1   2
BRANCH   1  23
ATOM     23  C   UNL A   1      33.653  29.954  27.626  1.00  0.00     0.116 C 
BRANCH  23  24
ATOM     24  N   UNL A   1      34.466  31.137  27.868  1.00  0.00    -0.352 N 
ATOM     25  C   UNL A   1      35.762  31.247  28.351  1.00  0.00     0.251 C 
ATOM     26  H   UNL A   1      34.028  31.993  27.657  1.00  0.00     0.163 HD
ATOM     27  O   UNL A   1      36.215  32.351  28.615  1.00  0.00    -0.269 OA
BRANCH  25  28
ATOM     28  C   UNL A   1      36.652  30.054  28.418  1.00  0.00     0.039 A 
ATOM     29  C   UNL A   1      36.739  29.360  29.635  1.00  0.00     0.014 A 
ATOM     30  C   UNL A   1      37.521  29.730  27.383  1.00  0.00     0.014 A 
ATOM     31  C   UNL A   1      37.846  28.551  29.893  1.00  0.00     0.010 A 
ATOM     32  C   UNL A   1      38.677  29.038  27.676  1.00  0.00     0.010 A 
ATOM     33  C   UNL A   1      38.869  28.506  28.954  1.00  0.00    -0.014 A 
BRANCH  33  34
ATOM     34  C   UNL A   1      40.214  28.016  29.222  1.00  0.00     0.031 A 
ATOM     35  C   UNL A   1      40.597  26.647  28.816  1.00  0.00     0.074 A 
ATOM     36  C   UNL A   1      41.152  28.907  29.620  1.00  0.00     0.049 A 
ATOM     37  N   UNL A   1      41.722  26.094  29.119  1.00  0.00    -0.248 NA
ATOM     38  C   UNL A   1      39.707  25.753  28.075  1.00  0.00     0.031 C 
ATOM     39  C   UNL A   1      42.605  28.789  29.506  1.00  0.00     0.029 A 
ATOM     40  N   UNL A   1      40.962  30.050  30.419  1.00  0.00    -0.354 N 
ATOM     41  C   UNL A   1      41.839  24.960  28.354  1.00  0.00     0.074 A 
ATOM     42  C   UNL A   1      40.516  24.712  27.846  1.00  0.00     0.031 C 
ATOM     43  C   UNL A   1      43.181  29.598  30.409  1.00  0.00     0.029 A 
ATOM     44  C   UNL A   1      42.113  30.114  31.245  1.00  0.00     0.049 A 
ATOM     45  H   UNL A   1      40.198  30.670  30.407  1.00  0.00     0.167 HD
ATOM     46  C   UNL A   1      43.085  24.467  28.115  1.00  0.00     0.037 A 
ATOM     47  C   UNL A   1      42.033  29.920  32.594  1.00  0.00     0.037 A 
ATOM     48  C   UNL A   1      44.055  25.038  29.048  1.00  0.00     0.049 A 
ATOM     49  C   UNL A   1      42.883  28.779  33.104  1.00  0.00     0.074 A 
ATOM     50  C   UNL A   1      45.085  25.951  28.919  1.00  0.00     0.029 A 
ATOM     51  N   UNL A   1      43.853  24.856  30.415  1.00  0.00    -0.354 N 
ATOM     52  N   UNL A   1      43.306  27.797  32.355  1.00  0.00    -0.248 NA
ATOM     53  C   UNL A   1      43.298  28.640  34.496  1.00  0.00     0.031 C 
ATOM     54  C   UNL A   1      45.417  26.411  30.225  1.00  0.00     0.029 A 
ATOM     55  C   UNL A   1      44.631  25.732  31.143  1.00  0.00     0.049 A 
ATOM     56  H   UNL A   1      43.239  24.194  30.807  1.00  0.00     0.167 HD
ATOM     57  C   UNL A   1      44.014  26.912  33.122  1.00  0.00     0.074 A 
ATOM     58  C   UNL A   1      43.993  27.490  34.453  1.00  0.00     0.031 C 
ATOM     59  C   UNL A   1      44.547  25.769  32.597  1.00  0.00     0.037 A 
BRANCH  46  60
ATOM     60  C   UNL A   1      43.476  23.627  26.916  1.00  0.00     0.064 A 
ATOM     61  C   UNL A   1      43.115  22.262  26.860  1.00  0.00     0.173 A 
ATOM     62  C   UNL A   1      44.322  24.052  25.867  1.00  0.00     0.173 A 
ATOM     63  F   UNL A   1      42.328  21.717  27.799  1.00  0.00    -0.203 F 
ATOM     64  C   UNL A   1      43.570  21.403  25.852  1.00  0.00     0.198 A 
ATOM     65  C   UNL A   1      44.730  23.207  24.830  1.00  0.00     0.198 A 
ATOM     66  F   UNL A   1      44.851  25.279  25.826  1.00  0.00    -0.203 F 
ATOM     67  F   UNL A   1      43.247  20.104  25.888  1.00  0.00    -0.200 F 
ATOM     68  C   UNL A   1      44.368  21.878  24.831  1.00  0.00     0.200 A 
ATOM     69  F   UNL A   1      45.509  23.689  23.852  1.00  0.00    -0.200 F 
ATOM     70  F   UNL A   1      44.804  21.060  23.865  1.00  0.00    -0.200 F 
ENDBRANCH  46  60
BRANCH  47  71
ATOM     71  C   UNL A   1      40.715  30.321  33.158  1.00  0.00     0.064 A 
ATOM     72  C   UNL A   1      40.433  31.697  33.269  1.00  0.00     0.173 A 
ATOM     73  C   UNL A   1      39.633  29.432  33.179  1.00  0.00     0.173 A 
ATOM     74  F   UNL A   1      41.437  32.588  33.258  1.00  0.00    -0.203 F 
ATOM     75  C   UNL A   1      39.122  32.169  33.257  1.00  0.00     0.198 A 
ATOM     76  C   UNL A   1      38.321  29.911  33.189  1.00  0.00     0.198 A 
ATOM     77  F   UNL A   1      39.836  28.113  33.064  1.00  0.00    -0.203 F 
ATOM     78  F   UNL A   1      38.887  33.489  33.230  1.00  0.00    -0.200 F 
ATOM     79  C   UNL A   1      38.068  31.276  33.183  1.00  0.00     0.200 A 
ATOM     80  F   UNL A   1      37.299  29.049  33.090  1.00  0.00    -0.200 F 
ATOM     81  F   UNL A   1      36.811  31.726  33.061  1.00  0.00    -0.200 F 
ENDBRANCH  47  71
BRANCH  59  82
ATOM     82  C   UNL A   1      45.109  24.616  33.395  1.00  0.00     0.064 A 
ATOM     83  C   UNL A   1      44.397  23.438  33.678  1.00  0.00     0.173 A 
ATOM     84  C   UNL A   1      46.471  24.611  33.781  1.00  0.00     0.173 A 
ATOM     85  F   UNL A   1      43.138  23.263  33.251  1.00  0.00    -0.203 F 
ATOM     86  C   UNL A   1      44.980  22.366  34.362  1.00  0.00     0.198 A 
ATOM     87  C   UNL A   1      47.065  23.517  34.410  1.00  0.00     0.198 A 
ATOM     88  F   UNL A   1      47.272  25.657  33.533  1.00  0.00    -0.203 F 
ATOM     89  F   UNL A   1      44.243  21.283  34.647  1.00  0.00    -0.200 F 
ATOM     90  C   UNL A   1      46.314  22.402  34.718  1.00  0.00     0.200 A 
ATOM     91  F   UNL A   1      48.374  23.544  34.698  1.00  0.00    -0.200 F 
ATOM     92  F   UNL A   1      46.879  21.356  35.335  1.00  0.00    -0.200 F 
ENDBRANCH  59  82
ENDBRANCH  33  34
ENDBRANCH  25  28
ENDBRANCH  23  24
ENDBRANCH   1  23
TORSDOF 12
ENDMDL
MODEL 2
REMARK VINA RESULT:     -13.2      1.643      2.140
REMARK SMILES Cc1ccc(C(=O)NCCCCNC(=O)c2ccc(-c3c4nc(c(-c5c(F)c(F)c(F)c(F)c5F)c5ccc([nH]5)c(-c5c(F)c(F)c(F)c(F)c5F)c5nc(c(-c6c(F)c(F)c(F)c(F)c6F)c6ccc3[nH]6)C=C5)C=C4)cc2)cc1/[NH+]=C1\NCCS1
REMARK SMILES IDX 11 1 10 2 9 3 8 4 6 5 7 6 5 8 1 9 2 10 3 11 80 12 4 13 79 14
REMARK SMILES IDX 81 15 82 16 83 18 86 19 84 20 85 22 12 23 13 24 14 25 15 27
REMARK SMILES IDX 16 28 17 29 78 30 18 31 77 32 19 33 20 34 21 35 71 36 22 37
REMARK SMILES IDX 76 38 70 39 72 40 23 41 75 42 69 43 68 44 24 46 56 47 36 48
REMARK SMILES IDX 55 49 37 50 40 51 54 52 73 53 38 54 39 55 53 57 74 58 41 59
REMARK SMILES IDX 25 60 26 61 34 62 27 63 28 64 32 65 35 66 29 67 30 68 33 69
REMARK SMILES IDX 31 70 57 71 58 72 66 73 59 74 60 75 64 76 67 77 61 78 62 79
REMARK SMILES IDX 65 80 63 81 42 82 43 83 51 84 44 85 45 86 49 87 52 88 46 89
REMARK SMILES IDX 47 90 50 91 48 92
REMARK H PARENT 8 7 81 17 83 21 13 26 72 45 40 56
REMARK Flexibility Score: inf
ROOT
ATOM      1  C   UNL A   1      32.419  30.305  26.870  1.00  0.00     0.023 C 
ENDROOT
BRANCH   1   2
ATOM      2  C   UNL A   1      31.804  29.101  26.140  1.00  0.00     0.023 C 
BRANCH   2   3
ATOM      3  C   UNL A   1      31.517  29.338  24.647  1.00  0.00     0.116 C 
BRANCH   3   4
ATOM      4  N   UNL A   1      32.726  29.306  23.846  1.00  0.00    -0.352 N 
ATOM      5  C   UNL A   1      33.435  28.308  23.228  1.00  0.00     0.251 C 
ATOM      6  O   UNL A   1      34.423  28.667  22.582  1.00  0.00    -0.269 OA
ATOM      7  H   UNL A   1      33.126  30.196  23.720  1.00  0.00     0.163 HD
BRANCH   5   8
ATOM      8  C   UNL A   1      33.095  26.854  23.264  1.00  0.00     0.044 A 
ATOM      9  C   UNL A   1      31.808  22.709  23.129  1.00  0.00     0.049 C 
ATOM     10  C   UNL A   1      32.270  24.137  23.199  1.00  0.00    -0.004 A 
ATOM     11  C   UNL A   1      31.765  25.059  22.273  1.00  0.00     0.008 A 
ATOM     12  C   UNL A   1      33.226  24.571  24.130  1.00  0.00     0.129 A 
ATOM     13  C   UNL A   1      32.165  26.398  22.315  1.00  0.00     0.014 A 
ATOM     14  C   UNL A   1      33.632  25.914  24.142  1.00  0.00     0.065 A 
BRANCH  12  15
ATOM     15  N   UNL A   1      33.756  23.731  25.119  1.00  0.00    -0.235 N 
ATOM     16  C   UNL A   1      34.834  23.080  24.876  1.00  0.00     0.309 C 
ATOM     17  H   UNL A   1      33.305  23.643  25.990  1.00  0.00     0.313 HD
ATOM     18  N   UNL A   1      35.625  23.027  23.769  1.00  0.00    -0.268 N 
ATOM     19  S   UNL A   1      35.481  22.027  26.132  1.00  0.00    -0.035 SA
ATOM     20  C   UNL A   1      36.822  22.226  23.851  1.00  0.00     0.246 C 
ATOM     21  H   UNL A   1      35.390  23.516  22.947  1.00  0.00     0.305 HD
ATOM     22  C   UNL A   1      36.579  21.191  24.947  1.00  0.00     0.128 C 
ENDBRANCH  12  15
ENDBRANCH   5   8
ENDBRANCH   3   4
ENDBRANCH   2   3
ENDBRANCH   1   2
BRANCH   1  23
ATOM     23  C   UNL A   1      33.779  30.012  27.491  1.00  0.00     0.116 C 
BRANCH  23  24
ATOM     24  N   UNL A   1      34.593  31.180  27.793  1.00  0.00    -0.352 N 
ATOM     25  C   UNL A   1      35.876  31.265  28.313  1.00  0.00     0.251 C 
ATOM     26  H   UNL A   1      34.167  32.046  27.598  1.00  0.00     0.163 HD
ATOM     27  O   UNL A   1      36.329  32.357  28.624  1.00  0.00    -0.269 OA
BRANCH  25  28
ATOM     28  C   UNL A   1      36.757  30.064  28.365  1.00  0.00     0.039 A 
ATOM     29  C   UNL A   1      36.804  29.329  29.560  1.00  0.00     0.014 A 
ATOM     30  C   UNL A   1      37.652  29.769  27.345  1.00  0.00     0.014 A 
ATOM     31  C   UNL A   1      37.898  28.504  29.822  1.00  0.00     0.010 A 
ATOM     32  C   UNL A   1      38.796  29.059  27.646  1.00  0.00     0.010 A 
ATOM     33  C   UNL A   1      38.948  28.482  28.911  1.00  0.00    -0.014 A 
BRANCH  33  34
ATOM     34  C   UNL A   1      40.281  27.974  29.200  1.00  0.00     0.031 A 
ATOM     35  C   UNL A   1      40.655  26.604  28.790  1.00  0.00     0.074 A 
ATOM     36  C   UNL A   1      41.222  28.850  29.623  1.00  0.00     0.049 A 
ATOM     37  N   UNL A   1      41.768  26.035  29.110  1.00  0.00    -0.248 NA
ATOM     38  C   UNL A   1      39.769  25.727  28.025  1.00  0.00     0.031 C 
ATOM     39  C   UNL A   1      42.675  28.715  29.535  1.00  0.00     0.029 A 
ATOM     40  N   UNL A   1      41.031  29.989  30.427  1.00  0.00    -0.354 N 
ATOM     41  C   UNL A   1      41.885  24.906  28.338  1.00  0.00     0.074 A 
ATOM     42  C   UNL A   1      40.569  24.678  27.803  1.00  0.00     0.031 C 
ATOM     43  C   UNL A   1      43.244  29.510  30.455  1.00  0.00     0.029 A 
ATOM     44  C   UNL A   1      42.167  30.033  31.275  1.00  0.00     0.049 A 
ATOM     45  H   UNL A   1      40.275  30.619  30.406  1.00  0.00     0.167 HD
ATOM     46  C   UNL A   1      43.129  24.399  28.118  1.00  0.00     0.037 A 
ATOM     47  C   UNL A   1      42.059  29.830  32.621  1.00  0.00     0.037 A 
ATOM     48  C   UNL A   1      44.089  24.950  29.073  1.00  0.00     0.049 A 
ATOM     49  C   UNL A   1      42.885  28.674  33.137  1.00  0.00     0.074 A 
ATOM     50  C   UNL A   1      45.132  25.852  28.971  1.00  0.00     0.029 A 
ATOM     51  N   UNL A   1      43.859  24.761  30.435  1.00  0.00    -0.354 N 
ATOM     52  N   UNL A   1      43.310  27.693  32.388  1.00  0.00    -0.248 NA
ATOM     53  C   UNL A   1      43.273  28.519  34.535  1.00  0.00     0.031 C 
ATOM     54  C   UNL A   1      45.444  26.297  30.287  1.00  0.00     0.029 A 
ATOM     55  C   UNL A   1      44.634  25.621  31.184  1.00  0.00     0.049 A 
ATOM     56  H   UNL A   1      43.230  24.103  30.810  1.00  0.00     0.167 HD
ATOM     57  C   UNL A   1      43.993  26.793  33.161  1.00  0.00     0.074 A 
ATOM     58  C   UNL A   1      43.955  27.360  34.496  1.00  0.00     0.031 C 
ATOM     59  C   UNL A   1      44.522  25.647  32.637  1.00  0.00     0.037 A 
BRANCH  46  60
ATOM     60  C   UNL A   1      43.532  23.564  26.919  1.00  0.00     0.064 A 
ATOM     61  C   UNL A   1      43.174  22.199  26.855  1.00  0.00     0.173 A 
ATOM     62  C   UNL A   1      44.388  23.994  25.880  1.00  0.00     0.173 A 
ATOM     63  F   UNL A   1      42.378  21.650  27.785  1.00  0.00    -0.203 F 
ATOM     64  C   UNL A   1      43.640  21.344  25.849  1.00  0.00     0.198 A 
ATOM     65  C   UNL A   1      44.807  23.153  24.845  1.00  0.00     0.198 A 
ATOM     66  F   UNL A   1      44.916  25.222  25.849  1.00  0.00    -0.203 F 
ATOM     67  F   UNL A   1      43.317  20.044  25.877  1.00  0.00    -0.200 F 
ATOM     68  C   UNL A   1      44.447  21.823  24.837  1.00  0.00     0.200 A 
ATOM     69  F   UNL A   1      45.595  23.640  23.875  1.00  0.00    -0.200 F 
ATOM     70  F   UNL A   1      44.892  21.009  23.872  1.00  0.00    -0.200 F 
ENDBRANCH  46  60
BRANCH  47  71
ATOM     71  C   UNL A   1      40.736  30.242  33.163  1.00  0.00     0.064 A 
ATOM     72  C   UNL A   1      40.470  31.620  33.286  1.00  0.00     0.173 A 
ATOM     73  C   UNL A   1      39.642  29.368  33.152  1.00  0.00     0.173 A 
ATOM     74  F   UNL A   1      41.486  32.497  33.305  1.00  0.00    -0.203 F 
ATOM     75  C   UNL A   1      39.167  32.110  33.253  1.00  0.00     0.198 A 
ATOM     76  C   UNL A   1      38.337  29.865  33.142  1.00  0.00     0.198 A 
ATOM     77  F   UNL A   1      39.828  28.047  33.026  1.00  0.00    -0.203 F 
ATOM     78  F   UNL A   1      38.950  33.433  33.237  1.00  0.00    -0.200 F 
ATOM     79  C   UNL A   1      38.102  31.233  33.148  1.00  0.00     0.200 A 
ATOM     80  F   UNL A   1      37.305  29.018  33.012  1.00  0.00    -0.200 F 
ATOM     81  F   UNL A   1      36.854  31.702  33.006  1.00  0.00    -0.200 F 
ENDBRANCH  47  71
BRANCH  59  82
ATOM     82  C   UNL A   1      45.055  24.482  33.436  1.00  0.00     0.064 A 
ATOM     83  C   UNL A   1      44.317  23.317  33.711  1.00  0.00     0.173 A 
ATOM     84  C   UNL A   1      46.414  24.448  33.832  1.00  0.00     0.173 A 
ATOM     85  F   UNL A   1      43.059  23.169  33.274  1.00  0.00    -0.203 F 
ATOM     86  C   UNL A   1      44.874  22.232  34.395  1.00  0.00     0.198 A 
ATOM     87  C   UNL A   1      46.981  23.341  34.462  1.00  0.00     0.198 A 
ATOM     88  F   UNL A   1      47.238  25.478  33.593  1.00  0.00    -0.203 F 
ATOM     89  F   UNL A   1      44.114  21.164  34.672  1.00  0.00    -0.200 F 
ATOM     90  C   UNL A   1      46.205  22.241  34.762  1.00  0.00     0.200 A 
ATOM     91  F   UNL A   1      48.288  23.341  34.760  1.00  0.00    -0.200 F 
ATOM     92  F   UNL A   1      46.746  21.182  35.380  1.00  0.00    -0.200 F 
ENDBRANCH  59  82
ENDBRANCH  33  34
ENDBRANCH  25  28
ENDBRANCH  23  24
ENDBRANCH   1  23
TORSDOF 12
ENDMDL
MODEL 3
REMARK VINA RESULT:     -13.2      3.997     10.179
REMARK SMILES Cc1ccc(C(=O)NCCCCNC(=O)c2ccc(-c3c4nc(c(-c5c(F)c(F)c(F)c(F)c5F)c5ccc([nH]5)c(-c5c(F)c(F)c(F)c(F)c5F)c5nc(c(-c6c(F)c(F)c(F)c(F)c6F)c6ccc3[nH]6)C=C5)C=C4)cc2)cc1/[NH+]=C1\NCCS1
REMARK SMILES IDX 11 1 10 2 9 3 8 4 6 5 7 6 5 8 1 9 2 10 3 11 80 12 4 13 79 14
REMARK SMILES IDX 81 15 82 16 83 18 86 19 84 20 85 22 12 23 13 24 14 25 15 27
REMARK SMILES IDX 16 28 17 29 78 30 18 31 77 32 19 33 20 34 21 35 71 36 22 37
REMARK SMILES IDX 76 38 70 39 72 40 23 41 75 42 69 43 68 44 24 46 56 47 36 48
REMARK SMILES IDX 55 49 37 50 40 51 54 52 73 53 38 54 39 55 53 57 74 58 41 59
REMARK SMILES IDX 25 60 26 61 34 62 27 63 28 64 32 65 35 66 29 67 30 68 33 69
REMARK SMILES IDX 31 70 57 71 58 72 66 73 59 74 60 75 64 76 67 77 61 78 62 79
REMARK SMILES IDX 65 80 63 81 42 82 43 83 51 84 44 85 45 86 49 87 52 88 46 89
REMARK SMILES IDX 47 90 50 91 48 92
REMARK H PARENT 8 7 81 17 83 21 13 26 72 45 40 56
REMARK Flexibility Score: inf
ROOT
ATOM      1  C   UNL A   1      37.734  21.716  25.050  1.00  0.00     0.023 C 
ENDROOT
BRANCH   1   2
ATOM      2  C   UNL A   1      36.271  21.855  24.602  1.00  0.00     0.023 C 
BRANCH   2   3
ATOM      3  C   UNL A   1      35.335  20.752  25.125  1.00  0.00     0.116 C 
BRANCH   3   4
ATOM      4  N   UNL A   1      34.746  21.097  26.406  1.00  0.00    -0.352 N 
ATOM      5  C   UNL A   1      33.806  22.011  26.809  1.00  0.00     0.251 C 
ATOM      6  O   UNL A   1      33.516  21.995  28.008  1.00  0.00    -0.269 OA
ATOM      7  H   UNL A   1      35.101  20.558  27.149  1.00  0.00     0.163 HD
BRANCH   5   8
ATOM      8  C   UNL A   1      33.111  22.988  25.918  1.00  0.00     0.044 A 
ATOM      9  C   UNL A   1      30.928  25.522  23.150  1.00  0.00     0.049 C 
ATOM     10  C   UNL A   1      31.700  24.668  24.115  1.00  0.00    -0.004 A 
ATOM     11  C   UNL A   1      31.370  23.313  24.235  1.00  0.00     0.008 A 
ATOM     12  C   UNL A   1      32.710  25.191  24.937  1.00  0.00     0.129 A 
ATOM     13  C   UNL A   1      32.074  22.485  25.115  1.00  0.00     0.014 A 
ATOM     14  C   UNL A   1      33.390  24.351  25.832  1.00  0.00     0.065 A 
BRANCH  12  15
ATOM     15  N   UNL A   1      33.136  26.524  24.858  1.00  0.00    -0.235 N 
ATOM     16  C   UNL A   1      32.702  27.372  25.719  1.00  0.00     0.309 C 
ATOM     17  H   UNL A   1      33.761  26.806  24.152  1.00  0.00     0.313 HD
ATOM     18  N   UNL A   1      31.843  27.234  26.765  1.00  0.00    -0.268 N 
ATOM     19  S   UNL A   1      33.247  29.043  25.599  1.00  0.00    -0.035 SA
ATOM     20  C   UNL A   1      31.611  28.397  27.586  1.00  0.00     0.246 C 
ATOM     21  H   UNL A   1      31.399  26.376  26.954  1.00  0.00     0.305 HD
ATOM     22  C   UNL A   1      31.932  29.613  26.720  1.00  0.00     0.128 C 
ENDBRANCH  12  15
ENDBRANCH   5   8
ENDBRANCH   3   4
ENDBRANCH   2   3
ENDBRANCH   1   2
BRANCH   1  23
ATOM     23  C   UNL A   1      38.190  22.822  25.994  1.00  0.00     0.116 C 
BRANCH  23  24
ATOM     24  N   UNL A   1      39.545  22.684  26.509  1.00  0.00    -0.352 N 
ATOM     25  C   UNL A   1      40.437  23.651  26.947  1.00  0.00     0.251 C 
ATOM     26  H   UNL A   1      39.880  21.759  26.555  1.00  0.00     0.163 HD
ATOM     27  O   UNL A   1      41.587  23.334  27.212  1.00  0.00    -0.269 OA
BRANCH  25  28
ATOM     28  C   UNL A   1      39.975  25.039  27.231  1.00  0.00     0.039 A 
ATOM     29  C   UNL A   1      40.444  26.074  26.407  1.00  0.00     0.014 A 
ATOM     30  C   UNL A   1      39.257  25.351  28.378  1.00  0.00     0.014 A 
ATOM     31  C   UNL A   1      40.422  27.390  26.869  1.00  0.00     0.010 A 
ATOM     32  C   UNL A   1      39.348  26.626  28.895  1.00  0.00     0.010 A 
ATOM     33  C   UNL A   1      39.991  27.632  28.168  1.00  0.00    -0.014 A 
BRANCH  33  34
ATOM     34  C   UNL A   1      40.243  28.861  28.907  1.00  0.00     0.031 A 
ATOM     35  C   UNL A   1      39.224  29.931  28.931  1.00  0.00     0.074 A 
ATOM     36  C   UNL A   1      41.302  28.896  29.748  1.00  0.00     0.049 A 
ATOM     37  N   UNL A   1      39.412  31.093  29.457  1.00  0.00    -0.248 NA
ATOM     38  C   UNL A   1      37.909  29.799  28.302  1.00  0.00     0.031 C 
ATOM     39  C   UNL A   1      41.503  29.775  30.899  1.00  0.00     0.029 A 
ATOM     40  N   UNL A   1      42.541  28.247  29.593  1.00  0.00    -0.354 N 
ATOM     41  C   UNL A   1      38.187  31.706  29.541  1.00  0.00     0.074 A 
ATOM     42  C   UNL A   1      37.323  30.940  28.683  1.00  0.00     0.031 C 
ATOM     43  C   UNL A   1      42.815  29.848  31.170  1.00  0.00     0.029 A 
ATOM     44  C   UNL A   1      43.501  29.166  30.087  1.00  0.00     0.049 A 
ATOM     45  H   UNL A   1      42.706  27.350  29.221  1.00  0.00     0.167 HD
ATOM     46  C   UNL A   1      38.020  32.694  30.463  1.00  0.00     0.037 A 
ATOM     47  C   UNL A   1      44.411  29.759  29.261  1.00  0.00     0.037 A 
ATOM     48  C   UNL A   1      39.313  33.179  30.941  1.00  0.00     0.049 A 
ATOM     49  C   UNL A   1      44.348  31.270  29.258  1.00  0.00     0.074 A 
ATOM     50  C   UNL A   1      40.001  33.057  32.134  1.00  0.00     0.029 A 
ATOM     51  N   UNL A   1      40.215  33.700  30.015  1.00  0.00    -0.354 N 
ATOM     52  N   UNL A   1      43.299  31.953  29.627  1.00  0.00    -0.248 NA
ATOM     53  C   UNL A   1      45.445  32.123  28.816  1.00  0.00     0.031 C 
ATOM     54  C   UNL A   1      41.361  33.393  31.882  1.00  0.00     0.029 A 
ATOM     55  C   UNL A   1      41.481  33.777  30.556  1.00  0.00     0.049 A 
ATOM     56  H   UNL A   1      39.981  33.976  29.099  1.00  0.00     0.167 HD
ATOM     57  C   UNL A   1      43.549  33.290  29.471  1.00  0.00     0.074 A 
ATOM     58  C   UNL A   1      44.911  33.347  28.973  1.00  0.00     0.031 C 
ATOM     59  C   UNL A   1      42.606  34.238  29.754  1.00  0.00     0.037 A 
BRANCH  46  60
ATOM     60  C   UNL A   1      36.698  33.090  31.089  1.00  0.00     0.064 A 
ATOM     61  C   UNL A   1      35.773  33.867  30.357  1.00  0.00     0.173 A 
ATOM     62  C   UNL A   1      36.340  32.871  32.439  1.00  0.00     0.173 A 
ATOM     63  F   UNL A   1      35.990  34.167  29.068  1.00  0.00    -0.203 F 
ATOM     64  C   UNL A   1      34.604  34.384  30.929  1.00  0.00     0.198 A 
ATOM     65  C   UNL A   1      35.145  33.340  32.993  1.00  0.00     0.198 A 
ATOM     66  F   UNL A   1      37.152  32.255  33.304  1.00  0.00    -0.203 F 
ATOM     67  F   UNL A   1      33.797  35.168  30.203  1.00  0.00    -0.200 F 
ATOM     68  C   UNL A   1      34.284  34.111  32.244  1.00  0.00     0.200 A 
ATOM     69  F   UNL A   1      34.859  33.067  34.274  1.00  0.00    -0.200 F 
ATOM     70  F   UNL A   1      33.167  34.602  32.794  1.00  0.00    -0.200 F 
ENDBRANCH  46  60
BRANCH  47  71
ATOM     71  C   UNL A   1      44.757  28.917  28.084  1.00  0.00     0.064 A 
ATOM     72  C   UNL A   1      45.613  27.817  28.284  1.00  0.00     0.173 A 
ATOM     73  C   UNL A   1      43.964  28.921  26.930  1.00  0.00     0.173 A 
ATOM     74  F   UNL A   1      46.397  27.769  29.374  1.00  0.00    -0.203 F 
ATOM     75  C   UNL A   1      45.572  26.706  27.445  1.00  0.00     0.198 A 
ATOM     76  C   UNL A   1      43.942  27.813  26.079  1.00  0.00     0.198 A 
ATOM     77  F   UNL A   1      43.120  29.933  26.688  1.00  0.00    -0.203 F 
ATOM     78  F   UNL A   1      46.301  25.619  27.736  1.00  0.00    -0.200 F 
ATOM     79  C   UNL A   1      44.711  26.692  26.361  1.00  0.00     0.200 A 
ATOM     80  F   UNL A   1      43.089  27.786  25.045  1.00  0.00    -0.200 F 
ATOM     81  F   UNL A   1      44.586  25.586  25.614  1.00  0.00    -0.200 F 
ENDBRANCH  47  71
BRANCH  59  82
ATOM     82  C   UNL A   1      42.689  35.697  29.373  1.00  0.00     0.064 A 
ATOM     83  C   UNL A   1      43.476  36.641  30.055  1.00  0.00     0.173 A 
ATOM     84  C   UNL A   1      42.072  36.163  28.187  1.00  0.00     0.173 A 
ATOM     85  F   UNL A   1      44.216  36.296  31.117  1.00  0.00    -0.203 F 
ATOM     86  C   UNL A   1      43.578  37.968  29.626  1.00  0.00     0.198 A 
ATOM     87  C   UNL A   1      42.223  37.472  27.731  1.00  0.00     0.198 A 
ATOM     88  F   UNL A   1      41.326  35.353  27.422  1.00  0.00    -0.203 F 
ATOM     89  F   UNL A   1      44.305  38.840  30.338  1.00  0.00    -0.200 F 
ATOM     90  C   UNL A   1      42.960  38.380  28.461  1.00  0.00     0.200 A 
ATOM     91  F   UNL A   1      41.665  37.841  26.569  1.00  0.00    -0.200 F 
ATOM     92  F   UNL A   1      43.095  39.642  28.032  1.00  0.00    -0.200 F 
ENDBRANCH  59  82
ENDBRANCH  33  34
ENDBRANCH  25  28
ENDBRANCH  23  24
ENDBRANCH   1  23
TORSDOF 12
ENDMDL
