MODEL 1
REMARK VINA RESULT:     -12.2      0.000      0.000
REMARK SMILES O=C(NCCCCNC(=O)[C@H]1CC[C@@H](CNc2ncccn2)O1)c1ccc(-c2c3nc(c(-c4c(F)c(F)c(F)c(F)c4F)c4ccc([nH]4)c(-c4c(F)c(F)c(F)c(F)c4F)c4nc(c(-c5c(F)c(F)c(F)c(F)c5F)c5ccc2[nH]5)C=C4)C=C3)cc1
REMARK SMILES IDX 6 1 5 2 4 3 3 4 1 5 2 6 24 8 25 9 86 10 26 11 85 12 27 13
REMARK SMILES IDX 28 14 29 15 79 16 30 17 84 18 78 19 80 20 31 21 83 22 77 23
REMARK SMILES IDX 76 24 32 26 64 27 44 28 63 29 45 30 48 31 62 32 81 33 46 34
REMARK SMILES IDX 47 35 61 37 82 38 49 39 33 40 34 41 42 42 35 43 36 44 40 45
REMARK SMILES IDX 43 46 37 47 38 48 41 49 39 50 65 51 66 52 74 53 67 54 68 55
REMARK SMILES IDX 72 56 75 57 69 58 70 59 73 60 71 61 50 62 51 63 59 64 52 65
REMARK SMILES IDX 53 66 57 67 60 68 54 69 55 70 58 71 56 72 7 73 8 74 9 75
REMARK SMILES IDX 10 77 11 78 12 79 23 80 13 81 14 82 15 83 16 84 17 86 18 87
REMARK SMILES IDX 22 88 19 89 21 90 20 91
REMARK H PARENT 3 7 80 25 48 36 8 76 16 85
REMARK Flexibility Score: inf
ROOT
ATOM      1  C   UNL A   1      31.612  30.853  26.207  1.00  0.00     0.023 C 
ENDROOT
BRANCH   1   2
ATOM      2  C   UNL A   1      31.393  32.244  26.807  1.00  0.00     0.023 C 
BRANCH   2   3
ATOM      3  C   UNL A   1      32.665  32.987  27.204  1.00  0.00     0.116 C 
BRANCH   3   4
ATOM      4  N   UNL A   1      32.398  34.320  27.718  1.00  0.00    -0.352 N 
ATOM      5  O   UNL A   1      32.543  36.062  29.142  1.00  0.00    -0.269 OA
ATOM      6  C   UNL A   1      33.010  35.000  28.740  1.00  0.00     0.251 C 
ATOM      7  H   UNL A   1      31.670  34.807  27.267  1.00  0.00     0.163 HD
BRANCH   6   8
ATOM      8  C   UNL A   1      34.219  34.440  29.378  1.00  0.00     0.039 A 
ATOM      9  C   UNL A   1      35.485  34.642  28.819  1.00  0.00     0.014 A 
ATOM     10  C   UNL A   1      34.078  33.710  30.560  1.00  0.00     0.014 A 
ATOM     11  C   UNL A   1      36.593  34.006  29.371  1.00  0.00     0.010 A 
ATOM     12  C   UNL A   1      35.202  33.135  31.154  1.00  0.00     0.010 A 
ATOM     13  C   UNL A   1      36.464  33.255  30.547  1.00  0.00    -0.014 A 
BRANCH  13  14
ATOM     14  C   UNL A   1      37.653  32.625  31.171  1.00  0.00     0.031 A 
ATOM     15  C   UNL A   1      38.376  31.504  30.482  1.00  0.00     0.074 A 
ATOM     16  C   UNL A   1      38.056  33.045  32.384  1.00  0.00     0.049 A 
ATOM     17  N   UNL A   1      39.364  30.764  30.916  1.00  0.00    -0.248 NA
ATOM     18  C   UNL A   1      37.918  31.161  29.127  1.00  0.00     0.031 C 
ATOM     19  C   UNL A   1      37.435  34.127  33.149  1.00  0.00     0.029 A 
ATOM     20  N   UNL A   1      39.070  32.601  33.194  1.00  0.00    -0.354 N 
ATOM     21  C   UNL A   1      39.631  29.853  29.902  1.00  0.00     0.074 A 
ATOM     22  C   UNL A   1      38.681  30.116  28.841  1.00  0.00     0.031 C 
ATOM     23  C   UNL A   1      38.082  34.267  34.314  1.00  0.00     0.029 A 
ATOM     24  C   UNL A   1      39.118  33.244  34.407  1.00  0.00     0.049 A 
ATOM     25  H   UNL A   1      39.701  31.892  32.933  1.00  0.00     0.167 HD
ATOM     26  C   UNL A   1      40.584  28.890  29.863  1.00  0.00     0.037 A 
ATOM     27  C   UNL A   1      39.884  33.011  35.488  1.00  0.00     0.037 A 
ATOM     28  C   UNL A   1      41.522  28.640  30.928  1.00  0.00     0.049 A 
ATOM     29  C   UNL A   1      40.899  31.905  35.445  1.00  0.00     0.074 A 
ATOM     30  C   UNL A   1      42.550  27.714  30.973  1.00  0.00     0.029 A 
ATOM     31  N   UNL A   1      41.538  29.311  32.144  1.00  0.00    -0.354 N 
ATOM     32  N   UNL A   1      41.168  31.070  34.470  1.00  0.00    -0.248 NA
ATOM     33  C   UNL A   1      41.718  31.709  36.647  1.00  0.00     0.031 C 
ATOM     34  C   UNL A   1      43.143  27.779  32.238  1.00  0.00     0.029 A 
ATOM     35  C   UNL A   1      42.537  28.798  32.956  1.00  0.00     0.049 A 
ATOM     36  H   UNL A   1      40.929  30.044  32.392  1.00  0.00     0.167 HD
ATOM     37  C   UNL A   1      42.207  30.273  34.927  1.00  0.00     0.074 A 
ATOM     38  C   UNL A   1      42.521  30.723  36.267  1.00  0.00     0.031 C 
ATOM     39  C   UNL A   1      42.848  29.264  34.286  1.00  0.00     0.037 A 
BRANCH  26  40
ATOM     40  C   UNL A   1      40.629  28.007  28.646  1.00  0.00     0.064 A 
ATOM     41  C   UNL A   1      39.920  26.799  28.578  1.00  0.00     0.173 A 
ATOM     42  C   UNL A   1      41.384  28.385  27.525  1.00  0.00     0.173 A 
ATOM     43  F   UNL A   1      39.186  26.385  29.623  1.00  0.00    -0.203 F 
ATOM     44  C   UNL A   1      40.002  25.981  27.453  1.00  0.00     0.198 A 
ATOM     45  C   UNL A   1      41.436  27.582  26.388  1.00  0.00     0.198 A 
ATOM     46  F   UNL A   1      42.073  29.536  27.529  1.00  0.00    -0.203 F 
ATOM     47  F   UNL A   1      39.368  24.800  27.438  1.00  0.00    -0.200 F 
ATOM     48  C   UNL A   1      40.756  26.375  26.358  1.00  0.00     0.200 A 
ATOM     49  F   UNL A   1      42.151  27.974  25.325  1.00  0.00    -0.200 F 
ATOM     50  F   UNL A   1      40.835  25.586  25.278  1.00  0.00    -0.200 F 
ENDBRANCH  26  40
BRANCH  27  51
ATOM     51  C   UNL A   1      39.697  33.848  36.700  1.00  0.00     0.064 A 
ATOM     52  C   UNL A   1      40.306  35.104  36.810  1.00  0.00     0.173 A 
ATOM     53  C   UNL A   1      38.863  33.430  37.750  1.00  0.00     0.173 A 
ATOM     54  F   UNL A   1      41.122  35.539  35.840  1.00  0.00    -0.203 F 
ATOM     55  C   UNL A   1      40.092  35.910  37.926  1.00  0.00     0.198 A 
ATOM     56  C   UNL A   1      38.627  34.249  38.852  1.00  0.00     0.198 A 
ATOM     57  F   UNL A   1      38.250  32.239  37.687  1.00  0.00    -0.203 F 
ATOM     58  F   UNL A   1      40.708  37.097  38.021  1.00  0.00    -0.200 F 
ATOM     59  C   UNL A   1      39.247  35.486  38.941  1.00  0.00     0.200 A 
ATOM     60  F   UNL A   1      37.793  33.844  39.818  1.00  0.00    -0.200 F 
ATOM     61  F   UNL A   1      39.027  36.271  40.005  1.00  0.00    -0.200 F 
ENDBRANCH  27  51
BRANCH  39  62
ATOM     62  C   UNL A   1      43.997  28.608  34.996  1.00  0.00     0.064 A 
ATOM     63  C   UNL A   1      43.825  27.464  35.788  1.00  0.00     0.173 A 
ATOM     64  C   UNL A   1      45.301  29.095  34.819  1.00  0.00     0.173 A 
ATOM     65  F   UNL A   1      42.597  26.969  36.004  1.00  0.00    -0.203 F 
ATOM     66  C   UNL A   1      44.917  26.840  36.387  1.00  0.00     0.198 A 
ATOM     67  C   UNL A   1      46.392  28.450  35.392  1.00  0.00     0.198 A 
ATOM     68  F   UNL A   1      45.520  30.185  34.067  1.00  0.00    -0.203 F 
ATOM     69  F   UNL A   1      44.727  25.768  37.169  1.00  0.00    -0.200 F 
ATOM     70  C   UNL A   1      46.199  27.325  36.179  1.00  0.00     0.200 A 
ATOM     71  F   UNL A   1      47.632  28.913  35.176  1.00  0.00    -0.200 F 
ATOM     72  F   UNL A   1      47.250  26.710  36.739  1.00  0.00    -0.200 F 
ENDBRANCH  39  62
ENDBRANCH  13  14
ENDBRANCH   6   8
ENDBRANCH   3   4
ENDBRANCH   2   3
ENDBRANCH   1   2
BRANCH   1  73
ATOM     73  C   UNL A   1      32.360  29.878  27.113  1.00  0.00     0.116 C 
BRANCH  73  74
ATOM     74  N   UNL A   1      31.605  28.660  27.320  1.00  0.00    -0.354 N 
ATOM     75  C   UNL A   1      31.652  27.469  26.661  1.00  0.00     0.249 C 
ATOM     76  H   UNL A   1      30.953  28.699  28.058  1.00  0.00     0.163 HD
ATOM     77  O   UNL A   1      30.846  26.602  27.012  1.00  0.00    -0.272 OA
BRANCH  75  78
ATOM     78  C   UNL A   1      32.687  27.228  25.542  1.00  0.00     0.207 C 
ATOM     79  C   UNL A   1      32.740  25.752  25.186  1.00  0.00     0.045 C 
ATOM     80  O   UNL A   1      32.338  27.934  24.343  1.00  0.00    -0.363 OA
ATOM     81  C   UNL A   1      31.733  25.652  24.069  1.00  0.00     0.037 C 
ATOM     82  C   UNL A   1      31.913  26.979  23.343  1.00  0.00     0.138 C 
BRANCH  82  83
ATOM     83  C   UNL A   1      30.672  27.508  22.602  1.00  0.00     0.148 C 
BRANCH  83  84
ATOM     84  N   UNL A   1      30.872  28.845  22.070  1.00  0.00    -0.352 N 
ATOM     85  H   UNL A   1      31.706  29.106  21.619  1.00  0.00     0.163 HD
BRANCH  84  86
ATOM     86  C   UNL A   1      29.826  29.727  22.238  1.00  0.00     0.222 A 
ATOM     87  N   UNL A   1      29.660  30.201  23.481  1.00  0.00    -0.222 NA
ATOM     88  N   UNL A   1      29.077  30.092  21.188  1.00  0.00    -0.222 NA
ATOM     89  C   UNL A   1      28.709  31.139  23.647  1.00  0.00     0.117 A 
ATOM     90  C   UNL A   1      28.118  31.007  21.411  1.00  0.00     0.117 A 
ATOM     91  C   UNL A   1      27.895  31.584  22.635  1.00  0.00     0.040 A 
ENDBRANCH  84  86
ENDBRANCH  83  84
ENDBRANCH  82  83
ENDBRANCH  75  78
ENDBRANCH  73  74
ENDBRANCH   1  73
TORSDOF 14
ENDMDL
MODEL 2
REMARK VINA RESULT:     -12.1      0.543      2.100
REMARK SMILES O=C(NCCCCNC(=O)[C@H]1CC[C@@H](CNc2ncccn2)O1)c1ccc(-c2c3nc(c(-c4c(F)c(F)c(F)c(F)c4F)c4ccc([nH]4)c(-c4c(F)c(F)c(F)c(F)c4F)c4nc(c(-c5c(F)c(F)c(F)c(F)c5F)c5ccc2[nH]5)C=C4)C=C3)cc1
REMARK SMILES IDX 6 1 5 2 4 3 3 4 1 5 2 6 24 8 25 9 86 10 26 11 85 12 27 13
REMARK SMILES IDX 28 14 29 15 79 16 30 17 84 18 78 19 80 20 31 21 83 22 77 23
REMARK SMILES IDX 76 24 32 26 64 27 44 28 63 29 45 30 48 31 62 32 81 33 46 34
REMARK SMILES IDX 47 35 61 37 82 38 49 39 33 40 34 41 42 42 35 43 36 44 40 45
REMARK SMILES IDX 43 46 37 47 38 48 41 49 39 50 65 51 66 52 74 53 67 54 68 55
REMARK SMILES IDX 72 56 75 57 69 58 70 59 73 60 71 61 50 62 51 63 59 64 52 65
REMARK SMILES IDX 53 66 57 67 60 68 54 69 55 70 58 71 56 72 7 73 8 74 9 75
REMARK SMILES IDX 10 77 11 78 12 79 23 80 13 81 14 82 15 83 16 84 17 86 18 87
REMARK SMILES IDX 22 88 19 89 21 90 20 91
REMARK H PARENT 3 7 80 25 48 36 8 76 16 85
REMARK Flexibility Score: inf
ROOT
ATOM      1  C   UNL A   1      31.514  30.811  26.001  1.00  0.00     0.023 C 
ENDROOT
BRANCH   1   2
ATOM      2  C   UNL A   1      31.344  32.247  26.501  1.00  0.00     0.023 C 
BRANCH   2   3
ATOM      3  C   UNL A   1      32.549  32.823  27.237  1.00  0.00     0.116 C 
BRANCH   3   4
ATOM      4  N   UNL A   1      32.346  34.203  27.649  1.00  0.00    -0.352 N 
ATOM      5  O   UNL A   1      32.586  36.041  28.933  1.00  0.00    -0.269 OA
ATOM      6  C   UNL A   1      33.001  34.932  28.610  1.00  0.00     0.251 C 
ATOM      7  H   UNL A   1      31.634  34.685  27.169  1.00  0.00     0.163 HD
BRANCH   6   8
ATOM      8  C   UNL A   1      34.193  34.370  29.277  1.00  0.00     0.039 A 
ATOM      9  C   UNL A   1      35.474  34.585  28.759  1.00  0.00     0.014 A 
ATOM     10  C   UNL A   1      34.021  33.624  30.445  1.00  0.00     0.014 A 
ATOM     11  C   UNL A   1      36.569  33.948  29.336  1.00  0.00     0.010 A 
ATOM     12  C   UNL A   1      35.130  33.047  31.065  1.00  0.00     0.010 A 
ATOM     13  C   UNL A   1      36.409  33.181  30.499  1.00  0.00    -0.014 A 
BRANCH  13  14
ATOM     14  C   UNL A   1      37.582  32.549  31.150  1.00  0.00     0.031 A 
ATOM     15  C   UNL A   1      38.304  31.411  30.489  1.00  0.00     0.074 A 
ATOM     16  C   UNL A   1      37.971  32.984  32.362  1.00  0.00     0.049 A 
ATOM     17  N   UNL A   1      39.278  30.668  30.949  1.00  0.00    -0.248 NA
ATOM     18  C   UNL A   1      37.863  31.052  29.133  1.00  0.00     0.031 C 
ATOM     19  C   UNL A   1      37.349  34.083  33.101  1.00  0.00     0.029 A 
ATOM     20  N   UNL A   1      38.968  32.543  33.195  1.00  0.00    -0.354 N 
ATOM     21  C   UNL A   1      39.551  29.739  29.953  1.00  0.00     0.074 A 
ATOM     22  C   UNL A   1      38.620  29.995  28.874  1.00  0.00     0.031 C 
ATOM     23  C   UNL A   1      37.979  34.235  34.273  1.00  0.00     0.029 A 
ATOM     24  C   UNL A   1      39.003  33.203  34.398  1.00  0.00     0.049 A 
ATOM     25  H   UNL A   1      39.596  31.823  32.953  1.00  0.00     0.167 HD
ATOM     26  C   UNL A   1      40.495  28.767  29.944  1.00  0.00     0.037 A 
ATOM     27  C   UNL A   1      39.750  32.979  35.495  1.00  0.00     0.037 A 
ATOM     28  C   UNL A   1      41.414  28.524  31.026  1.00  0.00     0.049 A 
ATOM     29  C   UNL A   1      40.755  31.863  35.483  1.00  0.00     0.074 A 
ATOM     30  C   UNL A   1      42.432  27.588  31.102  1.00  0.00     0.029 A 
ATOM     31  N   UNL A   1      41.418  29.213  32.232  1.00  0.00    -0.354 N 
ATOM     32  N   UNL A   1      41.030  31.011  34.526  1.00  0.00    -0.248 NA
ATOM     33  C   UNL A   1      41.553  31.677  36.701  1.00  0.00     0.031 C 
ATOM     34  C   UNL A   1      43.006  27.667  32.374  1.00  0.00     0.029 A 
ATOM     35  C   UNL A   1      42.399  28.702  33.068  1.00  0.00     0.049 A 
ATOM     36  H   UNL A   1      40.813  29.955  32.460  1.00  0.00     0.167 HD
ATOM     37  C   UNL A   1      42.055  30.211  35.010  1.00  0.00     0.074 A 
ATOM     38  C   UNL A   1      42.352  30.678  36.348  1.00  0.00     0.031 C 
ATOM     39  C   UNL A   1      42.695  29.186  34.394  1.00  0.00     0.037 A 
BRANCH  26  40
ATOM     40  C   UNL A   1      40.550  27.865  28.741  1.00  0.00     0.064 A 
ATOM     41  C   UNL A   1      41.326  28.176  27.614  1.00  0.00     0.173 A 
ATOM     42  C   UNL A   1      39.824  26.664  28.722  1.00  0.00     0.173 A 
ATOM     43  F   UNL A   1      42.036  29.314  27.575  1.00  0.00    -0.203 F 
ATOM     44  C   UNL A   1      41.337  27.342  26.498  1.00  0.00     0.198 A 
ATOM     45  C   UNL A   1      39.866  25.815  27.619  1.00  0.00     0.198 A 
ATOM     46  F   UNL A   1      39.074  26.310  29.776  1.00  0.00    -0.203 F 
ATOM     47  F   UNL A   1      42.034  27.693  25.409  1.00  0.00    -0.200 F 
ATOM     48  C   UNL A   1      40.611  26.161  26.503  1.00  0.00     0.200 A 
ATOM     49  F   UNL A   1      39.176  24.666  27.634  1.00  0.00    -0.200 F 
ATOM     50  F   UNL A   1      40.622  25.361  25.428  1.00  0.00    -0.200 F 
ENDBRANCH  26  40
BRANCH  27  51
ATOM     51  C   UNL A   1      39.553  33.836  36.691  1.00  0.00     0.064 A 
ATOM     52  C   UNL A   1      38.736  33.420  37.749  1.00  0.00     0.173 A 
ATOM     53  C   UNL A   1      40.219  35.065  36.822  1.00  0.00     0.173 A 
ATOM     54  F   UNL A   1      38.067  32.262  37.663  1.00  0.00    -0.203 F 
ATOM     55  C   UNL A   1      38.588  34.202  38.893  1.00  0.00     0.198 A 
ATOM     56  C   UNL A   1      40.095  35.832  37.977  1.00  0.00     0.198 A 
ATOM     57  F   UNL A   1      41.021  35.502  35.840  1.00  0.00    -0.203 F 
ATOM     58  F   UNL A   1      37.778  33.796  39.881  1.00  0.00    -0.200 F 
ATOM     59  C   UNL A   1      39.275  35.402  39.010  1.00  0.00     0.200 A 
ATOM     60  F   UNL A   1      40.777  36.979  38.095  1.00  0.00    -0.200 F 
ATOM     61  F   UNL A   1      39.147  36.144  40.119  1.00  0.00    -0.200 F 
ENDBRANCH  27  51
BRANCH  39  62
ATOM     62  C   UNL A   1      43.826  28.529  35.132  1.00  0.00     0.064 A 
ATOM     63  C   UNL A   1      45.145  28.995  35.038  1.00  0.00     0.173 A 
ATOM     64  C   UNL A   1      43.567  27.459  36.003  1.00  0.00     0.173 A 
ATOM     65  F   UNL A   1      45.448  30.004  34.207  1.00  0.00    -0.203 F 
ATOM     66  C   UNL A   1      46.165  28.406  35.780  1.00  0.00     0.198 A 
ATOM     67  C   UNL A   1      44.583  26.894  36.766  1.00  0.00     0.198 A 
ATOM     68  F   UNL A   1      42.321  26.978  36.132  1.00  0.00    -0.203 F 
ATOM     69  F   UNL A   1      47.426  28.843  35.650  1.00  0.00    -0.200 F 
ATOM     70  C   UNL A   1      45.882  27.364  36.652  1.00  0.00     0.200 A 
ATOM     71  F   UNL A   1      44.303  25.898  37.619  1.00  0.00    -0.200 F 
ATOM     72  F   UNL A   1      46.862  26.812  37.381  1.00  0.00    -0.200 F 
ENDBRANCH  39  62
ENDBRANCH  13  14
ENDBRANCH   6   8
ENDBRANCH   3   4
ENDBRANCH   2   3
ENDBRANCH   1   2
BRANCH   1  73
ATOM     73  C   UNL A   1      32.382  29.924  26.889  1.00  0.00     0.116 C 
BRANCH  73  74
ATOM     74  N   UNL A   1      31.778  28.625  27.096  1.00  0.00    -0.354 N 
ATOM     75  C   UNL A   1      32.097  27.409  26.569  1.00  0.00     0.249 C 
ATOM     76  H   UNL A   1      31.014  28.618  27.718  1.00  0.00     0.163 HD
ATOM     77  O   UNL A   1      31.370  26.458  26.876  1.00  0.00    -0.272 OA
BRANCH  75  78
ATOM     78  C   UNL A   1      33.325  27.245  25.651  1.00  0.00     0.207 C 
ATOM     79  C   UNL A   1      33.624  25.772  25.432  1.00  0.00     0.045 C 
ATOM     80  O   UNL A   1      33.094  27.820  24.357  1.00  0.00    -0.363 OA
ATOM     81  C   UNL A   1      32.838  25.464  24.184  1.00  0.00     0.037 C 
ATOM     82  C   UNL A   1      32.966  26.755  23.387  1.00  0.00     0.138 C 
BRANCH  82  83
ATOM     83  C   UNL A   1      31.809  27.060  22.418  1.00  0.00     0.148 C 
BRANCH  83  84
ATOM     84  N   UNL A   1      31.565  28.485  22.278  1.00  0.00    -0.352 N 
ATOM     85  H   UNL A   1      32.296  29.126  22.126  1.00  0.00     0.163 HD
BRANCH  84  86
ATOM     86  C   UNL A   1      30.249  28.886  22.371  1.00  0.00     0.222 A 
ATOM     87  N   UNL A   1      29.913  29.950  21.628  1.00  0.00    -0.222 NA
ATOM     88  N   UNL A   1      29.388  28.201  23.135  1.00  0.00    -0.222 NA
ATOM     89  C   UNL A   1      28.612  30.298  21.626  1.00  0.00     0.117 A 
ATOM     90  C   UNL A   1      28.107  28.607  23.126  1.00  0.00     0.117 A 
ATOM     91  C   UNL A   1      27.652  29.657  22.368  1.00  0.00     0.040 A 
ENDBRANCH  84  86
ENDBRANCH  83  84
ENDBRANCH  82  83
ENDBRANCH  75  78
ENDBRANCH  73  74
ENDBRANCH   1  73
TORSDOF 14
ENDMDL
MODEL 3
REMARK VINA RESULT:     -11.9      6.556     11.857
REMARK SMILES O=C(NCCCCNC(=O)[C@H]1CC[C@@H](CNc2ncccn2)O1)c1ccc(-c2c3nc(c(-c4c(F)c(F)c(F)c(F)c4F)c4ccc([nH]4)c(-c4c(F)c(F)c(F)c(F)c4F)c4nc(c(-c5c(F)c(F)c(F)c(F)c5F)c5ccc2[nH]5)C=C4)C=C3)cc1
REMARK SMILES IDX 6 1 5 2 4 3 3 4 1 5 2 6 24 8 25 9 86 10 26 11 85 12 27 13
REMARK SMILES IDX 28 14 29 15 79 16 30 17 84 18 78 19 80 20 31 21 83 22 77 23
REMARK SMILES IDX 76 24 32 26 64 27 44 28 63 29 45 30 48 31 62 32 81 33 46 34
REMARK SMILES IDX 47 35 61 37 82 38 49 39 33 40 34 41 42 42 35 43 36 44 40 45
REMARK SMILES IDX 43 46 37 47 38 48 41 49 39 50 65 51 66 52 74 53 67 54 68 55
REMARK SMILES IDX 72 56 75 57 69 58 70 59 73 60 71 61 50 62 51 63 59 64 52 65
REMARK SMILES IDX 53 66 57 67 60 68 54 69 55 70 58 71 56 72 7 73 8 74 9 75
REMARK SMILES IDX 10 77 11 78 12 79 23 80 13 81 14 82 15 83 16 84 17 86 18 87
REMARK SMILES IDX 22 88 19 89 21 90 20 91
REMARK H PARENT 3 7 80 25 48 36 8 76 16 85
REMARK Flexibility Score: inf
ROOT
ATOM      1  C   UNL A   1      37.011  20.292  24.906  1.00  0.00     0.023 C 
ENDROOT
BRANCH   1   2
ATOM      2  C   UNL A   1      38.161  19.295  25.073  1.00  0.00     0.023 C 
BRANCH   2   3
ATOM      3  C   UNL A   1      39.408  19.853  25.750  1.00  0.00     0.116 C 
BRANCH   3   4
ATOM      4  N   UNL A   1      40.488  18.882  25.820  1.00  0.00    -0.352 N 
ATOM      5  O   UNL A   1      42.621  18.152  25.886  1.00  0.00    -0.269 OA
ATOM      6  C   UNL A   1      41.831  19.083  26.016  1.00  0.00     0.251 C 
ATOM      7  H   UNL A   1      40.217  17.941  25.711  1.00  0.00     0.163 HD
BRANCH   6   8
ATOM      8  C   UNL A   1      42.332  20.430  26.358  1.00  0.00     0.039 A 
ATOM      9  C   UNL A   1      42.288  20.901  27.673  1.00  0.00     0.014 A 
ATOM     10  C   UNL A   1      42.864  21.227  25.341  1.00  0.00     0.014 A 
ATOM     11  C   UNL A   1      42.655  22.214  27.950  1.00  0.00     0.010 A 
ATOM     12  C   UNL A   1      43.302  22.519  25.635  1.00  0.00     0.010 A 
ATOM     13  C   UNL A   1      43.173  23.033  26.937  1.00  0.00    -0.014 A 
BRANCH  13  14
ATOM     14  C   UNL A   1      43.621  24.413  27.240  1.00  0.00     0.031 A 
ATOM     15  C   UNL A   1      42.649  25.440  27.746  1.00  0.00     0.074 A 
ATOM     16  C   UNL A   1      44.905  24.749  27.021  1.00  0.00     0.049 A 
ATOM     17  N   UNL A   1      42.831  26.717  27.965  1.00  0.00    -0.248 NA
ATOM     18  C   UNL A   1      41.286  24.969  28.032  1.00  0.00     0.031 C 
ATOM     19  C   UNL A   1      45.941  23.837  26.535  1.00  0.00     0.029 A 
ATOM     20  N   UNL A   1      45.554  25.949  27.160  1.00  0.00    -0.354 N 
ATOM     21  C   UNL A   1      41.604  27.209  28.390  1.00  0.00     0.074 A 
ATOM     22  C   UNL A   1      40.677  26.096  28.372  1.00  0.00     0.031 C 
ATOM     23  C   UNL A   1      47.096  24.507  26.419  1.00  0.00     0.029 A 
ATOM     24  C   UNL A   1      46.866  25.908  26.759  1.00  0.00     0.049 A 
ATOM     25  H   UNL A   1      45.121  26.761  27.512  1.00  0.00     0.167 HD
ATOM     26  C   UNL A   1      41.285  28.472  28.763  1.00  0.00     0.037 A 
ATOM     27  C   UNL A   1      47.774  26.893  26.640  1.00  0.00     0.037 A 
ATOM     28  C   UNL A   1      42.219  29.569  28.776  1.00  0.00     0.049 A 
ATOM     29  C   UNL A   1      47.387  28.297  27.009  1.00  0.00     0.074 A 
ATOM     30  C   UNL A   1      42.007  30.879  29.171  1.00  0.00     0.029 A 
ATOM     31  N   UNL A   1      43.542  29.489  28.360  1.00  0.00    -0.354 N 
ATOM     32  N   UNL A   1      46.234  28.747  27.442  1.00  0.00    -0.248 NA
ATOM     33  C   UNL A   1      48.424  29.327  26.876  1.00  0.00     0.031 C 
ATOM     34  C   UNL A   1      43.180  31.603  28.933  1.00  0.00     0.029 A 
ATOM     35  C   UNL A   1      44.148  30.731  28.460  1.00  0.00     0.049 A 
ATOM     36  H   UNL A   1      43.984  28.669  28.040  1.00  0.00     0.167 HD
ATOM     37  C   UNL A   1      46.415  30.104  27.665  1.00  0.00     0.074 A 
ATOM     38  C   UNL A   1      47.789  30.405  27.319  1.00  0.00     0.031 C 
ATOM     39  C   UNL A   1      45.522  31.015  28.125  1.00  0.00     0.037 A 
BRANCH  26  40
ATOM     40  C   UNL A   1      39.856  28.743  29.147  1.00  0.00     0.064 A 
ATOM     41  C   UNL A   1      39.402  28.601  30.467  1.00  0.00     0.173 A 
ATOM     42  C   UNL A   1      38.931  29.164  28.180  1.00  0.00     0.173 A 
ATOM     43  F   UNL A   1      40.242  28.195  31.431  1.00  0.00    -0.203 F 
ATOM     44  C   UNL A   1      38.066  28.826  30.794  1.00  0.00     0.198 A 
ATOM     45  C   UNL A   1      37.605  29.423  28.517  1.00  0.00     0.198 A 
ATOM     46  F   UNL A   1      39.312  29.329  26.904  1.00  0.00    -0.203 F 
ATOM     47  F   UNL A   1      37.642  28.620  32.048  1.00  0.00    -0.200 F 
ATOM     48  C   UNL A   1      37.170  29.241  29.820  1.00  0.00     0.200 A 
ATOM     49  F   UNL A   1      36.745  29.841  27.577  1.00  0.00    -0.200 F 
ATOM     50  F   UNL A   1      35.886  29.456  30.136  1.00  0.00    -0.200 F 
ENDBRANCH  26  40
BRANCH  27  51
ATOM     51  C   UNL A   1      49.133  26.568  26.136  1.00  0.00     0.064 A 
ATOM     52  C   UNL A   1      49.474  26.778  24.795  1.00  0.00     0.173 A 
ATOM     53  C   UNL A   1      50.132  26.091  26.999  1.00  0.00     0.173 A 
ATOM     54  F   UNL A   1      48.550  27.219  23.929  1.00  0.00    -0.203 F 
ATOM     55  C   UNL A   1      50.763  26.518  24.332  1.00  0.00     0.198 A 
ATOM     56  C   UNL A   1      51.427  25.859  26.543  1.00  0.00     0.198 A 
ATOM     57  F   UNL A   1      49.857  25.883  28.295  1.00  0.00    -0.203 F 
ATOM     58  F   UNL A   1      51.057  26.701  23.037  1.00  0.00    -0.200 F 
ATOM     59  C   UNL A   1      51.740  26.068  25.208  1.00  0.00     0.200 A 
ATOM     60  F   UNL A   1      52.373  25.446  27.397  1.00  0.00    -0.200 F 
ATOM     61  F   UNL A   1      52.984  25.837  24.766  1.00  0.00    -0.200 F 
ENDBRANCH  27  51
BRANCH  39  62
ATOM     62  C   UNL A   1      46.009  32.419  28.340  1.00  0.00     0.064 A 
ATOM     63  C   UNL A   1      46.607  32.823  29.542  1.00  0.00     0.173 A 
ATOM     64  C   UNL A   1      45.937  33.354  27.295  1.00  0.00     0.173 A 
ATOM     65  F   UNL A   1      46.683  31.973  30.578  1.00  0.00    -0.203 F 
ATOM     66  C   UNL A   1      47.105  34.114  29.693  1.00  0.00     0.198 A 
ATOM     67  C   UNL A   1      46.464  34.633  27.440  1.00  0.00     0.198 A 
ATOM     68  F   UNL A   1      45.378  33.017  26.123  1.00  0.00    -0.203 F 
ATOM     69  F   UNL A   1      47.641  34.491  30.863  1.00  0.00    -0.200 F 
ATOM     70  C   UNL A   1      47.044  35.014  28.640  1.00  0.00     0.200 A 
ATOM     71  F   UNL A   1      46.418  35.495  26.414  1.00  0.00    -0.200 F 
ATOM     72  F   UNL A   1      47.543  36.251  28.781  1.00  0.00    -0.200 F 
ENDBRANCH  39  62
ENDBRANCH  13  14
ENDBRANCH   6   8
ENDBRANCH   3   4
ENDBRANCH   2   3
ENDBRANCH   1   2
BRANCH   1  73
ATOM     73  C   UNL A   1      37.435  21.758  24.885  1.00  0.00     0.116 C 
BRANCH  73  74
ATOM     74  N   UNL A   1      36.775  22.487  23.822  1.00  0.00    -0.354 N 
ATOM     75  C   UNL A   1      35.612  23.196  23.828  1.00  0.00     0.249 C 
ATOM     76  H   UNL A   1      37.243  22.467  22.955  1.00  0.00     0.163 HD
ATOM     77  O   UNL A   1      35.245  23.679  22.753  1.00  0.00    -0.272 OA
BRANCH  75  78
ATOM     78  C   UNL A   1      34.816  23.393  25.135  1.00  0.00     0.207 C 
ATOM     79  C   UNL A   1      33.660  24.352  24.906  1.00  0.00     0.045 C 
ATOM     80  O   UNL A   1      34.248  22.159  25.595  1.00  0.00    -0.363 OA
ATOM     81  C   UNL A   1      32.534  23.420  24.537  1.00  0.00     0.037 C 
ATOM     82  C   UNL A   1      32.814  22.204  25.410  1.00  0.00     0.138 C 
BRANCH  82  83
ATOM     83  C   UNL A   1      32.310  20.857  24.860  1.00  0.00     0.148 C 
BRANCH  83  84
ATOM     84  N   UNL A   1      32.487  19.771  25.807  1.00  0.00    -0.352 N 
ATOM     85  H   UNL A   1      32.317  19.886  26.770  1.00  0.00     0.163 HD
BRANCH  84  86
ATOM     86  C   UNL A   1      32.910  18.569  25.280  1.00  0.00     0.222 A 
ATOM     87  N   UNL A   1      33.856  18.651  24.334  1.00  0.00    -0.222 NA
ATOM     88  N   UNL A   1      32.411  17.416  25.746  1.00  0.00    -0.222 NA
ATOM     89  C   UNL A   1      34.355  17.488  23.877  1.00  0.00     0.117 A 
ATOM     90  C   UNL A   1      32.918  16.281  25.235  1.00  0.00     0.117 A 
ATOM     91  C   UNL A   1      33.917  16.256  24.294  1.00  0.00     0.040 A 
ENDBRANCH  84  86
ENDBRANCH  83  84
ENDBRANCH  82  83
ENDBRANCH  75  78
ENDBRANCH  73  74
ENDBRANCH   1  73
TORSDOF 14
ENDMDL
