MODEL 1
REMARK VINA RESULT:     -10.9      0.000      0.000
REMARK SMILES C[C@@H](OCC(F)(F)F)C(=O)NCCCCNC(=O)c1ccc(-c2c3nc(c(-c4c(F)c(F)c(F)c(F)c4F)c4ccc([nH]4)c(-c4c(F)c(F)c(F)c(F)c4F)c4nc(c(-c5c(F)c(F)c(F)c(F)c5F)c5ccc2[nH]5)C=C4)C=C3)cc1
REMARK SMILES IDX 13 1 12 2 11 3 9 4 10 5 2 7 1 8 3 9 4 10 5 11 6 12 7 13 8 14
REMARK SMILES IDX 14 15 15 16 16 17 17 18 18 20 19 21 20 22 81 23 21 24 80 25
REMARK SMILES IDX 22 26 23 27 24 28 74 29 25 30 79 31 73 32 75 33 26 34 78 35
REMARK SMILES IDX 72 36 71 37 27 39 59 40 39 41 58 42 40 43 43 44 57 45 76 46
REMARK SMILES IDX 41 47 42 48 56 50 77 51 44 52 28 53 29 54 37 55 30 56 31 57
REMARK SMILES IDX 35 58 38 59 32 60 33 61 36 62 34 63 60 64 61 65 69 66 62 67
REMARK SMILES IDX 63 68 67 69 70 70 64 71 65 72 68 73 66 74 45 75 46 76 54 77
REMARK SMILES IDX 47 78 48 79 52 80 55 81 49 82 50 83 53 84 51 85
REMARK H PARENT 11 6 16 19 75 38 43 49
REMARK Flexibility Score: inf
ROOT
ATOM      1  C   UNL A   1      31.773  30.592  26.441  1.00  0.00     0.023 C 
ENDROOT
BRANCH   1   2
ATOM      2  C   UNL A   1      31.111  30.127  25.145  1.00  0.00     0.116 C 
BRANCH   2   3
ATOM      3  N   UNL A   1      32.082  29.570  24.224  1.00  0.00    -0.354 N 
ATOM      4  C   UNL A   1      31.888  28.960  23.018  1.00  0.00     0.248 C 
ATOM      5  O   UNL A   1      32.879  28.523  22.428  1.00  0.00    -0.272 OA
ATOM      6  H   UNL A   1      33.022  29.643  24.510  1.00  0.00     0.163 HD
BRANCH   4   7
ATOM      7  C   UNL A   1      30.472  28.791  22.432  1.00  0.00     0.204 C 
ATOM      8  C   UNL A   1      29.649  27.849  23.308  1.00  0.00     0.049 C 
BRANCH   7   9
ATOM      9  O   UNL A   1      29.872  30.076  22.253  1.00  0.00    -0.359 OA
BRANCH   9  10
ATOM     10  C   UNL A   1      28.512  30.218  22.684  1.00  0.00     0.276 C 
BRANCH  10  11
ATOM     11  C   UNL A   1      28.061  31.615  23.108  1.00  0.00     0.411 C 
ATOM     12  F   UNL A   1      29.028  32.261  23.797  1.00  0.00    -0.168 F 
ATOM     13  F   UNL A   1      27.779  32.366  22.017  1.00  0.00    -0.168 F 
ATOM     14  F   UNL A   1      26.952  31.576  23.876  1.00  0.00    -0.168 F 
ENDBRANCH  10  11
ENDBRANCH   9  10
ENDBRANCH   7   9
ENDBRANCH   4   7
ENDBRANCH   2   3
ENDBRANCH   1   2
BRANCH   1  15
ATOM     15  C   UNL A   1      31.549  32.068  26.777  1.00  0.00     0.023 C 
BRANCH  15  16
ATOM     16  C   UNL A   1      32.809  32.851  27.129  1.00  0.00     0.116 C 
BRANCH  16  17
ATOM     17  N   UNL A   1      32.528  34.189  27.626  1.00  0.00    -0.352 N 
ATOM     18  C   UNL A   1      33.107  34.860  28.676  1.00  0.00     0.251 C 
ATOM     19  H   UNL A   1      31.825  34.682  27.144  1.00  0.00     0.163 HD
ATOM     20  O   UNL A   1      32.658  35.942  29.043  1.00  0.00    -0.269 OA
BRANCH  18  21
ATOM     21  C   UNL A   1      34.253  34.256  29.387  1.00  0.00     0.039 A 
ATOM     22  C   UNL A   1      34.003  33.413  30.473  1.00  0.00     0.014 A 
ATOM     23  C   UNL A   1      35.564  34.503  28.973  1.00  0.00     0.014 A 
ATOM     24  C   UNL A   1      35.067  32.760  31.099  1.00  0.00     0.010 A 
ATOM     25  C   UNL A   1      36.614  33.795  29.548  1.00  0.00     0.010 A 
ATOM     26  C   UNL A   1      36.377  32.916  30.617  1.00  0.00    -0.014 A 
BRANCH  26  27
ATOM     27  C   UNL A   1      37.510  32.162  31.210  1.00  0.00     0.031 A 
ATOM     28  C   UNL A   1      38.006  32.504  32.588  1.00  0.00     0.074 A 
ATOM     29  C   UNL A   1      38.136  31.217  30.483  1.00  0.00     0.049 A 
ATOM     30  N   UNL A   1      39.021  32.008  33.249  1.00  0.00    -0.248 NA
ATOM     31  C   UNL A   1      37.280  33.561  33.308  1.00  0.00     0.031 C 
ATOM     32  C   UNL A   1      37.781  30.828  29.117  1.00  0.00     0.029 A 
ATOM     33  N   UNL A   1      39.212  30.420  30.785  1.00  0.00    -0.354 N 
ATOM     34  C   UNL A   1      39.066  32.705  34.449  1.00  0.00     0.074 A 
ATOM     35  C   UNL A   1      38.009  33.692  34.405  1.00  0.00     0.031 C 
ATOM     36  C   UNL A   1      38.606  29.851  28.709  1.00  0.00     0.029 A 
ATOM     37  C   UNL A   1      39.572  29.571  29.767  1.00  0.00     0.049 A 
ATOM     38  H   UNL A   1      39.681  30.452  31.650  1.00  0.00     0.167 HD
ATOM     39  C   UNL A   1      39.900  32.523  35.501  1.00  0.00     0.037 A 
ATOM     40  C   UNL A   1      40.574  28.674  29.692  1.00  0.00     0.037 A 
ATOM     41  C   UNL A   1      40.932  31.521  35.552  1.00  0.00     0.049 A 
ATOM     42  C   UNL A   1      41.489  28.496  30.874  1.00  0.00     0.074 A 
ATOM     43  C   UNL A   1      41.782  31.210  36.599  1.00  0.00     0.029 A 
ATOM     44  N   UNL A   1      41.259  30.670  34.506  1.00  0.00    -0.354 N 
ATOM     45  N   UNL A   1      41.474  29.107  32.033  1.00  0.00    -0.248 NA
ATOM     46  C   UNL A   1      42.561  27.499  30.736  1.00  0.00     0.031 C 
ATOM     47  C   UNL A   1      42.655  30.206  36.171  1.00  0.00     0.029 A 
ATOM     48  C   UNL A   1      42.315  29.852  34.874  1.00  0.00     0.049 A 
ATOM     49  H   UNL A   1      40.807  30.650  33.632  1.00  0.00     0.167 HD
ATOM     50  C   UNL A   1      42.507  28.548  32.774  1.00  0.00     0.074 A 
ATOM     51  C   UNL A   1      43.122  27.540  31.936  1.00  0.00     0.031 C 
ATOM     52  C   UNL A   1      42.911  28.845  34.033  1.00  0.00     0.037 A 
BRANCH  39  53
ATOM     53  C   UNL A   1      39.730  33.427  36.689  1.00  0.00     0.064 A 
ATOM     54  C   UNL A   1      40.422  34.643  36.794  1.00  0.00     0.173 A 
ATOM     55  C   UNL A   1      38.836  33.091  37.717  1.00  0.00     0.173 A 
ATOM     56  F   UNL A   1      41.296  35.008  35.844  1.00  0.00    -0.203 F 
ATOM     57  C   UNL A   1      40.248  35.474  37.898  1.00  0.00     0.198 A 
ATOM     58  C   UNL A   1      38.641  33.938  38.803  1.00  0.00     0.198 A 
ATOM     59  F   UNL A   1      38.144  31.942  37.663  1.00  0.00    -0.203 F 
ATOM     60  F   UNL A   1      40.957  36.606  38.001  1.00  0.00    -0.200 F 
ATOM     61  C   UNL A   1      39.352  35.125  38.897  1.00  0.00     0.200 A 
ATOM     62  F   UNL A   1      37.765  33.606  39.762  1.00  0.00    -0.200 F 
ATOM     63  F   UNL A   1      39.180  35.929  39.956  1.00  0.00    -0.200 F 
ENDBRANCH  39  53
BRANCH  40  64
ATOM     64  C   UNL A   1      40.748  27.851  28.466  1.00  0.00     0.064 A 
ATOM     65  C   UNL A   1      41.538  28.308  27.402  1.00  0.00     0.173 A 
ATOM     66  C   UNL A   1      40.124  26.603  28.327  1.00  0.00     0.173 A 
ATOM     67  F   UNL A   1      42.138  29.505  27.479  1.00  0.00    -0.203 F 
ATOM     68  C   UNL A   1      41.681  27.557  26.237  1.00  0.00     0.198 A 
ATOM     69  C   UNL A   1      40.292  25.840  27.173  1.00  0.00     0.198 A 
ATOM     70  F   UNL A   1      39.362  26.118  29.318  1.00  0.00    -0.203 F 
ATOM     71  F   UNL A   1      42.404  28.040  25.217  1.00  0.00    -0.200 F 
ATOM     72  C   UNL A   1      41.062  26.322  26.126  1.00  0.00     0.200 A 
ATOM     73  F   UNL A   1      39.704  24.640  27.075  1.00  0.00    -0.200 F 
ATOM     74  F   UNL A   1      41.202  25.598  25.006  1.00  0.00    -0.200 F 
ENDBRANCH  40  64
BRANCH  52  75
ATOM     75  C   UNL A   1      44.044  28.041  34.601  1.00  0.00     0.064 A 
ATOM     76  C   UNL A   1      45.369  28.500  34.554  1.00  0.00     0.173 A 
ATOM     77  C   UNL A   1      43.795  26.815  35.236  1.00  0.00     0.173 A 
ATOM     78  F   UNL A   1      45.662  29.658  33.944  1.00  0.00    -0.203 F 
ATOM     79  C   UNL A   1      46.406  27.746  35.099  1.00  0.00     0.198 A 
ATOM     80  C   UNL A   1      44.830  26.081  35.809  1.00  0.00     0.198 A 
ATOM     81  F   UNL A   1      42.544  26.335  35.315  1.00  0.00    -0.203 F 
ATOM     82  F   UNL A   1      47.671  28.180  34.999  1.00  0.00    -0.200 F 
ATOM     83  C   UNL A   1      46.134  26.542  35.733  1.00  0.00     0.200 A 
ATOM     84  F   UNL A   1      44.564  24.925  36.434  1.00  0.00    -0.200 F 
ATOM     85  F   UNL A   1      47.133  25.824  36.265  1.00  0.00    -0.200 F 
ENDBRANCH  52  75
ENDBRANCH  26  27
ENDBRANCH  18  21
ENDBRANCH  16  17
ENDBRANCH  15  16
ENDBRANCH   1  15
TORSDOF 14
ENDMDL
MODEL 2
REMARK VINA RESULT:     -10.9      0.994      7.819
REMARK SMILES C[C@@H](OCC(F)(F)F)C(=O)NCCCCNC(=O)c1ccc(-c2c3nc(c(-c4c(F)c(F)c(F)c(F)c4F)c4ccc([nH]4)c(-c4c(F)c(F)c(F)c(F)c4F)c4nc(c(-c5c(F)c(F)c(F)c(F)c5F)c5ccc2[nH]5)C=C4)C=C3)cc1
REMARK SMILES IDX 13 1 12 2 11 3 9 4 10 5 2 7 1 8 3 9 4 10 5 11 6 12 7 13 8 14
REMARK SMILES IDX 14 15 15 16 16 17 17 18 18 20 19 21 20 22 81 23 21 24 80 25
REMARK SMILES IDX 22 26 23 27 24 28 74 29 25 30 79 31 73 32 75 33 26 34 78 35
REMARK SMILES IDX 72 36 71 37 27 39 59 40 39 41 58 42 40 43 43 44 57 45 76 46
REMARK SMILES IDX 41 47 42 48 56 50 77 51 44 52 28 53 29 54 37 55 30 56 31 57
REMARK SMILES IDX 35 58 38 59 32 60 33 61 36 62 34 63 60 64 61 65 69 66 62 67
REMARK SMILES IDX 63 68 67 69 70 70 64 71 65 72 68 73 66 74 45 75 46 76 54 77
REMARK SMILES IDX 47 78 48 79 52 80 55 81 49 82 50 83 53 84 51 85
REMARK H PARENT 11 6 16 19 75 38 43 49
REMARK Flexibility Score: inf
ROOT
ATOM      1  C   UNL A   1      32.045  30.209  26.575  1.00  0.00     0.023 C 
ENDROOT
BRANCH   1   2
ATOM      2  C   UNL A   1      31.747  29.696  25.167  1.00  0.00     0.116 C 
BRANCH   2   3
ATOM      3  N   UNL A   1      30.988  28.462  25.202  1.00  0.00    -0.354 N 
ATOM      4  C   UNL A   1      30.577  27.663  24.174  1.00  0.00     0.248 C 
ATOM      5  O   UNL A   1      29.896  26.672  24.451  1.00  0.00    -0.272 OA
ATOM      6  H   UNL A   1      30.730  28.152  26.101  1.00  0.00     0.163 HD
BRANCH   4   7
ATOM      7  C   UNL A   1      30.921  28.010  22.711  1.00  0.00     0.204 C 
ATOM      8  C   UNL A   1      31.496  26.786  22.001  1.00  0.00     0.049 C 
BRANCH   7   9
ATOM      9  O   UNL A   1      29.769  28.557  22.066  1.00  0.00    -0.359 OA
BRANCH   9  10
ATOM     10  C   UNL A   1      29.631  29.984  22.094  1.00  0.00     0.276 C 
BRANCH  10  11
ATOM     11  C   UNL A   1      28.526  30.557  22.979  1.00  0.00     0.411 C 
ATOM     12  F   UNL A   1      27.777  31.464  22.313  1.00  0.00    -0.168 F 
ATOM     13  F   UNL A   1      27.692  29.570  23.383  1.00  0.00    -0.168 F 
ATOM     14  F   UNL A   1      29.022  31.152  24.084  1.00  0.00    -0.168 F 
ENDBRANCH  10  11
ENDBRANCH   9  10
ENDBRANCH   7   9
ENDBRANCH   4   7
ENDBRANCH   2   3
ENDBRANCH   1   2
BRANCH   1  15
ATOM     15  C   UNL A   1      31.743  31.693  26.790  1.00  0.00     0.023 C 
BRANCH  15  16
ATOM     16  C   UNL A   1      32.935  32.541  27.221  1.00  0.00     0.116 C 
BRANCH  16  17
ATOM     17  N   UNL A   1      32.566  33.902  27.580  1.00  0.00    -0.352 N 
ATOM     18  C   UNL A   1      33.082  34.704  28.569  1.00  0.00     0.251 C 
ATOM     19  H   UNL A   1      31.847  34.303  27.040  1.00  0.00     0.163 HD
ATOM     20  O   UNL A   1      32.563  35.787  28.821  1.00  0.00    -0.269 OA
BRANCH  18  21
ATOM     21  C   UNL A   1      34.244  34.240  29.354  1.00  0.00     0.039 A 
ATOM     22  C   UNL A   1      34.018  33.524  30.533  1.00  0.00     0.014 A 
ATOM     23  C   UNL A   1      35.548  34.492  28.922  1.00  0.00     0.014 A 
ATOM     24  C   UNL A   1      35.102  32.999  31.240  1.00  0.00     0.010 A 
ATOM     25  C   UNL A   1      36.621  33.905  29.584  1.00  0.00     0.010 A 
ATOM     26  C   UNL A   1      36.410  33.152  30.750  1.00  0.00    -0.014 A 
BRANCH  26  27
ATOM     27  C   UNL A   1      37.567  32.525  31.437  1.00  0.00     0.031 A 
ATOM     28  C   UNL A   1      38.292  31.373  30.798  1.00  0.00     0.074 A 
ATOM     29  C   UNL A   1      37.922  32.948  32.665  1.00  0.00     0.049 A 
ATOM     30  N   UNL A   1      39.278  30.652  31.268  1.00  0.00    -0.248 NA
ATOM     31  C   UNL A   1      37.829  30.960  29.464  1.00  0.00     0.031 C 
ATOM     32  C   UNL A   1      37.267  34.024  33.411  1.00  0.00     0.029 A 
ATOM     33  N   UNL A   1      38.914  32.516  33.510  1.00  0.00    -0.354 N 
ATOM     34  C   UNL A   1      39.539  29.693  30.299  1.00  0.00     0.074 A 
ATOM     35  C   UNL A   1      38.575  29.890  29.238  1.00  0.00     0.031 C 
ATOM     36  C   UNL A   1      37.890  34.185  34.590  1.00  0.00     0.029 A 
ATOM     37  C   UNL A   1      38.961  33.199  34.701  1.00  0.00     0.049 A 
ATOM     38  H   UNL A   1      39.535  31.786  33.283  1.00  0.00     0.167 HD
ATOM     39  C   UNL A   1      40.508  28.747  30.286  1.00  0.00     0.037 A 
ATOM     40  C   UNL A   1      39.771  33.043  35.765  1.00  0.00     0.037 A 
ATOM     41  C   UNL A   1      41.483  28.572  31.331  1.00  0.00     0.049 A 
ATOM     42  C   UNL A   1      40.836  31.979  35.727  1.00  0.00     0.074 A 
ATOM     43  C   UNL A   1      42.548  27.690  31.379  1.00  0.00     0.029 A 
ATOM     44  N   UNL A   1      41.507  29.292  32.517  1.00  0.00    -0.354 N 
ATOM     45  N   UNL A   1      41.123  31.128  34.772  1.00  0.00    -0.248 NA
ATOM     46  C   UNL A   1      41.693  31.859  36.915  1.00  0.00     0.031 C 
ATOM     47  C   UNL A   1      43.186  27.841  32.614  1.00  0.00     0.029 A 
ATOM     48  C   UNL A   1      42.552  28.856  33.314  1.00  0.00     0.049 A 
ATOM     49  H   UNL A   1      40.874  30.007  32.756  1.00  0.00     0.167 HD
ATOM     50  C   UNL A   1      42.211  30.395  35.228  1.00  0.00     0.074 A 
ATOM     51  C   UNL A   1      42.540  30.911  36.540  1.00  0.00     0.031 C 
ATOM     52  C   UNL A   1      42.875  29.385  34.615  1.00  0.00     0.037 A 
BRANCH  39  53
ATOM     53  C   UNL A   1      40.566  27.825  29.102  1.00  0.00     0.064 A 
ATOM     54  C   UNL A   1      41.441  28.056  28.029  1.00  0.00     0.173 A 
ATOM     55  C   UNL A   1      39.761  26.676  29.054  1.00  0.00     0.173 A 
ATOM     56  F   UNL A   1      42.224  29.145  28.020  1.00  0.00    -0.203 F 
ATOM     57  C   UNL A   1      41.487  27.188  26.942  1.00  0.00     0.198 A 
ATOM     58  C   UNL A   1      39.833  25.794  27.981  1.00  0.00     0.198 A 
ATOM     59  F   UNL A   1      38.911  26.404  30.056  1.00  0.00    -0.203 F 
ATOM     60  F   UNL A   1      42.294  27.456  25.906  1.00  0.00    -0.200 F 
ATOM     61  C   UNL A   1      40.690  26.054  26.921  1.00  0.00     0.200 A 
ATOM     62  F   UNL A   1      39.071  24.691  27.969  1.00  0.00    -0.200 F 
ATOM     63  F   UNL A   1      40.741  25.215  25.877  1.00  0.00    -0.200 F 
ENDBRANCH  39  53
BRANCH  40  64
ATOM     64  C   UNL A   1      39.629  33.933  36.947  1.00  0.00     0.064 A 
ATOM     65  C   UNL A   1      38.853  33.545  38.049  1.00  0.00     0.173 A 
ATOM     66  C   UNL A   1      40.254  35.188  36.998  1.00  0.00     0.173 A 
ATOM     67  F   UNL A   1      38.219  32.364  38.037  1.00  0.00    -0.203 F 
ATOM     68  C   UNL A   1      38.689  34.387  39.146  1.00  0.00     0.198 A 
ATOM     69  C   UNL A   1      40.113  36.016  38.110  1.00  0.00     0.198 A 
ATOM     70  F   UNL A   1      41.011  35.604  35.973  1.00  0.00    -0.203 F 
ATOM     71  F   UNL A   1      37.903  34.010  40.164  1.00  0.00    -0.200 F 
ATOM     72  C   UNL A   1      39.324  35.619  39.179  1.00  0.00     0.200 A 
ATOM     73  F   UNL A   1      40.739  37.200  38.143  1.00  0.00    -0.200 F 
ATOM     74  F   UNL A   1      39.169  36.428  40.236  1.00  0.00    -0.200 F 
ENDBRANCH  40  64
BRANCH  52  75
ATOM     75  C   UNL A   1      44.053  28.798  35.336  1.00  0.00     0.064 A 
ATOM     76  C   UNL A   1      43.910  27.730  36.234  1.00  0.00     0.173 A 
ATOM     77  C   UNL A   1      45.347  29.284  35.094  1.00  0.00     0.173 A 
ATOM     78  F   UNL A   1      42.693  27.239  36.512  1.00  0.00    -0.203 F 
ATOM     79  C   UNL A   1      45.018  27.188  36.883  1.00  0.00     0.198 A 
ATOM     80  C   UNL A   1      46.455  28.719  35.720  1.00  0.00     0.198 A 
ATOM     81  F   UNL A   1      45.539  30.300  34.238  1.00  0.00    -0.203 F 
ATOM     82  F   UNL A   1      44.853  26.201  37.774  1.00  0.00    -0.200 F 
ATOM     83  C   UNL A   1      46.289  27.678  36.619  1.00  0.00     0.200 A 
ATOM     84  F   UNL A   1      47.684  29.183  35.452  1.00  0.00    -0.200 F 
ATOM     85  F   UNL A   1      47.353  27.149  37.238  1.00  0.00    -0.200 F 
ENDBRANCH  52  75
ENDBRANCH  26  27
ENDBRANCH  18  21
ENDBRANCH  16  17
ENDBRANCH  15  16
ENDBRANCH   1  15
TORSDOF 14
ENDMDL
MODEL 3
REMARK VINA RESULT:     -10.9      1.408      7.918
REMARK SMILES C[C@@H](OCC(F)(F)F)C(=O)NCCCCNC(=O)c1ccc(-c2c3nc(c(-c4c(F)c(F)c(F)c(F)c4F)c4ccc([nH]4)c(-c4c(F)c(F)c(F)c(F)c4F)c4nc(c(-c5c(F)c(F)c(F)c(F)c5F)c5ccc2[nH]5)C=C4)C=C3)cc1
REMARK SMILES IDX 13 1 12 2 11 3 9 4 10 5 2 7 1 8 3 9 4 10 5 11 6 12 7 13 8 14
REMARK SMILES IDX 14 15 15 16 16 17 17 18 18 20 19 21 20 22 81 23 21 24 80 25
REMARK SMILES IDX 22 26 23 27 24 28 74 29 25 30 79 31 73 32 75 33 26 34 78 35
REMARK SMILES IDX 72 36 71 37 27 39 59 40 39 41 58 42 40 43 43 44 57 45 76 46
REMARK SMILES IDX 41 47 42 48 56 50 77 51 44 52 28 53 29 54 37 55 30 56 31 57
REMARK SMILES IDX 35 58 38 59 32 60 33 61 36 62 34 63 60 64 61 65 69 66 62 67
REMARK SMILES IDX 63 68 67 69 70 70 64 71 65 72 68 73 66 74 45 75 46 76 54 77
REMARK SMILES IDX 47 78 48 79 52 80 55 81 49 82 50 83 53 84 51 85
REMARK H PARENT 11 6 16 19 75 38 43 49
REMARK Flexibility Score: inf
ROOT
ATOM      1  C   UNL A   1      31.783  30.649  26.235  1.00  0.00     0.023 C 
ENDROOT
BRANCH   1   2
ATOM      2  C   UNL A   1      32.477  29.727  27.236  1.00  0.00     0.116 C 
BRANCH   2   3
ATOM      3  N   UNL A   1      31.771  28.469  27.375  1.00  0.00    -0.354 N 
ATOM      4  C   UNL A   1      31.746  27.389  26.540  1.00  0.00     0.248 C 
ATOM      5  O   UNL A   1      31.027  26.436  26.853  1.00  0.00    -0.272 OA
ATOM      6  H   UNL A   1      31.230  28.379  28.194  1.00  0.00     0.163 HD
BRANCH   4   7
ATOM      7  C   UNL A   1      32.558  27.378  25.229  1.00  0.00     0.204 C 
ATOM      8  C   UNL A   1      33.550  26.217  25.235  1.00  0.00     0.049 C 
BRANCH   7   9
ATOM      9  O   UNL A   1      31.665  27.361  24.114  1.00  0.00    -0.359 OA
BRANCH   9  10
ATOM     10  C   UNL A   1      31.610  28.550  23.313  1.00  0.00     0.276 C 
BRANCH  10  11
ATOM     11  C   UNL A   1      30.233  28.999  22.830  1.00  0.00     0.411 C 
ATOM     12  F   UNL A   1      29.677  29.893  23.677  1.00  0.00    -0.168 F 
ATOM     13  F   UNL A   1      30.337  29.604  21.622  1.00  0.00    -0.168 F 
ATOM     14  F   UNL A   1      29.382  27.961  22.695  1.00  0.00    -0.168 F 
ENDBRANCH  10  11
ENDBRANCH   9  10
ENDBRANCH   7   9
ENDBRANCH   4   7
ENDBRANCH   2   3
ENDBRANCH   1   2
BRANCH   1  15
ATOM     15  C   UNL A   1      31.486  32.055  26.762  1.00  0.00     0.023 C 
BRANCH  15  16
ATOM     16  C   UNL A   1      32.686  32.798  27.338  1.00  0.00     0.116 C 
BRANCH  16  17
ATOM     17  N   UNL A   1      32.401  34.191  27.643  1.00  0.00    -0.352 N 
ATOM     18  C   UNL A   1      32.993  35.010  28.574  1.00  0.00     0.251 C 
ATOM     19  H   UNL A   1      31.685  34.604  27.109  1.00  0.00     0.163 HD
ATOM     20  O   UNL A   1      32.540  36.130  28.790  1.00  0.00    -0.269 OA
BRANCH  18  21
ATOM     21  C   UNL A   1      34.157  34.523  29.342  1.00  0.00     0.039 A 
ATOM     22  C   UNL A   1      33.941  33.925  30.586  1.00  0.00     0.014 A 
ATOM     23  C   UNL A   1      35.452  34.636  28.830  1.00  0.00     0.014 A 
ATOM     24  C   UNL A   1      35.018  33.376  31.285  1.00  0.00     0.010 A 
ATOM     25  C   UNL A   1      36.512  34.023  29.490  1.00  0.00     0.010 A 
ATOM     26  C   UNL A   1      36.306  33.386  30.724  1.00  0.00    -0.014 A 
BRANCH  26  27
ATOM     27  C   UNL A   1      37.449  32.729  31.408  1.00  0.00     0.031 A 
ATOM     28  C   UNL A   1      38.158  31.576  30.755  1.00  0.00     0.074 A 
ATOM     29  C   UNL A   1      37.802  33.125  32.646  1.00  0.00     0.049 A 
ATOM     30  N   UNL A   1      39.129  30.831  31.220  1.00  0.00    -0.248 NA
ATOM     31  C   UNL A   1      37.697  31.192  29.412  1.00  0.00     0.031 C 
ATOM     32  C   UNL A   1      37.160  34.200  33.405  1.00  0.00     0.029 A 
ATOM     33  N   UNL A   1      38.781  32.663  33.489  1.00  0.00    -0.354 N 
ATOM     34  C   UNL A   1      39.380  29.882  30.237  1.00  0.00     0.074 A 
ATOM     35  C   UNL A   1      38.427  30.113  29.173  1.00  0.00     0.031 C 
ATOM     36  C   UNL A   1      37.777  34.331  34.590  1.00  0.00     0.029 A 
ATOM     37  C   UNL A   1      38.831  33.326  34.692  1.00  0.00     0.049 A 
ATOM     38  H   UNL A   1      39.391  31.927  33.255  1.00  0.00     0.167 HD
ATOM     39  C   UNL A   1      40.334  28.921  30.214  1.00  0.00     0.037 A 
ATOM     40  C   UNL A   1      39.632  33.138  35.759  1.00  0.00     0.037 A 
ATOM     41  C   UNL A   1      41.298  28.712  31.263  1.00  0.00     0.049 A 
ATOM     42  C   UNL A   1      40.679  32.058  35.710  1.00  0.00     0.074 A 
ATOM     43  C   UNL A   1      42.349  27.813  31.303  1.00  0.00     0.029 A 
ATOM     44  N   UNL A   1      41.326  29.413  32.461  1.00  0.00    -0.354 N 
ATOM     45  N   UNL A   1      40.958  31.218  34.743  1.00  0.00    -0.248 NA
ATOM     46  C   UNL A   1      41.526  31.904  36.901  1.00  0.00     0.031 C 
ATOM     47  C   UNL A   1      42.980  27.932  32.544  1.00  0.00     0.029 A 
ATOM     48  C   UNL A   1      42.359  28.946  33.257  1.00  0.00     0.049 A 
ATOM     49  H   UNL A   1      40.704  30.135  32.707  1.00  0.00     0.167 HD
ATOM     50  C   UNL A   1      42.031  30.459  35.194  1.00  0.00     0.074 A 
ATOM     51  C   UNL A   1      42.359  30.948  36.517  1.00  0.00     0.031 C 
ATOM     52  C   UNL A   1      42.682  29.449  34.568  1.00  0.00     0.037 A 
BRANCH  39  53
ATOM     53  C   UNL A   1      40.384  28.018  29.015  1.00  0.00     0.064 A 
ATOM     54  C   UNL A   1      39.669  26.811  28.972  1.00  0.00     0.173 A 
ATOM     55  C   UNL A   1      41.127  28.381  27.882  1.00  0.00     0.173 A 
ATOM     56  F   UNL A   1      38.952  26.411  30.033  1.00  0.00    -0.203 F 
ATOM     57  C   UNL A   1      39.721  25.988  27.850  1.00  0.00     0.198 A 
ATOM     58  C   UNL A   1      41.150  27.571  26.750  1.00  0.00     0.198 A 
ATOM     59  F   UNL A   1      41.823  29.527  27.868  1.00  0.00    -0.203 F 
ATOM     60  F   UNL A   1      39.071  24.816  27.850  1.00  0.00    -0.200 F 
ATOM     61  C   UNL A   1      40.454  26.372  26.737  1.00  0.00     0.200 A 
ATOM     62  F   UNL A   1      41.848  27.951  25.670  1.00  0.00    -0.200 F 
ATOM     63  F   UNL A   1      40.496  25.582  25.654  1.00  0.00    -0.200 F 
ENDBRANCH  39  53
BRANCH  40  64
ATOM     64  C   UNL A   1      39.496  34.011  36.954  1.00  0.00     0.064 A 
ATOM     65  C   UNL A   1      40.144  35.254  37.013  1.00  0.00     0.173 A 
ATOM     66  C   UNL A   1      38.730  33.622  38.062  1.00  0.00     0.173 A 
ATOM     67  F   UNL A   1      40.905  35.660  35.987  1.00  0.00    -0.203 F 
ATOM     68  C   UNL A   1      40.047  36.063  38.142  1.00  0.00     0.198 A 
ATOM     69  C   UNL A   1      38.610  34.446  39.179  1.00  0.00     0.198 A 
ATOM     70  F   UNL A   1      38.086  32.445  38.054  1.00  0.00    -0.203 F 
ATOM     71  F   UNL A   1      40.715  37.224  38.191  1.00  0.00    -0.200 F 
ATOM     72  C   UNL A   1      39.276  35.661  39.222  1.00  0.00     0.200 A 
ATOM     73  F   UNL A   1      37.852  34.061  40.215  1.00  0.00    -0.200 F 
ATOM     74  F   UNL A   1      39.181  36.441  40.308  1.00  0.00    -0.200 F 
ENDBRANCH  40  64
BRANCH  52  75
ATOM     75  C   UNL A   1      43.845  28.830  35.287  1.00  0.00     0.064 A 
ATOM     76  C   UNL A   1      43.689  27.707  36.114  1.00  0.00     0.173 A 
ATOM     77  C   UNL A   1      45.140  29.344  35.115  1.00  0.00     0.173 A 
ATOM     78  F   UNL A   1      42.470  27.188  36.323  1.00  0.00    -0.203 F 
ATOM     79  C   UNL A   1      44.783  27.138  36.761  1.00  0.00     0.198 A 
ATOM     80  C   UNL A   1      46.235  28.752  35.738  1.00  0.00     0.198 A 
ATOM     81  F   UNL A   1      45.345  30.413  34.330  1.00  0.00    -0.203 F 
ATOM     82  F   UNL A   1      44.603  26.095  37.585  1.00  0.00    -0.200 F 
ATOM     83  C   UNL A   1      46.055  27.656  36.566  1.00  0.00     0.200 A 
ATOM     84  F   UNL A   1      47.466  29.245  35.537  1.00  0.00    -0.200 F 
ATOM     85  F   UNL A   1      47.107  27.101  37.183  1.00  0.00    -0.200 F 
ENDBRANCH  52  75
ENDBRANCH  26  27
ENDBRANCH  18  21
ENDBRANCH  16  17
ENDBRANCH  15  16
ENDBRANCH   1  15
TORSDOF 14
ENDMDL
