MODEL 1
REMARK VINA RESULT:     -12.1      0.000      0.000
REMARK SMILES O=C(NCCCCNC(=O)c1cc(S[C@H]2CCO[C@@]3(CCOC3)C2)cs1)c1ccc(-c2c3nc(c(-c4c(F)c(F)c(F)c(F)c4F)c4ccc([nH]4)c(-c4c(F)c(F)c(F)c(F)c4F)c4nc(c(-c5c(F)c(F)c(F)c(F)c5F)c5ccc2[nH]5)C=C4)C=C3)cc1
REMARK SMILES IDX 5 1 4 2 3 3 1 4 2 5 27 7 28 8 89 9 29 10 88 11 30 12 31 13
REMARK SMILES IDX 32 14 82 15 33 16 87 17 81 18 83 19 34 20 86 21 80 22 79 23
REMARK SMILES IDX 35 25 67 26 47 27 66 28 48 29 51 30 65 31 84 32 49 33 50 34
REMARK SMILES IDX 64 36 85 37 52 38 36 39 37 40 45 41 38 42 39 43 43 44 46 45
REMARK SMILES IDX 40 46 41 47 44 48 42 49 68 50 69 51 77 52 70 53 71 54 75 55
REMARK SMILES IDX 78 56 72 57 73 58 76 59 74 60 53 61 54 62 62 63 55 64 56 65
REMARK SMILES IDX 60 66 63 67 57 68 58 69 61 70 59 71 6 72 7 73 8 74 9 75
REMARK SMILES IDX 10 77 11 78 12 79 26 80 13 81 25 82 14 83 15 84 16 85 24 86
REMARK SMILES IDX 17 87 19 88 18 89 20 90 23 91 21 92 22 93
REMARK H PARENT 3 6 83 24 51 35 8 76
REMARK Flexibility Score: inf
ROOT
ATOM      1  C   UNL A   1      31.389  31.865  26.526  1.00  0.00     0.023 C 
ENDROOT
BRANCH   1   2
ATOM      2  C   UNL A   1      32.663  32.614  26.907  1.00  0.00     0.116 C 
BRANCH   2   3
ATOM      3  N   UNL A   1      32.394  33.938  27.446  1.00  0.00    -0.352 N 
ATOM      4  O   UNL A   1      32.526  35.667  28.878  1.00  0.00    -0.269 OA
ATOM      5  C   UNL A   1      33.004  34.612  28.472  1.00  0.00     0.251 C 
ATOM      6  H   UNL A   1      31.660  34.425  27.006  1.00  0.00     0.163 HD
BRANCH   5   7
ATOM      7  C   UNL A   1      34.219  34.065  29.112  1.00  0.00     0.039 A 
ATOM      8  C   UNL A   1      35.495  34.497  28.735  1.00  0.00     0.014 A 
ATOM      9  C   UNL A   1      34.071  33.129  30.139  1.00  0.00     0.014 A 
ATOM     10  C   UNL A   1      36.623  33.912  29.308  1.00  0.00     0.010 A 
ATOM     11  C   UNL A   1      35.200  32.583  30.751  1.00  0.00     0.010 A 
ATOM     12  C   UNL A   1      36.484  32.951  30.321  1.00  0.00    -0.014 A 
BRANCH  12  13
ATOM     13  C   UNL A   1      37.682  32.356  30.959  1.00  0.00     0.031 A 
ATOM     14  C   UNL A   1      38.450  31.264  30.273  1.00  0.00     0.074 A 
ATOM     15  C   UNL A   1      38.057  32.781  32.179  1.00  0.00     0.049 A 
ATOM     16  N   UNL A   1      39.469  30.569  30.710  1.00  0.00    -0.248 NA
ATOM     17  C   UNL A   1      38.008  30.898  28.919  1.00  0.00     0.031 C 
ATOM     18  C   UNL A   1      37.383  33.828  32.948  1.00  0.00     0.029 A 
ATOM     19  N   UNL A   1      39.085  32.375  32.992  1.00  0.00    -0.354 N 
ATOM     20  C   UNL A   1      39.774  29.668  29.700  1.00  0.00     0.074 A 
ATOM     21  C   UNL A   1      38.824  29.894  28.631  1.00  0.00     0.031 C 
ATOM     22  C   UNL A   1      38.015  33.983  34.122  1.00  0.00     0.029 A 
ATOM     23  C   UNL A   1      39.107  33.018  34.204  1.00  0.00     0.049 A 
ATOM     24  H   UNL A   1      39.743  31.691  32.731  1.00  0.00     0.167 HD
ATOM     25  C   UNL A   1      40.761  28.740  29.669  1.00  0.00     0.037 A 
ATOM     26  C   UNL A   1      39.899  32.830  35.276  1.00  0.00     0.037 A 
ATOM     27  C   UNL A   1      41.717  28.534  30.724  1.00  0.00     0.049 A 
ATOM     28  C   UNL A   1      40.978  31.788  35.223  1.00  0.00     0.074 A 
ATOM     29  C   UNL A   1      42.790  27.661  30.760  1.00  0.00     0.029 A 
ATOM     30  N   UNL A   1      41.712  29.210  31.936  1.00  0.00    -0.354 N 
ATOM     31  N   UNL A   1      41.282  30.968  34.248  1.00  0.00    -0.248 NA
ATOM     32  C   UNL A   1      41.820  31.643  36.417  1.00  0.00     0.031 C 
ATOM     33  C   UNL A   1      43.412  27.780  32.008  1.00  0.00     0.029 A 
ATOM     34  C   UNL A   1      42.748  28.755  32.735  1.00  0.00     0.049 A 
ATOM     35  H   UNL A   1      41.068  29.909  32.190  1.00  0.00     0.167 HD
ATOM     36  C   UNL A   1      42.358  30.219  34.702  1.00  0.00     0.074 A 
ATOM     37  C   UNL A   1      42.660  30.687  36.039  1.00  0.00     0.031 C 
ATOM     38  C   UNL A   1      43.035  29.233  34.063  1.00  0.00     0.037 A 
BRANCH  25  39
ATOM     39  C   UNL A   1      40.843  27.860  28.457  1.00  0.00     0.064 A 
ATOM     40  C   UNL A   1      40.184  26.623  28.399  1.00  0.00     0.173 A 
ATOM     41  C   UNL A   1      41.567  28.274  27.330  1.00  0.00     0.173 A 
ATOM     42  F   UNL A   1      39.490  26.178  29.456  1.00  0.00    -0.203 F 
ATOM     43  C   UNL A   1      40.268  25.822  27.263  1.00  0.00     0.198 A 
ATOM     44  C   UNL A   1      41.630  27.480  26.188  1.00  0.00     0.198 A 
ATOM     45  F   UNL A   1      42.211  29.450  27.334  1.00  0.00    -0.203 F 
ATOM     46  F   UNL A   1      39.666  24.624  27.244  1.00  0.00    -0.200 F 
ATOM     47  C   UNL A   1      40.987  26.252  26.157  1.00  0.00     0.200 A 
ATOM     48  F   UNL A   1      42.319  27.901  25.118  1.00  0.00    -0.200 F 
ATOM     49  F   UNL A   1      41.067  25.479  25.066  1.00  0.00    -0.200 F 
ENDBRANCH  25  39
BRANCH  26  50
ATOM     50  C   UNL A   1      39.678  33.656  36.487  1.00  0.00     0.064 A 
ATOM     51  C   UNL A   1      40.232  34.937  36.596  1.00  0.00     0.173 A 
ATOM     52  C   UNL A   1      38.856  33.204  37.529  1.00  0.00     0.173 A 
ATOM     53  F   UNL A   1      41.037  35.404  35.630  1.00  0.00    -0.203 F 
ATOM     54  C   UNL A   1      39.970  35.739  37.705  1.00  0.00     0.198 A 
ATOM     55  C   UNL A   1      38.577  34.014  38.627  1.00  0.00     0.198 A 
ATOM     56  F   UNL A   1      38.298  31.986  37.464  1.00  0.00    -0.203 F 
ATOM     57  F   UNL A   1      40.523  36.956  37.794  1.00  0.00    -0.200 F 
ATOM     58  C   UNL A   1      39.135  35.280  38.714  1.00  0.00     0.200 A 
ATOM     59  F   UNL A   1      37.758  33.573  39.592  1.00  0.00    -0.200 F 
ATOM     60  F   UNL A   1      38.867  36.061  39.770  1.00  0.00    -0.200 F 
ENDBRANCH  26  50
BRANCH  38  61
ATOM     61  C   UNL A   1      44.183  28.606  34.793  1.00  0.00     0.064 A 
ATOM     62  C   UNL A   1      45.468  29.162  34.746  1.00  0.00     0.173 A 
ATOM     63  C   UNL A   1      43.980  27.473  35.595  1.00  0.00     0.173 A 
ATOM     64  F   UNL A   1      45.712  30.236  33.980  1.00  0.00    -0.203 F 
ATOM     65  C   UNL A   1      46.516  28.599  35.470  1.00  0.00     0.198 A 
ATOM     66  C   UNL A   1      45.025  26.925  36.333  1.00  0.00     0.198 A 
ATOM     67  F   UNL A   1      42.766  26.910  35.673  1.00  0.00    -0.203 F 
ATOM     68  F   UNL A   1      47.743  29.130  35.392  1.00  0.00    -0.200 F 
ATOM     69  C   UNL A   1      46.291  27.487  36.268  1.00  0.00     0.200 A 
ATOM     70  F   UNL A   1      44.805  25.854  37.109  1.00  0.00    -0.200 F 
ATOM     71  F   UNL A   1      47.298  26.952  36.973  1.00  0.00    -0.200 F 
ENDBRANCH  38  61
ENDBRANCH  12  13
ENDBRANCH   5   7
ENDBRANCH   2   3
ENDBRANCH   1   2
BRANCH   1  72
ATOM     72  C   UNL A   1      31.487  30.339  26.568  1.00  0.00     0.023 C 
BRANCH  72  73
ATOM     73  C   UNL A   1      31.763  29.666  25.225  1.00  0.00     0.116 C 
BRANCH  73  74
ATOM     74  N   UNL A   1      30.801  30.057  24.213  1.00  0.00    -0.351 N 
ATOM     75  C   UNL A   1      30.318  29.305  23.166  1.00  0.00     0.261 C 
ATOM     76  H   UNL A   1      30.450  30.974  24.283  1.00  0.00     0.163 HD
ATOM     77  O   UNL A   1      29.627  29.879  22.312  1.00  0.00    -0.268 OA
BRANCH  75  78
ATOM     78  C   UNL A   1      30.623  27.897  23.145  1.00  0.00     0.093 A 
ATOM     79  C   UNL A   1      31.698  27.264  22.550  1.00  0.00     0.040 A 
ATOM     80  S   UNL A   1      29.601  26.790  23.947  1.00  0.00    -0.137 S 
ATOM     81  C   UNL A   1      31.634  25.852  22.677  1.00  0.00     0.019 A 
ATOM     82  C   UNL A   1      30.552  25.459  23.434  1.00  0.00     0.080 A 
BRANCH  81  83
ATOM     83  S   UNL A   1      32.841  24.723  22.085  1.00  0.00    -0.122 SA
BRANCH  83  84
ATOM     84  C   UNL A   1      33.260  23.667  23.528  1.00  0.00     0.057 C 
ATOM     85  C   UNL A   1      32.598  22.294  23.412  1.00  0.00     0.043 C 
ATOM     86  C   UNL A   1      34.792  23.514  23.562  1.00  0.00     0.053 C 
ATOM     87  C   UNL A   1      33.142  21.341  24.462  1.00  0.00     0.162 C 
ATOM     88  C   UNL A   1      35.270  22.417  24.537  1.00  0.00     0.095 C 
ATOM     89  O   UNL A   1      34.549  21.205  24.322  1.00  0.00    -0.372 OA
ATOM     90  C   UNL A   1      36.754  22.128  24.348  1.00  0.00     0.066 C 
ATOM     91  C   UNL A   1      35.274  22.859  26.002  1.00  0.00     0.195 C 
ATOM     92  C   UNL A   1      37.431  23.181  25.196  1.00  0.00     0.163 C 
ATOM     93  O   UNL A   1      36.508  23.557  26.228  1.00  0.00    -0.378 OA
ENDBRANCH  83  84
ENDBRANCH  81  83
ENDBRANCH  75  78
ENDBRANCH  73  74
ENDBRANCH  72  73
ENDBRANCH   1  72
TORSDOF 13
ENDMDL
MODEL 2
REMARK VINA RESULT:     -12.1      1.064      1.976
REMARK SMILES O=C(NCCCCNC(=O)c1cc(S[C@H]2CCO[C@@]3(CCOC3)C2)cs1)c1ccc(-c2c3nc(c(-c4c(F)c(F)c(F)c(F)c4F)c4ccc([nH]4)c(-c4c(F)c(F)c(F)c(F)c4F)c4nc(c(-c5c(F)c(F)c(F)c(F)c5F)c5ccc2[nH]5)C=C4)C=C3)cc1
REMARK SMILES IDX 5 1 4 2 3 3 1 4 2 5 27 7 28 8 89 9 29 10 88 11 30 12 31 13
REMARK SMILES IDX 32 14 82 15 33 16 87 17 81 18 83 19 34 20 86 21 80 22 79 23
REMARK SMILES IDX 35 25 67 26 47 27 66 28 48 29 51 30 65 31 84 32 49 33 50 34
REMARK SMILES IDX 64 36 85 37 52 38 36 39 37 40 45 41 38 42 39 43 43 44 46 45
REMARK SMILES IDX 40 46 41 47 44 48 42 49 68 50 69 51 77 52 70 53 71 54 75 55
REMARK SMILES IDX 78 56 72 57 73 58 76 59 74 60 53 61 54 62 62 63 55 64 56 65
REMARK SMILES IDX 60 66 63 67 57 68 58 69 61 70 59 71 6 72 7 73 8 74 9 75
REMARK SMILES IDX 10 77 11 78 12 79 26 80 13 81 25 82 14 83 15 84 16 85 24 86
REMARK SMILES IDX 17 87 19 88 18 89 20 90 23 91 21 92 22 93
REMARK H PARENT 3 6 83 24 51 35 8 76
REMARK Flexibility Score: inf
ROOT
ATOM      1  C   UNL A   1      31.379  31.669  26.794  1.00  0.00     0.023 C 
ENDROOT
BRANCH   1   2
ATOM      2  C   UNL A   1      32.659  32.496  26.877  1.00  0.00     0.116 C 
BRANCH   2   3
ATOM      3  N   UNL A   1      32.429  33.833  27.400  1.00  0.00    -0.352 N 
ATOM      4  O   UNL A   1      32.606  35.572  28.816  1.00  0.00    -0.269 OA
ATOM      5  C   UNL A   1      33.052  34.497  28.425  1.00  0.00     0.251 C 
ATOM      6  H   UNL A   1      31.716  34.339  26.949  1.00  0.00     0.163 HD
BRANCH   5   7
ATOM      7  C   UNL A   1      34.244  33.918  29.080  1.00  0.00     0.039 A 
ATOM      8  C   UNL A   1      35.529  34.391  28.798  1.00  0.00     0.014 A 
ATOM      9  C   UNL A   1      34.060  32.907  30.027  1.00  0.00     0.014 A 
ATOM     10  C   UNL A   1      36.637  33.777  29.380  1.00  0.00     0.010 A 
ATOM     11  C   UNL A   1      35.167  32.330  30.652  1.00  0.00     0.010 A 
ATOM     12  C   UNL A   1      36.465  32.743  30.313  1.00  0.00    -0.014 A 
BRANCH  12  13
ATOM     13  C   UNL A   1      37.640  32.115  30.962  1.00  0.00     0.031 A 
ATOM     14  C   UNL A   1      38.418  31.041  30.259  1.00  0.00     0.074 A 
ATOM     15  C   UNL A   1      37.983  32.494  32.207  1.00  0.00     0.049 A 
ATOM     16  N   UNL A   1      39.419  30.322  30.700  1.00  0.00    -0.248 NA
ATOM     17  C   UNL A   1      38.012  30.728  28.881  1.00  0.00     0.031 C 
ATOM     18  C   UNL A   1      37.296  33.518  32.993  1.00  0.00     0.029 A 
ATOM     19  N   UNL A   1      38.984  32.051  33.033  1.00  0.00    -0.354 N 
ATOM     20  C   UNL A   1      39.746  29.455  29.667  1.00  0.00     0.074 A 
ATOM     21  C   UNL A   1      38.828  29.727  28.580  1.00  0.00     0.031 C 
ATOM     22  C   UNL A   1      37.895  33.626  34.189  1.00  0.00     0.029 A 
ATOM     23  C   UNL A   1      38.977  32.649  34.268  1.00  0.00     0.049 A 
ATOM     24  H   UNL A   1      39.644  31.370  32.766  1.00  0.00     0.167 HD
ATOM     25  C   UNL A   1      40.726  28.521  29.630  1.00  0.00     0.037 A 
ATOM     26  C   UNL A   1      39.737  32.417  35.353  1.00  0.00     0.037 A 
ATOM     27  C   UNL A   1      41.651  28.270  30.704  1.00  0.00     0.049 A 
ATOM     28  C   UNL A   1      40.809  31.368  35.294  1.00  0.00     0.074 A 
ATOM     29  C   UNL A   1      42.715  27.386  30.739  1.00  0.00     0.029 A 
ATOM     30  N   UNL A   1      41.616  28.902  31.939  1.00  0.00    -0.354 N 
ATOM     31  N   UNL A   1      41.134  30.581  34.299  1.00  0.00    -0.248 NA
ATOM     32  C   UNL A   1      41.616  31.174  36.505  1.00  0.00     0.031 C 
ATOM     33  C   UNL A   1      43.302  27.456  32.007  1.00  0.00     0.029 A 
ATOM     34  C   UNL A   1      42.626  28.411  32.750  1.00  0.00     0.049 A 
ATOM     35  H   UNL A   1      40.970  29.597  32.200  1.00  0.00     0.167 HD
ATOM     36  C   UNL A   1      42.191  29.807  34.756  1.00  0.00     0.074 A 
ATOM     37  C   UNL A   1      42.459  30.225  36.117  1.00  0.00     0.031 C 
ATOM     38  C   UNL A   1      42.878  28.839  34.102  1.00  0.00     0.037 A 
BRANCH  25  39
ATOM     39  C   UNL A   1      40.836  27.683  28.392  1.00  0.00     0.064 A 
ATOM     40  C   UNL A   1      41.653  28.062  27.316  1.00  0.00     0.173 A 
ATOM     41  C   UNL A   1      40.137  26.472  28.293  1.00  0.00     0.173 A 
ATOM     42  F   UNL A   1      42.331  29.218  27.359  1.00  0.00    -0.203 F 
ATOM     43  C   UNL A   1      41.746  27.268  26.176  1.00  0.00     0.198 A 
ATOM     44  C   UNL A   1      40.250  25.670  27.159  1.00  0.00     0.198 A 
ATOM     45  F   UNL A   1      39.346  26.063  29.295  1.00  0.00    -0.203 F 
ATOM     46  F   UNL A   1      42.500  27.669  25.142  1.00  0.00    -0.200 F 
ATOM     47  C   UNL A   1      41.049  26.071  26.100  1.00  0.00     0.200 A 
ATOM     48  F   UNL A   1      39.581  24.510  27.091  1.00  0.00    -0.200 F 
ATOM     49  F   UNL A   1      41.140  25.309  25.001  1.00  0.00    -0.200 F 
ENDBRANCH  25  39
BRANCH  26  50
ATOM     50  C   UNL A   1      39.488  33.202  36.587  1.00  0.00     0.064 A 
ATOM     51  C   UNL A   1      40.130  34.427  36.802  1.00  0.00     0.173 A 
ATOM     52  C   UNL A   1      38.556  32.771  37.541  1.00  0.00     0.173 A 
ATOM     53  F   UNL A   1      41.041  34.870  35.924  1.00  0.00    -0.203 F 
ATOM     54  C   UNL A   1      39.846  35.195  37.930  1.00  0.00     0.198 A 
ATOM     55  C   UNL A   1      38.256  33.549  38.656  1.00  0.00     0.198 A 
ATOM     56  F   UNL A   1      37.911  31.606  37.372  1.00  0.00    -0.203 F 
ATOM     57  F   UNL A   1      40.483  36.358  38.122  1.00  0.00    -0.200 F 
ATOM     58  C   UNL A   1      38.903  34.760  38.850  1.00  0.00     0.200 A 
ATOM     59  F   UNL A   1      37.334  33.132  39.534  1.00  0.00    -0.200 F 
ATOM     60  F   UNL A   1      38.616  35.510  39.923  1.00  0.00    -0.200 F 
ENDBRANCH  26  50
BRANCH  38  61
ATOM     61  C   UNL A   1      44.000  28.177  34.841  1.00  0.00     0.064 A 
ATOM     62  C   UNL A   1      43.805  26.983  35.547  1.00  0.00     0.173 A 
ATOM     63  C   UNL A   1      45.296  28.712  34.791  1.00  0.00     0.173 A 
ATOM     64  F   UNL A   1      42.580  26.442  35.635  1.00  0.00    -0.203 F 
ATOM     65  C   UNL A   1      44.868  26.350  36.187  1.00  0.00     0.198 A 
ATOM     66  C   UNL A   1      46.360  28.067  35.416  1.00  0.00     0.198 A 
ATOM     67  F   UNL A   1      45.530  29.852  34.124  1.00  0.00    -0.203 F 
ATOM     68  F   UNL A   1      44.656  25.222  36.879  1.00  0.00    -0.200 F 
ATOM     69  C   UNL A   1      46.144  26.889  36.114  1.00  0.00     0.200 A 
ATOM     70  F   UNL A   1      47.594  28.585  35.338  1.00  0.00    -0.200 F 
ATOM     71  F   UNL A   1      47.168  26.273  36.722  1.00  0.00    -0.200 F 
ENDBRANCH  38  61
ENDBRANCH  12  13
ENDBRANCH   5   7
ENDBRANCH   2   3
ENDBRANCH   1   2
BRANCH   1  72
ATOM     72  C   UNL A   1      31.384  30.555  25.746  1.00  0.00     0.023 C 
BRANCH  72  73
ATOM     73  C   UNL A   1      32.592  29.621  25.793  1.00  0.00     0.116 C 
BRANCH  73  74
ATOM     74  N   UNL A   1      33.384  29.694  24.581  1.00  0.00    -0.351 N 
ATOM     75  C   UNL A   1      33.486  28.757  23.577  1.00  0.00     0.261 C 
ATOM     76  H   UNL A   1      33.914  30.515  24.460  1.00  0.00     0.163 HD
ATOM     77  O   UNL A   1      34.348  28.937  22.705  1.00  0.00    -0.268 OA
BRANCH  75  78
ATOM     78  C   UNL A   1      32.569  27.646  23.590  1.00  0.00     0.093 A 
ATOM     79  C   UNL A   1      32.768  26.381  24.110  1.00  0.00     0.040 A 
ATOM     80  S   UNL A   1      31.007  27.820  22.924  1.00  0.00    -0.137 S 
ATOM     81  C   UNL A   1      31.662  25.521  23.880  1.00  0.00     0.019 A 
ATOM     82  C   UNL A   1      30.625  26.183  23.261  1.00  0.00     0.080 A 
BRANCH  81  83
ATOM     83  S   UNL A   1      31.535  23.859  24.430  1.00  0.00    -0.122 SA
BRANCH  83  84
ATOM     84  C   UNL A   1      32.959  23.619  25.564  1.00  0.00     0.057 C 
ATOM     85  C   UNL A   1      32.532  22.873  26.829  1.00  0.00     0.043 C 
ATOM     86  C   UNL A   1      34.026  22.806  24.805  1.00  0.00     0.053 C 
ATOM     87  C   UNL A   1      33.743  22.452  27.643  1.00  0.00     0.162 C 
ATOM     88  C   UNL A   1      35.147  22.273  25.723  1.00  0.00     0.095 C 
ATOM     89  O   UNL A   1      34.596  21.623  26.866  1.00  0.00    -0.372 OA
ATOM     90  C   UNL A   1      36.026  21.273  24.984  1.00  0.00     0.066 C 
ATOM     91  C   UNL A   1      36.196  23.328  26.082  1.00  0.00     0.195 C 
ATOM     92  C   UNL A   1      37.028  22.146  24.261  1.00  0.00     0.163 C 
ATOM     93  O   UNL A   1      37.139  23.371  25.001  1.00  0.00    -0.378 OA
ENDBRANCH  83  84
ENDBRANCH  81  83
ENDBRANCH  75  78
ENDBRANCH  73  74
ENDBRANCH  72  73
ENDBRANCH   1  72
TORSDOF 13
ENDMDL
MODEL 3
REMARK VINA RESULT:     -12.1      5.326     11.006
REMARK SMILES O=C(NCCCCNC(=O)c1cc(S[C@H]2CCO[C@@]3(CCOC3)C2)cs1)c1ccc(-c2c3nc(c(-c4c(F)c(F)c(F)c(F)c4F)c4ccc([nH]4)c(-c4c(F)c(F)c(F)c(F)c4F)c4nc(c(-c5c(F)c(F)c(F)c(F)c5F)c5ccc2[nH]5)C=C4)C=C3)cc1
REMARK SMILES IDX 5 1 4 2 3 3 1 4 2 5 27 7 28 8 89 9 29 10 88 11 30 12 31 13
REMARK SMILES IDX 32 14 82 15 33 16 87 17 81 18 83 19 34 20 86 21 80 22 79 23
REMARK SMILES IDX 35 25 67 26 47 27 66 28 48 29 51 30 65 31 84 32 49 33 50 34
REMARK SMILES IDX 64 36 85 37 52 38 36 39 37 40 45 41 38 42 39 43 43 44 46 45
REMARK SMILES IDX 40 46 41 47 44 48 42 49 68 50 69 51 77 52 70 53 71 54 75 55
REMARK SMILES IDX 78 56 72 57 73 58 76 59 74 60 53 61 54 62 62 63 55 64 56 65
REMARK SMILES IDX 60 66 63 67 57 68 58 69 61 70 59 71 6 72 7 73 8 74 9 75
REMARK SMILES IDX 10 77 11 78 12 79 26 80 13 81 25 82 14 83 15 84 16 85 24 86
REMARK SMILES IDX 17 87 19 88 18 89 20 90 23 91 21 92 22 93
REMARK H PARENT 3 6 83 24 51 35 8 76
REMARK Flexibility Score: inf
ROOT
ATOM      1  C   UNL A   1      38.028  19.733  24.681  1.00  0.00     0.023 C 
ENDROOT
BRANCH   1   2
ATOM      2  C   UNL A   1      39.049  20.112  25.751  1.00  0.00     0.116 C 
BRANCH   2   3
ATOM      3  N   UNL A   1      40.142  19.158  25.844  1.00  0.00    -0.352 N 
ATOM      4  O   UNL A   1      42.270  18.438  25.953  1.00  0.00    -0.269 OA
ATOM      5  C   UNL A   1      41.479  19.370  26.064  1.00  0.00     0.251 C 
ATOM      6  H   UNL A   1      39.883  18.216  25.730  1.00  0.00     0.163 HD
BRANCH   5   7
ATOM      7  C   UNL A   1      41.979  20.717  26.409  1.00  0.00     0.039 A 
ATOM      8  C   UNL A   1      42.269  21.067  27.731  1.00  0.00     0.014 A 
ATOM      9  C   UNL A   1      42.200  21.633  25.376  1.00  0.00     0.014 A 
ATOM     10  C   UNL A   1      42.672  22.367  28.032  1.00  0.00     0.010 A 
ATOM     11  C   UNL A   1      42.657  22.918  25.672  1.00  0.00     0.010 A 
ATOM     12  C   UNL A   1      42.871  23.302  27.005  1.00  0.00    -0.014 A 
BRANCH  12  13
ATOM     13  C   UNL A   1      43.338  24.674  27.319  1.00  0.00     0.031 A 
ATOM     14  C   UNL A   1      42.388  25.695  27.875  1.00  0.00     0.074 A 
ATOM     15  C   UNL A   1      44.617  25.006  27.067  1.00  0.00     0.049 A 
ATOM     16  N   UNL A   1      42.594  26.961  28.132  1.00  0.00    -0.248 NA
ATOM     17  C   UNL A   1      41.024  25.233  28.173  1.00  0.00     0.031 C 
ATOM     18  C   UNL A   1      45.628  24.103  26.518  1.00  0.00     0.029 A 
ATOM     19  N   UNL A   1      45.280  26.197  27.226  1.00  0.00    -0.354 N 
ATOM     20  C   UNL A   1      41.383  27.455  28.596  1.00  0.00     0.074 A 
ATOM     21  C   UNL A   1      40.442  26.354  28.574  1.00  0.00     0.031 C 
ATOM     22  C   UNL A   1      46.784  24.770  26.385  1.00  0.00     0.029 A 
ATOM     23  C   UNL A   1      46.582  26.156  26.796  1.00  0.00     0.049 A 
ATOM     24  H   UNL A   1      44.862  27.001  27.611  1.00  0.00     0.167 HD
ATOM     25  C   UNL A   1      41.088  28.711  29.008  1.00  0.00     0.037 A 
ATOM     26  C   UNL A   1      47.504  27.133  26.715  1.00  0.00     0.037 A 
ATOM     27  C   UNL A   1      42.033  29.796  29.050  1.00  0.00     0.049 A 
ATOM     28  C   UNL A   1      47.151  28.521  27.164  1.00  0.00     0.074 A 
ATOM     29  C   UNL A   1      41.844  31.089  29.507  1.00  0.00     0.029 A 
ATOM     30  N   UNL A   1      43.347  29.715  28.613  1.00  0.00    -0.354 N 
ATOM     31  N   UNL A   1      46.014  28.967  27.638  1.00  0.00    -0.248 NA
ATOM     32  C   UNL A   1      48.204  29.539  27.067  1.00  0.00     0.031 C 
ATOM     33  C   UNL A   1      43.033  31.801  29.312  1.00  0.00     0.029 A 
ATOM     34  C   UNL A   1      43.973  30.941  28.768  1.00  0.00     0.049 A 
ATOM     35  H   UNL A   1      43.772  28.906  28.247  1.00  0.00     0.167 HD
ATOM     36  C   UNL A   1      46.216  30.313  27.908  1.00  0.00     0.074 A 
ATOM     37  C   UNL A   1      47.589  30.610  27.553  1.00  0.00     0.031 C 
ATOM     38  C   UNL A   1      45.341  31.219  28.409  1.00  0.00     0.037 A 
BRANCH  25  39
ATOM     39  C   UNL A   1      39.675  28.987  29.427  1.00  0.00     0.064 A 
ATOM     40  C   UNL A   1      38.714  29.452  28.518  1.00  0.00     0.173 A 
ATOM     41  C   UNL A   1      39.271  28.753  30.750  1.00  0.00     0.173 A 
ATOM     42  F   UNL A   1      39.054  29.702  27.245  1.00  0.00    -0.203 F 
ATOM     43  C   UNL A   1      37.405  29.697  28.925  1.00  0.00     0.198 A 
ATOM     44  C   UNL A   1      37.956  28.979  31.148  1.00  0.00     0.198 A 
ATOM     45  F   UNL A   1      40.152  28.304  31.656  1.00  0.00    -0.203 F 
ATOM     46  F   UNL A   1      36.512  30.182  28.050  1.00  0.00    -0.200 F 
ATOM     47  C   UNL A   1      37.026  29.456  30.238  1.00  0.00     0.200 A 
ATOM     48  F   UNL A   1      37.590  28.738  32.415  1.00  0.00    -0.200 F 
ATOM     49  F   UNL A   1      35.766  29.693  30.627  1.00  0.00    -0.200 F 
ENDBRANCH  25  39
BRANCH  26  50
ATOM     50  C   UNL A   1      48.846  26.812  26.172  1.00  0.00     0.064 A 
ATOM     51  C   UNL A   1      49.829  26.230  26.982  1.00  0.00     0.173 A 
ATOM     52  C   UNL A   1      49.147  27.023  24.820  1.00  0.00     0.173 A 
ATOM     53  F   UNL A   1      49.589  26.025  28.285  1.00  0.00    -0.203 F 
ATOM     54  C   UNL A   1      51.067  25.868  26.455  1.00  0.00     0.198 A 
ATOM     55  C   UNL A   1      50.377  26.642  24.289  1.00  0.00     0.198 A 
ATOM     56  F   UNL A   1      48.233  27.572  24.005  1.00  0.00    -0.203 F 
ATOM     57  F   UNL A   1      51.998  25.325  27.252  1.00  0.00    -0.200 F 
ATOM     58  C   UNL A   1      51.336  26.065  25.108  1.00  0.00     0.200 A 
ATOM     59  F   UNL A   1      50.627  26.820  22.985  1.00  0.00    -0.200 F 
ATOM     60  F   UNL A   1      52.520  25.697  24.599  1.00  0.00    -0.200 F 
ENDBRANCH  26  50
BRANCH  38  61
ATOM     61  C   UNL A   1      45.844  32.613  28.623  1.00  0.00     0.064 A 
ATOM     62  C   UNL A   1      46.494  32.980  29.808  1.00  0.00     0.173 A 
ATOM     63  C   UNL A   1      45.726  33.573  27.607  1.00  0.00     0.173 A 
ATOM     64  F   UNL A   1      46.616  32.099  30.813  1.00  0.00    -0.203 F 
ATOM     65  C   UNL A   1      47.003  34.265  29.974  1.00  0.00     0.198 A 
ATOM     66  C   UNL A   1      46.253  34.851  27.769  1.00  0.00     0.198 A 
ATOM     67  F   UNL A   1      45.114  33.265  26.454  1.00  0.00    -0.203 F 
ATOM     68  F   UNL A   1      47.599  34.605  31.125  1.00  0.00    -0.200 F 
ATOM     69  C   UNL A   1      46.889  35.196  28.952  1.00  0.00     0.200 A 
ATOM     70  F   UNL A   1      46.149  35.747  26.777  1.00  0.00    -0.200 F 
ATOM     71  F   UNL A   1      47.388  36.431  29.108  1.00  0.00    -0.200 F 
ENDBRANCH  38  61
ENDBRANCH  12  13
ENDBRANCH   5   7
ENDBRANCH   2   3
ENDBRANCH   1   2
BRANCH   1  72
ATOM     72  C   UNL A   1      36.576  20.095  25.001  1.00  0.00     0.023 C 
BRANCH  72  73
ATOM     73  C   UNL A   1      36.352  21.530  25.475  1.00  0.00     0.116 C 
BRANCH  73  74
ATOM     74  N   UNL A   1      35.548  21.586  26.681  1.00  0.00    -0.351 N 
ATOM     75  C   UNL A   1      34.267  22.068  26.825  1.00  0.00     0.261 C 
ATOM     76  H   UNL A   1      35.972  21.235  27.498  1.00  0.00     0.163 HD
ATOM     77  O   UNL A   1      33.819  22.182  27.975  1.00  0.00    -0.268 OA
BRANCH  75  78
ATOM     78  C   UNL A   1      33.523  22.384  25.633  1.00  0.00     0.093 A 
ATOM     79  C   UNL A   1      33.406  23.606  24.997  1.00  0.00     0.040 A 
ATOM     80  S   UNL A   1      32.661  21.159  24.814  1.00  0.00    -0.137 S 
ATOM     81  C   UNL A   1      32.530  23.554  23.881  1.00  0.00     0.019 A 
ATOM     82  C   UNL A   1      32.070  22.276  23.656  1.00  0.00     0.080 A 
BRANCH  81  83
ATOM     83  S   UNL A   1      32.170  24.897  22.809  1.00  0.00    -0.122 SA
BRANCH  83  84
ATOM     84  C   UNL A   1      33.120  26.316  23.482  1.00  0.00     0.057 C 
ATOM     85  C   UNL A   1      33.516  27.288  22.369  1.00  0.00     0.043 C 
ATOM     86  C   UNL A   1      32.222  27.030  24.511  1.00  0.00     0.053 C 
ATOM     87  C   UNL A   1      34.072  28.576  22.949  1.00  0.00     0.162 C 
ATOM     88  C   UNL A   1      32.769  28.408  24.940  1.00  0.00     0.095 C 
ATOM     89  O   UNL A   1      33.113  29.190  23.797  1.00  0.00    -0.372 OA
ATOM     90  C   UNL A   1      31.733  29.177  25.749  1.00  0.00     0.066 C 
ATOM     91  C   UNL A   1      33.897  28.326  25.970  1.00  0.00     0.195 C 
ATOM     92  C   UNL A   1      31.927  28.660  27.157  1.00  0.00     0.163 C 
ATOM     93  O   UNL A   1      33.282  28.200  27.260  1.00  0.00    -0.378 OA
ENDBRANCH  83  84
ENDBRANCH  81  83
ENDBRANCH  75  78
ENDBRANCH  73  74
ENDBRANCH  72  73
ENDBRANCH   1  72
TORSDOF 13
ENDMDL
