MODEL 1
REMARK VINA RESULT:     -12.3      0.000      0.000
REMARK SMILES N#C/C(=C\c1ccc(-c2cc(C(=O)NCCCCNC(=O)c3ccc(-c4c5nc(c(-c6c(F)c(F)c(F)c(F)c6F)c6ccc([nH]6)c(-c6c(F)c(F)c(F)c(F)c6F)c6nc(c(-c7c(F)c(F)c(F)c(F)c7F)c7ccc4[nH]7)C=C6)C=C5)cc3)ccc2Cl)o1)C(=O)N1CCOCC1
REMARK SMILES IDX 16 1 15 2 14 3 12 4 13 5 11 7 9 8 10 9 87 10 86 11 88 12
REMARK SMILES IDX 85 13 8 14 5 15 6 16 89 17 7 18 4 19 3 20 2 21 1 22 90 23
REMARK SMILES IDX 91 24 92 25 93 26 97 27 94 28 96 29 95 30 17 31 18 32 19 33
REMARK SMILES IDX 20 34 21 36 22 37 23 38 84 39 24 40 83 41 25 42 26 43 27 44
REMARK SMILES IDX 77 45 28 46 82 47 76 48 78 49 29 50 81 51 75 52 74 53 30 55
REMARK SMILES IDX 62 56 42 57 61 58 43 59 46 60 60 61 79 62 44 63 45 64 59 66
REMARK SMILES IDX 80 67 47 68 31 69 32 70 40 71 33 72 34 73 38 74 41 75 35 76
REMARK SMILES IDX 36 77 39 78 37 79 63 80 64 81 72 82 65 83 66 84 70 85 73 86
REMARK SMILES IDX 67 87 68 88 71 89 69 90 48 91 49 92 57 93 50 94 51 95 55 96
REMARK SMILES IDX 58 97 52 98 53 99 56 100 54 101
REMARK H PARENT 14 6 19 35 78 54 46 65
REMARK Flexibility Score: inf
ROOT
ATOM      1  C   UNL A   1      35.636  33.947  28.985  1.00  0.00     0.023 C 
ENDROOT
BRANCH   1   2
ATOM      2  C   UNL A   1      35.539  32.953  27.825  1.00  0.00     0.116 C 
BRANCH   2   3
ATOM      3  N   UNL A   1      35.815  31.603  28.274  1.00  0.00    -0.352 N 
ATOM      4  C   UNL A   1      35.240  30.388  27.992  1.00  0.00     0.251 C 
ATOM      5  O   UNL A   1      35.750  29.395  28.513  1.00  0.00    -0.269 OA
ATOM      6  H   UNL A   1      36.564  31.544  28.909  1.00  0.00     0.163 HD
BRANCH   4   7
ATOM      7  C   UNL A   1      34.070  30.199  27.079  1.00  0.00     0.040 A 
ATOM      8  C   UNL A   1      33.195  29.061  25.079  1.00  0.00     0.037 A 
ATOM      9  C   UNL A   1      34.234  29.307  25.998  1.00  0.00     0.027 A 
ATOM     10  C   UNL A   1      31.977  29.736  25.246  1.00  0.00     0.052 A 
ATOM     11  C   UNL A   1      31.793  30.594  26.331  1.00  0.00     0.022 A 
ATOM     12  Cl  UNL A   1      30.634  29.530  24.175  1.00  0.00    -0.084 Cl
ATOM     13  C   UNL A   1      32.823  30.802  27.251  1.00  0.00     0.015 A 
BRANCH   8  14
ATOM     14  C   UNL A   1      33.411  28.140  23.975  1.00  0.00     0.136 A 
ATOM     15  C   UNL A   1      33.487  26.096  23.086  1.00  0.00     0.129 A 
ATOM     16  C   UNL A   1      33.653  27.028  22.064  1.00  0.00     0.051 A 
ATOM     17  O   UNL A   1      33.311  26.808  24.258  1.00  0.00    -0.457 OA
ATOM     18  C   UNL A   1      33.652  28.319  22.635  1.00  0.00     0.051 A 
BRANCH  15  19
ATOM     19  C   UNL A   1      33.466  24.661  23.044  1.00  0.00     0.072 C 
ATOM     20  C   UNL A   1      32.385  23.911  23.373  1.00  0.00     0.121 C 
BRANCH  20  21
ATOM     21  C   UNL A   1      31.082  24.692  23.433  1.00  0.00     0.105 C 
ATOM     22  N   UNL A   1      30.002  25.340  23.483  1.00  0.00    -0.192 NA
ENDBRANCH  20  21
BRANCH  20  23
ATOM     23  C   UNL A   1      32.367  22.441  23.157  1.00  0.00     0.264 C 
ATOM     24  O   UNL A   1      32.382  22.020  22.001  1.00  0.00    -0.268 OA
ATOM     25  N   UNL A   1      32.398  21.581  24.246  1.00  0.00    -0.333 N 
ATOM     26  C   UNL A   1      32.088  21.865  25.657  1.00  0.00     0.148 C 
ATOM     27  C   UNL A   1      32.805  20.188  24.034  1.00  0.00     0.148 C 
ATOM     28  C   UNL A   1      33.277  21.471  26.548  1.00  0.00     0.181 C 
ATOM     29  C   UNL A   1      33.989  19.862  24.954  1.00  0.00     0.181 C 
ATOM     30  O   UNL A   1      33.650  20.100  26.333  1.00  0.00    -0.378 OA
ENDBRANCH  20  23
ENDBRANCH  15  19
ENDBRANCH   8  14
ENDBRANCH   4   7
ENDBRANCH   2   3
ENDBRANCH   1   2
BRANCH   1  31
ATOM     31  C   UNL A   1      34.536  35.013  29.003  1.00  0.00     0.023 C 
BRANCH  31  32
ATOM     32  C   UNL A   1      33.182  34.542  29.527  1.00  0.00     0.116 C 
BRANCH  32  33
ATOM     33  N   UNL A   1      32.542  35.495  30.423  1.00  0.00    -0.352 N 
ATOM     34  C   UNL A   1      32.841  35.772  31.737  1.00  0.00     0.251 C 
ATOM     35  H   UNL A   1      31.797  36.010  30.037  1.00  0.00     0.163 HD
ATOM     36  O   UNL A   1      32.150  36.545  32.385  1.00  0.00    -0.269 OA
BRANCH  34  37
ATOM     37  C   UNL A   1      33.983  35.085  32.371  1.00  0.00     0.039 A 
ATOM     38  C   UNL A   1      33.796  33.794  32.873  1.00  0.00     0.014 A 
ATOM     39  C   UNL A   1      35.240  35.692  32.421  1.00  0.00     0.014 A 
ATOM     40  C   UNL A   1      34.893  33.075  33.347  1.00  0.00     0.010 A 
ATOM     41  C   UNL A   1      36.342  34.953  32.840  1.00  0.00     0.010 A 
ATOM     42  C   UNL A   1      36.181  33.634  33.291  1.00  0.00    -0.014 A 
BRANCH  42  43
ATOM     43  C   UNL A   1      37.380  32.844  33.663  1.00  0.00     0.031 A 
ATOM     44  C   UNL A   1      38.114  33.141  34.938  1.00  0.00     0.074 A 
ATOM     45  C   UNL A   1      37.857  31.924  32.802  1.00  0.00     0.049 A 
ATOM     46  N   UNL A   1      39.238  32.638  35.381  1.00  0.00    -0.248 NA
ATOM     47  C   UNL A   1      37.522  34.161  35.817  1.00  0.00     0.031 C 
ATOM     48  C   UNL A   1      37.262  31.587  31.509  1.00  0.00     0.029 A 
ATOM     49  N   UNL A   1      38.967  31.120  32.877  1.00  0.00    -0.354 N 
ATOM     50  C   UNL A   1      39.498  33.294  36.576  1.00  0.00     0.074 A 
ATOM     51  C   UNL A   1      38.437  34.258  36.771  1.00  0.00     0.031 C 
ATOM     52  C   UNL A   1      38.008  30.642  30.913  1.00  0.00     0.029 A 
ATOM     53  C   UNL A   1      39.152  30.333  31.766  1.00  0.00     0.049 A 
ATOM     54  H   UNL A   1      39.574  31.108  33.651  1.00  0.00     0.167 HD
ATOM     55  C   UNL A   1      40.522  33.095  37.440  1.00  0.00     0.037 A 
ATOM     56  C   UNL A   1      40.139  29.469  31.464  1.00  0.00     0.037 A 
ATOM     57  C   UNL A   1      41.556  32.111  37.258  1.00  0.00     0.049 A 
ATOM     58  C   UNL A   1      41.255  29.255  32.451  1.00  0.00     0.074 A 
ATOM     59  C   UNL A   1      42.588  31.776  38.117  1.00  0.00     0.029 A 
ATOM     60  N   UNL A   1      41.690  31.304  36.139  1.00  0.00    -0.354 N 
ATOM     61  N   UNL A   1      41.449  29.826  33.615  1.00  0.00    -0.248 NA
ATOM     62  C   UNL A   1      42.286  28.275  32.082  1.00  0.00     0.031 C 
ATOM     63  C   UNL A   1      43.370  30.794  37.500  1.00  0.00     0.029 A 
ATOM     64  C   UNL A   1      42.800  30.487  36.274  1.00  0.00     0.049 A 
ATOM     65  H   UNL A   1      41.084  31.309  35.363  1.00  0.00     0.167 HD
ATOM     66  C   UNL A   1      42.608  29.260  34.128  1.00  0.00     0.074 A 
ATOM     67  C   UNL A   1      43.065  28.290  33.155  1.00  0.00     0.031 C 
ATOM     68  C   UNL A   1      43.238  29.523  35.298  1.00  0.00     0.037 A 
BRANCH  55  69
ATOM     69  C   UNL A   1      40.573  33.956  38.666  1.00  0.00     0.064 A 
ATOM     70  C   UNL A   1      41.315  35.146  38.700  1.00  0.00     0.173 A 
ATOM     71  C   UNL A   1      39.831  33.612  39.807  1.00  0.00     0.173 A 
ATOM     72  F   UNL A   1      42.049  35.513  37.638  1.00  0.00    -0.203 F 
ATOM     73  C   UNL A   1      41.332  35.948  39.837  1.00  0.00     0.198 A 
ATOM     74  C   UNL A   1      39.830  34.431  40.934  1.00  0.00     0.198 A 
ATOM     75  F   UNL A   1      39.101  32.487  39.825  1.00  0.00    -0.203 F 
ATOM     76  F   UNL A   1      42.083  37.058  39.860  1.00  0.00    -0.200 F 
ATOM     77  C   UNL A   1      40.585  35.594  40.950  1.00  0.00     0.200 A 
ATOM     78  F   UNL A   1      39.099  34.092  42.004  1.00  0.00    -0.200 F 
ATOM     79  F   UNL A   1      40.597  36.371  42.042  1.00  0.00    -0.200 F 
ENDBRANCH  55  69
BRANCH  56  80
ATOM     80  C   UNL A   1      40.112  28.730  30.177  1.00  0.00     0.064 A 
ATOM     81  C   UNL A   1      39.479  27.484  30.076  1.00  0.00     0.173 A 
ATOM     82  C   UNL A   1      40.722  29.248  29.025  1.00  0.00     0.173 A 
ATOM     83  F   UNL A   1      38.900  26.938  31.156  1.00  0.00    -0.203 F 
ATOM     84  C   UNL A   1      39.477  26.773  28.877  1.00  0.00     0.198 A 
ATOM     85  C   UNL A   1      40.696  28.549  27.820  1.00  0.00     0.198 A 
ATOM     86  F   UNL A   1      41.336  30.439  29.068  1.00  0.00    -0.203 F 
ATOM     87  F   UNL A   1      38.903  25.563  28.820  1.00  0.00    -0.200 F 
ATOM     88  C   UNL A   1      40.080  27.308  27.749  1.00  0.00     0.200 A 
ATOM     89  F   UNL A   1      41.269  29.075  26.729  1.00  0.00    -0.200 F 
ATOM     90  F   UNL A   1      40.075  26.625  26.596  1.00  0.00    -0.200 F 
ENDBRANCH  56  80
BRANCH  68  91
ATOM     91  C   UNL A   1      44.477  28.734  35.603  1.00  0.00     0.064 A 
ATOM     92  C   UNL A   1      44.414  27.505  36.276  1.00  0.00     0.173 A 
ATOM     93  C   UNL A   1      45.733  29.194  35.182  1.00  0.00     0.173 A 
ATOM     94  F   UNL A   1      43.237  27.033  36.712  1.00  0.00    -0.203 F 
ATOM     95  C   UNL A   1      45.570  26.774  36.534  1.00  0.00     0.198 A 
ATOM     96  C   UNL A   1      46.883  28.447  35.420  1.00  0.00     0.198 A 
ATOM     97  F   UNL A   1      45.844  30.360  34.531  1.00  0.00    -0.203 F 
ATOM     98  F   UNL A   1      45.494  25.623  37.215  1.00  0.00    -0.200 F 
ATOM     99  C   UNL A   1      46.802  27.241  36.100  1.00  0.00     0.200 A 
ATOM    100  F   UNL A   1      48.072  28.894  34.989  1.00  0.00    -0.200 F 
ATOM    101  F   UNL A   1      47.913  26.532  36.344  1.00  0.00    -0.200 F 
ENDBRANCH  68  91
ENDBRANCH  42  43
ENDBRANCH  34  37
ENDBRANCH  32  33
ENDBRANCH  31  32
ENDBRANCH   1  31
TORSDOF 15
ENDMDL
MODEL 2
REMARK VINA RESULT:     -12.3      6.693     12.208
REMARK SMILES N#C/C(=C\c1ccc(-c2cc(C(=O)NCCCCNC(=O)c3ccc(-c4c5nc(c(-c6c(F)c(F)c(F)c(F)c6F)c6ccc([nH]6)c(-c6c(F)c(F)c(F)c(F)c6F)c6nc(c(-c7c(F)c(F)c(F)c(F)c7F)c7ccc4[nH]7)C=C6)C=C5)cc3)ccc2Cl)o1)C(=O)N1CCOCC1
REMARK SMILES IDX 16 1 15 2 14 3 12 4 13 5 11 7 9 8 10 9 87 10 86 11 88 12
REMARK SMILES IDX 85 13 8 14 5 15 6 16 89 17 7 18 4 19 3 20 2 21 1 22 90 23
REMARK SMILES IDX 91 24 92 25 93 26 97 27 94 28 96 29 95 30 17 31 18 32 19 33
REMARK SMILES IDX 20 34 21 36 22 37 23 38 84 39 24 40 83 41 25 42 26 43 27 44
REMARK SMILES IDX 77 45 28 46 82 47 76 48 78 49 29 50 81 51 75 52 74 53 30 55
REMARK SMILES IDX 62 56 42 57 61 58 43 59 46 60 60 61 79 62 44 63 45 64 59 66
REMARK SMILES IDX 80 67 47 68 31 69 32 70 40 71 33 72 34 73 38 74 41 75 35 76
REMARK SMILES IDX 36 77 39 78 37 79 63 80 64 81 72 82 65 83 66 84 70 85 73 86
REMARK SMILES IDX 67 87 68 88 71 89 69 90 48 91 49 92 57 93 50 94 51 95 55 96
REMARK SMILES IDX 58 97 52 98 53 99 56 100 54 101
REMARK H PARENT 14 6 19 35 78 54 46 65
REMARK Flexibility Score: inf
ROOT
ATOM      1  C   UNL A   1      41.360  21.581  26.278  1.00  0.00     0.023 C 
ENDROOT
BRANCH   1   2
ATOM      2  C   UNL A   1      40.382  22.006  27.377  1.00  0.00     0.116 C 
BRANCH   2   3
ATOM      3  N   UNL A   1      39.833  23.319  27.103  1.00  0.00    -0.352 N 
ATOM      4  C   UNL A   1      38.645  23.741  26.558  1.00  0.00     0.251 C 
ATOM      5  O   UNL A   1      38.457  24.957  26.505  1.00  0.00    -0.269 OA
ATOM      6  H   UNL A   1      40.430  24.057  27.360  1.00  0.00     0.163 HD
BRANCH   4   7
ATOM      7  C   UNL A   1      37.571  22.826  26.062  1.00  0.00     0.040 A 
ATOM      8  C   UNL A   1      35.152  22.409  25.891  1.00  0.00     0.037 A 
ATOM      9  C   UNL A   1      36.236  23.203  26.314  1.00  0.00     0.027 A 
ATOM     10  C   UNL A   1      35.421  21.209  25.216  1.00  0.00     0.052 A 
ATOM     11  C   UNL A   1      36.737  20.844  24.932  1.00  0.00     0.022 A 
ATOM     12  Cl  UNL A   1      34.175  20.143  24.663  1.00  0.00    -0.084 Cl
ATOM     13  C   UNL A   1      37.799  21.659  25.330  1.00  0.00     0.015 A 
BRANCH   8  14
ATOM     14  C   UNL A   1      33.791  22.833  26.180  1.00  0.00     0.136 A 
ATOM     15  C   UNL A   1      31.839  23.750  25.612  1.00  0.00     0.129 A 
ATOM     16  C   UNL A   1      31.718  23.211  26.892  1.00  0.00     0.051 A 
ATOM     17  O   UNL A   1      33.124  23.480  25.180  1.00  0.00    -0.457 OA
ATOM     18  C   UNL A   1      32.967  22.673  27.268  1.00  0.00     0.051 A 
BRANCH  15  19
ATOM     19  C   UNL A   1      30.883  24.450  24.802  1.00  0.00     0.072 C 
ATOM     20  C   UNL A   1      30.350  25.654  25.130  1.00  0.00     0.121 C 
BRANCH  20  21
ATOM     21  C   UNL A   1      31.105  26.388  26.226  1.00  0.00     0.105 C 
ATOM     22  N   UNL A   1      31.732  26.998  27.135  1.00  0.00    -0.192 NA
ENDBRANCH  20  21
BRANCH  20  23
ATOM     23  C   UNL A   1      29.490  26.405  24.180  1.00  0.00     0.264 C 
ATOM     24  O   UNL A   1      28.269  26.318  24.304  1.00  0.00    -0.268 OA
ATOM     25  N   UNL A   1      30.068  27.229  23.225  1.00  0.00    -0.333 N 
ATOM     26  C   UNL A   1      31.454  27.239  22.730  1.00  0.00     0.148 C 
ATOM     27  C   UNL A   1      29.245  28.267  22.596  1.00  0.00     0.148 C 
ATOM     28  C   UNL A   1      32.065  28.639  22.900  1.00  0.00     0.181 C 
ATOM     29  C   UNL A   1      29.912  29.634  22.798  1.00  0.00     0.181 C 
ATOM     30  O   UNL A   1      31.249  29.638  22.265  1.00  0.00    -0.378 OA
ENDBRANCH  20  23
ENDBRANCH  15  19
ENDBRANCH   8  14
ENDBRANCH   4   7
ENDBRANCH   2   3
ENDBRANCH   1   2
BRANCH   1  31
ATOM     31  C   UNL A   1      41.441  20.068  26.049  1.00  0.00     0.023 C 
BRANCH  31  32
ATOM     32  C   UNL A   1      42.778  19.426  26.405  1.00  0.00     0.116 C 
BRANCH  32  33
ATOM     33  N   UNL A   1      43.483  18.876  25.257  1.00  0.00    -0.352 N 
ATOM     34  C   UNL A   1      44.402  19.491  24.438  1.00  0.00     0.251 C 
ATOM     35  H   UNL A   1      43.275  17.939  25.037  1.00  0.00     0.163 HD
ATOM     36  O   UNL A   1      44.845  18.916  23.454  1.00  0.00    -0.269 OA
BRANCH  34  37
ATOM     37  C   UNL A   1      44.811  20.877  24.736  1.00  0.00     0.039 A 
ATOM     38  C   UNL A   1      44.476  21.886  23.830  1.00  0.00     0.014 A 
ATOM     39  C   UNL A   1      45.474  21.183  25.928  1.00  0.00     0.014 A 
ATOM     40  C   UNL A   1      44.728  23.218  24.158  1.00  0.00     0.010 A 
ATOM     41  C   UNL A   1      45.672  22.514  26.280  1.00  0.00     0.010 A 
ATOM     42  C   UNL A   1      45.287  23.544  25.406  1.00  0.00    -0.014 A 
BRANCH  42  43
ATOM     43  C   UNL A   1      45.441  24.954  25.836  1.00  0.00     0.031 A 
ATOM     44  C   UNL A   1      46.789  25.615  25.787  1.00  0.00     0.074 A 
ATOM     45  C   UNL A   1      44.384  25.605  26.359  1.00  0.00     0.049 A 
ATOM     46  N   UNL A   1      47.145  26.797  26.219  1.00  0.00    -0.248 NA
ATOM     47  C   UNL A   1      47.886  24.830  25.201  1.00  0.00     0.031 C 
ATOM     48  C   UNL A   1      43.039  25.049  26.510  1.00  0.00     0.029 A 
ATOM     49  N   UNL A   1      44.282  26.870  26.882  1.00  0.00    -0.354 N 
ATOM     50  C   UNL A   1      48.509  26.890  25.978  1.00  0.00     0.074 A 
ATOM     51  C   UNL A   1      48.924  25.631  25.398  1.00  0.00     0.031 C 
ATOM     52  C   UNL A   1      42.244  25.968  27.081  1.00  0.00     0.029 A 
ATOM     53  C   UNL A   1      43.030  27.164  27.367  1.00  0.00     0.049 A 
ATOM     54  H   UNL A   1      45.032  27.506  26.908  1.00  0.00     0.167 HD
ATOM     55  C   UNL A   1      49.335  27.939  26.206  1.00  0.00     0.037 A 
ATOM     56  C   UNL A   1      42.573  28.270  27.985  1.00  0.00     0.037 A 
ATOM     57  C   UNL A   1      48.910  29.201  26.751  1.00  0.00     0.049 A 
ATOM     58  C   UNL A   1      43.509  29.426  28.209  1.00  0.00     0.074 A 
ATOM     59  C   UNL A   1      49.655  30.352  26.941  1.00  0.00     0.029 A 
ATOM     60  N   UNL A   1      47.627  29.477  27.196  1.00  0.00    -0.354 N 
ATOM     61  N   UNL A   1      44.780  29.531  27.906  1.00  0.00    -0.248 NA
ATOM     62  C   UNL A   1      42.945  30.618  28.858  1.00  0.00     0.031 C 
ATOM     63  C   UNL A   1      48.831  31.312  27.538  1.00  0.00     0.029 A 
ATOM     64  C   UNL A   1      47.562  30.773  27.681  1.00  0.00     0.049 A 
ATOM     65  H   UNL A   1      46.872  28.845  27.171  1.00  0.00     0.167 HD
ATOM     66  C   UNL A   1      45.163  30.804  28.305  1.00  0.00     0.074 A 
ATOM     67  C   UNL A   1      43.985  31.440  28.857  1.00  0.00     0.031 C 
ATOM     68  C   UNL A   1      46.381  31.392  28.223  1.00  0.00     0.037 A 
BRANCH  55  69
ATOM     69  C   UNL A   1      50.784  27.769  25.859  1.00  0.00     0.064 A 
ATOM     70  C   UNL A   1      51.253  27.948  24.549  1.00  0.00     0.173 A 
ATOM     71  C   UNL A   1      51.723  27.471  26.858  1.00  0.00     0.173 A 
ATOM     72  F   UNL A   1      50.393  28.224  23.556  1.00  0.00    -0.203 F 
ATOM     73  C   UNL A   1      52.605  27.811  24.247  1.00  0.00     0.198 A 
ATOM     74  C   UNL A   1      53.078  27.360  26.557  1.00  0.00     0.198 A 
ATOM     75  F   UNL A   1      51.328  27.295  28.128  1.00  0.00    -0.203 F 
ATOM     76  F   UNL A   1      53.023  27.944  22.981  1.00  0.00    -0.200 F 
ATOM     77  C   UNL A   1      53.517  27.524  25.252  1.00  0.00     0.200 A 
ATOM     78  F   UNL A   1      53.959  27.094  27.530  1.00  0.00    -0.200 F 
ATOM     79  F   UNL A   1      54.819  27.400  24.960  1.00  0.00    -0.200 F 
ENDBRANCH  55  69
BRANCH  56  80
ATOM     80  C   UNL A   1      41.156  28.342  28.426  1.00  0.00     0.064 A 
ATOM     81  C   UNL A   1      40.171  28.884  27.590  1.00  0.00     0.173 A 
ATOM     82  C   UNL A   1      40.760  27.880  29.689  1.00  0.00     0.173 A 
ATOM     83  F   UNL A   1      40.506  29.358  26.381  1.00  0.00    -0.203 F 
ATOM     84  C   UNL A   1      38.846  28.982  28.010  1.00  0.00     0.198 A 
ATOM     85  C   UNL A   1      39.431  27.953  30.098  1.00  0.00     0.198 A 
ATOM     86  F   UNL A   1      41.665  27.348  30.524  1.00  0.00    -0.203 F 
ATOM     87  F   UNL A   1      37.931  29.546  27.209  1.00  0.00    -0.200 F 
ATOM     88  C   UNL A   1      38.476  28.512  29.261  1.00  0.00     0.200 A 
ATOM     89  F   UNL A   1      39.074  27.486  31.302  1.00  0.00    -0.200 F 
ATOM     90  F   UNL A   1      37.201  28.604  29.663  1.00  0.00    -0.200 F 
ENDBRANCH  56  80
BRANCH  68  91
ATOM     91  C   UNL A   1      46.496  32.802  28.721  1.00  0.00     0.064 A 
ATOM     92  C   UNL A   1      46.855  33.084  30.047  1.00  0.00     0.173 A 
ATOM     93  C   UNL A   1      46.284  33.881  27.850  1.00  0.00     0.173 A 
ATOM     94  F   UNL A   1      47.052  32.085  30.920  1.00  0.00    -0.203 F 
ATOM     95  C   UNL A   1      46.977  34.398  30.489  1.00  0.00     0.198 A 
ATOM     96  C   UNL A   1      46.433  35.193  28.290  1.00  0.00     0.198 A 
ATOM     97  F   UNL A   1      45.943  33.663  26.572  1.00  0.00    -0.203 F 
ATOM     98  F   UNL A   1      47.281  34.646  31.770  1.00  0.00    -0.200 F 
ATOM     99  C   UNL A   1      46.774  35.451  29.609  1.00  0.00     0.200 A 
ATOM    100  F   UNL A   1      46.248  36.210  27.435  1.00  0.00    -0.200 F 
ATOM    101  F   UNL A   1      46.900  36.716  30.035  1.00  0.00    -0.200 F 
ENDBRANCH  68  91
ENDBRANCH  42  43
ENDBRANCH  34  37
ENDBRANCH  32  33
ENDBRANCH  31  32
ENDBRANCH   1  31
TORSDOF 15
ENDMDL
MODEL 3
REMARK VINA RESULT:     -12.2      4.994      9.228
REMARK SMILES N#C/C(=C\c1ccc(-c2cc(C(=O)NCCCCNC(=O)c3ccc(-c4c5nc(c(-c6c(F)c(F)c(F)c(F)c6F)c6ccc([nH]6)c(-c6c(F)c(F)c(F)c(F)c6F)c6nc(c(-c7c(F)c(F)c(F)c(F)c7F)c7ccc4[nH]7)C=C6)C=C5)cc3)ccc2Cl)o1)C(=O)N1CCOCC1
REMARK SMILES IDX 16 1 15 2 14 3 12 4 13 5 11 7 9 8 10 9 87 10 86 11 88 12
REMARK SMILES IDX 85 13 8 14 5 15 6 16 89 17 7 18 4 19 3 20 2 21 1 22 90 23
REMARK SMILES IDX 91 24 92 25 93 26 97 27 94 28 96 29 95 30 17 31 18 32 19 33
REMARK SMILES IDX 20 34 21 36 22 37 23 38 84 39 24 40 83 41 25 42 26 43 27 44
REMARK SMILES IDX 77 45 28 46 82 47 76 48 78 49 29 50 81 51 75 52 74 53 30 55
REMARK SMILES IDX 62 56 42 57 61 58 43 59 46 60 60 61 79 62 44 63 45 64 59 66
REMARK SMILES IDX 80 67 47 68 31 69 32 70 40 71 33 72 34 73 38 74 41 75 35 76
REMARK SMILES IDX 36 77 39 78 37 79 63 80 64 81 72 82 65 83 66 84 70 85 73 86
REMARK SMILES IDX 67 87 68 88 71 89 69 90 48 91 49 92 57 93 50 94 51 95 55 96
REMARK SMILES IDX 58 97 52 98 53 99 56 100 54 101
REMARK H PARENT 14 6 19 35 78 54 46 65
REMARK Flexibility Score: inf
ROOT
ATOM      1  C   UNL A   1      34.140  33.892  31.419  1.00  0.00     0.023 C 
ENDROOT
BRANCH   1   2
ATOM      2  C   UNL A   1      34.931  34.794  32.371  1.00  0.00     0.116 C 
BRANCH   2   3
ATOM      3  N   UNL A   1      36.264  35.045  31.861  1.00  0.00    -0.352 N 
ATOM      4  C   UNL A   1      37.503  34.557  32.200  1.00  0.00     0.251 C 
ATOM      5  O   UNL A   1      38.457  34.945  31.525  1.00  0.00    -0.269 OA
ATOM      6  H   UNL A   1      36.287  35.696  31.123  1.00  0.00     0.163 HD
BRANCH   4   7
ATOM      7  C   UNL A   1      37.751  33.576  33.301  1.00  0.00     0.040 A 
ATOM      8  C   UNL A   1      38.629  31.358  33.908  1.00  0.00     0.037 A 
ATOM      9  C   UNL A   1      38.354  32.351  32.947  1.00  0.00     0.027 A 
ATOM     10  C   UNL A   1      38.276  31.601  35.244  1.00  0.00     0.052 A 
ATOM     11  C   UNL A   1      37.711  32.823  35.609  1.00  0.00     0.022 A 
ATOM     12  Cl  UNL A   1      38.547  30.454  36.511  1.00  0.00    -0.084 Cl
ATOM     13  C   UNL A   1      37.475  33.809  34.649  1.00  0.00     0.015 A 
BRANCH   8  14
ATOM     14  C   UNL A   1      39.244  30.106  33.498  1.00  0.00     0.136 A 
ATOM     15  C   UNL A   1      40.971  28.702  33.351  1.00  0.00     0.129 A 
ATOM     16  C   UNL A   1      39.831  28.051  32.883  1.00  0.00     0.051 A 
ATOM     17  O   UNL A   1      40.578  29.965  33.752  1.00  0.00    -0.457 OA
ATOM     18  C   UNL A   1      38.750  28.956  32.932  1.00  0.00     0.051 A 
BRANCH  15  19
ATOM     19  C   UNL A   1      42.327  28.244  33.459  1.00  0.00     0.072 C 
ATOM     20  C   UNL A   1      42.924  27.920  34.633  1.00  0.00     0.121 C 
BRANCH  20  21
ATOM     21  C   UNL A   1      41.956  27.718  35.787  1.00  0.00     0.105 C 
ATOM     22  N   UNL A   1      41.153  27.551  36.745  1.00  0.00    -0.192 NA
ENDBRANCH  20  21
BRANCH  20  23
ATOM     23  C   UNL A   1      44.274  27.300  34.670  1.00  0.00     0.264 C 
ATOM     24  O   UNL A   1      45.255  28.040  34.741  1.00  0.00    -0.268 OA
ATOM     25  N   UNL A   1      44.401  25.919  34.688  1.00  0.00    -0.333 N 
ATOM     26  C   UNL A   1      43.411  24.895  34.317  1.00  0.00     0.148 C 
ATOM     27  C   UNL A   1      45.664  25.332  35.147  1.00  0.00     0.148 C 
ATOM     28  C   UNL A   1      43.200  23.917  35.484  1.00  0.00     0.181 C 
ATOM     29  C   UNL A   1      45.382  24.366  36.306  1.00  0.00     0.181 C 
ATOM     30  O   UNL A   1      44.448  23.345  35.909  1.00  0.00    -0.378 OA
ENDBRANCH  20  23
ENDBRANCH  15  19
ENDBRANCH   8  14
ENDBRANCH   4   7
ENDBRANCH   2   3
ENDBRANCH   1   2
BRANCH   1  31
ATOM     31  C   UNL A   1      34.899  32.650  30.942  1.00  0.00     0.023 C 
BRANCH  31  32
ATOM     32  C   UNL A   1      35.282  32.647  29.465  1.00  0.00     0.116 C 
BRANCH  32  33
ATOM     33  N   UNL A   1      34.407  31.827  28.639  1.00  0.00    -0.352 N 
ATOM     34  C   UNL A   1      34.678  30.621  28.037  1.00  0.00     0.251 C 
ATOM     35  H   UNL A   1      33.501  32.185  28.492  1.00  0.00     0.163 HD
ATOM     36  O   UNL A   1      33.858  30.094  27.298  1.00  0.00    -0.269 OA
BRANCH  34  37
ATOM     37  C   UNL A   1      35.994  29.990  28.258  1.00  0.00     0.039 A 
ATOM     38  C   UNL A   1      36.963  30.091  27.257  1.00  0.00     0.014 A 
ATOM     39  C   UNL A   1      36.283  29.351  29.466  1.00  0.00     0.014 A 
ATOM     40  C   UNL A   1      38.256  29.626  27.502  1.00  0.00     0.010 A 
ATOM     41  C   UNL A   1      37.586  28.941  29.730  1.00  0.00     0.010 A 
ATOM     42  C   UNL A   1      38.587  29.089  28.757  1.00  0.00    -0.014 A 
BRANCH  42  43
ATOM     43  C   UNL A   1      39.982  28.712  29.090  1.00  0.00     0.031 A 
ATOM     44  C   UNL A   1      40.880  29.687  29.794  1.00  0.00     0.074 A 
ATOM     45  C   UNL A   1      40.463  27.525  28.670  1.00  0.00     0.049 A 
ATOM     46  N   UNL A   1      42.155  29.583  30.072  1.00  0.00    -0.248 NA
ATOM     47  C   UNL A   1      40.271  30.958  30.216  1.00  0.00     0.031 C 
ATOM     48  C   UNL A   1      39.702  26.520  27.927  1.00  0.00     0.029 A 
ATOM     49  N   UNL A   1      41.715  26.976  28.788  1.00  0.00    -0.354 N 
ATOM     50  C   UNL A   1      42.505  30.782  30.680  1.00  0.00     0.074 A 
ATOM     51  C   UNL A   1      41.319  31.612  30.696  1.00  0.00     0.031 C 
ATOM     52  C   UNL A   1      40.500  25.472  27.661  1.00  0.00     0.029 A 
ATOM     53  C   UNL A   1      41.835  25.747  28.183  1.00  0.00     0.049 A 
ATOM     54  H   UNL A   1      42.456  27.417  29.260  1.00  0.00     0.167 HD
ATOM     55  C   UNL A   1      43.704  31.146  31.194  1.00  0.00     0.037 A 
ATOM     56  C   UNL A   1      42.905  24.941  28.052  1.00  0.00     0.037 A 
ATOM     57  C   UNL A   1      44.870  30.303  31.206  1.00  0.00     0.049 A 
ATOM     58  C   UNL A   1      44.220  25.365  28.647  1.00  0.00     0.074 A 
ATOM     59  C   UNL A   1      46.106  30.550  31.777  1.00  0.00     0.029 A 
ATOM     60  N   UNL A   1      44.945  29.050  30.618  1.00  0.00    -0.354 N 
ATOM     61  N   UNL A   1      44.520  26.468  29.289  1.00  0.00    -0.248 NA
ATOM     62  C   UNL A   1      45.345  24.429  28.503  1.00  0.00     0.031 C 
ATOM     63  C   UNL A   1      46.941  29.463  31.499  1.00  0.00     0.029 A 
ATOM     64  C   UNL A   1      46.212  28.520  30.792  1.00  0.00     0.049 A 
ATOM     65  H   UNL A   1      44.206  28.602  30.146  1.00  0.00     0.167 HD
ATOM     66  C   UNL A   1      45.857  26.351  29.644  1.00  0.00     0.074 A 
ATOM     67  C   UNL A   1      46.306  25.062  29.161  1.00  0.00     0.031 C 
ATOM     68  C   UNL A   1      46.641  27.233  30.308  1.00  0.00     0.037 A 
BRANCH  55  69
ATOM     69  C   UNL A   1      43.815  32.517  31.791  1.00  0.00     0.064 A 
ATOM     70  C   UNL A   1      43.555  32.750  33.150  1.00  0.00     0.173 A 
ATOM     71  C   UNL A   1      44.232  33.602  31.006  1.00  0.00     0.173 A 
ATOM     72  F   UNL A   1      43.143  31.747  33.940  1.00  0.00    -0.203 F 
ATOM     73  C   UNL A   1      43.686  34.023  33.696  1.00  0.00     0.198 A 
ATOM     74  C   UNL A   1      44.386  34.870  31.562  1.00  0.00     0.198 A 
ATOM     75  F   UNL A   1      44.497  33.432  29.702  1.00  0.00    -0.203 F 
ATOM     76  F   UNL A   1      43.392  34.230  34.987  1.00  0.00    -0.200 F 
ATOM     77  C   UNL A   1      44.108  35.081  32.903  1.00  0.00     0.200 A 
ATOM     78  F   UNL A   1      44.804  35.888  30.797  1.00  0.00    -0.200 F 
ATOM     79  F   UNL A   1      44.240  36.305  33.433  1.00  0.00    -0.200 F 
ENDBRANCH  55  69
BRANCH  56  80
ATOM     80  C   UNL A   1      42.777  23.645  27.339  1.00  0.00     0.064 A 
ATOM     81  C   UNL A   1      42.272  22.513  27.991  1.00  0.00     0.173 A 
ATOM     82  C   UNL A   1      43.160  23.509  25.997  1.00  0.00     0.173 A 
ATOM     83  F   UNL A   1      41.910  22.589  29.281  1.00  0.00    -0.203 F 
ATOM     84  C   UNL A   1      42.177  21.287  27.335  1.00  0.00     0.198 A 
ATOM     85  C   UNL A   1      43.041  22.290  25.334  1.00  0.00     0.198 A 
ATOM     86  F   UNL A   1      43.645  24.565  25.327  1.00  0.00    -0.203 F 
ATOM     87  F   UNL A   1      41.732  20.209  27.996  1.00  0.00    -0.200 F 
ATOM     88  C   UNL A   1      42.556  21.178  26.006  1.00  0.00     0.200 A 
ATOM     89  F   UNL A   1      43.396  22.192  24.046  1.00  0.00    -0.200 F 
ATOM     90  F   UNL A   1      42.462  20.000  25.375  1.00  0.00    -0.200 F 
ENDBRANCH  56  80
BRANCH  68  91
ATOM     91  C   UNL A   1      48.060  26.825  30.574  1.00  0.00     0.064 A 
ATOM     92  C   UNL A   1      48.395  26.003  31.659  1.00  0.00     0.173 A 
ATOM     93  C   UNL A   1      49.088  27.230  29.710  1.00  0.00     0.173 A 
ATOM     94  F   UNL A   1      47.448  25.605  32.522  1.00  0.00    -0.203 F 
ATOM     95  C   UNL A   1      49.713  25.616  31.881  1.00  0.00     0.198 A 
ATOM     96  C   UNL A   1      50.402  26.819  29.921  1.00  0.00     0.198 A 
ATOM     97  F   UNL A   1      48.818  28.013  28.656  1.00  0.00    -0.203 F 
ATOM     98  F   UNL A   1      50.018  24.864  32.948  1.00  0.00    -0.200 F 
ATOM     99  C   UNL A   1      50.714  26.017  31.009  1.00  0.00     0.200 A 
ATOM    100  F   UNL A   1      51.366  27.199  29.070  1.00  0.00    -0.200 F 
ATOM    101  F   UNL A   1      51.982  25.638  31.220  1.00  0.00    -0.200 F 
ENDBRANCH  68  91
ENDBRANCH  42  43
ENDBRANCH  34  37
ENDBRANCH  32  33
ENDBRANCH  31  32
ENDBRANCH   1  31
TORSDOF 15
ENDMDL
