MODEL 1
REMARK VINA RESULT:     -11.7      0.000      0.000
REMARK SMILES CCN(CC)C(=O)CN(CC(=O)NCCCCNC(=O)c1ccc(-c2c3nc(c(-c4c(F)c(F)c(F)c(F)c4F)c4ccc([nH]4)c(-c4c(F)c(F)c(F)c(F)c4F)c4nc(c(-c5c(F)c(F)c(F)c(F)c5F)c5ccc2[nH]5)C=C4)C=C3)cc1)c1ccccc1
REMARK SMILES IDX 14 1 13 2 11 3 12 4 10 6 9 7 8 8 6 9 3 10 7 11 2 12 1 13
REMARK SMILES IDX 4 14 5 15 84 16 85 17 89 18 86 19 88 20 87 21 15 22 16 23
REMARK SMILES IDX 17 24 18 25 19 26 20 28 21 29 22 30 83 31 23 32 82 33 24 34
REMARK SMILES IDX 25 35 26 36 76 37 27 38 81 39 75 40 77 41 28 42 80 43 74 44
REMARK SMILES IDX 73 45 29 47 61 48 41 49 60 50 42 51 45 52 59 53 78 54 43 55
REMARK SMILES IDX 44 56 58 58 79 59 46 60 30 61 31 62 39 63 32 64 33 65 37 66
REMARK SMILES IDX 40 67 34 68 35 69 38 70 36 71 62 72 63 73 71 74 64 75 65 76
REMARK SMILES IDX 69 77 72 78 66 79 67 80 70 81 68 82 47 83 48 84 56 85 49 86
REMARK SMILES IDX 50 87 54 88 57 89 51 90 52 91 55 92 53 93
REMARK H PARENT 13 5 18 27 77 46 45 57
REMARK Flexibility Score: inf
ROOT
ATOM      1  C   UNL A   1      33.199  29.975  26.787  1.00  0.00     0.116 C 
ENDROOT
BRANCH   1   2
ATOM      2  N   UNL A   1      33.671  29.758  25.441  1.00  0.00    -0.355 N 
ATOM      3  C   UNL A   1      33.189  28.920  24.483  1.00  0.00     0.239 C 
ATOM      4  O   UNL A   1      33.752  28.950  23.383  1.00  0.00    -0.273 OA
ATOM      5  H   UNL A   1      34.454  30.294  25.178  1.00  0.00     0.163 HD
BRANCH   3   6
ATOM      6  C   UNL A   1      31.943  28.055  24.707  1.00  0.00     0.217 C 
BRANCH   6   7
ATOM      7  N   UNL A   1      31.001  27.877  23.571  1.00  0.00    -0.353 N 
BRANCH   7   8
ATOM      8  C   UNL A   1      31.278  26.751  22.641  1.00  0.00     0.217 C 
BRANCH   8   9
ATOM      9  C   UNL A   1      31.120  25.305  23.132  1.00  0.00     0.242 C 
ATOM     10  N   UNL A   1      32.221  24.494  23.379  1.00  0.00    -0.342 N 
ATOM     11  O   UNL A   1      29.972  24.851  23.249  1.00  0.00    -0.273 OA
BRANCH  10  12
ATOM     12  C   UNL A   1      31.971  23.166  23.941  1.00  0.00     0.116 C 
ATOM     13  C   UNL A   1      32.191  22.070  22.905  1.00  0.00     0.027 C 
ENDBRANCH  10  12
BRANCH  10  14
ATOM     14  C   UNL A   1      33.613  24.858  23.140  1.00  0.00     0.116 C 
ATOM     15  C   UNL A   1      34.336  25.223  24.427  1.00  0.00     0.027 C 
ENDBRANCH  10  14
ENDBRANCH   8   9
ENDBRANCH   7   8
BRANCH   7  16
ATOM     16  C   UNL A   1      29.888  28.704  23.428  1.00  0.00     0.038 A 
ATOM     17  C   UNL A   1      29.943  30.091  23.655  1.00  0.00     0.026 A 
ATOM     18  C   UNL A   1      28.618  28.221  23.063  1.00  0.00     0.026 A 
ATOM     19  C   UNL A   1      28.824  30.930  23.544  1.00  0.00     0.002 A 
ATOM     20  C   UNL A   1      27.483  29.043  22.981  1.00  0.00     0.002 A 
ATOM     21  C   UNL A   1      27.586  30.403  23.221  1.00  0.00     0.000 A 
ENDBRANCH   7  16
ENDBRANCH   6   7
ENDBRANCH   3   6
ENDBRANCH   1   2
BRANCH   1  22
ATOM     22  C   UNL A   1      31.762  30.489  26.812  1.00  0.00     0.023 C 
BRANCH  22  23
ATOM     23  C   UNL A   1      31.626  32.011  26.736  1.00  0.00     0.023 C 
BRANCH  23  24
ATOM     24  C   UNL A   1      32.762  32.805  27.371  1.00  0.00     0.116 C 
BRANCH  24  25
ATOM     25  N   UNL A   1      32.408  34.184  27.673  1.00  0.00    -0.352 N 
ATOM     26  C   UNL A   1      32.977  35.038  28.587  1.00  0.00     0.251 C 
ATOM     27  H   UNL A   1      31.660  34.555  27.151  1.00  0.00     0.163 HD
ATOM     28  O   UNL A   1      32.504  36.153  28.780  1.00  0.00    -0.269 OA
BRANCH  26  29
ATOM     29  C   UNL A   1      34.138  34.579  29.374  1.00  0.00     0.039 A 
ATOM     30  C   UNL A   1      33.923  34.113  30.673  1.00  0.00     0.014 A 
ATOM     31  C   UNL A   1      35.415  34.544  28.809  1.00  0.00     0.014 A 
ATOM     32  C   UNL A   1      34.974  33.517  31.373  1.00  0.00     0.010 A 
ATOM     33  C   UNL A   1      36.447  33.898  29.484  1.00  0.00     0.010 A 
ATOM     34  C   UNL A   1      36.228  33.356  30.760  1.00  0.00    -0.014 A 
BRANCH  34  35
ATOM     35  C   UNL A   1      37.302  32.561  31.406  1.00  0.00     0.031 A 
ATOM     36  C   UNL A   1      37.821  32.943  32.760  1.00  0.00     0.074 A 
ATOM     37  C   UNL A   1      37.871  31.549  30.721  1.00  0.00     0.049 A 
ATOM     38  N   UNL A   1      38.825  32.438  33.432  1.00  0.00    -0.248 NA
ATOM     39  C   UNL A   1      37.138  34.053  33.440  1.00  0.00     0.031 C 
ATOM     40  C   UNL A   1      37.485  31.117  29.377  1.00  0.00     0.029 A 
ATOM     41  N   UNL A   1      38.909  30.715  31.053  1.00  0.00    -0.354 N 
ATOM     42  C   UNL A   1      38.895  33.168  34.609  1.00  0.00     0.074 A 
ATOM     43  C   UNL A   1      37.865  34.184  34.540  1.00  0.00     0.031 C 
ATOM     44  C   UNL A   1      38.272  30.096  29.000  1.00  0.00     0.029 A 
ATOM     45  C   UNL A   1      39.242  29.829  30.058  1.00  0.00     0.049 A 
ATOM     46  H   UNL A   1      39.370  30.748  31.922  1.00  0.00     0.167 HD
ATOM     47  C   UNL A   1      39.731  32.993  35.660  1.00  0.00     0.037 A 
ATOM     48  C   UNL A   1      40.231  28.919  29.993  1.00  0.00     0.037 A 
ATOM     49  C   UNL A   1      40.745  31.974  35.731  1.00  0.00     0.049 A 
ATOM     50  C   UNL A   1      41.165  28.765  31.163  1.00  0.00     0.074 A 
ATOM     51  C   UNL A   1      41.598  31.676  36.780  1.00  0.00     0.029 A 
ATOM     52  N   UNL A   1      41.049  31.090  34.705  1.00  0.00    -0.354 N 
ATOM     53  N   UNL A   1      41.177  29.416  32.300  1.00  0.00    -0.248 NA
ATOM     54  C   UNL A   1      42.221  27.751  31.039  1.00  0.00     0.031 C 
ATOM     55  C   UNL A   1      42.447  30.641  36.373  1.00  0.00     0.029 A 
ATOM     56  C   UNL A   1      42.096  30.266  35.086  1.00  0.00     0.049 A 
ATOM     57  H   UNL A   1      40.588  31.054  33.836  1.00  0.00     0.167 HD
ATOM     58  C   UNL A   1      42.233  28.887  33.030  1.00  0.00     0.074 A 
ATOM     59  C   UNL A   1      42.821  27.843  32.218  1.00  0.00     0.031 C 
ATOM     60  C   UNL A   1      42.676  29.239  34.261  1.00  0.00     0.037 A 
BRANCH  47  61
ATOM     61  C   UNL A   1      39.577  33.918  36.831  1.00  0.00     0.064 A 
ATOM     62  C   UNL A   1      38.809  33.560  37.949  1.00  0.00     0.173 A 
ATOM     63  C   UNL A   1      40.245  35.151  36.859  1.00  0.00     0.173 A 
ATOM     64  F   UNL A   1      38.142  32.395  37.965  1.00  0.00    -0.203 F 
ATOM     65  C   UNL A   1      38.697  34.413  39.044  1.00  0.00     0.198 A 
ATOM     66  C   UNL A   1      40.151  35.990  37.968  1.00  0.00     0.198 A 
ATOM     67  F   UNL A   1      40.997  35.539  35.818  1.00  0.00    -0.203 F 
ATOM     68  F   UNL A   1      37.926  34.066  40.083  1.00  0.00    -0.200 F 
ATOM     69  C   UNL A   1      39.373  35.623  39.055  1.00  0.00     0.200 A 
ATOM     70  F   UNL A   1      40.815  37.154  37.983  1.00  0.00    -0.200 F 
ATOM     71  F   UNL A   1      39.273  36.437  40.115  1.00  0.00    -0.200 F 
ENDBRANCH  47  61
BRANCH  48  72
ATOM     72  C   UNL A   1      40.399  28.087  28.773  1.00  0.00     0.064 A 
ATOM     73  C   UNL A   1      41.175  28.535  27.696  1.00  0.00     0.173 A 
ATOM     74  C   UNL A   1      39.782  26.833  28.658  1.00  0.00     0.173 A 
ATOM     75  F   UNL A   1      41.765  29.738  27.752  1.00  0.00    -0.203 F 
ATOM     76  C   UNL A   1      41.312  27.769  26.540  1.00  0.00     0.198 A 
ATOM     77  C   UNL A   1      39.942  26.055  27.512  1.00  0.00     0.198 A 
ATOM     78  F   UNL A   1      39.031  26.358  29.662  1.00  0.00    -0.203 F 
ATOM     79  F   UNL A   1      42.023  28.240  25.508  1.00  0.00    -0.200 F 
ATOM     80  C   UNL A   1      40.700  26.527  26.452  1.00  0.00     0.200 A 
ATOM     81  F   UNL A   1      39.360  24.850  27.437  1.00  0.00    -0.200 F 
ATOM     82  F   UNL A   1      40.834  25.790  25.341  1.00  0.00    -0.200 F 
ENDBRANCH  48  72
BRANCH  60  83
ATOM     83  C   UNL A   1      43.857  28.488  34.803  1.00  0.00     0.064 A 
ATOM     84  C   UNL A   1      45.164  28.963  34.628  1.00  0.00     0.173 A 
ATOM     85  C   UNL A   1      43.677  27.308  35.539  1.00  0.00     0.173 A 
ATOM     86  F   UNL A   1      45.388  30.078  33.916  1.00  0.00    -0.203 F 
ATOM     87  C   UNL A   1      46.252  28.272  35.155  1.00  0.00     0.198 A 
ATOM     88  C   UNL A   1      44.764  26.634  36.087  1.00  0.00     0.198 A 
ATOM     89  F   UNL A   1      42.444  26.816  35.738  1.00  0.00    -0.203 F 
ATOM     90  F   UNL A   1      47.497  28.722  34.942  1.00  0.00    -0.200 F 
ATOM     91  C   UNL A   1      46.051  27.113  35.892  1.00  0.00     0.200 A 
ATOM     92  F   UNL A   1      44.567  25.521  36.807  1.00  0.00    -0.200 F 
ATOM     93  F   UNL A   1      47.098  26.455  36.405  1.00  0.00    -0.200 F 
ENDBRANCH  60  83
ENDBRANCH  34  35
ENDBRANCH  26  29
ENDBRANCH  24  25
ENDBRANCH  23  24
ENDBRANCH  22  23
ENDBRANCH   1  22
TORSDOF 17
ENDMDL
MODEL 2
REMARK VINA RESULT:     -11.5      0.953      7.587
REMARK SMILES CCN(CC)C(=O)CN(CC(=O)NCCCCNC(=O)c1ccc(-c2c3nc(c(-c4c(F)c(F)c(F)c(F)c4F)c4ccc([nH]4)c(-c4c(F)c(F)c(F)c(F)c4F)c4nc(c(-c5c(F)c(F)c(F)c(F)c5F)c5ccc2[nH]5)C=C4)C=C3)cc1)c1ccccc1
REMARK SMILES IDX 14 1 13 2 11 3 12 4 10 6 9 7 8 8 6 9 3 10 7 11 2 12 1 13
REMARK SMILES IDX 4 14 5 15 84 16 85 17 89 18 86 19 88 20 87 21 15 22 16 23
REMARK SMILES IDX 17 24 18 25 19 26 20 28 21 29 22 30 83 31 23 32 82 33 24 34
REMARK SMILES IDX 25 35 26 36 76 37 27 38 81 39 75 40 77 41 28 42 80 43 74 44
REMARK SMILES IDX 73 45 29 47 61 48 41 49 60 50 42 51 45 52 59 53 78 54 43 55
REMARK SMILES IDX 44 56 58 58 79 59 46 60 30 61 31 62 39 63 32 64 33 65 37 66
REMARK SMILES IDX 40 67 34 68 35 69 38 70 36 71 62 72 63 73 71 74 64 75 65 76
REMARK SMILES IDX 69 77 72 78 66 79 67 80 70 81 68 82 47 83 48 84 56 85 49 86
REMARK SMILES IDX 50 87 54 88 57 89 51 90 52 91 55 92 53 93
REMARK H PARENT 13 5 18 27 77 46 45 57
REMARK Flexibility Score: inf
ROOT
ATOM      1  C   UNL A   1      32.790  29.254  27.040  1.00  0.00     0.116 C 
ENDROOT
BRANCH   1   2
ATOM      2  N   UNL A   1      31.820  28.197  27.194  1.00  0.00    -0.355 N 
ATOM      3  C   UNL A   1      31.517  27.175  26.347  1.00  0.00     0.239 C 
ATOM      4  O   UNL A   1      30.666  26.366  26.734  1.00  0.00    -0.273 OA
ATOM      5  H   UNL A   1      31.304  28.217  28.032  1.00  0.00     0.163 HD
BRANCH   3   6
ATOM      6  C   UNL A   1      32.263  26.964  25.024  1.00  0.00     0.217 C 
BRANCH   6   7
ATOM      7  N   UNL A   1      31.459  26.709  23.800  1.00  0.00    -0.353 N 
BRANCH   7   8
ATOM      8  C   UNL A   1      31.692  25.418  23.102  1.00  0.00     0.217 C 
BRANCH   8   9
ATOM      9  C   UNL A   1      33.125  24.886  22.950  1.00  0.00     0.242 C 
ATOM     10  N   UNL A   1      33.628  23.896  23.786  1.00  0.00    -0.342 N 
ATOM     11  O   UNL A   1      33.852  25.406  22.090  1.00  0.00    -0.273 OA
BRANCH  10  12
ATOM     12  C   UNL A   1      34.968  23.384  23.497  1.00  0.00     0.116 C 
ATOM     13  C   UNL A   1      35.937  23.679  24.636  1.00  0.00     0.027 C 
ENDBRANCH  10  12
BRANCH  10  14
ATOM     14  C   UNL A   1      32.927  23.311  24.923  1.00  0.00     0.116 C 
ATOM     15  C   UNL A   1      32.039  22.148  24.509  1.00  0.00     0.027 C 
ENDBRANCH  10  14
ENDBRANCH   8   9
ENDBRANCH   7   8
BRANCH   7  16
ATOM     16  C   UNL A   1      30.500  27.626  23.370  1.00  0.00     0.038 A 
ATOM     17  C   UNL A   1      30.840  28.894  22.866  1.00  0.00     0.026 A 
ATOM     18  C   UNL A   1      29.119  27.367  23.420  1.00  0.00     0.026 A 
ATOM     19  C   UNL A   1      29.884  29.837  22.458  1.00  0.00     0.002 A 
ATOM     20  C   UNL A   1      28.150  28.312  23.046  1.00  0.00     0.002 A 
ATOM     21  C   UNL A   1      28.534  29.552  22.562  1.00  0.00     0.000 A 
ENDBRANCH   7  16
ENDBRANCH   6   7
ENDBRANCH   3   6
ENDBRANCH   1   2
BRANCH   1  22
ATOM     22  C   UNL A   1      32.273  30.378  26.147  1.00  0.00     0.023 C 
BRANCH  22  23
ATOM     23  C   UNL A   1      31.788  31.620  26.897  1.00  0.00     0.023 C 
BRANCH  23  24
ATOM     24  C   UNL A   1      32.885  32.525  27.447  1.00  0.00     0.116 C 
BRANCH  24  25
ATOM     25  N   UNL A   1      32.449  33.896  27.666  1.00  0.00    -0.352 N 
ATOM     26  C   UNL A   1      32.978  34.843  28.510  1.00  0.00     0.251 C 
ATOM     27  H   UNL A   1      31.671  34.186  27.136  1.00  0.00     0.163 HD
ATOM     28  O   UNL A   1      32.439  35.937  28.640  1.00  0.00    -0.269 OA
BRANCH  26  29
ATOM     29  C   UNL A   1      34.178  34.510  29.302  1.00  0.00     0.039 A 
ATOM     30  C   UNL A   1      34.009  34.018  30.599  1.00  0.00     0.014 A 
ATOM     31  C   UNL A   1      35.454  34.616  28.744  1.00  0.00     0.014 A 
ATOM     32  C   UNL A   1      35.115  33.538  31.302  1.00  0.00     0.010 A 
ATOM     33  C   UNL A   1      36.547  34.083  29.422  1.00  0.00     0.010 A 
ATOM     34  C   UNL A   1      36.381  33.516  30.695  1.00  0.00    -0.014 A 
BRANCH  34  35
ATOM     35  C   UNL A   1      37.533  32.840  31.344  1.00  0.00     0.031 A 
ATOM     36  C   UNL A   1      38.180  31.652  30.699  1.00  0.00     0.074 A 
ATOM     37  C   UNL A   1      37.930  33.250  32.565  1.00  0.00     0.049 A 
ATOM     38  N   UNL A   1      39.120  30.868  31.164  1.00  0.00    -0.248 NA
ATOM     39  C   UNL A   1      37.691  31.279  29.363  1.00  0.00     0.031 C 
ATOM     40  C   UNL A   1      37.344  34.362  33.316  1.00  0.00     0.029 A 
ATOM     41  N   UNL A   1      38.906  32.763  33.400  1.00  0.00    -0.354 N 
ATOM     42  C   UNL A   1      39.333  29.911  30.183  1.00  0.00     0.074 A 
ATOM     43  C   UNL A   1      38.391  30.180  29.117  1.00  0.00     0.031 C 
ATOM     44  C   UNL A   1      37.974  34.476  34.496  1.00  0.00     0.029 A 
ATOM     45  C   UNL A   1      38.978  33.422  34.603  1.00  0.00     0.049 A 
ATOM     46  H   UNL A   1      39.497  32.015  33.159  1.00  0.00     0.167 HD
ATOM     47  C   UNL A   1      40.247  28.912  30.166  1.00  0.00     0.037 A 
ATOM     48  C   UNL A   1      39.750  33.190  35.681  1.00  0.00     0.037 A 
ATOM     49  C   UNL A   1      41.191  28.655  31.222  1.00  0.00     0.049 A 
ATOM     50  C   UNL A   1      40.735  32.054  35.648  1.00  0.00     0.074 A 
ATOM     51  C   UNL A   1      42.197  27.707  31.268  1.00  0.00     0.029 A 
ATOM     52  N   UNL A   1      41.238  29.349  32.423  1.00  0.00    -0.354 N 
ATOM     53  N   UNL A   1      40.975  31.197  34.685  1.00  0.00    -0.248 NA
ATOM     54  C   UNL A   1      41.556  31.852  36.849  1.00  0.00     0.031 C 
ATOM     55  C   UNL A   1      42.826  27.797  32.515  1.00  0.00     0.029 A 
ATOM     56  C   UNL A   1      42.238  28.828  33.229  1.00  0.00     0.049 A 
ATOM     57  H   UNL A   1      40.649  30.098  32.666  1.00  0.00     0.167 HD
ATOM     58  C   UNL A   1      41.977  30.363  35.159  1.00  0.00     0.074 A 
ATOM     59  C   UNL A   1      42.319  30.832  36.486  1.00  0.00     0.031 C 
ATOM     60  C   UNL A   1      42.558  29.300  34.551  1.00  0.00     0.037 A 
BRANCH  47  61
ATOM     61  C   UNL A   1      40.280  28.023  28.958  1.00  0.00     0.064 A 
ATOM     62  C   UNL A   1      41.036  28.358  27.824  1.00  0.00     0.173 A 
ATOM     63  C   UNL A   1      39.592  26.800  28.953  1.00  0.00     0.173 A 
ATOM     64  F   UNL A   1      41.702  29.522  27.778  1.00  0.00    -0.203 F 
ATOM     65  C   UNL A   1      41.084  27.511  26.720  1.00  0.00     0.198 A 
ATOM     66  C   UNL A   1      39.665  25.943  27.857  1.00  0.00     0.198 A 
ATOM     67  F   UNL A   1      38.860  26.429  30.014  1.00  0.00    -0.203 F 
ATOM     68  F   UNL A   1      41.781  27.871  25.634  1.00  0.00    -0.200 F 
ATOM     69  C   UNL A   1      40.405  26.302  26.740  1.00  0.00     0.200 A 
ATOM     70  F   UNL A   1      39.018  24.770  27.880  1.00  0.00    -0.200 F 
ATOM     71  F   UNL A   1      40.463  25.483  25.681  1.00  0.00    -0.200 F 
ENDBRANCH  47  61
BRANCH  48  72
ATOM     72  C   UNL A   1      39.616  34.044  36.889  1.00  0.00     0.064 A 
ATOM     73  C   UNL A   1      38.811  33.649  37.967  1.00  0.00     0.173 A 
ATOM     74  C   UNL A   1      40.284  35.274  36.989  1.00  0.00     0.173 A 
ATOM     75  F   UNL A   1      38.136  32.493  37.907  1.00  0.00    -0.203 F 
ATOM     76  C   UNL A   1      38.664  34.461  39.089  1.00  0.00     0.198 A 
ATOM     77  C   UNL A   1      40.157  36.072  38.124  1.00  0.00     0.198 A 
ATOM     78  F   UNL A   1      41.068  35.695  35.986  1.00  0.00    -0.203 F 
ATOM     79  F   UNL A   1      37.853  34.080  40.086  1.00  0.00    -0.200 F 
ATOM     80  C   UNL A   1      39.341  35.668  39.170  1.00  0.00     0.200 A 
ATOM     81  F   UNL A   1      40.823  37.232  38.202  1.00  0.00    -0.200 F 
ATOM     82  F   UNL A   1      39.200  36.447  40.251  1.00  0.00    -0.200 F 
ENDBRANCH  48  72
BRANCH  60  83
ATOM     83  C   UNL A   1      43.623  28.572  35.317  1.00  0.00     0.064 A 
ATOM     84  C   UNL A   1      43.309  27.493  36.155  1.00  0.00     0.173 A 
ATOM     85  C   UNL A   1      44.973  28.929  35.180  1.00  0.00     0.173 A 
ATOM     86  F   UNL A   1      42.030  27.126  36.331  1.00  0.00    -0.203 F 
ATOM     87  C   UNL A   1      44.306  26.808  36.843  1.00  0.00     0.198 A 
ATOM     88  C   UNL A   1      45.970  28.224  35.848  1.00  0.00     0.198 A 
ATOM     89  F   UNL A   1      45.325  29.952  34.386  1.00  0.00    -0.203 F 
ATOM     90  F   UNL A   1      43.980  25.804  37.669  1.00  0.00    -0.200 F 
ATOM     91  C   UNL A   1      45.637  27.168  36.682  1.00  0.00     0.200 A 
ATOM     92  F   UNL A   1      47.255  28.567  35.683  1.00  0.00    -0.200 F 
ATOM     93  F   UNL A   1      46.596  26.502  37.338  1.00  0.00    -0.200 F 
ENDBRANCH  60  83
ENDBRANCH  34  35
ENDBRANCH  26  29
ENDBRANCH  24  25
ENDBRANCH  23  24
ENDBRANCH  22  23
ENDBRANCH   1  22
TORSDOF 17
ENDMDL
MODEL 3
REMARK VINA RESULT:     -11.5      2.277      8.387
REMARK SMILES CCN(CC)C(=O)CN(CC(=O)NCCCCNC(=O)c1ccc(-c2c3nc(c(-c4c(F)c(F)c(F)c(F)c4F)c4ccc([nH]4)c(-c4c(F)c(F)c(F)c(F)c4F)c4nc(c(-c5c(F)c(F)c(F)c(F)c5F)c5ccc2[nH]5)C=C4)C=C3)cc1)c1ccccc1
REMARK SMILES IDX 14 1 13 2 11 3 12 4 10 6 9 7 8 8 6 9 3 10 7 11 2 12 1 13
REMARK SMILES IDX 4 14 5 15 84 16 85 17 89 18 86 19 88 20 87 21 15 22 16 23
REMARK SMILES IDX 17 24 18 25 19 26 20 28 21 29 22 30 83 31 23 32 82 33 24 34
REMARK SMILES IDX 25 35 26 36 76 37 27 38 81 39 75 40 77 41 28 42 80 43 74 44
REMARK SMILES IDX 73 45 29 47 61 48 41 49 60 50 42 51 45 52 59 53 78 54 43 55
REMARK SMILES IDX 44 56 58 58 79 59 46 60 30 61 31 62 39 63 32 64 33 65 37 66
REMARK SMILES IDX 40 67 34 68 35 69 38 70 36 71 62 72 63 73 71 74 64 75 65 76
REMARK SMILES IDX 69 77 72 78 66 79 67 80 70 81 68 82 47 83 48 84 56 85 49 86
REMARK SMILES IDX 50 87 54 88 57 89 51 90 52 91 55 92 53 93
REMARK H PARENT 13 5 18 27 77 46 45 57
REMARK Flexibility Score: inf
ROOT
ATOM      1  C   UNL A   1      30.704  26.472  25.757  1.00  0.00     0.116 C 
ENDROOT
BRANCH   1   2
ATOM      2  N   UNL A   1      30.857  25.322  26.614  1.00  0.00    -0.355 N 
ATOM      3  C   UNL A   1      30.893  24.001  26.287  1.00  0.00     0.239 C 
ATOM      4  O   UNL A   1      31.079  23.203  27.213  1.00  0.00    -0.273 OA
ATOM      5  H   UNL A   1      30.950  25.521  27.574  1.00  0.00     0.163 HD
BRANCH   3   6
ATOM      6  C   UNL A   1      30.819  23.519  24.833  1.00  0.00     0.217 C 
BRANCH   6   7
ATOM      7  N   UNL A   1      32.050  22.958  24.218  1.00  0.00    -0.353 N 
BRANCH   7   8
ATOM      8  C   UNL A   1      33.164  23.908  23.964  1.00  0.00     0.217 C 
BRANCH   8   9
ATOM      9  C   UNL A   1      34.617  23.427  24.092  1.00  0.00     0.242 C 
ATOM     10  N   UNL A   1      35.185  23.144  25.328  1.00  0.00    -0.342 N 
ATOM     11  O   UNL A   1      35.299  23.349  23.059  1.00  0.00    -0.273 OA
BRANCH  10  12
ATOM     12  C   UNL A   1      36.542  22.595  25.340  1.00  0.00     0.116 C 
ATOM     13  C   UNL A   1      37.571  23.654  25.714  1.00  0.00     0.027 C 
ENDBRANCH  10  12
BRANCH  10  14
ATOM     14  C   UNL A   1      34.540  23.336  26.622  1.00  0.00     0.116 C 
ATOM     15  C   UNL A   1      34.487  22.048  27.429  1.00  0.00     0.027 C 
ENDBRANCH  10  14
ENDBRANCH   8   9
ENDBRANCH   7   8
BRANCH   7  16
ATOM     16  C   UNL A   1      32.157  21.595  23.945  1.00  0.00     0.038 A 
ATOM     17  C   UNL A   1      32.351  20.636  24.955  1.00  0.00     0.026 A 
ATOM     18  C   UNL A   1      32.097  21.069  22.642  1.00  0.00     0.026 A 
ATOM     19  C   UNL A   1      32.490  19.264  24.692  1.00  0.00     0.002 A 
ATOM     20  C   UNL A   1      32.267  19.704  22.360  1.00  0.00     0.002 A 
ATOM     21  C   UNL A   1      32.463  18.798  23.389  1.00  0.00     0.000 A 
ENDBRANCH   7  16
ENDBRANCH   6   7
ENDBRANCH   3   6
ENDBRANCH   1   2
BRANCH   1  22
ATOM     22  C   UNL A   1      31.950  27.353  25.755  1.00  0.00     0.023 C 
BRANCH  22  23
ATOM     23  C   UNL A   1      31.754  28.739  26.373  1.00  0.00     0.023 C 
BRANCH  23  24
ATOM     24  C   UNL A   1      32.857  29.751  26.082  1.00  0.00     0.116 C 
BRANCH  24  25
ATOM     25  N   UNL A   1      32.566  31.085  26.584  1.00  0.00    -0.352 N 
ATOM     26  C   UNL A   1      33.333  31.885  27.397  1.00  0.00     0.251 C 
ATOM     27  H   UNL A   1      31.703  31.468  26.303  1.00  0.00     0.163 HD
ATOM     28  O   UNL A   1      32.904  32.961  27.802  1.00  0.00    -0.269 OA
BRANCH  26  29
ATOM     29  C   UNL A   1      34.664  31.410  27.823  1.00  0.00     0.039 A 
ATOM     30  C   UNL A   1      35.713  32.330  27.890  1.00  0.00     0.014 A 
ATOM     31  C   UNL A   1      34.856  30.084  28.219  1.00  0.00     0.014 A 
ATOM     32  C   UNL A   1      36.932  31.943  28.449  1.00  0.00     0.010 A 
ATOM     33  C   UNL A   1      36.051  29.716  28.830  1.00  0.00     0.010 A 
ATOM     34  C   UNL A   1      37.089  30.650  28.974  1.00  0.00    -0.014 A 
BRANCH  34  35
ATOM     35  C   UNL A   1      38.304  30.274  29.741  1.00  0.00     0.031 A 
ATOM     36  C   UNL A   1      39.262  29.258  29.197  1.00  0.00     0.074 A 
ATOM     37  C   UNL A   1      38.485  30.788  30.973  1.00  0.00     0.049 A 
ATOM     38  N   UNL A   1      40.313  28.725  29.767  1.00  0.00    -0.248 NA
ATOM     39  C   UNL A   1      38.994  28.757  27.840  1.00  0.00     0.031 C 
ATOM     40  C   UNL A   1      37.594  31.746  31.630  1.00  0.00     0.029 A 
ATOM     41  N   UNL A   1      39.468  30.558  31.904  1.00  0.00    -0.354 N 
ATOM     42  C   UNL A   1      40.828  27.826  28.845  1.00  0.00     0.074 A 
ATOM     43  C   UNL A   1      39.948  27.848  27.695  1.00  0.00     0.031 C 
ATOM     44  C   UNL A   1      38.072  32.025  32.853  1.00  0.00     0.029 A 
ATOM     45  C   UNL A   1      39.279  31.237  33.083  1.00  0.00     0.049 A 
ATOM     46  H   UNL A   1      40.236  29.964  31.741  1.00  0.00     0.167 HD
ATOM     47  C   UNL A   1      41.945  27.068  28.941  1.00  0.00     0.037 A 
ATOM     48  C   UNL A   1      39.984  31.211  34.229  1.00  0.00     0.037 A 
ATOM     49  C   UNL A   1      42.826  27.058  30.081  1.00  0.00     0.049 A 
ATOM     50  C   UNL A   1      41.205  30.337  34.320  1.00  0.00     0.074 A 
ATOM     51  C   UNL A   1      44.016  26.372  30.246  1.00  0.00     0.029 A 
ATOM     52  N   UNL A   1      42.604  27.765  31.254  1.00  0.00    -0.354 N 
ATOM     53  N   UNL A   1      41.721  29.543  33.414  1.00  0.00    -0.248 NA
ATOM     54  C   UNL A   1      41.939  30.354  35.592  1.00  0.00     0.031 C 
ATOM     55  C   UNL A   1      44.494  26.629  31.536  1.00  0.00     0.029 A 
ATOM     56  C   UNL A   1      43.622  27.508  32.159  1.00  0.00     0.049 A 
ATOM     57  H   UNL A   1      41.839  28.361  31.419  1.00  0.00     0.167 HD
ATOM     58  C   UNL A   1      42.843  28.974  34.001  1.00  0.00     0.074 A 
ATOM     59  C   UNL A   1      42.948  29.534  35.332  1.00  0.00     0.031 C 
ATOM     60  C   UNL A   1      43.705  28.066  33.484  1.00  0.00     0.037 A 
BRANCH  47  61
ATOM     61  C   UNL A   1      42.291  26.189  27.776  1.00  0.00     0.064 A 
ATOM     62  C   UNL A   1      43.210  26.599  26.798  1.00  0.00     0.173 A 
ATOM     63  C   UNL A   1      41.738  24.905  27.661  1.00  0.00     0.173 A 
ATOM     64  F   UNL A   1      43.758  27.823  26.859  1.00  0.00    -0.203 F 
ATOM     65  C   UNL A   1      43.546  25.764  25.737  1.00  0.00     0.198 A 
ATOM     66  C   UNL A   1      42.097  24.062  26.612  1.00  0.00     0.198 A 
ATOM     67  F   UNL A   1      40.858  24.462  28.572  1.00  0.00    -0.203 F 
ATOM     68  F   UNL A   1      44.397  26.193  24.794  1.00  0.00    -0.200 F 
ATOM     69  C   UNL A   1      42.996  24.495  25.648  1.00  0.00     0.200 A 
ATOM     70  F   UNL A   1      41.574  22.831  26.533  1.00  0.00    -0.200 F 
ATOM     71  F   UNL A   1      43.331  23.688  24.631  1.00  0.00    -0.200 F 
ENDBRANCH  47  61
BRANCH  48  72
ATOM     72  C   UNL A   1      39.550  32.033  35.388  1.00  0.00     0.064 A 
ATOM     73  C   UNL A   1      38.648  31.525  36.334  1.00  0.00     0.173 A 
ATOM     74  C   UNL A   1      40.022  33.341  35.571  1.00  0.00     0.173 A 
ATOM     75  F   UNL A   1      38.153  30.288  36.188  1.00  0.00    -0.203 F 
ATOM     76  C   UNL A   1      38.219  32.303  37.407  1.00  0.00     0.198 A 
ATOM     77  C   UNL A   1      39.613  34.108  36.660  1.00  0.00     0.198 A 
ATOM     78  F   UNL A   1      40.888  33.871  34.695  1.00  0.00    -0.203 F 
ATOM     79  F   UNL A   1      37.322  31.810  38.271  1.00  0.00    -0.200 F 
ATOM     80  C   UNL A   1      38.706  33.591  37.573  1.00  0.00     0.200 A 
ATOM     81  F   UNL A   1      40.095  35.347  36.823  1.00  0.00    -0.200 F 
ATOM     82  F   UNL A   1      38.294  34.337  38.606  1.00  0.00    -0.200 F 
ENDBRANCH  48  72
BRANCH  60  83
ATOM     83  C   UNL A   1      44.837  27.620  34.362  1.00  0.00     0.064 A 
ATOM     84  C   UNL A   1      46.051  28.320  34.396  1.00  0.00     0.173 A 
ATOM     85  C   UNL A   1      44.692  26.510  35.207  1.00  0.00     0.173 A 
ATOM     86  F   UNL A   1      46.243  29.378  33.594  1.00  0.00    -0.203 F 
ATOM     87  C   UNL A   1      47.088  27.913  35.232  1.00  0.00     0.198 A 
ATOM     88  C   UNL A   1      45.720  26.121  36.061  1.00  0.00     0.198 A 
ATOM     89  F   UNL A   1      43.547  25.810  35.214  1.00  0.00    -0.203 F 
ATOM     90  F   UNL A   1      48.255  28.572  35.220  1.00  0.00    -0.200 F 
ATOM     91  C   UNL A   1      46.918  26.819  36.070  1.00  0.00     0.200 A 
ATOM     92  F   UNL A   1      45.551  25.072  36.877  1.00  0.00    -0.200 F 
ATOM     93  F   UNL A   1      47.913  26.434  36.879  1.00  0.00    -0.200 F 
ENDBRANCH  60  83
ENDBRANCH  34  35
ENDBRANCH  26  29
ENDBRANCH  24  25
ENDBRANCH  23  24
ENDBRANCH  22  23
ENDBRANCH   1  22
TORSDOF 17
ENDMDL
