MODEL 1
REMARK VINA RESULT:     -12.5      0.000      0.000
REMARK SMILES C[C@@H]1[C@H](C)CC[C@@H]1NC(=O)N1CCO[C@H](CC(=O)NCCCCNC(=O)c2ccc(-c3c4nc(c(-c5c(F)c(F)c(F)c(F)c5F)c5ccc([nH]5)c(-c5c(F)c(F)c(F)c(F)c5F)c5nc(c(-c6c(F)c(F)c(F)c(F)c6F)c6ccc3[nH]6)C=C5)C=C4)cc2)C1
REMARK SMILES IDX 21 1 20 2 19 3 17 4 18 5 16 7 15 8 11 9 12 10 90 11 13 12
REMARK SMILES IDX 14 13 9 14 8 15 10 17 7 18 1 19 2 20 3 21 4 22 5 23 6 24
REMARK SMILES IDX 22 25 23 26 24 27 25 28 26 30 27 31 28 32 89 33 29 34 88 35
REMARK SMILES IDX 30 36 31 37 32 38 82 39 33 40 87 41 81 42 83 43 34 44 86 45
REMARK SMILES IDX 80 46 79 47 35 49 67 50 47 51 66 52 48 53 51 54 65 55 84 56
REMARK SMILES IDX 49 57 50 58 64 60 85 61 52 62 36 63 37 64 45 65 38 66 39 67
REMARK SMILES IDX 43 68 46 69 40 70 41 71 44 72 42 73 68 74 69 75 77 76 70 77
REMARK SMILES IDX 71 78 75 79 78 80 72 81 73 82 76 83 74 84 53 85 54 86 62 87
REMARK SMILES IDX 55 88 56 89 60 90 63 91 57 92 58 93 61 94 59 95
REMARK H PARENT 19 6 8 16 24 29 83 48 51 59
REMARK Flexibility Score: inf
ROOT
ATOM      1  C   UNL A   1      32.141  30.171  26.890  1.00  0.00     0.023 C 
ENDROOT
BRANCH   1   2
ATOM      2  C   UNL A   1      33.429  29.742  26.194  1.00  0.00     0.116 C 
BRANCH   2   3
ATOM      3  N   UNL A   1      33.282  29.735  24.757  1.00  0.00    -0.356 N 
ATOM      4  C   UNL A   1      33.003  28.682  23.942  1.00  0.00     0.222 C 
ATOM      5  O   UNL A   1      32.888  28.895  22.737  1.00  0.00    -0.275 OA
ATOM      6  H   UNL A   1      33.398  30.604  24.310  1.00  0.00     0.163 HD
BRANCH   4   7
ATOM      7  C   UNL A   1      32.849  27.298  24.527  1.00  0.00     0.133 C 
BRANCH   7   8
ATOM      8  C   UNL A   1      31.425  26.982  25.004  1.00  0.00     0.147 C 
ATOM      9  N   UNL A   1      31.639  24.613  25.634  1.00  0.00    -0.320 N 
ATOM     10  C   UNL A   1      30.795  24.219  24.512  1.00  0.00     0.150 C 
ATOM     11  C   UNL A   1      31.324  25.943  26.137  1.00  0.00     0.154 C 
ATOM     12  C   UNL A   1      30.810  25.279  23.404  1.00  0.00     0.182 C 
ATOM     13  O   UNL A   1      30.570  26.609  23.897  1.00  0.00    -0.374 OA
BRANCH   9  14
ATOM     14  C   UNL A   1      32.399  23.794  26.413  1.00  0.00     0.317 C 
ATOM     15  N   UNL A   1      33.685  23.523  26.102  1.00  0.00    -0.335 N 
ATOM     16  H   UNL A   1      34.079  22.826  26.675  1.00  0.00     0.165 HD
ATOM     17  O   UNL A   1      31.974  23.327  27.473  1.00  0.00    -0.249 OA
BRANCH  15  18
ATOM     18  C   UNL A   1      34.622  24.034  25.105  1.00  0.00     0.087 C 
ATOM     19  C   UNL A   1      33.612  22.526  23.225  1.00  0.00     0.010 C 
ATOM     20  C   UNL A   1      34.854  23.075  23.914  1.00  0.00     0.011 C 
ATOM     21  C   UNL A   1      35.883  22.039  24.418  1.00  0.00    -0.009 C 
ATOM     22  C   UNL A   1      35.317  20.724  24.948  1.00  0.00     0.008 C 
ATOM     23  C   UNL A   1      36.672  22.773  25.508  1.00  0.00     0.006 C 
ATOM     24  C   UNL A   1      36.051  24.159  25.627  1.00  0.00     0.025 C 
ENDBRANCH  15  18
ENDBRANCH   9  14
ENDBRANCH   7   8
ENDBRANCH   4   7
ENDBRANCH   2   3
ENDBRANCH   1   2
BRANCH   1  25
ATOM     25  C   UNL A   1      31.843  31.667  26.822  1.00  0.00     0.023 C 
BRANCH  25  26
ATOM     26  C   UNL A   1      32.941  32.564  27.371  1.00  0.00     0.116 C 
BRANCH  26  27
ATOM     27  N   UNL A   1      32.495  33.923  27.645  1.00  0.00    -0.352 N 
ATOM     28  C   UNL A   1      33.013  34.818  28.548  1.00  0.00     0.251 C 
ATOM     29  H   UNL A   1      31.726  34.239  27.116  1.00  0.00     0.163 HD
ATOM     30  O   UNL A   1      32.495  35.910  28.730  1.00  0.00    -0.269 OA
BRANCH  28  31
ATOM     31  C   UNL A   1      34.192  34.406  29.329  1.00  0.00     0.039 A 
ATOM     32  C   UNL A   1      34.003  33.685  30.508  1.00  0.00     0.014 A 
ATOM     33  C   UNL A   1      35.474  34.658  28.833  1.00  0.00     0.014 A 
ATOM     34  C   UNL A   1      35.110  33.152  31.167  1.00  0.00     0.010 A 
ATOM     35  C   UNL A   1      36.566  34.067  29.450  1.00  0.00     0.010 A 
ATOM     36  C   UNL A   1      36.393  33.311  30.621  1.00  0.00    -0.014 A 
BRANCH  36  37
ATOM     37  C   UNL A   1      37.593  32.726  31.263  1.00  0.00     0.031 A 
ATOM     38  C   UNL A   1      38.301  31.591  30.586  1.00  0.00     0.074 A 
ATOM     39  C   UNL A   1      37.968  33.135  32.489  1.00  0.00     0.049 A 
ATOM     40  N   UNL A   1      39.243  30.808  31.044  1.00  0.00    -0.248 NA
ATOM     41  C   UNL A   1      37.853  31.265  29.222  1.00  0.00     0.031 C 
ATOM     42  C   UNL A   1      37.330  34.202  33.260  1.00  0.00     0.029 A 
ATOM     43  N   UNL A   1      38.961  32.674  33.315  1.00  0.00    -0.354 N 
ATOM     44  C   UNL A   1      39.471  29.876  30.041  1.00  0.00     0.074 A 
ATOM     45  C   UNL A   1      38.542  30.163  28.971  1.00  0.00     0.031 C 
ATOM     46  C   UNL A   1      37.950  34.317  34.445  1.00  0.00     0.029 A 
ATOM     47  C   UNL A   1      38.998  33.305  34.533  1.00  0.00     0.049 A 
ATOM     48  H   UNL A   1      39.587  31.959  33.059  1.00  0.00     0.167 HD
ATOM     49  C   UNL A   1      40.385  28.878  30.014  1.00  0.00     0.037 A 
ATOM     50  C   UNL A   1      39.779  33.076  35.607  1.00  0.00     0.037 A 
ATOM     51  C   UNL A   1      41.331  28.628  31.067  1.00  0.00     0.049 A 
ATOM     52  C   UNL A   1      40.807  31.981  35.544  1.00  0.00     0.074 A 
ATOM     53  C   UNL A   1      42.347  27.690  31.112  1.00  0.00     0.029 A 
ATOM     54  N   UNL A   1      41.379  29.330  32.264  1.00  0.00    -0.354 N 
ATOM     55  N   UNL A   1      41.055  31.135  34.573  1.00  0.00    -0.248 NA
ATOM     56  C   UNL A   1      41.669  31.809  36.722  1.00  0.00     0.031 C 
ATOM     57  C   UNL A   1      42.986  27.800  32.351  1.00  0.00     0.029 A 
ATOM     58  C   UNL A   1      42.399  28.837  33.060  1.00  0.00     0.049 A 
ATOM     59  H   UNL A   1      40.776  30.068  32.510  1.00  0.00     0.167 HD
ATOM     60  C   UNL A   1      42.117  30.354  35.007  1.00  0.00     0.074 A 
ATOM     61  C   UNL A   1      42.469  30.827  36.330  1.00  0.00     0.031 C 
ATOM     62  C   UNL A   1      42.745  29.339  34.365  1.00  0.00     0.037 A 
BRANCH  49  63
ATOM     63  C   UNL A   1      40.392  27.984  28.809  1.00  0.00     0.064 A 
ATOM     64  C   UNL A   1      39.674  26.779  28.778  1.00  0.00     0.173 A 
ATOM     65  C   UNL A   1      41.132  28.335  27.670  1.00  0.00     0.173 A 
ATOM     66  F   UNL A   1      38.964  26.389  29.847  1.00  0.00    -0.203 F 
ATOM     67  C   UNL A   1      39.728  25.941  27.668  1.00  0.00     0.198 A 
ATOM     68  C   UNL A   1      41.158  27.510  26.549  1.00  0.00     0.198 A 
ATOM     69  F   UNL A   1      41.835  29.478  27.646  1.00  0.00    -0.203 F 
ATOM     70  F   UNL A   1      39.085  24.764  27.688  1.00  0.00    -0.200 F 
ATOM     71  C   UNL A   1      40.466  26.308  26.553  1.00  0.00     0.200 A 
ATOM     72  F   UNL A   1      41.863  27.872  25.469  1.00  0.00    -0.200 F 
ATOM     73  F   UNL A   1      40.520  25.499  25.487  1.00  0.00    -0.200 F 
ENDBRANCH  49  63
BRANCH  50  74
ATOM     74  C   UNL A   1      39.630  33.923  36.817  1.00  0.00     0.064 A 
ATOM     75  C   UNL A   1      40.277  35.163  36.907  1.00  0.00     0.173 A 
ATOM     76  C   UNL A   1      38.818  33.529  37.891  1.00  0.00     0.173 A 
ATOM     77  F   UNL A   1      41.078  35.574  35.912  1.00  0.00    -0.203 F 
ATOM     78  C   UNL A   1      40.126  35.974  38.030  1.00  0.00     0.198 A 
ATOM     79  C   UNL A   1      38.650  34.351  39.003  1.00  0.00     0.198 A 
ATOM     80  F   UNL A   1      38.173  32.355  37.849  1.00  0.00    -0.203 F 
ATOM     81  F   UNL A   1      40.780  37.141  38.103  1.00  0.00    -0.200 F 
ATOM     82  C   UNL A   1      39.307  35.571  39.074  1.00  0.00     0.200 A 
ATOM     83  F   UNL A   1      37.847  33.965  40.004  1.00  0.00    -0.200 F 
ATOM     84  F   UNL A   1      39.154  36.355  40.149  1.00  0.00    -0.200 F 
ENDBRANCH  50  74
BRANCH  62  85
ATOM     85  C   UNL A   1      43.913  28.701  35.056  1.00  0.00     0.064 A 
ATOM     86  C   UNL A   1      43.752  27.613  35.924  1.00  0.00     0.173 A 
ATOM     87  C   UNL A   1      45.218  29.142  34.783  1.00  0.00     0.173 A 
ATOM     88  F   UNL A   1      42.524  27.167  36.226  1.00  0.00    -0.203 F 
ATOM     89  C   UNL A   1      44.856  26.994  36.504  1.00  0.00     0.198 A 
ATOM     90  C   UNL A   1      46.320  28.504  35.344  1.00  0.00     0.198 A 
ATOM     91  F   UNL A   1      45.423  30.175  33.953  1.00  0.00    -0.203 F 
ATOM     92  F   UNL A   1      44.679  25.973  37.353  1.00  0.00    -0.200 F 
ATOM     93  C   UNL A   1      46.138  27.433  36.206  1.00  0.00     0.200 A 
ATOM     94  F   UNL A   1      47.558  28.921  35.045  1.00  0.00    -0.200 F 
ATOM     95  F   UNL A   1      47.200  26.824  36.752  1.00  0.00    -0.200 F 
ENDBRANCH  62  85
ENDBRANCH  36  37
ENDBRANCH  28  31
ENDBRANCH  26  27
ENDBRANCH  25  26
ENDBRANCH   1  25
TORSDOF 14
ENDMDL
MODEL 2
REMARK VINA RESULT:     -12.4      0.278      1.153
REMARK SMILES C[C@@H]1[C@H](C)CC[C@@H]1NC(=O)N1CCO[C@H](CC(=O)NCCCCNC(=O)c2ccc(-c3c4nc(c(-c5c(F)c(F)c(F)c(F)c5F)c5ccc([nH]5)c(-c5c(F)c(F)c(F)c(F)c5F)c5nc(c(-c6c(F)c(F)c(F)c(F)c6F)c6ccc3[nH]6)C=C5)C=C4)cc2)C1
REMARK SMILES IDX 21 1 20 2 19 3 17 4 18 5 16 7 15 8 11 9 12 10 90 11 13 12
REMARK SMILES IDX 14 13 9 14 8 15 10 17 7 18 1 19 2 20 3 21 4 22 5 23 6 24
REMARK SMILES IDX 22 25 23 26 24 27 25 28 26 30 27 31 28 32 89 33 29 34 88 35
REMARK SMILES IDX 30 36 31 37 32 38 82 39 33 40 87 41 81 42 83 43 34 44 86 45
REMARK SMILES IDX 80 46 79 47 35 49 67 50 47 51 66 52 48 53 51 54 65 55 84 56
REMARK SMILES IDX 49 57 50 58 64 60 85 61 52 62 36 63 37 64 45 65 38 66 39 67
REMARK SMILES IDX 43 68 46 69 40 70 41 71 44 72 42 73 68 74 69 75 77 76 70 77
REMARK SMILES IDX 71 78 75 79 78 80 72 81 73 82 76 83 74 84 53 85 54 86 62 87
REMARK SMILES IDX 55 88 56 89 60 90 63 91 57 92 58 93 61 94 59 95
REMARK H PARENT 19 6 8 16 24 29 83 48 51 59
REMARK Flexibility Score: inf
ROOT
ATOM      1  C   UNL A   1      32.155  30.251  27.052  1.00  0.00     0.023 C 
ENDROOT
BRANCH   1   2
ATOM      2  C   UNL A   1      33.520  29.804  26.541  1.00  0.00     0.116 C 
BRANCH   2   3
ATOM      3  N   UNL A   1      33.593  29.852  25.100  1.00  0.00    -0.356 N 
ATOM      4  C   UNL A   1      33.354  28.853  24.208  1.00  0.00     0.222 C 
ATOM      5  O   UNL A   1      33.442  29.111  23.009  1.00  0.00    -0.275 OA
ATOM      6  H   UNL A   1      33.849  30.720  24.712  1.00  0.00     0.163 HD
BRANCH   4   7
ATOM      7  C   UNL A   1      32.997  27.472  24.703  1.00  0.00     0.133 C 
BRANCH   7   8
ATOM      8  C   UNL A   1      31.507  27.293  25.022  1.00  0.00     0.147 C 
ATOM      9  N   UNL A   1      31.413  24.898  25.575  1.00  0.00    -0.320 N 
ATOM     10  C   UNL A   1      30.655  24.627  24.359  1.00  0.00     0.150 C 
ATOM     11  C   UNL A   1      31.184  26.238  26.097  1.00  0.00     0.154 C 
ATOM     12  C   UNL A   1      30.893  25.712  23.301  1.00  0.00     0.182 C 
ATOM     13  O   UNL A   1      30.739  27.045  23.820  1.00  0.00    -0.374 OA
BRANCH   9  14
ATOM     14  C   UNL A   1      32.001  23.981  26.394  1.00  0.00     0.317 C 
ATOM     15  N   UNL A   1      33.238  23.505  26.141  1.00  0.00    -0.335 N 
ATOM     16  H   UNL A   1      33.493  22.764  26.738  1.00  0.00     0.165 HD
ATOM     17  O   UNL A   1      31.463  23.605  27.439  1.00  0.00    -0.249 OA
BRANCH  15  18
ATOM     18  C   UNL A   1      34.284  23.845  25.181  1.00  0.00     0.087 C 
ATOM     19  C   UNL A   1      33.171  22.417  23.298  1.00  0.00     0.010 C 
ATOM     20  C   UNL A   1      34.441  22.819  24.034  1.00  0.00     0.011 C 
ATOM     21  C   UNL A   1      35.292  21.672  24.626  1.00  0.00    -0.009 C 
ATOM     22  C   UNL A   1      34.524  20.467  25.165  1.00  0.00     0.008 C 
ATOM     23  C   UNL A   1      36.119  22.334  25.734  1.00  0.00     0.006 C 
ATOM     24  C   UNL A   1      35.690  23.794  25.775  1.00  0.00     0.025 C 
ENDBRANCH  15  18
ENDBRANCH   9  14
ENDBRANCH   7   8
ENDBRANCH   4   7
ENDBRANCH   2   3
ENDBRANCH   1   2
BRANCH   1  25
ATOM     25  C   UNL A   1      31.872  31.744  26.899  1.00  0.00     0.023 C 
BRANCH  25  26
ATOM     26  C   UNL A   1      32.974  32.660  27.407  1.00  0.00     0.116 C 
BRANCH  26  27
ATOM     27  N   UNL A   1      32.519  34.015  27.685  1.00  0.00    -0.352 N 
ATOM     28  C   UNL A   1      33.030  34.910  28.593  1.00  0.00     0.251 C 
ATOM     29  H   UNL A   1      31.750  34.328  27.155  1.00  0.00     0.163 HD
ATOM     30  O   UNL A   1      32.505  35.998  28.778  1.00  0.00    -0.269 OA
BRANCH  28  31
ATOM     31  C   UNL A   1      34.210  34.502  29.375  1.00  0.00     0.039 A 
ATOM     32  C   UNL A   1      34.020  33.850  30.593  1.00  0.00     0.014 A 
ATOM     33  C   UNL A   1      35.489  34.687  28.846  1.00  0.00     0.014 A 
ATOM     34  C   UNL A   1      35.121  33.316  31.260  1.00  0.00     0.010 A 
ATOM     35  C   UNL A   1      36.574  34.095  29.475  1.00  0.00     0.010 A 
ATOM     36  C   UNL A   1      36.399  33.406  30.687  1.00  0.00    -0.014 A 
BRANCH  36  37
ATOM     37  C   UNL A   1      37.592  32.819  31.339  1.00  0.00     0.031 A 
ATOM     38  C   UNL A   1      38.298  31.677  30.671  1.00  0.00     0.074 A 
ATOM     39  C   UNL A   1      37.961  33.230  32.565  1.00  0.00     0.049 A 
ATOM     40  N   UNL A   1      39.233  30.891  31.138  1.00  0.00    -0.248 NA
ATOM     41  C   UNL A   1      37.857  31.347  29.305  1.00  0.00     0.031 C 
ATOM     42  C   UNL A   1      37.324  34.305  33.327  1.00  0.00     0.029 A 
ATOM     43  N   UNL A   1      38.947  32.768  33.399  1.00  0.00    -0.354 N 
ATOM     44  C   UNL A   1      39.462  29.953  30.141  1.00  0.00     0.074 A 
ATOM     45  C   UNL A   1      38.542  30.241  29.063  1.00  0.00     0.031 C 
ATOM     46  C   UNL A   1      37.938  34.422  34.516  1.00  0.00     0.029 A 
ATOM     47  C   UNL A   1      38.980  33.404  34.615  1.00  0.00     0.049 A 
ATOM     48  H   UNL A   1      39.571  32.049  33.150  1.00  0.00     0.167 HD
ATOM     49  C   UNL A   1      40.372  28.950  30.124  1.00  0.00     0.037 A 
ATOM     50  C   UNL A   1      39.753  33.176  35.694  1.00  0.00     0.037 A 
ATOM     51  C   UNL A   1      41.310  28.700  31.183  1.00  0.00     0.049 A 
ATOM     52  C   UNL A   1      40.776  32.075  35.643  1.00  0.00     0.074 A 
ATOM     53  C   UNL A   1      42.320  27.757  31.239  1.00  0.00     0.029 A 
ATOM     54  N   UNL A   1      41.354  29.407  32.377  1.00  0.00    -0.354 N 
ATOM     55  N   UNL A   1      41.025  31.224  34.677  1.00  0.00    -0.248 NA
ATOM     56  C   UNL A   1      41.630  31.904  36.826  1.00  0.00     0.031 C 
ATOM     57  C   UNL A   1      42.952  27.869  32.482  1.00  0.00     0.029 A 
ATOM     58  C   UNL A   1      42.367  28.913  33.182  1.00  0.00     0.049 A 
ATOM     59  H   UNL A   1      40.754  30.149  32.616  1.00  0.00     0.167 HD
ATOM     60  C   UNL A   1      42.081  30.439  35.120  1.00  0.00     0.074 A 
ATOM     61  C   UNL A   1      42.426  30.916  36.444  1.00  0.00     0.031 C 
ATOM     62  C   UNL A   1      42.707  29.418  34.487  1.00  0.00     0.037 A 
BRANCH  49  63
ATOM     63  C   UNL A   1      40.382  28.051  28.923  1.00  0.00     0.064 A 
ATOM     64  C   UNL A   1      39.646  26.857  28.887  1.00  0.00     0.173 A 
ATOM     65  C   UNL A   1      41.142  28.386  27.793  1.00  0.00     0.173 A 
ATOM     66  F   UNL A   1      38.915  26.483  29.948  1.00  0.00    -0.203 F 
ATOM     67  C   UNL A   1      39.702  26.013  27.781  1.00  0.00     0.198 A 
ATOM     68  C   UNL A   1      41.171  27.556  26.675  1.00  0.00     0.198 A 
ATOM     69  F   UNL A   1      41.862  29.518  27.773  1.00  0.00    -0.203 F 
ATOM     70  F   UNL A   1      39.041  24.847  27.797  1.00  0.00    -0.200 F 
ATOM     71  C   UNL A   1      40.460  26.365  26.675  1.00  0.00     0.200 A 
ATOM     72  F   UNL A   1      41.896  27.902  25.603  1.00  0.00    -0.200 F 
ATOM     73  F   UNL A   1      40.517  25.550  25.613  1.00  0.00    -0.200 F 
ENDBRANCH  49  63
BRANCH  50  74
ATOM     74  C   UNL A   1      39.600  34.029  36.900  1.00  0.00     0.064 A 
ATOM     75  C   UNL A   1      38.799  33.614  37.973  1.00  0.00     0.173 A 
ATOM     76  C   UNL A   1      40.270  35.256  37.019  1.00  0.00     0.173 A 
ATOM     77  F   UNL A   1      38.126  32.457  37.897  1.00  0.00    -0.203 F 
ATOM     78  C   UNL A   1      38.666  34.398  39.117  1.00  0.00     0.198 A 
ATOM     79  C   UNL A   1      40.154  36.028  38.173  1.00  0.00     0.198 A 
ATOM     80  F   UNL A   1      41.053  35.692  36.022  1.00  0.00    -0.203 F 
ATOM     81  F   UNL A   1      37.871  33.992  40.116  1.00  0.00    -0.200 F 
ATOM     82  C   UNL A   1      39.349  35.601  39.219  1.00  0.00     0.200 A 
ATOM     83  F   UNL A   1      40.826  37.183  38.275  1.00  0.00    -0.200 F 
ATOM     84  F   UNL A   1      39.229  36.349  40.324  1.00  0.00    -0.200 F 
ENDBRANCH  50  74
BRANCH  62  85
ATOM     85  C   UNL A   1      43.868  28.777  35.188  1.00  0.00     0.064 A 
ATOM     86  C   UNL A   1      43.701  27.666  36.025  1.00  0.00     0.173 A 
ATOM     87  C   UNL A   1      45.173  29.241  34.956  1.00  0.00     0.173 A 
ATOM     88  F   UNL A   1      42.472  27.197  36.287  1.00  0.00    -0.203 F 
ATOM     89  C   UNL A   1      44.799  27.045  36.614  1.00  0.00     0.198 A 
ATOM     90  C   UNL A   1      46.270  28.602  35.526  1.00  0.00     0.198 A 
ATOM     91  F   UNL A   1      45.382  30.298  34.158  1.00  0.00    -0.203 F 
ATOM     92  F   UNL A   1      44.617  26.001  37.433  1.00  0.00    -0.200 F 
ATOM     93  C   UNL A   1      46.082  27.508  36.356  1.00  0.00     0.200 A 
ATOM     94  F   UNL A   1      47.508  29.043  35.266  1.00  0.00    -0.200 F 
ATOM     95  F   UNL A   1      47.139  26.899  36.910  1.00  0.00    -0.200 F 
ENDBRANCH  62  85
ENDBRANCH  36  37
ENDBRANCH  28  31
ENDBRANCH  26  27
ENDBRANCH  25  26
ENDBRANCH   1  25
TORSDOF 14
ENDMDL
MODEL 3
REMARK VINA RESULT:     -12.4      0.669      2.124
REMARK SMILES C[C@@H]1[C@H](C)CC[C@@H]1NC(=O)N1CCO[C@H](CC(=O)NCCCCNC(=O)c2ccc(-c3c4nc(c(-c5c(F)c(F)c(F)c(F)c5F)c5ccc([nH]5)c(-c5c(F)c(F)c(F)c(F)c5F)c5nc(c(-c6c(F)c(F)c(F)c(F)c6F)c6ccc3[nH]6)C=C5)C=C4)cc2)C1
REMARK SMILES IDX 21 1 20 2 19 3 17 4 18 5 16 7 15 8 11 9 12 10 90 11 13 12
REMARK SMILES IDX 14 13 9 14 8 15 10 17 7 18 1 19 2 20 3 21 4 22 5 23 6 24
REMARK SMILES IDX 22 25 23 26 24 27 25 28 26 30 27 31 28 32 89 33 29 34 88 35
REMARK SMILES IDX 30 36 31 37 32 38 82 39 33 40 87 41 81 42 83 43 34 44 86 45
REMARK SMILES IDX 80 46 79 47 35 49 67 50 47 51 66 52 48 53 51 54 65 55 84 56
REMARK SMILES IDX 49 57 50 58 64 60 85 61 52 62 36 63 37 64 45 65 38 66 39 67
REMARK SMILES IDX 43 68 46 69 40 70 41 71 44 72 42 73 68 74 69 75 77 76 70 77
REMARK SMILES IDX 71 78 75 79 78 80 72 81 73 82 76 83 74 84 53 85 54 86 62 87
REMARK SMILES IDX 55 88 56 89 60 90 63 91 57 92 58 93 61 94 59 95
REMARK H PARENT 19 6 8 16 24 29 83 48 51 59
REMARK Flexibility Score: inf
ROOT
ATOM      1  C   UNL A   1      31.477  30.830  25.928  1.00  0.00     0.023 C 
ENDROOT
BRANCH   1   2
ATOM      2  C   UNL A   1      32.824  30.179  26.223  1.00  0.00     0.116 C 
BRANCH   2   3
ATOM      3  N   UNL A   1      33.435  29.650  25.027  1.00  0.00    -0.356 N 
ATOM      4  C   UNL A   1      33.474  28.360  24.597  1.00  0.00     0.222 C 
ATOM      5  O   UNL A   1      34.024  28.121  23.524  1.00  0.00    -0.275 OA
ATOM      6  H   UNL A   1      33.882  30.308  24.446  1.00  0.00     0.163 HD
BRANCH   4   7
ATOM      7  C   UNL A   1      32.855  27.269  25.438  1.00  0.00     0.133 C 
BRANCH   7   8
ATOM      8  C   UNL A   1      31.322  27.244  25.390  1.00  0.00     0.147 C 
ATOM      9  N   UNL A   1      30.871  24.829  25.542  1.00  0.00    -0.320 N 
ATOM     10  C   UNL A   1      30.399  24.811  24.162  1.00  0.00     0.150 C 
ATOM     11  C   UNL A   1      30.654  26.113  26.196  1.00  0.00     0.154 C 
ATOM     12  C   UNL A   1      30.982  25.980  23.358  1.00  0.00     0.182 C 
ATOM     13  O   UNL A   1      30.839  27.247  24.026  1.00  0.00    -0.374 OA
BRANCH   9  14
ATOM     14  C   UNL A   1      31.159  23.751  26.322  1.00  0.00     0.317 C 
ATOM     15  N   UNL A   1      32.313  23.065  26.175  1.00  0.00    -0.335 N 
ATOM     16  H   UNL A   1      32.340  22.241  26.714  1.00  0.00     0.165 HD
ATOM     17  O   UNL A   1      30.418  23.399  27.244  1.00  0.00    -0.249 OA
BRANCH  15  18
ATOM     18  C   UNL A   1      33.530  23.274  25.396  1.00  0.00     0.087 C 
ATOM     19  C   UNL A   1      32.567  21.981  23.341  1.00  0.00     0.010 C 
ATOM     20  C   UNL A   1      33.743  22.232  24.273  1.00  0.00     0.011 C 
ATOM     21  C   UNL A   1      34.348  20.994  24.974  1.00  0.00    -0.009 C 
ATOM     22  C   UNL A   1      33.369  19.892  25.369  1.00  0.00     0.008 C 
ATOM     23  C   UNL A   1      35.064  21.558  26.208  1.00  0.00     0.006 C 
ATOM     24  C   UNL A   1      34.808  23.059  26.203  1.00  0.00     0.025 C 
ENDBRANCH  15  18
ENDBRANCH   9  14
ENDBRANCH   7   8
ENDBRANCH   4   7
ENDBRANCH   2   3
ENDBRANCH   1   2
BRANCH   1  25
ATOM     25  C   UNL A   1      31.247  32.170  26.621  1.00  0.00     0.023 C 
BRANCH  25  26
ATOM     26  C   UNL A   1      32.514  32.928  26.986  1.00  0.00     0.116 C 
BRANCH  26  27
ATOM     27  N   UNL A   1      32.257  34.208  27.631  1.00  0.00    -0.352 N 
ATOM     28  C   UNL A   1      32.964  34.799  28.651  1.00  0.00     0.251 C 
ATOM     29  H   UNL A   1      31.480  34.712  27.295  1.00  0.00     0.163 HD
ATOM     30  O   UNL A   1      32.596  35.850  29.153  1.00  0.00    -0.269 OA
BRANCH  28  31
ATOM     31  C   UNL A   1      34.160  34.103  29.153  1.00  0.00     0.039 A 
ATOM     32  C   UNL A   1      35.419  34.536  28.733  1.00  0.00     0.014 A 
ATOM     33  C   UNL A   1      34.025  33.092  30.108  1.00  0.00     0.014 A 
ATOM     34  C   UNL A   1      36.559  33.994  29.325  1.00  0.00     0.010 A 
ATOM     35  C   UNL A   1      35.157  32.606  30.745  1.00  0.00     0.010 A 
ATOM     36  C   UNL A   1      36.432  33.053  30.358  1.00  0.00    -0.014 A 
BRANCH  36  37
ATOM     37  C   UNL A   1      37.614  32.481  31.045  1.00  0.00     0.031 A 
ATOM     38  C   UNL A   1      38.344  31.338  30.406  1.00  0.00     0.074 A 
ATOM     39  C   UNL A   1      37.950  32.908  32.275  1.00  0.00     0.049 A 
ATOM     40  N   UNL A   1      39.273  30.564  30.904  1.00  0.00    -0.248 NA
ATOM     41  C   UNL A   1      37.939  30.991  29.034  1.00  0.00     0.031 C 
ATOM     42  C   UNL A   1      37.287  33.986  33.010  1.00  0.00     0.029 A 
ATOM     43  N   UNL A   1      38.918  32.462  33.138  1.00  0.00    -0.354 N 
ATOM     44  C   UNL A   1      39.534  29.618  29.923  1.00  0.00     0.074 A 
ATOM     45  C   UNL A   1      38.637  29.887  28.820  1.00  0.00     0.031 C 
ATOM     46  C   UNL A   1      37.870  34.120  34.212  1.00  0.00     0.029 A 
ATOM     47  C   UNL A   1      38.917  33.111  34.347  1.00  0.00     0.049 A 
ATOM     48  H   UNL A   1      39.554  31.745  32.911  1.00  0.00     0.167 HD
ATOM     49  C   UNL A   1      40.450  28.622  29.939  1.00  0.00     0.037 A 
ATOM     50  C   UNL A   1      39.666  32.900  35.447  1.00  0.00     0.037 A 
ATOM     51  C   UNL A   1      41.365  28.390  31.023  1.00  0.00     0.049 A 
ATOM     52  C   UNL A   1      40.697  31.807  35.432  1.00  0.00     0.074 A 
ATOM     53  C   UNL A   1      42.380  27.455  31.113  1.00  0.00     0.029 A 
ATOM     54  N   UNL A   1      41.375  29.109  32.210  1.00  0.00    -0.354 N 
ATOM     55  N   UNL A   1      40.977  30.948  34.482  1.00  0.00    -0.248 NA
ATOM     56  C   UNL A   1      41.523  31.655  36.638  1.00  0.00     0.031 C 
ATOM     57  C   UNL A   1      42.981  27.585  32.370  1.00  0.00     0.029 A 
ATOM     58  C   UNL A   1      42.371  28.631  33.044  1.00  0.00     0.049 A 
ATOM     59  H   UNL A   1      40.763  29.849  32.427  1.00  0.00     0.167 HD
ATOM     60  C   UNL A   1      42.027  30.176  34.959  1.00  0.00     0.074 A 
ATOM     61  C   UNL A   1      42.337  30.669  36.285  1.00  0.00     0.031 C 
ATOM     62  C   UNL A   1      42.676  29.153  34.352  1.00  0.00     0.037 A 
BRANCH  49  63
ATOM     63  C   UNL A   1      40.496  27.711  28.747  1.00  0.00     0.064 A 
ATOM     64  C   UNL A   1      41.300  27.993  27.632  1.00  0.00     0.173 A 
ATOM     65  C   UNL A   1      39.723  26.541  28.718  1.00  0.00     0.173 A 
ATOM     66  F   UNL A   1      42.046  29.107  27.603  1.00  0.00    -0.203 F 
ATOM     67  C   UNL A   1      41.296  27.160  26.517  1.00  0.00     0.198 A 
ATOM     68  C   UNL A   1      39.746  25.693  27.615  1.00  0.00     0.198 A 
ATOM     69  F   UNL A   1      38.939  26.222  29.760  1.00  0.00    -0.203 F 
ATOM     70  F   UNL A   1      42.023  27.485  25.438  1.00  0.00    -0.200 F 
ATOM     71  C   UNL A   1      40.524  26.009  26.510  1.00  0.00     0.200 A 
ATOM     72  F   UNL A   1      39.007  24.575  27.614  1.00  0.00    -0.200 F 
ATOM     73  F   UNL A   1      40.518  25.209  25.435  1.00  0.00    -0.200 F 
ENDBRANCH  49  63
BRANCH  50  74
ATOM     74  C   UNL A   1      39.477  33.765  36.640  1.00  0.00     0.064 A 
ATOM     75  C   UNL A   1      38.708  33.326  37.727  1.00  0.00     0.173 A 
ATOM     76  C   UNL A   1      40.081  35.027  36.732  1.00  0.00     0.173 A 
ATOM     77  F   UNL A   1      38.097  32.133  37.676  1.00  0.00    -0.203 F 
ATOM     78  C   UNL A   1      38.543  34.121  38.859  1.00  0.00     0.198 A 
ATOM     79  C   UNL A   1      39.934  35.812  37.874  1.00  0.00     0.198 A 
ATOM     80  F   UNL A   1      40.832  35.488  35.721  1.00  0.00    -0.203 F 
ATOM     81  F   UNL A   1      37.779  33.691  39.871  1.00  0.00    -0.200 F 
ATOM     82  C   UNL A   1      39.161  35.361  38.935  1.00  0.00     0.200 A 
ATOM     83  F   UNL A   1      40.544  37.002  37.951  1.00  0.00    -0.200 F 
ATOM     84  F   UNL A   1      39.010  36.120  40.027  1.00  0.00    -0.200 F 
ENDBRANCH  50  74
BRANCH  62  85
ATOM     85  C   UNL A   1      43.824  28.529  35.088  1.00  0.00     0.064 A 
ATOM     86  C   UNL A   1      45.118  29.061  35.021  1.00  0.00     0.173 A 
ATOM     87  C   UNL A   1      43.604  27.426  35.929  1.00  0.00     0.173 A 
ATOM     88  F   UNL A   1      45.378  30.105  34.220  1.00  0.00    -0.203 F 
ATOM     89  C   UNL A   1      46.157  28.506  35.764  1.00  0.00     0.198 A 
ATOM     90  C   UNL A   1      44.639  26.890  36.689  1.00  0.00     0.198 A 
ATOM     91  F   UNL A   1      42.381  26.886  36.030  1.00  0.00    -0.203 F 
ATOM     92  F   UNL A   1      47.393  29.011  35.666  1.00  0.00    -0.200 F 
ATOM     93  C   UNL A   1      45.914  27.428  36.604  1.00  0.00     0.200 A 
ATOM     94  F   UNL A   1      44.400  25.858  37.509  1.00  0.00    -0.200 F 
ATOM     95  F   UNL A   1      46.911  26.906  37.331  1.00  0.00    -0.200 F 
ENDBRANCH  62  85
ENDBRANCH  36  37
ENDBRANCH  28  31
ENDBRANCH  26  27
ENDBRANCH  25  26
ENDBRANCH   1  25
TORSDOF 14
ENDMDL
