MODEL 1
REMARK VINA RESULT:     -13.1      0.000      0.000
REMARK SMILES O=C(NCCCCNC(=O)c1ccc(-c2c3nc(c(-c4c(F)c(F)c(F)c(F)c4F)c4ccc([nH]4)c(-c4c(F)c(F)c(F)c(F)c4F)c4nc(c(-c5c(F)c(F)c(F)c(F)c5F)c5ccc2[nH]5)C=C4)C=C3)cc1)c1ccc(Cn2cc(Cl)c(=O)[nH]c2=O)cc1
REMARK SMILES IDX 5 1 4 2 3 3 1 4 2 5 74 7 75 8 89 9 76 10 88 11 77 12 78 13
REMARK SMILES IDX 79 14 80 15 86 16 81 17 85 18 87 19 82 20 83 21 84 23 6 24
REMARK SMILES IDX 7 25 8 26 9 27 10 29 11 30 12 31 73 32 13 33 72 34 14 35
REMARK SMILES IDX 15 36 16 37 66 38 17 39 71 40 65 41 67 42 18 43 70 44 64 45
REMARK SMILES IDX 63 46 19 48 51 49 31 50 50 51 32 52 35 53 49 54 68 55 33 56
REMARK SMILES IDX 34 57 48 59 69 60 36 61 20 62 21 63 29 64 22 65 23 66 27 67
REMARK SMILES IDX 30 68 24 69 25 70 28 71 26 72 52 73 53 74 61 75 54 76 55 77
REMARK SMILES IDX 59 78 62 79 56 80 57 81 60 82 58 83 37 84 38 85 46 86 39 87
REMARK SMILES IDX 40 88 44 89 47 90 41 91 42 92 45 93 43 94
REMARK H PARENT 3 6 85 22 8 28 67 47 35 58
REMARK Flexibility Score: inf
ROOT
ATOM      1  C   UNL A   1      31.596  30.542  26.392  1.00  0.00     0.023 C 
ENDROOT
BRANCH   1   2
ATOM      2  C   UNL A   1      32.996  30.034  26.062  1.00  0.00     0.116 C 
BRANCH   2   3
ATOM      3  N   UNL A   1      33.149  29.702  24.653  1.00  0.00    -0.352 N 
ATOM      4  O   UNL A   1      33.386  28.324  22.872  1.00  0.00    -0.269 OA
ATOM      5  C   UNL A   1      33.105  28.465  24.058  1.00  0.00     0.251 C 
ATOM      6  H   UNL A   1      33.303  30.463  24.049  1.00  0.00     0.163 HD
BRANCH   5   7
ATOM      7  C   UNL A   1      32.724  27.298  24.873  1.00  0.00     0.039 A 
ATOM      8  C   UNL A   1      33.715  26.469  25.405  1.00  0.00     0.014 A 
ATOM      9  C   UNL A   1      31.373  27.009  25.067  1.00  0.00     0.014 A 
ATOM     10  C   UNL A   1      33.347  25.299  26.068  1.00  0.00     0.006 A 
ATOM     11  C   UNL A   1      31.010  25.827  25.718  1.00  0.00     0.006 A 
ATOM     12  C   UNL A   1      31.994  24.948  26.200  1.00  0.00    -0.028 A 
BRANCH  12  13
ATOM     13  C   UNL A   1      31.604  23.618  26.813  1.00  0.00     0.162 C 
BRANCH  13  14
ATOM     14  N   UNL A   1      32.331  22.485  26.222  1.00  0.00    -0.295 N 
ATOM     15  C   UNL A   1      31.993  22.034  24.957  1.00  0.00     0.117 A 
ATOM     16  C   UNL A   1      33.361  21.896  26.947  1.00  0.00     0.328 A 
ATOM     17  C   UNL A   1      32.607  21.005  24.367  1.00  0.00     0.122 A 
ATOM     18  N   UNL A   1      34.003  20.855  26.323  1.00  0.00    -0.273 N 
ATOM     19  O   UNL A   1      33.713  22.251  28.070  1.00  0.00    -0.248 OA
ATOM     20  Cl  UNL A   1      32.153  20.444  22.812  1.00  0.00    -0.077 Cl
ATOM     21  C   UNL A   1      33.715  20.337  25.088  1.00  0.00     0.272 A 
ATOM     22  H   UNL A   1      34.747  20.437  26.815  1.00  0.00     0.175 HD
ATOM     23  O   UNL A   1      34.342  19.390  24.626  1.00  0.00    -0.268 OA
ENDBRANCH  13  14
ENDBRANCH  12  13
ENDBRANCH   5   7
ENDBRANCH   2   3
ENDBRANCH   1   2
BRANCH   1  24
ATOM     24  C   UNL A   1      31.474  32.057  26.556  1.00  0.00     0.023 C 
BRANCH  24  25
ATOM     25  C   UNL A   1      32.626  32.732  27.290  1.00  0.00     0.116 C 
BRANCH  25  26
ATOM     26  N   UNL A   1      32.361  34.123  27.625  1.00  0.00    -0.352 N 
ATOM     27  C   UNL A   1      32.969  34.932  28.554  1.00  0.00     0.251 C 
ATOM     28  H   UNL A   1      31.636  34.547  27.110  1.00  0.00     0.163 HD
ATOM     29  O   UNL A   1      32.528  36.055  28.776  1.00  0.00    -0.269 OA
BRANCH  27  30
ATOM     30  C   UNL A   1      34.139  34.440  29.316  1.00  0.00     0.039 A 
ATOM     31  C   UNL A   1      33.927  33.844  30.562  1.00  0.00     0.014 A 
ATOM     32  C   UNL A   1      35.434  34.553  28.806  1.00  0.00     0.014 A 
ATOM     33  C   UNL A   1      35.003  33.292  31.260  1.00  0.00     0.010 A 
ATOM     34  C   UNL A   1      36.494  33.935  29.464  1.00  0.00     0.010 A 
ATOM     35  C   UNL A   1      36.290  33.296  30.696  1.00  0.00    -0.014 A 
BRANCH  35  36
ATOM     36  C   UNL A   1      37.432  32.630  31.375  1.00  0.00     0.031 A 
ATOM     37  C   UNL A   1      38.137  31.477  30.718  1.00  0.00     0.074 A 
ATOM     38  C   UNL A   1      37.791  33.021  32.614  1.00  0.00     0.049 A 
ATOM     39  N   UNL A   1      39.106  30.726  31.178  1.00  0.00    -0.248 NA
ATOM     40  C   UNL A   1      37.671  31.099  29.375  1.00  0.00     0.031 C 
ATOM     41  C   UNL A   1      37.159  34.096  33.379  1.00  0.00     0.029 A 
ATOM     42  N   UNL A   1      38.772  32.548  33.452  1.00  0.00    -0.354 N 
ATOM     43  C   UNL A   1      39.352  29.780  30.191  1.00  0.00     0.074 A 
ATOM     44  C   UNL A   1      38.396  30.017  29.131  1.00  0.00     0.031 C 
ATOM     45  C   UNL A   1      37.784  34.220  34.561  1.00  0.00     0.029 A 
ATOM     46  C   UNL A   1      38.834  33.211  34.654  1.00  0.00     0.049 A 
ATOM     47  H   UNL A   1      39.372  31.806  33.214  1.00  0.00     0.167 HD
ATOM     48  C   UNL A   1      40.305  28.817  30.160  1.00  0.00     0.037 A 
ATOM     49  C   UNL A   1      39.643  33.020  35.714  1.00  0.00     0.037 A 
ATOM     50  C   UNL A   1      41.271  28.600  31.204  1.00  0.00     0.049 A 
ATOM     51  C   UNL A   1      40.681  31.933  35.660  1.00  0.00     0.074 A 
ATOM     52  C   UNL A   1      42.317  27.692  31.237  1.00  0.00     0.029 A 
ATOM     53  N   UNL A   1      41.306  29.294  32.404  1.00  0.00    -0.354 N 
ATOM     54  N   UNL A   1      40.954  31.093  34.691  1.00  0.00    -0.248 NA
ATOM     55  C   UNL A   1      41.530  31.771  36.850  1.00  0.00     0.031 C 
ATOM     56  C   UNL A   1      42.955  27.807  32.478  1.00  0.00     0.029 A 
ATOM     57  C   UNL A   1      42.341  28.819  33.195  1.00  0.00     0.049 A 
ATOM     58  H   UNL A   1      40.689  30.018  32.656  1.00  0.00     0.167 HD
ATOM     59  C   UNL A   1      42.022  30.327  35.138  1.00  0.00     0.074 A 
ATOM     60  C   UNL A   1      42.356  30.810  36.462  1.00  0.00     0.031 C 
ATOM     61  C   UNL A   1      42.668  29.316  34.508  1.00  0.00     0.037 A 
BRANCH  48  62
ATOM     62  C   UNL A   1      40.346  27.925  28.952  1.00  0.00     0.064 A 
ATOM     63  C   UNL A   1      41.103  28.254  27.817  1.00  0.00     0.173 A 
ATOM     64  C   UNL A   1      39.637  26.713  28.936  1.00  0.00     0.173 A 
ATOM     65  F   UNL A   1      41.790  29.405  27.775  1.00  0.00    -0.203 F 
ATOM     66  C   UNL A   1      41.119  27.424  26.699  1.00  0.00     0.198 A 
ATOM     67  C   UNL A   1      39.682  25.870  27.830  1.00  0.00     0.198 A 
ATOM     68  F   UNL A   1      38.903  26.346  29.998  1.00  0.00    -0.203 F 
ATOM     69  F   UNL A   1      41.802  27.789  25.605  1.00  0.00    -0.200 F 
ATOM     70  C   UNL A   1      40.413  26.230  26.708  1.00  0.00     0.200 A 
ATOM     71  F   UNL A   1      39.010  24.710  27.845  1.00  0.00    -0.200 F 
ATOM     72  F   UNL A   1      40.432  25.432  25.633  1.00  0.00    -0.200 F 
ENDBRANCH  48  62
BRANCH  49  73
ATOM     73  C   UNL A   1      39.528  33.901  36.905  1.00  0.00     0.064 A 
ATOM     74  C   UNL A   1      38.752  33.516  38.007  1.00  0.00     0.173 A 
ATOM     75  C   UNL A   1      40.178  35.141  36.967  1.00  0.00     0.173 A 
ATOM     76  F   UNL A   1      38.093  32.348  37.986  1.00  0.00    -0.203 F 
ATOM     77  C   UNL A   1      38.616  34.345  39.118  1.00  0.00     0.198 A 
ATOM     78  C   UNL A   1      40.064  35.959  38.090  1.00  0.00     0.198 A 
ATOM     79  F   UNL A   1      40.935  35.555  35.940  1.00  0.00    -0.203 F 
ATOM     80  F   UNL A   1      37.831  33.972  40.138  1.00  0.00    -0.200 F 
ATOM     81  C   UNL A   1      39.275  35.564  39.161  1.00  0.00     0.200 A 
ATOM     82  F   UNL A   1      40.714  37.130  38.132  1.00  0.00    -0.200 F 
ATOM     83  F   UNL A   1      39.147  36.361  40.230  1.00  0.00    -0.200 F 
ENDBRANCH  49  73
BRANCH  61  84
ATOM     84  C   UNL A   1      43.829  28.690  35.224  1.00  0.00     0.064 A 
ATOM     85  C   UNL A   1      45.145  29.134  35.027  1.00  0.00     0.173 A 
ATOM     86  C   UNL A   1      43.617  27.655  36.149  1.00  0.00     0.173 A 
ATOM     87  F   UNL A   1      45.403  30.109  34.143  1.00  0.00    -0.203 F 
ATOM     88  C   UNL A   1      46.209  28.546  35.708  1.00  0.00     0.198 A 
ATOM     89  C   UNL A   1      44.678  27.092  36.851  1.00  0.00     0.198 A 
ATOM     90  F   UNL A   1      42.378  27.199  36.379  1.00  0.00    -0.203 F 
ATOM     91  F   UNL A   1      47.463  28.953  35.466  1.00  0.00    -0.200 F 
ATOM     92  C   UNL A   1      45.974  27.531  36.624  1.00  0.00     0.200 A 
ATOM     93  F   UNL A   1      44.449  26.121  37.745  1.00  0.00    -0.200 F 
ATOM     94  F   UNL A   1      46.997  26.972  37.283  1.00  0.00    -0.200 F 
ENDBRANCH  61  84
ENDBRANCH  35  36
ENDBRANCH  27  30
ENDBRANCH  25  26
ENDBRANCH  24  25
ENDBRANCH   1  24
TORSDOF 13
ENDMDL
MODEL 2
REMARK VINA RESULT:     -12.8      5.382     10.078
REMARK SMILES O=C(NCCCCNC(=O)c1ccc(-c2c3nc(c(-c4c(F)c(F)c(F)c(F)c4F)c4ccc([nH]4)c(-c4c(F)c(F)c(F)c(F)c4F)c4nc(c(-c5c(F)c(F)c(F)c(F)c5F)c5ccc2[nH]5)C=C4)C=C3)cc1)c1ccc(Cn2cc(Cl)c(=O)[nH]c2=O)cc1
REMARK SMILES IDX 5 1 4 2 3 3 1 4 2 5 74 7 75 8 89 9 76 10 88 11 77 12 78 13
REMARK SMILES IDX 79 14 80 15 86 16 81 17 85 18 87 19 82 20 83 21 84 23 6 24
REMARK SMILES IDX 7 25 8 26 9 27 10 29 11 30 12 31 73 32 13 33 72 34 14 35
REMARK SMILES IDX 15 36 16 37 66 38 17 39 71 40 65 41 67 42 18 43 70 44 64 45
REMARK SMILES IDX 63 46 19 48 51 49 31 50 50 51 32 52 35 53 49 54 68 55 33 56
REMARK SMILES IDX 34 57 48 59 69 60 36 61 20 62 21 63 29 64 22 65 23 66 27 67
REMARK SMILES IDX 30 68 24 69 25 70 28 71 26 72 52 73 53 74 61 75 54 76 55 77
REMARK SMILES IDX 59 78 62 79 56 80 57 81 60 82 58 83 37 84 38 85 46 86 39 87
REMARK SMILES IDX 40 88 44 89 47 90 41 91 42 92 45 93 43 94
REMARK H PARENT 3 6 85 22 8 28 67 47 35 58
REMARK Flexibility Score: inf
ROOT
ATOM      1  C   UNL A   1      37.346  20.867  24.503  1.00  0.00     0.023 C 
ENDROOT
BRANCH   1   2
ATOM      2  C   UNL A   1      36.141  21.269  25.348  1.00  0.00     0.116 C 
BRANCH   2   3
ATOM      3  N   UNL A   1      34.883  20.818  24.772  1.00  0.00    -0.352 N 
ATOM      4  O   UNL A   1      32.708  20.998  24.168  1.00  0.00    -0.269 OA
ATOM      5  C   UNL A   1      33.742  21.546  24.537  1.00  0.00     0.251 C 
ATOM      6  H   UNL A   1      34.846  19.868  24.517  1.00  0.00     0.163 HD
BRANCH   5   7
ATOM      7  C   UNL A   1      33.774  23.004  24.748  1.00  0.00     0.039 A 
ATOM      8  C   UNL A   1      33.231  23.549  25.914  1.00  0.00     0.014 A 
ATOM      9  C   UNL A   1      34.308  23.827  23.756  1.00  0.00     0.014 A 
ATOM     10  C   UNL A   1      33.151  24.934  26.049  1.00  0.00     0.006 A 
ATOM     11  C   UNL A   1      34.210  25.215  23.890  1.00  0.00     0.006 A 
ATOM     12  C   UNL A   1      33.607  25.780  25.025  1.00  0.00    -0.028 A 
BRANCH  12  13
ATOM     13  C   UNL A   1      33.407  27.279  25.125  1.00  0.00     0.162 C 
BRANCH  13  14
ATOM     14  N   UNL A   1      32.400  27.783  24.179  1.00  0.00    -0.295 N 
ATOM     15  C   UNL A   1      31.081  27.376  24.295  1.00  0.00     0.117 A 
ATOM     16  C   UNL A   1      32.796  28.676  23.190  1.00  0.00     0.328 A 
ATOM     17  C   UNL A   1      30.121  27.789  23.464  1.00  0.00     0.122 A 
ATOM     18  N   UNL A   1      31.798  29.115  22.355  1.00  0.00    -0.273 N 
ATOM     19  O   UNL A   1      33.947  29.079  23.037  1.00  0.00    -0.248 OA
ATOM     20  Cl  UNL A   1      28.499  27.250  23.607  1.00  0.00    -0.077 Cl
ATOM     21  C   UNL A   1      30.479  28.744  22.390  1.00  0.00     0.272 A 
ATOM     22  H   UNL A   1      32.057  29.762  21.660  1.00  0.00     0.175 HD
ATOM     23  O   UNL A   1      29.667  29.185  21.584  1.00  0.00    -0.268 OA
ENDBRANCH  13  14
ENDBRANCH  12  13
ENDBRANCH   5   7
ENDBRANCH   2   3
ENDBRANCH   1   2
BRANCH   1  24
ATOM     24  C   UNL A   1      38.145  19.675  25.032  1.00  0.00     0.023 C 
BRANCH  24  25
ATOM     25  C   UNL A   1      39.298  20.022  25.967  1.00  0.00     0.116 C 
BRANCH  25  26
ATOM     26  N   UNL A   1      40.384  19.056  25.925  1.00  0.00    -0.352 N 
ATOM     27  C   UNL A   1      41.735  19.248  26.092  1.00  0.00     0.251 C 
ATOM     28  H   UNL A   1      40.112  18.125  25.750  1.00  0.00     0.163 HD
ATOM     29  O   UNL A   1      42.517  18.321  25.906  1.00  0.00    -0.269 OA
BRANCH  27  30
ATOM     30  C   UNL A   1      42.255  20.583  26.462  1.00  0.00     0.039 A 
ATOM     31  C   UNL A   1      42.709  21.433  25.450  1.00  0.00     0.014 A 
ATOM     32  C   UNL A   1      42.287  21.003  27.794  1.00  0.00     0.014 A 
ATOM     33  C   UNL A   1      43.121  22.730  25.765  1.00  0.00     0.010 A 
ATOM     34  C   UNL A   1      42.624  22.320  28.098  1.00  0.00     0.010 A 
ATOM     35  C   UNL A   1      43.041  23.198  27.086  1.00  0.00    -0.014 A 
BRANCH  35  36
ATOM     36  C   UNL A   1      43.382  24.603  27.430  1.00  0.00     0.031 A 
ATOM     37  C   UNL A   1      44.816  25.049  27.464  1.00  0.00     0.074 A 
ATOM     38  C   UNL A   1      42.402  25.460  27.778  1.00  0.00     0.049 A 
ATOM     39  N   UNL A   1      45.316  26.210  27.806  1.00  0.00    -0.248 NA
ATOM     40  C   UNL A   1      45.827  24.048  27.091  1.00  0.00     0.031 C 
ATOM     41  C   UNL A   1      40.975  25.139  27.829  1.00  0.00     0.029 A 
ATOM     42  N   UNL A   1      42.460  26.776  28.167  1.00  0.00    -0.354 N 
ATOM     43  C   UNL A   1      46.694  26.073  27.705  1.00  0.00     0.074 A 
ATOM     44  C   UNL A   1      46.955  24.701  27.324  1.00  0.00     0.031 C 
ATOM     45  C   UNL A   1      40.291  26.234  28.198  1.00  0.00     0.029 A 
ATOM     46  C   UNL A   1      41.231  27.322  28.447  1.00  0.00     0.049 A 
ATOM     47  H   UNL A   1      43.303  27.280  28.237  1.00  0.00     0.167 HD
ATOM     48  C   UNL A   1      47.655  27.010  27.891  1.00  0.00     0.037 A 
ATOM     49  C   UNL A   1      40.902  28.560  28.864  1.00  0.00     0.037 A 
ATOM     50  C   UNL A   1      47.392  28.380  28.245  1.00  0.00     0.049 A 
ATOM     51  C   UNL A   1      41.988  29.578  29.077  1.00  0.00     0.074 A 
ATOM     52  C   UNL A   1      48.291  29.422  28.393  1.00  0.00     0.029 A 
ATOM     53  N   UNL A   1      46.133  28.898  28.516  1.00  0.00    -0.354 N 
ATOM     54  N   UNL A   1      43.283  29.457  28.907  1.00  0.00    -0.248 NA
ATOM     55  C   UNL A   1      41.566  30.909  29.538  1.00  0.00     0.031 C 
ATOM     56  C   UNL A   1      47.582  30.559  28.798  1.00  0.00     0.029 A 
ATOM     57  C   UNL A   1      46.235  30.239  28.853  1.00  0.00     0.049 A 
ATOM     58  H   UNL A   1      45.292  28.388  28.474  1.00  0.00     0.167 HD
ATOM     59  C   UNL A   1      43.825  30.700  29.208  1.00  0.00     0.074 A 
ATOM     60  C   UNL A   1      42.717  31.565  29.559  1.00  0.00     0.031 C 
ATOM     61  C   UNL A   1      45.123  31.090  29.191  1.00  0.00     0.037 A 
BRANCH  48  62
ATOM     62  C   UNL A   1      49.083  26.582  27.711  1.00  0.00     0.064 A 
ATOM     63  C   UNL A   1      49.667  26.475  26.439  1.00  0.00     0.173 A 
ATOM     64  C   UNL A   1      49.887  26.295  28.825  1.00  0.00     0.173 A 
ATOM     65  F   UNL A   1      48.940  26.727  25.340  1.00  0.00    -0.203 F 
ATOM     66  C   UNL A   1      50.987  26.061  26.287  1.00  0.00     0.198 A 
ATOM     67  C   UNL A   1      51.217  25.913  28.671  1.00  0.00     0.198 A 
ATOM     68  F   UNL A   1      49.382  26.387  30.065  1.00  0.00    -0.203 F 
ATOM     69  F   UNL A   1      51.504  25.911  25.060  1.00  0.00    -0.200 F 
ATOM     70  C   UNL A   1      51.763  25.786  27.403  1.00  0.00     0.200 A 
ATOM     71  F   UNL A   1      51.969  25.661  29.751  1.00  0.00    -0.200 F 
ATOM     72  F   UNL A   1      53.034  25.391  27.255  1.00  0.00    -0.200 F 
ENDBRANCH  48  62
BRANCH  49  73
ATOM     73  C   UNL A   1      39.475  28.918  29.073  1.00  0.00     0.064 A 
ATOM     74  C   UNL A   1      38.888  28.804  30.341  1.00  0.00     0.173 A 
ATOM     75  C   UNL A   1      38.669  29.373  28.020  1.00  0.00     0.173 A 
ATOM     76  F   UNL A   1      39.613  28.352  31.377  1.00  0.00    -0.203 F 
ATOM     77  C   UNL A   1      37.545  29.112  30.544  1.00  0.00     0.198 A 
ATOM     78  C   UNL A   1      37.332  29.707  28.230  1.00  0.00     0.198 A 
ATOM     79  F   UNL A   1      39.183  29.503  26.789  1.00  0.00    -0.203 F 
ATOM     80  F   UNL A   1      36.998  28.949  31.757  1.00  0.00    -0.200 F 
ATOM     81  C   UNL A   1      36.769  29.567  29.490  1.00  0.00     0.200 A 
ATOM     82  F   UNL A   1      36.589  30.160  27.210  1.00  0.00    -0.200 F 
ATOM     83  F   UNL A   1      35.477  29.866  29.685  1.00  0.00    -0.200 F 
ENDBRANCH  49  73
BRANCH  61  84
ATOM     84  C   UNL A   1      45.414  32.524  29.524  1.00  0.00     0.064 A 
ATOM     85  C   UNL A   1      45.725  32.931  30.830  1.00  0.00     0.173 A 
ATOM     86  C   UNL A   1      45.415  33.500  28.514  1.00  0.00     0.173 A 
ATOM     87  F   UNL A   1      45.721  32.041  31.833  1.00  0.00    -0.203 F 
ATOM     88  C   UNL A   1      46.000  34.266  31.118  1.00  0.00     0.198 A 
ATOM     89  C   UNL A   1      45.722  34.827  28.800  1.00  0.00     0.198 A 
ATOM     90  F   UNL A   1      45.131  33.163  27.248  1.00  0.00    -0.203 F 
ATOM     91  F   UNL A   1      46.246  34.639  32.381  1.00  0.00    -0.200 F 
ATOM     92  C   UNL A   1      46.006  35.211  30.102  1.00  0.00     0.200 A 
ATOM     93  F   UNL A   1      45.740  35.736  27.816  1.00  0.00    -0.200 F 
ATOM     94  F   UNL A   1      46.277  36.493  30.380  1.00  0.00    -0.200 F 
ENDBRANCH  61  84
ENDBRANCH  35  36
ENDBRANCH  27  30
ENDBRANCH  25  26
ENDBRANCH  24  25
ENDBRANCH   1  24
TORSDOF 13
ENDMDL
MODEL 3
REMARK VINA RESULT:     -12.8      0.927      7.463
REMARK SMILES O=C(NCCCCNC(=O)c1ccc(-c2c3nc(c(-c4c(F)c(F)c(F)c(F)c4F)c4ccc([nH]4)c(-c4c(F)c(F)c(F)c(F)c4F)c4nc(c(-c5c(F)c(F)c(F)c(F)c5F)c5ccc2[nH]5)C=C4)C=C3)cc1)c1ccc(Cn2cc(Cl)c(=O)[nH]c2=O)cc1
REMARK SMILES IDX 5 1 4 2 3 3 1 4 2 5 74 7 75 8 89 9 76 10 88 11 77 12 78 13
REMARK SMILES IDX 79 14 80 15 86 16 81 17 85 18 87 19 82 20 83 21 84 23 6 24
REMARK SMILES IDX 7 25 8 26 9 27 10 29 11 30 12 31 73 32 13 33 72 34 14 35
REMARK SMILES IDX 15 36 16 37 66 38 17 39 71 40 65 41 67 42 18 43 70 44 64 45
REMARK SMILES IDX 63 46 19 48 51 49 31 50 50 51 32 52 35 53 49 54 68 55 33 56
REMARK SMILES IDX 34 57 48 59 69 60 36 61 20 62 21 63 29 64 22 65 23 66 27 67
REMARK SMILES IDX 30 68 24 69 25 70 28 71 26 72 52 73 53 74 61 75 54 76 55 77
REMARK SMILES IDX 59 78 62 79 56 80 57 81 60 82 58 83 37 84 38 85 46 86 39 87
REMARK SMILES IDX 40 88 44 89 47 90 41 91 42 92 45 93 43 94
REMARK H PARENT 3 6 85 22 8 28 67 47 35 58
REMARK Flexibility Score: inf
ROOT
ATOM      1  C   UNL A   1      32.016  30.492  27.037  1.00  0.00     0.023 C 
ENDROOT
BRANCH   1   2
ATOM      2  C   UNL A   1      32.433  29.764  25.763  1.00  0.00     0.116 C 
BRANCH   2   3
ATOM      3  N   UNL A   1      31.297  29.207  25.044  1.00  0.00    -0.352 N 
ATOM      4  O   UNL A   1      30.171  27.636  23.863  1.00  0.00    -0.269 OA
ATOM      5  C   UNL A   1      31.129  27.927  24.572  1.00  0.00     0.251 C 
ATOM      6  H   UNL A   1      30.552  29.827  24.875  1.00  0.00     0.163 HD
BRANCH   5   7
ATOM      7  C   UNL A   1      32.130  26.904  24.922  1.00  0.00     0.039 A 
ATOM      8  C   UNL A   1      33.235  26.700  24.091  1.00  0.00     0.014 A 
ATOM      9  C   UNL A   1      31.939  26.119  26.060  1.00  0.00     0.014 A 
ATOM     10  C   UNL A   1      34.110  25.649  24.359  1.00  0.00     0.006 A 
ATOM     11  C   UNL A   1      32.810  25.057  26.314  1.00  0.00     0.006 A 
ATOM     12  C   UNL A   1      33.887  24.795  25.452  1.00  0.00    -0.028 A 
BRANCH  12  13
ATOM     13  C   UNL A   1      34.770  23.583  25.669  1.00  0.00     0.162 C 
BRANCH  13  14
ATOM     14  N   UNL A   1      34.039  22.315  25.533  1.00  0.00    -0.295 N 
ATOM     15  C   UNL A   1      33.501  21.957  24.307  1.00  0.00     0.117 A 
ATOM     16  C   UNL A   1      33.915  21.489  26.645  1.00  0.00     0.328 A 
ATOM     17  C   UNL A   1      32.819  20.825  24.120  1.00  0.00     0.122 A 
ATOM     18  N   UNL A   1      33.234  20.315  26.436  1.00  0.00    -0.273 N 
ATOM     19  O   UNL A   1      34.372  21.746  27.756  1.00  0.00    -0.248 OA
ATOM     20  Cl  UNL A   1      32.137  20.414  22.601  1.00  0.00    -0.077 Cl
ATOM     21  C   UNL A   1      32.655  19.900  25.266  1.00  0.00     0.272 A 
ATOM     22  H   UNL A   1      33.152  19.710  27.208  1.00  0.00     0.175 HD
ATOM     23  O   UNL A   1      32.052  18.836  25.189  1.00  0.00    -0.268 OA
ENDBRANCH  13  14
ENDBRANCH  12  13
ENDBRANCH   5   7
ENDBRANCH   2   3
ENDBRANCH   1   2
BRANCH   1  24
ATOM     24  C   UNL A   1      31.675  31.972  26.861  1.00  0.00     0.023 C 
BRANCH  24  25
ATOM     25  C   UNL A   1      32.852  32.933  26.974  1.00  0.00     0.116 C 
BRANCH  25  26
ATOM     26  N   UNL A   1      32.495  34.214  27.565  1.00  0.00    -0.352 N 
ATOM     27  C   UNL A   1      33.018  34.847  28.667  1.00  0.00     0.251 C 
ATOM     28  H   UNL A   1      31.770  34.699  27.107  1.00  0.00     0.163 HD
ATOM     29  O   UNL A   1      32.505  35.880  29.085  1.00  0.00    -0.269 OA
BRANCH  27  30
ATOM     30  C   UNL A   1      34.180  34.266  29.376  1.00  0.00     0.039 A 
ATOM     31  C   UNL A   1      33.950  33.410  30.457  1.00  0.00     0.014 A 
ATOM     32  C   UNL A   1      35.488  34.549  28.975  1.00  0.00     0.014 A 
ATOM     33  C   UNL A   1      35.026  32.780  31.085  1.00  0.00     0.010 A 
ATOM     34  C   UNL A   1      36.554  33.862  29.550  1.00  0.00     0.010 A 
ATOM     35  C   UNL A   1      36.334  32.968  30.609  1.00  0.00    -0.014 A 
BRANCH  35  36
ATOM     36  C   UNL A   1      37.483  32.234  31.198  1.00  0.00     0.031 A 
ATOM     37  C   UNL A   1      37.990  32.590  32.567  1.00  0.00     0.074 A 
ATOM     38  C   UNL A   1      38.115  31.290  30.472  1.00  0.00     0.049 A 
ATOM     39  N   UNL A   1      39.019  32.114  33.221  1.00  0.00    -0.248 NA
ATOM     40  C   UNL A   1      37.259  33.645  33.286  1.00  0.00     0.031 C 
ATOM     41  C   UNL A   1      37.750  30.882  29.114  1.00  0.00     0.029 A 
ATOM     42  N   UNL A   1      39.205  30.510  30.771  1.00  0.00    -0.354 N 
ATOM     43  C   UNL A   1      39.068  32.820  34.416  1.00  0.00     0.074 A 
ATOM     44  C   UNL A   1      37.999  33.795  34.374  1.00  0.00     0.031 C 
ATOM     45  C   UNL A   1      38.582  29.909  28.710  1.00  0.00     0.029 A 
ATOM     46  C   UNL A   1      39.562  29.651  29.760  1.00  0.00     0.049 A 
ATOM     47  H   UNL A   1      39.685  30.562  31.629  1.00  0.00     0.167 HD
ATOM     48  C   UNL A   1      39.911  32.654  35.464  1.00  0.00     0.037 A 
ATOM     49  C   UNL A   1      40.570  28.761  29.688  1.00  0.00     0.037 A 
ATOM     50  C   UNL A   1      40.957  31.667  35.514  1.00  0.00     0.049 A 
ATOM     51  C   UNL A   1      41.502  28.608  30.859  1.00  0.00     0.074 A 
ATOM     52  C   UNL A   1      41.823  31.378  36.555  1.00  0.00     0.029 A 
ATOM     53  N   UNL A   1      41.285  30.811  34.472  1.00  0.00    -0.354 N 
ATOM     54  N   UNL A   1      41.492  29.230  32.013  1.00  0.00    -0.248 NA
ATOM     55  C   UNL A   1      42.585  27.625  30.717  1.00  0.00     0.031 C 
ATOM     56  C   UNL A   1      42.704  30.378  36.126  1.00  0.00     0.029 A 
ATOM     57  C   UNL A   1      42.355  30.010  34.838  1.00  0.00     0.049 A 
ATOM     58  H   UNL A   1      40.825  30.777  33.603  1.00  0.00     0.167 HD
ATOM     59  C   UNL A   1      42.543  28.692  32.745  1.00  0.00     0.074 A 
ATOM     60  C   UNL A   1      43.161  27.684  31.909  1.00  0.00     0.031 C 
ATOM     61  C   UNL A   1      42.955  29.004  33.998  1.00  0.00     0.037 A 
BRANCH  48  62
ATOM     62  C   UNL A   1      39.733  33.566  36.644  1.00  0.00     0.064 A 
ATOM     63  C   UNL A   1      40.423  34.784  36.747  1.00  0.00     0.173 A 
ATOM     64  C   UNL A   1      38.845  33.228  37.678  1.00  0.00     0.173 A 
ATOM     65  F   UNL A   1      41.292  35.149  35.792  1.00  0.00    -0.203 F 
ATOM     66  C   UNL A   1      40.260  35.611  37.855  1.00  0.00     0.198 A 
ATOM     67  C   UNL A   1      38.660  34.073  38.769  1.00  0.00     0.198 A 
ATOM     68  F   UNL A   1      38.155  32.079  37.628  1.00  0.00    -0.203 F 
ATOM     69  F   UNL A   1      40.973  36.740  37.957  1.00  0.00    -0.200 F 
ATOM     70  C   UNL A   1      39.374  35.258  38.862  1.00  0.00     0.200 A 
ATOM     71  F   UNL A   1      37.793  33.737  39.735  1.00  0.00    -0.200 F 
ATOM     72  F   UNL A   1      39.216  36.055  39.926  1.00  0.00    -0.200 F 
ENDBRANCH  48  62
BRANCH  49  73
ATOM     73  C   UNL A   1      40.730  27.917  28.476  1.00  0.00     0.064 A 
ATOM     74  C   UNL A   1      41.488  28.368  27.386  1.00  0.00     0.173 A 
ATOM     75  C   UNL A   1      40.130  26.654  28.375  1.00  0.00     0.173 A 
ATOM     76  F   UNL A   1      42.063  29.579  27.426  1.00  0.00    -0.203 F 
ATOM     77  C   UNL A   1      41.623  27.597  26.234  1.00  0.00     0.198 A 
ATOM     78  C   UNL A   1      40.289  25.871  27.232  1.00  0.00     0.198 A 
ATOM     79  F   UNL A   1      39.398  26.175  29.391  1.00  0.00    -0.203 F 
ATOM     80  F   UNL A   1      42.315  28.073  25.189  1.00  0.00    -0.200 F 
ATOM     81  C   UNL A   1      41.028  26.347  26.159  1.00  0.00     0.200 A 
ATOM     82  F   UNL A   1      39.723  24.658  27.170  1.00  0.00    -0.200 F 
ATOM     83  F   UNL A   1      41.161  25.604  25.052  1.00  0.00    -0.200 F 
ENDBRANCH  49  73
BRANCH  61  84
ATOM     84  C   UNL A   1      44.106  28.219  34.558  1.00  0.00     0.064 A 
ATOM     85  C   UNL A   1      43.914  27.002  35.228  1.00  0.00     0.173 A 
ATOM     86  C   UNL A   1      45.424  28.675  34.389  1.00  0.00     0.173 A 
ATOM     87  F   UNL A   1      42.674  26.531  35.430  1.00  0.00    -0.203 F 
ATOM     88  C   UNL A   1      44.995  26.284  35.733  1.00  0.00     0.198 A 
ATOM     89  C   UNL A   1      46.503  27.939  34.867  1.00  0.00     0.198 A 
ATOM     90  F   UNL A   1      45.662  29.829  33.750  1.00  0.00    -0.203 F 
ATOM     91  F   UNL A   1      44.784  25.149  36.413  1.00  0.00    -0.200 F 
ATOM     92  C   UNL A   1      46.289  26.749  35.545  1.00  0.00     0.200 A 
ATOM     93  F   UNL A   1      47.753  28.383  34.674  1.00  0.00    -0.200 F 
ATOM     94  F   UNL A   1      47.328  26.054  36.026  1.00  0.00    -0.200 F 
ENDBRANCH  61  84
ENDBRANCH  35  36
ENDBRANCH  27  30
ENDBRANCH  25  26
ENDBRANCH  24  25
ENDBRANCH   1  24
TORSDOF 13
ENDMDL
