MODEL 1
REMARK VINA RESULT:     -11.8      0.000      0.000
REMARK SMILES O=C(CC1(C[S@](=O)C[C@H]2Cc3ccccc3S2)CC1)NCCCCNC(=O)c1ccc(-c2c3nc(c(-c4c(F)c(F)c(F)c(F)c4F)c4ccc([nH]4)c(-c4c(F)c(F)c(F)c(F)c4F)c4nc(c(-c5c(F)c(F)c(F)c(F)c5F)c5ccc2[nH]5)C=C4)C=C3)cc1
REMARK SMILES IDX 21 1 20 2 1 3 2 4 3 6 4 7 18 8 19 9 5 10 6 11 7 12 8 13 9 14
REMARK SMILES IDX 10 15 17 16 11 17 16 18 12 19 15 20 13 21 14 22 22 23 23 24
REMARK SMILES IDX 24 25 25 26 26 27 27 29 28 30 29 31 90 32 30 33 89 34 31 35
REMARK SMILES IDX 32 36 33 37 83 38 34 39 88 40 82 41 84 42 35 43 87 44 81 45
REMARK SMILES IDX 80 46 36 48 68 49 48 50 67 51 49 52 52 53 66 54 85 55 50 56
REMARK SMILES IDX 51 57 65 59 86 60 53 61 37 62 38 63 46 64 39 65 40 66 44 67
REMARK SMILES IDX 47 68 41 69 42 70 45 71 43 72 69 73 70 74 78 75 71 76 72 77
REMARK SMILES IDX 76 78 79 79 73 80 74 81 77 82 75 83 54 84 55 85 63 86 56 87
REMARK SMILES IDX 57 88 61 89 64 90 58 91 59 92 62 93 60 94
REMARK H PARENT 20 5 25 28 84 47 52 58
REMARK Flexibility Score: inf
ROOT
ATOM      1  C   UNL A   1      32.578  29.992  26.767  1.00  0.00     0.116 C 
ENDROOT
BRANCH   1   2
ATOM      2  N   UNL A   1      32.651  28.617  26.324  1.00  0.00    -0.356 N 
ATOM      3  O   UNL A   1      31.078  27.766  27.759  1.00  0.00    -0.275 OA
ATOM      4  C   UNL A   1      31.874  27.606  26.837  1.00  0.00     0.220 C 
ATOM      5  H   UNL A   1      33.294  28.393  25.613  1.00  0.00     0.163 HD
BRANCH   4   6
ATOM      6  C   UNL A   1      32.120  26.242  26.193  1.00  0.00     0.108 C 
BRANCH   6   7
ATOM      7  C   UNL A   1      30.900  25.570  25.558  1.00  0.00    -0.009 C 
ATOM      8  C   UNL A   1      31.017  24.041  25.478  1.00  0.00     0.009 C 
ATOM      9  C   UNL A   1      30.034  24.652  26.407  1.00  0.00     0.009 C 
BRANCH   7  10
ATOM     10  C   UNL A   1      30.299  26.194  24.305  1.00  0.00     0.112 C 
BRANCH  10  11
ATOM     11  S   UNL A   1      31.245  26.928  22.987  1.00  0.00     0.023 S 
ATOM     12  O   UNL A   1      30.494  27.935  22.184  1.00  0.00    -0.260 OA
BRANCH  11  13
ATOM     13  C   UNL A   1      31.852  25.594  21.949  1.00  0.00     0.120 C 
BRANCH  13  14
ATOM     14  C   UNL A   1      33.149  24.834  22.214  1.00  0.00     0.068 C 
ATOM     15  C   UNL A   1      34.010  25.391  23.365  1.00  0.00     0.052 C 
ATOM     16  S   UNL A   1      33.045  23.034  22.377  1.00  0.00    -0.121 SA
ATOM     17  C   UNL A   1      34.527  24.248  24.183  1.00  0.00    -0.033 A 
ATOM     18  C   UNL A   1      34.092  22.984  23.788  1.00  0.00     0.011 A 
ATOM     19  C   UNL A   1      35.316  24.389  25.321  1.00  0.00     0.005 A 
ATOM     20  C   UNL A   1      34.416  21.850  24.518  1.00  0.00     0.015 A 
ATOM     21  C   UNL A   1      35.637  23.255  26.072  1.00  0.00     0.000 A 
ATOM     22  C   UNL A   1      35.187  21.991  25.673  1.00  0.00     0.001 A 
ENDBRANCH  13  14
ENDBRANCH  11  13
ENDBRANCH  10  11
ENDBRANCH   7  10
ENDBRANCH   6   7
ENDBRANCH   4   6
ENDBRANCH   1   2
BRANCH   1  23
ATOM     23  C   UNL A   1      31.435  30.773  26.112  1.00  0.00     0.023 C 
BRANCH  23  24
ATOM     24  C   UNL A   1      31.284  32.247  26.511  1.00  0.00     0.023 C 
BRANCH  24  25
ATOM     25  C   UNL A   1      32.456  32.867  27.266  1.00  0.00     0.116 C 
BRANCH  25  26
ATOM     26  N   UNL A   1      32.221  34.250  27.655  1.00  0.00    -0.352 N 
ATOM     27  C   UNL A   1      32.898  35.042  28.553  1.00  0.00     0.251 C 
ATOM     28  H   UNL A   1      31.460  34.686  27.207  1.00  0.00     0.163 HD
ATOM     29  O   UNL A   1      32.480  36.167  28.818  1.00  0.00    -0.269 OA
BRANCH  27  30
ATOM     30  C   UNL A   1      34.108  34.540  29.247  1.00  0.00     0.039 A 
ATOM     31  C   UNL A   1      35.382  34.662  28.686  1.00  0.00     0.014 A 
ATOM     32  C   UNL A   1      33.960  33.941  30.503  1.00  0.00     0.014 A 
ATOM     33  C   UNL A   1      36.475  34.051  29.304  1.00  0.00     0.010 A 
ATOM     34  C   UNL A   1      35.067  33.381  31.151  1.00  0.00     0.010 A 
ATOM     35  C   UNL A   1      36.326  33.382  30.531  1.00  0.00    -0.014 A 
BRANCH  35  36
ATOM     36  C   UNL A   1      37.476  32.650  31.133  1.00  0.00     0.031 A 
ATOM     37  C   UNL A   1      37.973  33.011  32.511  1.00  0.00     0.074 A 
ATOM     38  C   UNL A   1      38.059  31.634  30.465  1.00  0.00     0.049 A 
ATOM     39  N   UNL A   1      38.958  32.489  33.200  1.00  0.00    -0.248 NA
ATOM     40  C   UNL A   1      37.270  34.101  33.209  1.00  0.00     0.031 C 
ATOM     41  C   UNL A   1      37.678  31.176  29.130  1.00  0.00     0.029 A 
ATOM     42  N   UNL A   1      39.089  30.798  30.823  1.00  0.00    -0.354 N 
ATOM     43  C   UNL A   1      39.001  33.192  34.397  1.00  0.00     0.074 A 
ATOM     44  C   UNL A   1      37.965  34.199  34.334  1.00  0.00     0.031 C 
ATOM     45  C   UNL A   1      38.440  30.123  28.793  1.00  0.00     0.029 A 
ATOM     46  C   UNL A   1      39.395  29.860  29.868  1.00  0.00     0.049 A 
ATOM     47  H   UNL A   1      39.563  30.865  31.683  1.00  0.00     0.167 HD
ATOM     48  C   UNL A   1      39.817  33.003  35.463  1.00  0.00     0.037 A 
ATOM     49  C   UNL A   1      40.344  28.904  29.849  1.00  0.00     0.037 A 
ATOM     50  C   UNL A   1      40.833  31.988  35.547  1.00  0.00     0.049 A 
ATOM     51  C   UNL A   1      41.268  28.749  31.027  1.00  0.00     0.074 A 
ATOM     52  C   UNL A   1      41.683  31.705  36.604  1.00  0.00     0.029 A 
ATOM     53  N   UNL A   1      41.138  31.086  34.539  1.00  0.00    -0.354 N 
ATOM     54  N   UNL A   1      41.277  29.403  32.163  1.00  0.00    -0.248 NA
ATOM     55  C   UNL A   1      42.318  27.724  30.919  1.00  0.00     0.031 C 
ATOM     56  C   UNL A   1      42.529  30.660  36.221  1.00  0.00     0.029 A 
ATOM     57  C   UNL A   1      42.175  30.260  34.943  1.00  0.00     0.049 A 
ATOM     58  H   UNL A   1      40.684  31.039  33.666  1.00  0.00     0.167 HD
ATOM     59  C   UNL A   1      42.317  28.860  32.908  1.00  0.00     0.074 A 
ATOM     60  C   UNL A   1      42.904  27.808  32.105  1.00  0.00     0.031 C 
ATOM     61  C   UNL A   1      42.748  29.209  34.143  1.00  0.00     0.037 A 
BRANCH  48  62
ATOM     62  C   UNL A   1      39.648  33.906  36.649  1.00  0.00     0.064 A 
ATOM     63  C   UNL A   1      38.857  33.530  37.744  1.00  0.00     0.173 A 
ATOM     64  C   UNL A   1      40.366  35.108  36.738  1.00  0.00     0.173 A 
ATOM     65  F   UNL A   1      38.148  32.393  37.705  1.00  0.00    -0.203 F 
ATOM     66  C   UNL A   1      38.787  34.328  38.883  1.00  0.00     0.198 A 
ATOM     67  C   UNL A   1      40.313  35.891  37.888  1.00  0.00     0.198 A 
ATOM     68  F   UNL A   1      41.146  35.507  35.722  1.00  0.00    -0.203 F 
ATOM     69  F   UNL A   1      38.011  33.957  39.912  1.00  0.00    -0.200 F 
ATOM     70  C   UNL A   1      39.523  35.501  38.959  1.00  0.00     0.200 A 
ATOM     71  F   UNL A   1      41.038  37.016  37.967  1.00  0.00    -0.200 F 
ATOM     72  F   UNL A   1      39.474  36.255  40.067  1.00  0.00    -0.200 F 
ENDBRANCH  48  62
BRANCH  49  73
ATOM     73  C   UNL A   1      40.468  28.007  28.671  1.00  0.00     0.064 A 
ATOM     74  C   UNL A   1      39.808  26.771  28.635  1.00  0.00     0.173 A 
ATOM     75  C   UNL A   1      41.248  28.364  27.562  1.00  0.00     0.173 A 
ATOM     76  F   UNL A   1      39.069  26.376  29.683  1.00  0.00    -0.203 F 
ATOM     77  C   UNL A   1      39.933  25.921  27.539  1.00  0.00     0.198 A 
ATOM     78  C   UNL A   1      41.350  27.525  26.454  1.00  0.00     0.198 A 
ATOM     79  F   UNL A   1      41.901  29.535  27.549  1.00  0.00    -0.203 F 
ATOM     80  F   UNL A   1      39.323  24.728  27.547  1.00  0.00    -0.200 F 
ATOM     81  C   UNL A   1      40.698  26.301  26.446  1.00  0.00     0.200 A 
ATOM     82  F   UNL A   1      42.079  27.903  25.395  1.00  0.00    -0.200 F 
ATOM     83  F   UNL A   1      40.811  25.486  25.389  1.00  0.00    -0.200 F 
ENDBRANCH  49  73
BRANCH  61  84
ATOM     84  C   UNL A   1      43.898  28.442  34.725  1.00  0.00     0.064 A 
ATOM     85  C   UNL A   1      45.219  28.893  34.596  1.00  0.00     0.173 A 
ATOM     86  C   UNL A   1      43.670  27.281  35.480  1.00  0.00     0.173 A 
ATOM     87  F   UNL A   1      45.489  29.990  33.872  1.00  0.00    -0.203 F 
ATOM     88  C   UNL A   1      46.272  28.203  35.191  1.00  0.00     0.198 A 
ATOM     89  C   UNL A   1      44.723  26.609  36.096  1.00  0.00     0.198 A 
ATOM     90  F   UNL A   1      42.424  26.812  35.640  1.00  0.00    -0.203 F 
ATOM     91  F   UNL A   1      47.530  28.636  35.028  1.00  0.00    -0.200 F 
ATOM     92  C   UNL A   1      46.022  27.069  35.948  1.00  0.00     0.200 A 
ATOM     93  F   UNL A   1      44.477  25.521  36.839  1.00  0.00    -0.200 F 
ATOM     94  F   UNL A   1      47.036  26.416  36.533  1.00  0.00    -0.200 F 
ENDBRANCH  61  84
ENDBRANCH  35  36
ENDBRANCH  27  30
ENDBRANCH  25  26
ENDBRANCH  24  25
ENDBRANCH  23  24
ENDBRANCH   1  23
TORSDOF 16
ENDMDL
MODEL 2
REMARK VINA RESULT:     -11.8      5.652     11.021
REMARK SMILES O=C(CC1(C[S@](=O)C[C@H]2Cc3ccccc3S2)CC1)NCCCCNC(=O)c1ccc(-c2c3nc(c(-c4c(F)c(F)c(F)c(F)c4F)c4ccc([nH]4)c(-c4c(F)c(F)c(F)c(F)c4F)c4nc(c(-c5c(F)c(F)c(F)c(F)c5F)c5ccc2[nH]5)C=C4)C=C3)cc1
REMARK SMILES IDX 21 1 20 2 1 3 2 4 3 6 4 7 18 8 19 9 5 10 6 11 7 12 8 13 9 14
REMARK SMILES IDX 10 15 17 16 11 17 16 18 12 19 15 20 13 21 14 22 22 23 23 24
REMARK SMILES IDX 24 25 25 26 26 27 27 29 28 30 29 31 90 32 30 33 89 34 31 35
REMARK SMILES IDX 32 36 33 37 83 38 34 39 88 40 82 41 84 42 35 43 87 44 81 45
REMARK SMILES IDX 80 46 36 48 68 49 48 50 67 51 49 52 52 53 66 54 85 55 50 56
REMARK SMILES IDX 51 57 65 59 86 60 53 61 37 62 38 63 46 64 39 65 40 66 44 67
REMARK SMILES IDX 47 68 41 69 42 70 45 71 43 72 69 73 70 74 78 75 71 76 72 77
REMARK SMILES IDX 76 78 79 79 73 80 74 81 77 82 75 83 54 84 55 85 63 86 56 87
REMARK SMILES IDX 57 88 61 89 64 90 58 91 59 92 62 93 60 94
REMARK H PARENT 20 5 25 28 84 47 52 58
REMARK Flexibility Score: inf
ROOT
ATOM      1  C   UNL A   1      37.325  21.845  25.098  1.00  0.00     0.116 C 
ENDROOT
BRANCH   1   2
ATOM      2  N   UNL A   1      36.187  22.707  24.872  1.00  0.00    -0.356 N 
ATOM      3  O   UNL A   1      36.501  23.021  22.623  1.00  0.00    -0.275 OA
ATOM      4  C   UNL A   1      35.842  23.213  23.642  1.00  0.00     0.220 C 
ATOM      5  H   UNL A   1      35.625  22.945  25.645  1.00  0.00     0.163 HD
BRANCH   4   6
ATOM      6  C   UNL A   1      34.585  24.084  23.654  1.00  0.00     0.108 C 
BRANCH   6   7
ATOM      7  C   UNL A   1      33.372  23.520  22.911  1.00  0.00    -0.009 C 
ATOM      8  C   UNL A   1      32.312  24.581  22.580  1.00  0.00     0.009 C 
ATOM      9  C   UNL A   1      33.102  23.969  21.483  1.00  0.00     0.009 C 
BRANCH   7  10
ATOM     10  C   UNL A   1      32.775  22.204  23.392  1.00  0.00     0.112 C 
BRANCH  10  11
ATOM     11  S   UNL A   1      32.375  21.833  25.087  1.00  0.00     0.023 S 
ATOM     12  O   UNL A   1      32.083  20.394  25.346  1.00  0.00    -0.260 OA
BRANCH  11  13
ATOM     13  C   UNL A   1      30.985  22.870  25.554  1.00  0.00     0.120 C 
BRANCH  13  14
ATOM     14  C   UNL A   1      31.129  24.243  26.205  1.00  0.00     0.068 C 
ATOM     15  C   UNL A   1      32.579  24.742  26.362  1.00  0.00     0.052 C 
ATOM     16  S   UNL A   1      30.112  25.590  25.549  1.00  0.00    -0.121 SA
ATOM     17  C   UNL A   1      32.637  26.192  25.990  1.00  0.00    -0.033 A 
ATOM     18  C   UNL A   1      31.439  26.743  25.540  1.00  0.00     0.011 A 
ATOM     19  C   UNL A   1      33.801  26.957  25.989  1.00  0.00     0.005 A 
ATOM     20  C   UNL A   1      31.377  28.047  25.070  1.00  0.00     0.015 A 
ATOM     21  C   UNL A   1      33.753  28.267  25.505  1.00  0.00     0.000 A 
ATOM     22  C   UNL A   1      32.547  28.809  25.046  1.00  0.00     0.001 A 
ENDBRANCH  13  14
ENDBRANCH  11  13
ENDBRANCH  10  11
ENDBRANCH   7  10
ENDBRANCH   6   7
ENDBRANCH   4   6
ENDBRANCH   1   2
BRANCH   1  23
ATOM     23  C   UNL A   1      36.987  20.358  24.961  1.00  0.00     0.023 C 
BRANCH  23  24
ATOM     24  C   UNL A   1      38.160  19.370  25.038  1.00  0.00     0.023 C 
BRANCH  24  25
ATOM     25  C   UNL A   1      39.387  19.836  25.816  1.00  0.00     0.116 C 
BRANCH  25  26
ATOM     26  N   UNL A   1      40.467  18.860  25.822  1.00  0.00    -0.352 N 
ATOM     27  C   UNL A   1      41.812  19.033  26.055  1.00  0.00     0.251 C 
ATOM     28  H   UNL A   1      40.194  17.934  25.627  1.00  0.00     0.163 HD
ATOM     29  O   UNL A   1      42.586  18.089  25.917  1.00  0.00    -0.269 OA
BRANCH  27  30
ATOM     30  C   UNL A   1      42.354  20.361  26.431  1.00  0.00     0.039 A 
ATOM     31  C   UNL A   1      42.282  20.841  27.741  1.00  0.00     0.014 A 
ATOM     32  C   UNL A   1      42.961  21.141  25.440  1.00  0.00     0.014 A 
ATOM     33  C   UNL A   1      42.674  22.152  28.024  1.00  0.00     0.010 A 
ATOM     34  C   UNL A   1      43.408  22.433  25.738  1.00  0.00     0.010 A 
ATOM     35  C   UNL A   1      43.219  22.972  27.021  1.00  0.00    -0.014 A 
BRANCH  35  36
ATOM     36  C   UNL A   1      43.542  24.397  27.308  1.00  0.00     0.031 A 
ATOM     37  C   UNL A   1      44.925  24.935  27.036  1.00  0.00     0.074 A 
ATOM     38  C   UNL A   1      42.590  25.227  27.780  1.00  0.00     0.049 A 
ATOM     39  N   UNL A   1      45.395  26.145  27.221  1.00  0.00    -0.248 NA
ATOM     40  C   UNL A   1      45.910  23.992  26.482  1.00  0.00     0.031 C 
ATOM     41  C   UNL A   1      41.212  24.843  28.083  1.00  0.00     0.029 A 
ATOM     42  N   UNL A   1      42.636  26.568  28.077  1.00  0.00    -0.354 N 
ATOM     43  C   UNL A   1      46.724  26.103  26.822  1.00  0.00     0.074 A 
ATOM     44  C   UNL A   1      47.000  24.744  26.412  1.00  0.00     0.031 C 
ATOM     45  C   UNL A   1      40.535  25.927  28.492  1.00  0.00     0.029 A 
ATOM     46  C   UNL A   1      41.440  27.074  28.526  1.00  0.00     0.049 A 
ATOM     47  H   UNL A   1      43.448  27.115  27.978  1.00  0.00     0.167 HD
ATOM     48  C   UNL A   1      47.629  27.111  26.780  1.00  0.00     0.037 A 
ATOM     49  C   UNL A   1      41.109  28.315  28.932  1.00  0.00     0.037 A 
ATOM     50  C   UNL A   1      47.358  28.472  27.160  1.00  0.00     0.049 A 
ATOM     51  C   UNL A   1      42.149  29.403  28.921  1.00  0.00     0.074 A 
ATOM     52  C   UNL A   1      48.209  29.564  27.118  1.00  0.00     0.029 A 
ATOM     53  N   UNL A   1      46.145  28.932  27.649  1.00  0.00    -0.354 N 
ATOM     54  N   UNL A   1      43.393  29.355  28.515  1.00  0.00    -0.248 NA
ATOM     55  C   UNL A   1      41.738  30.721  29.430  1.00  0.00     0.031 C 
ATOM     56  C   UNL A   1      47.525  30.675  27.619  1.00  0.00     0.029 A 
ATOM     57  C   UNL A   1      46.233  30.286  27.931  1.00  0.00     0.049 A 
ATOM     58  H   UNL A   1      45.341  28.378  27.778  1.00  0.00     0.167 HD
ATOM     59  C   UNL A   1      43.907  30.631  28.703  1.00  0.00     0.074 A 
ATOM     60  C   UNL A   1      42.835  31.441  29.240  1.00  0.00     0.031 C 
ATOM     61  C   UNL A   1      45.159  31.087  28.456  1.00  0.00     0.037 A 
BRANCH  48  62
ATOM     62  C   UNL A   1      49.014  26.796  26.295  1.00  0.00     0.064 A 
ATOM     63  C   UNL A   1      49.962  26.197  27.136  1.00  0.00     0.173 A 
ATOM     64  C   UNL A   1      49.361  26.998  24.950  1.00  0.00     0.173 A 
ATOM     65  F   UNL A   1      49.680  25.988  28.431  1.00  0.00    -0.203 F 
ATOM     66  C   UNL A   1      51.210  25.816  26.650  1.00  0.00     0.198 A 
ATOM     67  C   UNL A   1      50.601  26.593  24.462  1.00  0.00     0.198 A 
ATOM     68  F   UNL A   1      48.485  27.557  24.102  1.00  0.00    -0.203 F 
ATOM     69  F   UNL A   1      52.108  25.260  27.477  1.00  0.00    -0.200 F 
ATOM     70  C   UNL A   1      51.524  26.004  25.312  1.00  0.00     0.200 A 
ATOM     71  F   UNL A   1      50.897  26.759  23.165  1.00  0.00    -0.200 F 
ATOM     72  F   UNL A   1      52.717  25.613  24.841  1.00  0.00    -0.200 F 
ENDBRANCH  48  62
BRANCH  49  73
ATOM     73  C   UNL A   1      39.722  28.601  29.382  1.00  0.00     0.064 A 
ATOM     74  C   UNL A   1      38.764  29.097  28.487  1.00  0.00     0.173 A 
ATOM     75  C   UNL A   1      39.328  28.390  30.711  1.00  0.00     0.173 A 
ATOM     76  F   UNL A   1      39.101  29.338  27.211  1.00  0.00    -0.203 F 
ATOM     77  C   UNL A   1      37.467  29.381  28.907  1.00  0.00     0.198 A 
ATOM     78  C   UNL A   1      38.022  28.648  31.124  1.00  0.00     0.198 A 
ATOM     79  F   UNL A   1      40.208  27.920  31.605  1.00  0.00    -0.203 F 
ATOM     80  F   UNL A   1      36.581  29.891  28.040  1.00  0.00    -0.200 F 
ATOM     81  C   UNL A   1      37.095  29.150  30.223  1.00  0.00     0.200 A 
ATOM     82  F   UNL A   1      37.664  28.410  32.392  1.00  0.00    -0.200 F 
ATOM     83  F   UNL A   1      35.844  29.415  30.624  1.00  0.00    -0.200 F 
ENDBRANCH  49  73
BRANCH  61  84
ATOM     84  C   UNL A   1      45.445  32.531  28.743  1.00  0.00     0.064 A 
ATOM     85  C   UNL A   1      45.186  33.531  27.796  1.00  0.00     0.173 A 
ATOM     86  C   UNL A   1      45.917  32.927  30.005  1.00  0.00     0.173 A 
ATOM     87  F   UNL A   1      44.748  33.203  26.571  1.00  0.00    -0.203 F 
ATOM     88  C   UNL A   1      45.401  34.875  28.095  1.00  0.00     0.198 A 
ATOM     89  C   UNL A   1      46.104  34.272  30.310  1.00  0.00     0.198 A 
ATOM     90  F   UNL A   1      46.173  32.010  30.949  1.00  0.00    -0.203 F 
ATOM     91  F   UNL A   1      45.177  35.811  27.163  1.00  0.00    -0.200 F 
ATOM     92  C   UNL A   1      45.849  35.244  29.354  1.00  0.00     0.200 A 
ATOM     93  F   UNL A   1      46.525  34.628  31.532  1.00  0.00    -0.200 F 
ATOM     94  F   UNL A   1      46.041  36.538  29.646  1.00  0.00    -0.200 F 
ENDBRANCH  61  84
ENDBRANCH  35  36
ENDBRANCH  27  30
ENDBRANCH  25  26
ENDBRANCH  24  25
ENDBRANCH  23  24
ENDBRANCH   1  23
TORSDOF 16
ENDMDL
MODEL 3
REMARK VINA RESULT:     -11.7      1.408      3.014
REMARK SMILES O=C(CC1(C[S@](=O)C[C@H]2Cc3ccccc3S2)CC1)NCCCCNC(=O)c1ccc(-c2c3nc(c(-c4c(F)c(F)c(F)c(F)c4F)c4ccc([nH]4)c(-c4c(F)c(F)c(F)c(F)c4F)c4nc(c(-c5c(F)c(F)c(F)c(F)c5F)c5ccc2[nH]5)C=C4)C=C3)cc1
REMARK SMILES IDX 21 1 20 2 1 3 2 4 3 6 4 7 18 8 19 9 5 10 6 11 7 12 8 13 9 14
REMARK SMILES IDX 10 15 17 16 11 17 16 18 12 19 15 20 13 21 14 22 22 23 23 24
REMARK SMILES IDX 24 25 25 26 26 27 27 29 28 30 29 31 90 32 30 33 89 34 31 35
REMARK SMILES IDX 32 36 33 37 83 38 34 39 88 40 82 41 84 42 35 43 87 44 81 45
REMARK SMILES IDX 80 46 36 48 68 49 48 50 67 51 49 52 52 53 66 54 85 55 50 56
REMARK SMILES IDX 51 57 65 59 86 60 53 61 37 62 38 63 46 64 39 65 40 66 44 67
REMARK SMILES IDX 47 68 41 69 42 70 45 71 43 72 69 73 70 74 78 75 71 76 72 77
REMARK SMILES IDX 76 78 79 79 73 80 74 81 77 82 75 83 54 84 55 85 63 86 56 87
REMARK SMILES IDX 57 88 61 89 64 90 58 91 59 92 62 93 60 94
REMARK H PARENT 20 5 25 28 84 47 52 58
REMARK Flexibility Score: inf
ROOT
ATOM      1  C   UNL A   1      32.685  29.780  26.991  1.00  0.00     0.116 C 
ENDROOT
BRANCH   1   2
ATOM      2  N   UNL A   1      32.572  28.341  26.905  1.00  0.00    -0.356 N 
ATOM      3  O   UNL A   1      34.064  28.035  25.191  1.00  0.00    -0.275 OA
ATOM      4  C   UNL A   1      33.291  27.569  26.025  1.00  0.00     0.220 C 
ATOM      5  H   UNL A   1      31.943  27.889  27.512  1.00  0.00     0.163 HD
BRANCH   4   6
ATOM      6  C   UNL A   1      33.012  26.070  26.136  1.00  0.00     0.108 C 
BRANCH   6   7
ATOM      7  C   UNL A   1      33.770  25.172  25.155  1.00  0.00    -0.009 C 
ATOM      8  C   UNL A   1      35.080  24.611  25.728  1.00  0.00     0.009 C 
ATOM      9  C   UNL A   1      33.938  23.696  25.480  1.00  0.00     0.009 C 
BRANCH   7  10
ATOM     10  C   UNL A   1      33.892  25.624  23.706  1.00  0.00     0.112 C 
BRANCH  10  11
ATOM     11  S   UNL A   1      32.911  24.990  22.362  1.00  0.00     0.023 S 
ATOM     12  O   UNL A   1      33.276  25.541  21.025  1.00  0.00    -0.260 OA
BRANCH  11  13
ATOM     13  C   UNL A   1      31.188  25.318  22.749  1.00  0.00     0.120 C 
BRANCH  13  14
ATOM     14  C   UNL A   1      30.692  26.610  23.392  1.00  0.00     0.068 C 
ATOM     15  C   UNL A   1      31.090  27.903  22.653  1.00  0.00     0.052 C 
ATOM     16  S   UNL A   1      28.939  26.705  23.836  1.00  0.00    -0.121 SA
ATOM     17  C   UNL A   1      29.912  28.827  22.619  1.00  0.00    -0.033 A 
ATOM     18  C   UNL A   1      28.740  28.323  23.180  1.00  0.00     0.011 A 
ATOM     19  C   UNL A   1      29.909  30.075  22.002  1.00  0.00     0.005 A 
ATOM     20  C   UNL A   1      27.551  29.036  23.126  1.00  0.00     0.015 A 
ATOM     21  C   UNL A   1      28.714  30.795  21.929  1.00  0.00     0.000 A 
ATOM     22  C   UNL A   1      27.539  30.277  22.487  1.00  0.00     0.001 A 
ENDBRANCH  13  14
ENDBRANCH  11  13
ENDBRANCH  10  11
ENDBRANCH   7  10
ENDBRANCH   6   7
ENDBRANCH   4   6
ENDBRANCH   1   2
BRANCH   1  23
ATOM     23  C   UNL A   1      31.548  30.515  26.276  1.00  0.00     0.023 C 
BRANCH  23  24
ATOM     24  C   UNL A   1      31.403  32.016  26.564  1.00  0.00     0.023 C 
BRANCH  24  25
ATOM     25  C   UNL A   1      32.631  32.717  27.138  1.00  0.00     0.116 C 
BRANCH  25  26
ATOM     26  N   UNL A   1      32.352  34.062  27.619  1.00  0.00    -0.352 N 
ATOM     27  C   UNL A   1      32.984  34.801  28.591  1.00  0.00     0.251 C 
ATOM     28  H   UNL A   1      31.593  34.512  27.181  1.00  0.00     0.163 HD
ATOM     29  O   UNL A   1      32.532  35.895  28.924  1.00  0.00    -0.269 OA
BRANCH  27  30
ATOM     30  C   UNL A   1      34.187  34.277  29.283  1.00  0.00     0.039 A 
ATOM     31  C   UNL A   1      35.476  34.532  28.811  1.00  0.00     0.014 A 
ATOM     32  C   UNL A   1      34.013  33.518  30.445  1.00  0.00     0.014 A 
ATOM     33  C   UNL A   1      36.572  33.903  29.407  1.00  0.00     0.010 A 
ATOM     34  C   UNL A   1      35.117  32.937  31.078  1.00  0.00     0.010 A 
ATOM     35  C   UNL A   1      36.403  33.078  30.532  1.00  0.00    -0.014 A 
BRANCH  35  36
ATOM     36  C   UNL A   1      37.562  32.335  31.101  1.00  0.00     0.031 A 
ATOM     37  C   UNL A   1      38.053  32.638  32.495  1.00  0.00     0.074 A 
ATOM     38  C   UNL A   1      38.159  31.360  30.387  1.00  0.00     0.049 A 
ATOM     39  N   UNL A   1      39.045  32.098  33.160  1.00  0.00    -0.248 NA
ATOM     40  C   UNL A   1      37.335  33.684  33.242  1.00  0.00     0.031 C 
ATOM     41  C   UNL A   1      37.786  30.960  29.031  1.00  0.00     0.029 A 
ATOM     42  N   UNL A   1      39.200  30.522  30.707  1.00  0.00    -0.354 N 
ATOM     43  C   UNL A   1      39.077  32.745  34.389  1.00  0.00     0.074 A 
ATOM     44  C   UNL A   1      38.027  33.739  34.371  1.00  0.00     0.031 C 
ATOM     45  C   UNL A   1      38.562  29.934  28.647  1.00  0.00     0.029 A 
ATOM     46  C   UNL A   1      39.520  29.634  29.709  1.00  0.00     0.049 A 
ATOM     47  H   UNL A   1      39.673  30.555  31.570  1.00  0.00     0.167 HD
ATOM     48  C   UNL A   1      39.894  32.518  35.446  1.00  0.00     0.037 A 
ATOM     49  C   UNL A   1      40.482  28.693  29.648  1.00  0.00     0.037 A 
ATOM     50  C   UNL A   1      40.925  31.513  35.483  1.00  0.00     0.049 A 
ATOM     51  C   UNL A   1      41.407  28.495  30.818  1.00  0.00     0.074 A 
ATOM     52  C   UNL A   1      41.778  31.193  36.527  1.00  0.00     0.029 A 
ATOM     53  N   UNL A   1      41.242  30.664  34.435  1.00  0.00    -0.354 N 
ATOM     54  N   UNL A   1      41.407  29.095  31.983  1.00  0.00    -0.248 NA
ATOM     55  C   UNL A   1      42.471  27.491  30.664  1.00  0.00     0.031 C 
ATOM     56  C   UNL A   1      42.638  30.179  36.097  1.00  0.00     0.029 A 
ATOM     57  C   UNL A   1      42.291  29.834  34.802  1.00  0.00     0.049 A 
ATOM     58  H   UNL A   1      40.790  30.652  33.561  1.00  0.00     0.167 HD
ATOM     59  C   UNL A   1      42.453  28.533  32.703  1.00  0.00     0.074 A 
ATOM     60  C   UNL A   1      43.055  27.528  31.853  1.00  0.00     0.031 C 
ATOM     61  C   UNL A   1      42.878  28.830  33.954  1.00  0.00     0.037 A 
BRANCH  48  62
ATOM     62  C   UNL A   1      39.713  33.362  36.673  1.00  0.00     0.064 A 
ATOM     63  C   UNL A   1      40.365  34.595  36.811  1.00  0.00     0.173 A 
ATOM     64  C   UNL A   1      38.799  32.986  37.669  1.00  0.00     0.173 A 
ATOM     65  F   UNL A   1      41.252  34.997  35.889  1.00  0.00    -0.203 F 
ATOM     66  C   UNL A   1      40.114  35.419  37.906  1.00  0.00     0.198 A 
ATOM     67  C   UNL A   1      38.531  33.823  38.748  1.00  0.00     0.198 A 
ATOM     68  F   UNL A   1      38.140  31.820  37.576  1.00  0.00    -0.203 F 
ATOM     69  F   UNL A   1      40.762  36.586  38.027  1.00  0.00    -0.200 F 
ATOM     70  C   UNL A   1      39.189  35.037  38.867  1.00  0.00     0.200 A 
ATOM     71  F   UNL A   1      37.624  33.461  39.668  1.00  0.00    -0.200 F 
ATOM     72  F   UNL A   1      38.929  35.843  39.906  1.00  0.00    -0.200 F 
ENDBRANCH  48  62
BRANCH  49  73
ATOM     73  C   UNL A   1      40.619  27.854  28.429  1.00  0.00     0.064 A 
ATOM     74  C   UNL A   1      39.985  26.607  28.338  1.00  0.00     0.173 A 
ATOM     75  C   UNL A   1      41.386  28.278  27.334  1.00  0.00     0.173 A 
ATOM     76  F   UNL A   1      39.260  26.149  29.370  1.00  0.00    -0.203 F 
ATOM     77  C   UNL A   1      40.123  25.811  27.204  1.00  0.00     0.198 A 
ATOM     78  C   UNL A   1      41.500  27.493  26.188  1.00  0.00     0.198 A 
ATOM     79  F   UNL A   1      42.014  29.461  27.372  1.00  0.00    -0.203 F 
ATOM     80  F   UNL A   1      39.538  24.606  27.159  1.00  0.00    -0.200 F 
ATOM     81  C   UNL A   1      40.874  26.257  26.127  1.00  0.00     0.200 A 
ATOM     82  F   UNL A   1      42.216  27.935  25.145  1.00  0.00    -0.200 F 
ATOM     83  F   UNL A   1      40.999  25.494  25.033  1.00  0.00    -0.200 F 
ENDBRANCH  49  73
BRANCH  61  84
ATOM     84  C   UNL A   1      44.038  28.052  34.501  1.00  0.00     0.064 A 
ATOM     85  C   UNL A   1      45.356  28.515  34.373  1.00  0.00     0.173 A 
ATOM     86  C   UNL A   1      43.824  26.867  35.223  1.00  0.00     0.173 A 
ATOM     87  F   UNL A   1      45.613  29.635  33.680  1.00  0.00    -0.203 F 
ATOM     88  C   UNL A   1      46.419  27.813  34.936  1.00  0.00     0.198 A 
ATOM     89  C   UNL A   1      44.887  26.183  35.808  1.00  0.00     0.198 A 
ATOM     90  F   UNL A   1      42.583  26.386  35.380  1.00  0.00    -0.203 F 
ATOM     91  F   UNL A   1      47.673  28.258  34.774  1.00  0.00    -0.200 F 
ATOM     92  C   UNL A   1      46.183  26.655  35.661  1.00  0.00     0.200 A 
ATOM     93  F   UNL A   1      44.655  25.072  36.520  1.00  0.00    -0.200 F 
ATOM     94  F   UNL A   1      47.205  25.990  36.216  1.00  0.00    -0.200 F 
ENDBRANCH  61  84
ENDBRANCH  35  36
ENDBRANCH  27  30
ENDBRANCH  25  26
ENDBRANCH  24  25
ENDBRANCH  23  24
ENDBRANCH   1  23
TORSDOF 16
ENDMDL
