MODEL 1
REMARK VINA RESULT:     -11.3      0.000      0.000
REMARK SMILES CCC(CC)(NC(=O)N[C@H](C)C1CC1)C(=O)NCCCCNC(=O)c1ccc(-c2c3nc(c(-c4c(F)c(F)c(F)c(F)c4F)c4ccc([nH]4)c(-c4c(F)c(F)c(F)c(F)c4F)c4nc(c(-c5c(F)c(F)c(F)c(F)c5F)c5ccc2[nH]5)C=C4)C=C3)cc1
REMARK SMILES IDX 19 1 18 2 17 3 15 4 16 5 3 7 2 8 1 9 4 10 5 11 6 12 7 13
REMARK SMILES IDX 8 15 9 16 10 18 11 19 12 20 13 21 14 22 20 23 21 24 22 25
REMARK SMILES IDX 23 26 24 28 25 29 26 30 87 31 27 32 86 33 28 34 29 35 30 36
REMARK SMILES IDX 80 37 31 38 85 39 79 40 81 41 32 42 84 43 78 44 77 45 33 47
REMARK SMILES IDX 65 48 45 49 64 50 46 51 49 52 63 53 82 54 47 55 48 56 62 58
REMARK SMILES IDX 83 59 50 60 34 61 35 62 43 63 36 64 37 65 41 66 44 67 38 68
REMARK SMILES IDX 39 69 42 70 40 71 66 72 67 73 75 74 68 75 69 76 73 77 76 78
REMARK SMILES IDX 70 79 71 80 74 81 72 82 51 83 52 84 60 85 53 86 54 87 58 88
REMARK SMILES IDX 61 89 55 90 56 91 59 92 57 93
REMARK H PARENT 17 6 6 14 9 17 22 27 81 46 49 57
REMARK Flexibility Score: inf
ROOT
ATOM      1  C   UNL A   1      37.238  21.180  24.582  1.00  0.00     0.023 C 
ENDROOT
BRANCH   1   2
ATOM      2  C   UNL A   1      35.740  21.018  24.835  1.00  0.00     0.116 C 
BRANCH   2   3
ATOM      3  N   UNL A   1      35.303  21.118  26.228  1.00  0.00    -0.354 N 
ATOM      4  C   UNL A   1      34.208  21.723  26.803  1.00  0.00     0.245 C 
ATOM      5  O   UNL A   1      33.969  21.432  27.978  1.00  0.00    -0.272 OA
ATOM      6  H   UNL A   1      35.901  20.671  26.871  1.00  0.00     0.163 HD
BRANCH   4   7
ATOM      7  C   UNL A   1      33.251  22.600  25.955  1.00  0.00     0.120 C 
BRANCH   7   8
ATOM      8  C   UNL A   1      33.073  22.247  24.457  1.00  0.00     0.035 C 
ATOM      9  C   UNL A   1      32.182  21.065  24.101  1.00  0.00     0.007 C 
ENDBRANCH   7   8
BRANCH   7  10
ATOM     10  C   UNL A   1      33.888  24.038  26.065  1.00  0.00     0.035 C 
ATOM     11  C   UNL A   1      34.696  24.541  24.879  1.00  0.00     0.007 C 
ENDBRANCH   7  10
BRANCH   7  12
ATOM     12  N   UNL A   1      31.913  22.522  26.581  1.00  0.00    -0.324 N 
ATOM     13  C   UNL A   1      30.927  23.376  26.865  1.00  0.00     0.315 C 
ATOM     14  H   UNL A   1      31.692  21.603  26.859  1.00  0.00     0.166 HD
ATOM     15  O   UNL A   1      30.069  22.952  27.650  1.00  0.00    -0.249 OA
ATOM     16  N   UNL A   1      30.703  24.588  26.360  1.00  0.00    -0.335 N 
ATOM     17  H   UNL A   1      29.835  24.915  26.691  1.00  0.00     0.165 HD
BRANCH  16  18
ATOM     18  C   UNL A   1      31.296  25.611  25.481  1.00  0.00     0.083 C 
ATOM     19  C   UNL A   1      31.189  26.994  26.118  1.00  0.00     0.031 C 
BRANCH  18  20
ATOM     20  C   UNL A   1      30.552  25.615  24.146  1.00  0.00     0.011 C 
ATOM     21  C   UNL A   1      31.318  25.576  22.834  1.00  0.00     0.006 C 
ATOM     22  C   UNL A   1      30.513  24.390  23.251  1.00  0.00     0.006 C 
ENDBRANCH  18  20
ENDBRANCH  16  18
ENDBRANCH   7  12
ENDBRANCH   4   7
ENDBRANCH   2   3
ENDBRANCH   1   2
BRANCH   1  23
ATOM     23  C   UNL A   1      38.096  19.970  24.900  1.00  0.00     0.023 C 
BRANCH  23  24
ATOM     24  C   UNL A   1      39.135  20.189  25.984  1.00  0.00     0.116 C 
BRANCH  24  25
ATOM     25  N   UNL A   1      40.176  19.177  25.957  1.00  0.00    -0.352 N 
ATOM     26  C   UNL A   1      41.534  19.333  26.037  1.00  0.00     0.251 C 
ATOM     27  H   UNL A   1      39.862  18.249  25.868  1.00  0.00     0.163 HD
ATOM     28  O   UNL A   1      42.280  18.380  25.818  1.00  0.00    -0.269 OA
BRANCH  26  29
ATOM     29  C   UNL A   1      42.101  20.656  26.364  1.00  0.00     0.039 A 
ATOM     30  C   UNL A   1      42.412  21.531  25.322  1.00  0.00     0.014 A 
ATOM     31  C   UNL A   1      42.319  21.034  27.692  1.00  0.00     0.014 A 
ATOM     32  C   UNL A   1      42.895  22.805  25.614  1.00  0.00     0.010 A 
ATOM     33  C   UNL A   1      42.715  22.334  27.984  1.00  0.00     0.010 A 
ATOM     34  C   UNL A   1      43.022  23.227  26.948  1.00  0.00    -0.014 A 
BRANCH  34  35
ATOM     35  C   UNL A   1      43.493  24.594  27.277  1.00  0.00     0.031 A 
ATOM     36  C   UNL A   1      42.531  25.606  27.836  1.00  0.00     0.074 A 
ATOM     37  C   UNL A   1      44.769  24.938  27.023  1.00  0.00     0.049 A 
ATOM     38  N   UNL A   1      42.732  26.864  28.137  1.00  0.00    -0.248 NA
ATOM     39  C   UNL A   1      41.148  25.151  28.061  1.00  0.00     0.031 C 
ATOM     40  C   UNL A   1      45.782  24.057  26.439  1.00  0.00     0.029 A 
ATOM     41  N   UNL A   1      45.432  26.123  27.215  1.00  0.00    -0.354 N 
ATOM     42  C   UNL A   1      41.505  27.350  28.568  1.00  0.00     0.074 A 
ATOM     43  C   UNL A   1      40.551  26.271  28.437  1.00  0.00     0.031 C 
ATOM     44  C   UNL A   1      46.946  24.722  26.351  1.00  0.00     0.029 A 
ATOM     45  C   UNL A   1      46.750  26.087  26.828  1.00  0.00     0.049 A 
ATOM     46  H   UNL A   1      45.004  26.925  27.595  1.00  0.00     0.167 HD
ATOM     47  C   UNL A   1      41.209  28.578  29.054  1.00  0.00     0.037 A 
ATOM     48  C   UNL A   1      47.690  27.050  26.851  1.00  0.00     0.037 A 
ATOM     49  C   UNL A   1      42.171  29.638  29.207  1.00  0.00     0.049 A 
ATOM     50  C   UNL A   1      47.329  28.412  27.383  1.00  0.00     0.074 A 
ATOM     51  C   UNL A   1      41.987  30.897  29.750  1.00  0.00     0.029 A 
ATOM     52  N   UNL A   1      43.499  29.561  28.810  1.00  0.00    -0.354 N 
ATOM     53  N   UNL A   1      46.184  28.838  27.860  1.00  0.00    -0.248 NA
ATOM     54  C   UNL A   1      48.394  29.424  27.385  1.00  0.00     0.031 C 
ATOM     55  C   UNL A   1      43.189  31.603  29.628  1.00  0.00     0.029 A 
ATOM     56  C   UNL A   1      44.138  30.763  29.069  1.00  0.00     0.049 A 
ATOM     57  H   UNL A   1      43.923  28.771  28.405  1.00  0.00     0.167 HD
ATOM     58  C   UNL A   1      46.400  30.153  28.248  1.00  0.00     0.074 A 
ATOM     59  C   UNL A   1      47.788  30.449  27.965  1.00  0.00     0.031 C 
ATOM     60  C   UNL A   1      45.525  31.037  28.790  1.00  0.00     0.037 A 
BRANCH  47  61
ATOM     61  C   UNL A   1      39.785  28.846  29.454  1.00  0.00     0.064 A 
ATOM     62  C   UNL A   1      38.844  29.351  28.543  1.00  0.00     0.173 A 
ATOM     63  C   UNL A   1      39.347  28.553  30.754  1.00  0.00     0.173 A 
ATOM     64  F   UNL A   1      39.213  29.658  27.291  1.00  0.00    -0.203 F 
ATOM     65  C   UNL A   1      37.526  29.582  28.928  1.00  0.00     0.198 A 
ATOM     66  C   UNL A   1      38.020  28.754  31.126  1.00  0.00     0.198 A 
ATOM     67  F   UNL A   1      40.203  28.064  31.664  1.00  0.00    -0.203 F 
ATOM     68  F   UNL A   1      36.658  30.114  28.057  1.00  0.00    -0.200 F 
ATOM     69  C   UNL A   1      37.114  29.276  30.217  1.00  0.00     0.200 A 
ATOM     70  F   UNL A   1      37.620  28.444  32.367  1.00  0.00    -0.200 F 
ATOM     71  F   UNL A   1      35.842  29.489  30.583  1.00  0.00    -0.200 F 
ENDBRANCH  47  61
BRANCH  48  72
ATOM     72  C   UNL A   1      49.070  26.758  26.378  1.00  0.00     0.064 A 
ATOM     73  C   UNL A   1      49.441  26.999  25.048  1.00  0.00     0.173 A 
ATOM     74  C   UNL A   1      50.039  26.219  27.237  1.00  0.00     0.173 A 
ATOM     75  F   UNL A   1      48.544  27.495  24.182  1.00  0.00    -0.203 F 
ATOM     76  C   UNL A   1      50.719  26.690  24.589  1.00  0.00     0.198 A 
ATOM     77  C   UNL A   1      51.327  25.940  26.785  1.00  0.00     0.198 A 
ATOM     78  F   UNL A   1      49.738  25.975  28.521  1.00  0.00    -0.203 F 
ATOM     79  F   UNL A   1      51.030  26.881  23.299  1.00  0.00    -0.200 F 
ATOM     80  C   UNL A   1      51.663  26.165  25.459  1.00  0.00     0.200 A 
ATOM     81  F   UNL A   1      52.241  25.449  27.633  1.00  0.00    -0.200 F 
ATOM     82  F   UNL A   1      52.893  25.870  25.017  1.00  0.00    -0.200 F 
ENDBRANCH  48  72
BRANCH  60  83
ATOM     83  C   UNL A   1      46.055  32.394  29.154  1.00  0.00     0.064 A 
ATOM     84  C   UNL A   1      46.610  32.659  30.414  1.00  0.00     0.173 A 
ATOM     85  C   UNL A   1      46.042  33.434  28.211  1.00  0.00     0.173 A 
ATOM     86  F   UNL A   1      46.634  31.703  31.356  1.00  0.00    -0.203 F 
ATOM     87  C   UNL A   1      47.107  33.921  30.727  1.00  0.00     0.198 A 
ATOM     88  C   UNL A   1      46.571  34.685  28.515  1.00  0.00     0.198 A 
ATOM     89  F   UNL A   1      45.529  33.232  26.988  1.00  0.00    -0.203 F 
ATOM     90  F   UNL A   1      47.585  34.166  31.955  1.00  0.00    -0.200 F 
ATOM     91  C   UNL A   1      47.095  34.931  29.775  1.00  0.00     0.200 A 
ATOM     92  F   UNL A   1      46.574  35.653  27.588  1.00  0.00    -0.200 F 
ATOM     93  F   UNL A   1      47.581  36.142  30.075  1.00  0.00    -0.200 F 
ENDBRANCH  60  83
ENDBRANCH  34  35
ENDBRANCH  26  29
ENDBRANCH  24  25
ENDBRANCH  23  24
ENDBRANCH   1  23
TORSDOF 16
ENDMDL
MODEL 2
REMARK VINA RESULT:     -11.3      0.115      1.615
REMARK SMILES CCC(CC)(NC(=O)N[C@H](C)C1CC1)C(=O)NCCCCNC(=O)c1ccc(-c2c3nc(c(-c4c(F)c(F)c(F)c(F)c4F)c4ccc([nH]4)c(-c4c(F)c(F)c(F)c(F)c4F)c4nc(c(-c5c(F)c(F)c(F)c(F)c5F)c5ccc2[nH]5)C=C4)C=C3)cc1
REMARK SMILES IDX 19 1 18 2 17 3 15 4 16 5 3 7 2 8 1 9 4 10 5 11 6 12 7 13
REMARK SMILES IDX 8 15 9 16 10 18 11 19 12 20 13 21 14 22 20 23 21 24 22 25
REMARK SMILES IDX 23 26 24 28 25 29 26 30 87 31 27 32 86 33 28 34 29 35 30 36
REMARK SMILES IDX 80 37 31 38 85 39 79 40 81 41 32 42 84 43 78 44 77 45 33 47
REMARK SMILES IDX 65 48 45 49 64 50 46 51 49 52 63 53 82 54 47 55 48 56 62 58
REMARK SMILES IDX 83 59 50 60 34 61 35 62 43 63 36 64 37 65 41 66 44 67 38 68
REMARK SMILES IDX 39 69 42 70 40 71 66 72 67 73 75 74 68 75 69 76 73 77 76 78
REMARK SMILES IDX 70 79 71 80 74 81 72 82 51 83 52 84 60 85 53 86 54 87 58 88
REMARK SMILES IDX 61 89 55 90 56 91 59 92 57 93
REMARK H PARENT 17 6 6 14 9 17 22 27 81 46 49 57
REMARK Flexibility Score: inf
ROOT
ATOM      1  C   UNL A   1      37.328  21.123  24.592  1.00  0.00     0.023 C 
ENDROOT
BRANCH   1   2
ATOM      2  C   UNL A   1      35.821  21.009  24.819  1.00  0.00     0.116 C 
BRANCH   2   3
ATOM      3  N   UNL A   1      35.366  21.097  26.207  1.00  0.00    -0.354 N 
ATOM      4  C   UNL A   1      34.279  21.724  26.776  1.00  0.00     0.245 C 
ATOM      5  O   UNL A   1      34.014  21.420  27.942  1.00  0.00    -0.272 OA
ATOM      6  H   UNL A   1      35.941  20.623  26.851  1.00  0.00     0.163 HD
BRANCH   4   7
ATOM      7  C   UNL A   1      33.361  22.642  25.929  1.00  0.00     0.120 C 
BRANCH   7   8
ATOM      8  C   UNL A   1      33.230  22.345  24.414  1.00  0.00     0.035 C 
ATOM      9  C   UNL A   1      32.241  21.274  23.977  1.00  0.00     0.007 C 
ENDBRANCH   7   8
BRANCH   7  10
ATOM     10  C   UNL A   1      34.008  24.067  26.113  1.00  0.00     0.035 C 
ATOM     11  C   UNL A   1      34.789  24.641  24.940  1.00  0.00     0.007 C 
ENDBRANCH   7  10
BRANCH   7  12
ATOM     12  N   UNL A   1      32.002  22.556  26.506  1.00  0.00    -0.324 N 
ATOM     13  C   UNL A   1      31.018  23.411  26.795  1.00  0.00     0.315 C 
ATOM     14  H   UNL A   1      31.760  21.630  26.738  1.00  0.00     0.166 HD
ATOM     15  O   UNL A   1      30.129  22.967  27.532  1.00  0.00    -0.249 OA
ATOM     16  N   UNL A   1      30.827  24.647  26.335  1.00  0.00    -0.335 N 
ATOM     17  H   UNL A   1      29.953  24.972  26.651  1.00  0.00     0.165 HD
BRANCH  16  18
ATOM     18  C   UNL A   1      31.463  25.698  25.521  1.00  0.00     0.083 C 
ATOM     19  C   UNL A   1      31.305  27.063  26.188  1.00  0.00     0.031 C 
BRANCH  18  20
ATOM     20  C   UNL A   1      30.799  25.733  24.144  1.00  0.00     0.011 C 
ATOM     21  C   UNL A   1      31.553  25.264  22.911  1.00  0.00     0.006 C 
ATOM     22  C   UNL A   1      30.401  24.462  23.418  1.00  0.00     0.006 C 
ENDBRANCH  18  20
ENDBRANCH  16  18
ENDBRANCH   7  12
ENDBRANCH   4   7
ENDBRANCH   2   3
ENDBRANCH   1   2
BRANCH   1  23
ATOM     23  C   UNL A   1      38.141  19.888  24.931  1.00  0.00     0.023 C 
BRANCH  23  24
ATOM     24  C   UNL A   1      39.168  20.080  26.031  1.00  0.00     0.116 C 
BRANCH  24  25
ATOM     25  N   UNL A   1      40.222  19.083  25.977  1.00  0.00    -0.352 N 
ATOM     26  C   UNL A   1      41.579  19.257  26.028  1.00  0.00     0.251 C 
ATOM     27  H   UNL A   1      39.919  18.151  25.892  1.00  0.00     0.163 HD
ATOM     28  O   UNL A   1      42.333  18.316  25.789  1.00  0.00    -0.269 OA
BRANCH  26  29
ATOM     29  C   UNL A   1      42.135  20.587  26.347  1.00  0.00     0.039 A 
ATOM     30  C   UNL A   1      42.406  21.471  25.301  1.00  0.00     0.014 A 
ATOM     31  C   UNL A   1      42.381  20.962  27.671  1.00  0.00     0.014 A 
ATOM     32  C   UNL A   1      42.879  22.751  25.587  1.00  0.00     0.010 A 
ATOM     33  C   UNL A   1      42.766  22.266  27.959  1.00  0.00     0.010 A 
ATOM     34  C   UNL A   1      43.033  23.169  26.920  1.00  0.00    -0.014 A 
BRANCH  34  35
ATOM     35  C   UNL A   1      43.492  24.541  27.244  1.00  0.00     0.031 A 
ATOM     36  C   UNL A   1      42.523  25.544  27.805  1.00  0.00     0.074 A 
ATOM     37  C   UNL A   1      44.765  24.897  26.983  1.00  0.00     0.049 A 
ATOM     38  N   UNL A   1      42.714  26.805  28.102  1.00  0.00    -0.248 NA
ATOM     39  C   UNL A   1      41.147  25.077  28.038  1.00  0.00     0.031 C 
ATOM     40  C   UNL A   1      45.783  24.024  26.396  1.00  0.00     0.029 A 
ATOM     41  N   UNL A   1      45.417  26.088  27.169  1.00  0.00    -0.354 N 
ATOM     42  C   UNL A   1      41.485  27.280  28.538  1.00  0.00     0.074 A 
ATOM     43  C   UNL A   1      40.541  26.192  28.414  1.00  0.00     0.031 C 
ATOM     44  C   UNL A   1      46.940  24.699  26.300  1.00  0.00     0.029 A 
ATOM     45  C   UNL A   1      46.733  26.064  26.775  1.00  0.00     0.049 A 
ATOM     46  H   UNL A   1      44.983  26.886  27.549  1.00  0.00     0.167 HD
ATOM     47  C   UNL A   1      41.179  28.507  29.022  1.00  0.00     0.037 A 
ATOM     48  C   UNL A   1      47.664  27.036  26.791  1.00  0.00     0.037 A 
ATOM     49  C   UNL A   1      42.131  29.576  29.169  1.00  0.00     0.049 A 
ATOM     50  C   UNL A   1      47.292  28.395  27.322  1.00  0.00     0.074 A 
ATOM     51  C   UNL A   1      41.938  30.834  29.709  1.00  0.00     0.029 A 
ATOM     52  N   UNL A   1      43.458  29.511  28.766  1.00  0.00    -0.354 N 
ATOM     53  N   UNL A   1      46.146  28.812  27.804  1.00  0.00    -0.248 NA
ATOM     54  C   UNL A   1      48.347  29.418  27.317  1.00  0.00     0.031 C 
ATOM     55  C   UNL A   1      43.133  31.552  29.580  1.00  0.00     0.029 A 
ATOM     56  C   UNL A   1      44.087  30.720  29.019  1.00  0.00     0.049 A 
ATOM     57  H   UNL A   1      43.888  28.724  28.360  1.00  0.00     0.167 HD
ATOM     58  C   UNL A   1      46.350  30.130  28.188  1.00  0.00     0.074 A 
ATOM     59  C   UNL A   1      47.735  30.439  27.898  1.00  0.00     0.031 C 
ATOM     60  C   UNL A   1      45.470  31.006  28.733  1.00  0.00     0.037 A 
BRANCH  47  61
ATOM     61  C   UNL A   1      39.755  28.761  29.429  1.00  0.00     0.064 A 
ATOM     62  C   UNL A   1      39.308  28.533  30.740  1.00  0.00     0.173 A 
ATOM     63  C   UNL A   1      38.835  29.279  28.504  1.00  0.00     0.173 A 
ATOM     64  F   UNL A   1      40.143  28.028  31.660  1.00  0.00    -0.203 F 
ATOM     65  C   UNL A   1      37.987  28.785  31.101  1.00  0.00     0.198 A 
ATOM     66  C   UNL A   1      37.524  29.561  28.878  1.00  0.00     0.198 A 
ATOM     67  F   UNL A   1      39.209  29.521  27.239  1.00  0.00    -0.203 F 
ATOM     68  F   UNL A   1      37.570  28.509  32.344  1.00  0.00    -0.200 F 
ATOM     69  C   UNL A   1      37.099  29.306  30.172  1.00  0.00     0.200 A 
ATOM     70  F   UNL A   1      36.670  30.079  27.983  1.00  0.00    -0.200 F 
ATOM     71  F   UNL A   1      35.830  29.557  30.525  1.00  0.00    -0.200 F 
ENDBRANCH  47  61
BRANCH  48  72
ATOM     72  C   UNL A   1      49.044  26.756  26.313  1.00  0.00     0.064 A 
ATOM     73  C   UNL A   1      50.018  26.246  27.183  1.00  0.00     0.173 A 
ATOM     74  C   UNL A   1      49.423  27.004  24.985  1.00  0.00     0.173 A 
ATOM     75  F   UNL A   1      49.711  26.011  28.467  1.00  0.00    -0.203 F 
ATOM     76  C   UNL A   1      51.322  26.020  26.751  1.00  0.00     0.198 A 
ATOM     77  C   UNL A   1      50.720  26.747  24.546  1.00  0.00     0.198 A 
ATOM     78  F   UNL A   1      48.528  27.486  24.110  1.00  0.00    -0.203 F 
ATOM     79  F   UNL A   1      52.246  25.583  27.618  1.00  0.00    -0.200 F 
ATOM     80  C   UNL A   1      51.672  26.265  25.431  1.00  0.00     0.200 A 
ATOM     81  F   UNL A   1      51.048  26.970  23.266  1.00  0.00    -0.200 F 
ATOM     82  F   UNL A   1      52.926  26.046  25.016  1.00  0.00    -0.200 F 
ENDBRANCH  48  72
BRANCH  60  83
ATOM     83  C   UNL A   1      45.988  32.370  29.091  1.00  0.00     0.064 A 
ATOM     84  C   UNL A   1      46.566  32.637  30.340  1.00  0.00     0.173 A 
ATOM     85  C   UNL A   1      45.941  33.413  28.153  1.00  0.00     0.173 A 
ATOM     86  F   UNL A   1      46.624  31.678  31.277  1.00  0.00    -0.203 F 
ATOM     87  C   UNL A   1      47.052  33.905  30.647  1.00  0.00     0.198 A 
ATOM     88  C   UNL A   1      46.459  34.670  28.450  1.00  0.00     0.198 A 
ATOM     89  F   UNL A   1      45.405  33.209  26.940  1.00  0.00    -0.203 F 
ATOM     90  F   UNL A   1      47.553  34.151  31.866  1.00  0.00    -0.200 F 
ATOM     91  C   UNL A   1      47.006  34.918  29.701  1.00  0.00     0.200 A 
ATOM     92  F   UNL A   1      46.428  35.641  27.528  1.00  0.00    -0.200 F 
ATOM     93  F   UNL A   1      47.482  36.134  29.995  1.00  0.00    -0.200 F 
ENDBRANCH  60  83
ENDBRANCH  34  35
ENDBRANCH  26  29
ENDBRANCH  24  25
ENDBRANCH  23  24
ENDBRANCH   1  23
TORSDOF 16
ENDMDL
MODEL 3
REMARK VINA RESULT:     -11.3      5.687     11.041
REMARK SMILES CCC(CC)(NC(=O)N[C@H](C)C1CC1)C(=O)NCCCCNC(=O)c1ccc(-c2c3nc(c(-c4c(F)c(F)c(F)c(F)c4F)c4ccc([nH]4)c(-c4c(F)c(F)c(F)c(F)c4F)c4nc(c(-c5c(F)c(F)c(F)c(F)c5F)c5ccc2[nH]5)C=C4)C=C3)cc1
REMARK SMILES IDX 19 1 18 2 17 3 15 4 16 5 3 7 2 8 1 9 4 10 5 11 6 12 7 13
REMARK SMILES IDX 8 15 9 16 10 18 11 19 12 20 13 21 14 22 20 23 21 24 22 25
REMARK SMILES IDX 23 26 24 28 25 29 26 30 87 31 27 32 86 33 28 34 29 35 30 36
REMARK SMILES IDX 80 37 31 38 85 39 79 40 81 41 32 42 84 43 78 44 77 45 33 47
REMARK SMILES IDX 65 48 45 49 64 50 46 51 49 52 63 53 82 54 47 55 48 56 62 58
REMARK SMILES IDX 83 59 50 60 34 61 35 62 43 63 36 64 37 65 41 66 44 67 38 68
REMARK SMILES IDX 39 69 42 70 40 71 66 72 67 73 75 74 68 75 69 76 73 77 76 78
REMARK SMILES IDX 70 79 71 80 74 81 72 82 51 83 52 84 60 85 53 86 54 87 58 88
REMARK SMILES IDX 61 89 55 90 56 91 59 92 57 93
REMARK H PARENT 17 6 6 14 9 17 22 27 81 46 49 57
REMARK Flexibility Score: inf
ROOT
ATOM      1  C   UNL A   1      31.832  30.474  26.884  1.00  0.00     0.023 C 
ENDROOT
BRANCH   1   2
ATOM      2  C   UNL A   1      31.577  29.682  25.603  1.00  0.00     0.116 C 
BRANCH   2   3
ATOM      3  N   UNL A   1      32.600  29.787  24.562  1.00  0.00    -0.354 N 
ATOM      4  C   UNL A   1      33.069  28.874  23.643  1.00  0.00     0.245 C 
ATOM      5  O   UNL A   1      33.763  29.320  22.726  1.00  0.00    -0.272 OA
ATOM      6  H   UNL A   1      33.031  30.671  24.508  1.00  0.00     0.163 HD
BRANCH   4   7
ATOM      7  C   UNL A   1      32.610  27.395  23.692  1.00  0.00     0.120 C 
BRANCH   7   8
ATOM      8  C   UNL A   1      31.194  27.088  24.242  1.00  0.00     0.035 C 
ATOM      9  C   UNL A   1      30.003  27.333  23.326  1.00  0.00     0.007 C 
ENDBRANCH   7   8
BRANCH   7  10
ATOM     10  C   UNL A   1      33.677  26.717  24.633  1.00  0.00     0.035 C 
ATOM     11  C   UNL A   1      33.268  26.435  26.071  1.00  0.00     0.007 C 
ENDBRANCH   7  10
BRANCH   7  12
ATOM     12  N   UNL A   1      32.660  26.873  22.308  1.00  0.00    -0.324 N 
ATOM     13  C   UNL A   1      33.045  25.741  21.715  1.00  0.00     0.315 C 
ATOM     14  H   UNL A   1      32.323  27.530  21.657  1.00  0.00     0.166 HD
ATOM     15  O   UNL A   1      33.181  25.806  20.486  1.00  0.00    -0.249 OA
ATOM     16  N   UNL A   1      33.227  24.537  22.255  1.00  0.00    -0.335 N 
ATOM     17  H   UNL A   1      33.402  23.888  21.536  1.00  0.00     0.165 HD
BRANCH  16  18
ATOM     18  C   UNL A   1      33.258  23.835  23.551  1.00  0.00     0.083 C 
ATOM     19  C   UNL A   1      34.439  22.869  23.610  1.00  0.00     0.031 C 
BRANCH  18  20
ATOM     20  C   UNL A   1      31.958  23.049  23.724  1.00  0.00     0.011 C 
ATOM     21  C   UNL A   1      30.987  23.397  24.839  1.00  0.00     0.006 C 
ATOM     22  C   UNL A   1      30.606  23.667  23.422  1.00  0.00     0.006 C 
ENDBRANCH  18  20
ENDBRANCH  16  18
ENDBRANCH   7  12
ENDBRANCH   4   7
ENDBRANCH   2   3
ENDBRANCH   1   2
BRANCH   1  23
ATOM     23  C   UNL A   1      31.608  31.972  26.790  1.00  0.00     0.023 C 
BRANCH  23  24
ATOM     24  C   UNL A   1      32.837  32.821  27.050  1.00  0.00     0.116 C 
BRANCH  24  25
ATOM     25  N   UNL A   1      32.496  34.143  27.544  1.00  0.00    -0.352 N 
ATOM     26  C   UNL A   1      32.998  34.819  28.623  1.00  0.00     0.251 C 
ATOM     27  H   UNL A   1      31.805  34.621  27.031  1.00  0.00     0.163 HD
ATOM     28  O   UNL A   1      32.467  35.861  29.003  1.00  0.00    -0.269 OA
BRANCH  26  29
ATOM     29  C   UNL A   1      34.168  34.280  29.345  1.00  0.00     0.039 A 
ATOM     30  C   UNL A   1      33.953  33.466  30.458  1.00  0.00     0.014 A 
ATOM     31  C   UNL A   1      35.468  34.570  28.921  1.00  0.00     0.014 A 
ATOM     32  C   UNL A   1      35.044  32.902  31.119  1.00  0.00     0.010 A 
ATOM     33  C   UNL A   1      36.548  33.937  29.524  1.00  0.00     0.010 A 
ATOM     34  C   UNL A   1      36.348  33.109  30.638  1.00  0.00    -0.014 A 
BRANCH  34  35
ATOM     35  C   UNL A   1      37.517  32.481  31.301  1.00  0.00     0.031 A 
ATOM     36  C   UNL A   1      38.249  31.355  30.625  1.00  0.00     0.074 A 
ATOM     37  C   UNL A   1      37.883  32.889  32.531  1.00  0.00     0.049 A 
ATOM     38  N   UNL A   1      39.257  30.642  31.060  1.00  0.00    -0.248 NA
ATOM     39  C   UNL A   1      37.767  30.958  29.291  1.00  0.00     0.031 C 
ATOM     40  C   UNL A   1      37.220  33.940  33.306  1.00  0.00     0.029 A 
ATOM     41  N   UNL A   1      38.897  32.463  33.350  1.00  0.00    -0.354 N 
ATOM     42  C   UNL A   1      39.515  29.708  30.066  1.00  0.00     0.074 A 
ATOM     43  C   UNL A   1      38.525  29.905  29.031  1.00  0.00     0.031 C 
ATOM     44  C   UNL A   1      37.864  34.098  34.473  1.00  0.00     0.029 A 
ATOM     45  C   UNL A   1      38.954  33.131  34.549  1.00  0.00     0.049 A 
ATOM     46  H   UNL A   1      39.524  31.745  33.103  1.00  0.00     0.167 HD
ATOM     47  C   UNL A   1      40.505  28.786  30.012  1.00  0.00     0.037 A 
ATOM     48  C   UNL A   1      39.791  32.976  35.592  1.00  0.00     0.037 A 
ATOM     49  C   UNL A   1      41.503  28.615  31.035  1.00  0.00     0.049 A 
ATOM     50  C   UNL A   1      40.874  31.933  35.511  1.00  0.00     0.074 A 
ATOM     51  C   UNL A   1      42.587  27.756  31.047  1.00  0.00     0.029 A 
ATOM     52  N   UNL A   1      41.534  29.317  32.233  1.00  0.00    -0.354 N 
ATOM     53  N   UNL A   1      41.158  31.106  34.533  1.00  0.00    -0.248 NA
ATOM     54  C   UNL A   1      41.759  31.807  36.678  1.00  0.00     0.031 C 
ATOM     55  C   UNL A   1      43.240  27.895  32.276  1.00  0.00     0.029 A 
ATOM     56  C   UNL A   1      42.603  28.886  33.003  1.00  0.00     0.049 A 
ATOM     57  H   UNL A   1      40.892  30.015  32.495  1.00  0.00     0.167 HD
ATOM     58  C   UNL A   1      42.269  30.388  34.951  1.00  0.00     0.074 A 
ATOM     59  C   UNL A   1      42.618  30.886  36.265  1.00  0.00     0.031 C 
ATOM     60  C   UNL A   1      42.941  29.402  34.305  1.00  0.00     0.037 A 
BRANCH  47  61
ATOM     61  C   UNL A   1      40.558  27.889  28.808  1.00  0.00     0.064 A 
ATOM     62  C   UNL A   1      39.830  26.691  28.746  1.00  0.00     0.173 A 
ATOM     63  C   UNL A   1      41.316  28.253  27.684  1.00  0.00     0.173 A 
ATOM     64  F   UNL A   1      39.099  26.289  29.797  1.00  0.00    -0.203 F 
ATOM     65  C   UNL A   1      39.883  25.877  27.618  1.00  0.00     0.198 A 
ATOM     66  C   UNL A   1      41.339  27.454  26.545  1.00  0.00     0.198 A 
ATOM     67  F   UNL A   1      42.027  29.391  27.687  1.00  0.00    -0.203 F 
ATOM     68  F   UNL A   1      39.221  24.712  27.602  1.00  0.00    -0.200 F 
ATOM     69  C   UNL A   1      40.630  26.263  26.516  1.00  0.00     0.200 A 
ATOM     70  F   UNL A   1      42.050  27.836  25.475  1.00  0.00    -0.200 F 
ATOM     71  F   UNL A   1      40.671  25.484  25.426  1.00  0.00    -0.200 F 
ENDBRANCH  47  61
BRANCH  48  72
ATOM     72  C   UNL A   1      39.655  33.842  36.793  1.00  0.00     0.064 A 
ATOM     73  C   UNL A   1      38.877  33.437  37.887  1.00  0.00     0.173 A 
ATOM     74  C   UNL A   1      40.285  35.093  36.869  1.00  0.00     0.173 A 
ATOM     75  F   UNL A   1      38.238  32.259  37.856  1.00  0.00    -0.203 F 
ATOM     76  C   UNL A   1      38.712  34.261  38.998  1.00  0.00     0.198 A 
ATOM     77  C   UNL A   1      40.146  35.903  37.995  1.00  0.00     0.198 A 
ATOM     78  F   UNL A   1      41.046  35.524  35.853  1.00  0.00    -0.203 F 
ATOM     79  F   UNL A   1      37.919  33.873  40.006  1.00  0.00    -0.200 F 
ATOM     80  C   UNL A   1      39.351  35.491  39.054  1.00  0.00     0.200 A 
ATOM     81  F   UNL A   1      40.778  37.082  38.050  1.00  0.00    -0.200 F 
ATOM     82  F   UNL A   1      39.194  36.282  40.123  1.00  0.00    -0.200 F 
ENDBRANCH  48  72
BRANCH  60  83
ATOM     83  C   UNL A   1      44.147  28.828  34.991  1.00  0.00     0.064 A 
ATOM     84  C   UNL A   1      45.421  29.395  34.846  1.00  0.00     0.173 A 
ATOM     85  C   UNL A   1      44.017  27.716  35.838  1.00  0.00     0.173 A 
ATOM     86  F   UNL A   1      45.603  30.451  34.037  1.00  0.00    -0.203 F 
ATOM     87  C   UNL A   1      46.525  28.854  35.500  1.00  0.00     0.198 A 
ATOM     88  C   UNL A   1      45.115  27.199  36.518  1.00  0.00     0.198 A 
ATOM     89  F   UNL A   1      42.819  27.139  36.018  1.00  0.00    -0.203 F 
ATOM     90  F   UNL A   1      47.742  29.381  35.305  1.00  0.00    -0.200 F 
ATOM     91  C   UNL A   1      46.370  27.762  36.342  1.00  0.00     0.200 A 
ATOM     92  F   UNL A   1      44.960  26.154  37.343  1.00  0.00    -0.200 F 
ATOM     93  F   UNL A   1      47.431  27.249  36.977  1.00  0.00    -0.200 F 
ENDBRANCH  60  83
ENDBRANCH  34  35
ENDBRANCH  26  29
ENDBRANCH  24  25
ENDBRANCH  23  24
ENDBRANCH   1  23
TORSDOF 16
ENDMDL
