MODEL 1
REMARK VINA RESULT:     -12.3      0.000      0.000
REMARK SMILES Cc1cc(SCC(=O)NCCCCNC(=O)c2ccc(-c3c4nc(c(-c5c(F)c(F)c(F)c(F)c5F)c5ccc([nH]5)c(-c5c(F)c(F)c(F)c(F)c5F)c5nc(c(-c6c(F)c(F)c(F)c(F)c6F)c6ccc3[nH]6)C=C5)C=C4)cc2)c2cc(I)ccc2n1
REMARK SMILES IDX 11 1 10 2 9 3 7 4 8 5 6 7 5 8 4 9 1 10 2 11 3 12 87 13 86 14
REMARK SMILES IDX 80 15 85 16 81 17 84 18 82 19 83 20 12 21 13 22 14 23 15 24
REMARK SMILES IDX 16 26 17 27 18 28 79 29 19 30 78 31 20 32 21 33 22 34 72 35
REMARK SMILES IDX 23 36 77 37 71 38 73 39 24 40 76 41 70 42 69 43 25 45 57 46
REMARK SMILES IDX 37 47 56 48 38 49 41 50 55 51 74 52 39 53 40 54 54 56 75 57
REMARK SMILES IDX 42 58 26 59 27 60 35 61 28 62 29 63 33 64 36 65 30 66 31 67
REMARK SMILES IDX 34 68 32 69 58 70 59 71 67 72 60 73 61 74 65 75 68 76 62 77
REMARK SMILES IDX 63 78 66 79 64 80 43 81 44 82 52 83 45 84 46 85 50 86 53 87
REMARK SMILES IDX 47 88 48 89 51 90 49 91
REMARK H PARENT 9 6 14 25 73 44 41 55
REMARK Flexibility Score: inf
ROOT
ATOM      1  C   UNL A   1      31.976  30.421  26.789  1.00  0.00     0.023 C 
ENDROOT
BRANCH   1   2
ATOM      2  C   UNL A   1      32.604  29.925  25.485  1.00  0.00     0.116 C 
BRANCH   2   3
ATOM      3  N   UNL A   1      31.599  29.665  24.473  1.00  0.00    -0.355 N 
ATOM      4  C   UNL A   1      30.862  28.543  24.245  1.00  0.00     0.230 C 
ATOM      5  O   UNL A   1      30.087  28.552  23.284  1.00  0.00    -0.274 OA
ATOM      6  H   UNL A   1      31.421  30.413  23.858  1.00  0.00     0.163 HD
BRANCH   4   7
ATOM      7  C   UNL A   1      30.918  27.355  25.185  1.00  0.00     0.174 C 
BRANCH   7   8
ATOM      8  S   UNL A   1      30.297  25.793  24.486  1.00  0.00    -0.115 SA
BRANCH   8   9
ATOM      9  C   UNL A   1      31.565  25.220  23.337  1.00  0.00     0.019 A 
ATOM     10  C   UNL A   1      32.612  25.584  19.721  1.00  0.00     0.067 C 
ATOM     11  C   UNL A   1      32.566  25.160  21.157  1.00  0.00     0.039 A 
ATOM     12  C   UNL A   1      31.555  25.603  21.996  1.00  0.00     0.039 A 
ATOM     13  N   UNL A   1      33.530  24.311  21.569  1.00  0.00    -0.253 NA
ATOM     14  C   UNL A   1      33.527  23.893  22.841  1.00  0.00     0.072 A 
ATOM     15  C   UNL A   1      32.573  24.320  23.792  1.00  0.00     0.015 A 
ATOM     16  C   UNL A   1      34.514  22.993  23.221  1.00  0.00     0.030 A 
ATOM     17  C   UNL A   1      32.685  23.816  25.117  1.00  0.00     0.026 A 
ATOM     18  C   UNL A   1      34.607  22.496  24.522  1.00  0.00     0.017 A 
ATOM     19  C   UNL A   1      33.690  22.917  25.471  1.00  0.00     0.014 A 
ATOM     20  I   UNL A   1      33.809  22.204  27.419  1.00  0.00    -0.044 I 
ENDBRANCH   8   9
ENDBRANCH   7   8
ENDBRANCH   4   7
ENDBRANCH   2   3
ENDBRANCH   1   2
BRANCH   1  21
ATOM     21  C   UNL A   1      31.707  31.928  26.843  1.00  0.00     0.023 C 
BRANCH  21  22
ATOM     22  C   UNL A   1      32.885  32.793  27.278  1.00  0.00     0.116 C 
BRANCH  22  23
ATOM     23  N   UNL A   1      32.503  34.149  27.636  1.00  0.00    -0.352 N 
ATOM     24  C   UNL A   1      33.045  34.973  28.596  1.00  0.00     0.251 C 
ATOM     25  H   UNL A   1      31.756  34.531  27.122  1.00  0.00     0.163 HD
ATOM     26  O   UNL A   1      32.537  36.062  28.842  1.00  0.00    -0.269 OA
BRANCH  24  27
ATOM     27  C   UNL A   1      34.218  34.514  29.369  1.00  0.00     0.039 A 
ATOM     28  C   UNL A   1      35.514  34.777  28.921  1.00  0.00     0.014 A 
ATOM     29  C   UNL A   1      34.011  33.763  30.530  1.00  0.00     0.014 A 
ATOM     30  C   UNL A   1      36.594  34.150  29.537  1.00  0.00     0.010 A 
ATOM     31  C   UNL A   1      35.102  33.189  31.186  1.00  0.00     0.010 A 
ATOM     32  C   UNL A   1      36.397  33.334  30.663  1.00  0.00    -0.014 A 
BRANCH  32  33
ATOM     33  C   UNL A   1      37.547  32.605  31.255  1.00  0.00     0.031 A 
ATOM     34  C   UNL A   1      38.018  32.928  32.648  1.00  0.00     0.074 A 
ATOM     35  C   UNL A   1      38.135  31.613  30.560  1.00  0.00     0.049 A 
ATOM     36  N   UNL A   1      39.014  32.413  33.325  1.00  0.00    -0.248 NA
ATOM     37  C   UNL A   1      37.272  33.965  33.379  1.00  0.00     0.031 C 
ATOM     38  C   UNL A   1      37.752  31.188  29.214  1.00  0.00     0.029 A 
ATOM     39  N   UNL A   1      39.163  30.770  30.899  1.00  0.00    -0.354 N 
ATOM     40  C   UNL A   1      39.027  33.073  34.547  1.00  0.00     0.074 A 
ATOM     41  C   UNL A   1      37.953  34.043  34.514  1.00  0.00     0.031 C 
ATOM     42  C   UNL A   1      38.506  30.137  28.857  1.00  0.00     0.029 A 
ATOM     43  C   UNL A   1      39.460  29.851  29.924  1.00  0.00     0.049 A 
ATOM     44  H   UNL A   1      39.642  30.820  31.757  1.00  0.00     0.167 HD
ATOM     45  C   UNL A   1      39.853  32.881  35.602  1.00  0.00     0.037 A 
ATOM     46  C   UNL A   1      40.404  28.893  29.888  1.00  0.00     0.037 A 
ATOM     47  C   UNL A   1      40.906  31.900  35.645  1.00  0.00     0.049 A 
ATOM     48  C   UNL A   1      41.331  28.726  31.058  1.00  0.00     0.074 A 
ATOM     49  C   UNL A   1      41.793  31.630  36.673  1.00  0.00     0.029 A 
ATOM     50  N   UNL A   1      41.207  31.020  34.617  1.00  0.00    -0.354 N 
ATOM     51  N   UNL A   1      41.349  29.374  32.196  1.00  0.00    -0.248 NA
ATOM     52  C   UNL A   1      42.376  27.699  30.933  1.00  0.00     0.031 C 
ATOM     53  C   UNL A   1      42.650  30.607  36.255  1.00  0.00     0.029 A 
ATOM     54  C   UNL A   1      42.273  30.213  34.982  1.00  0.00     0.049 A 
ATOM     55  H   UNL A   1      40.733  30.975  33.755  1.00  0.00     0.167 HD
ATOM     56  C   UNL A   1      42.398  28.834  32.925  1.00  0.00     0.074 A 
ATOM     57  C   UNL A   1      42.980  27.788  32.110  1.00  0.00     0.031 C 
ATOM     58  C   UNL A   1      42.843  29.179  34.158  1.00  0.00     0.037 A 
BRANCH  45  59
ATOM     59  C   UNL A   1      39.663  33.754  36.806  1.00  0.00     0.064 A 
ATOM     60  C   UNL A   1      40.228  35.036  36.879  1.00  0.00     0.173 A 
ATOM     61  C   UNL A   1      38.851  33.332  37.869  1.00  0.00     0.173 A 
ATOM     62  F   UNL A   1      41.022  35.479  35.893  1.00  0.00    -0.203 F 
ATOM     63  C   UNL A   1      39.994  35.859  37.977  1.00  0.00     0.198 A 
ATOM     64  C   UNL A   1      38.601  34.166  38.956  1.00  0.00     0.198 A 
ATOM     65  F   UNL A   1      38.284  32.117  37.845  1.00  0.00    -0.203 F 
ATOM     66  F   UNL A   1      40.565  37.071  38.038  1.00  0.00    -0.200 F 
ATOM     67  C   UNL A   1      39.174  35.428  39.010  1.00  0.00     0.200 A 
ATOM     68  F   UNL A   1      37.801  33.752  39.948  1.00  0.00    -0.200 F 
ATOM     69  F   UNL A   1      38.940  36.228  40.060  1.00  0.00    -0.200 F 
ENDBRANCH  45  59
BRANCH  46  70
ATOM     70  C   UNL A   1      40.511  28.017  28.695  1.00  0.00     0.064 A 
ATOM     71  C   UNL A   1      39.834  26.791  28.641  1.00  0.00     0.173 A 
ATOM     72  C   UNL A   1      41.266  28.398  27.577  1.00  0.00     0.173 A 
ATOM     73  F   UNL A   1      39.117  26.375  29.695  1.00  0.00    -0.203 F 
ATOM     74  C   UNL A   1      39.910  25.978  27.512  1.00  0.00     0.198 A 
ATOM     75  C   UNL A   1      41.322  27.597  26.439  1.00  0.00     0.198 A 
ATOM     76  F   UNL A   1      41.930  29.563  27.582  1.00  0.00    -0.203 F 
ATOM     77  F   UNL A   1      39.276  24.799  27.495  1.00  0.00    -0.200 F 
ATOM     78  C   UNL A   1      40.646  26.386  26.409  1.00  0.00     0.200 A 
ATOM     79  F   UNL A   1      42.022  28.001  25.371  1.00  0.00    -0.200 F 
ATOM     80  F   UNL A   1      40.708  25.610  25.318  1.00  0.00    -0.200 F 
ENDBRANCH  46  70
BRANCH  58  81
ATOM     81  C   UNL A   1      44.008  28.412  34.706  1.00  0.00     0.064 A 
ATOM     82  C   UNL A   1      45.323  28.868  34.541  1.00  0.00     0.173 A 
ATOM     83  C   UNL A   1      43.804  27.235  35.442  1.00  0.00     0.173 A 
ATOM     84  F   UNL A   1      45.568  29.980  33.833  1.00  0.00    -0.203 F 
ATOM     85  C   UNL A   1      46.396  28.162  35.078  1.00  0.00     0.198 A 
ATOM     86  C   UNL A   1      44.877  26.545  35.998  1.00  0.00     0.198 A 
ATOM     87  F   UNL A   1      42.563  26.763  35.632  1.00  0.00    -0.203 F 
ATOM     88  F   UNL A   1      47.648  28.595  34.877  1.00  0.00    -0.200 F 
ATOM     89  C   UNL A   1      46.172  27.006  35.811  1.00  0.00     0.200 A 
ATOM     90  F   UNL A   1      44.659  25.434  36.713  1.00  0.00    -0.200 F 
ATOM     91  F   UNL A   1      47.206  26.331  36.333  1.00  0.00    -0.200 F 
ENDBRANCH  58  81
ENDBRANCH  32  33
ENDBRANCH  24  27
ENDBRANCH  22  23
ENDBRANCH  21  22
ENDBRANCH   1  21
TORSDOF 13
ENDMDL
MODEL 2
REMARK VINA RESULT:     -12.3      0.155      1.618
REMARK SMILES Cc1cc(SCC(=O)NCCCCNC(=O)c2ccc(-c3c4nc(c(-c5c(F)c(F)c(F)c(F)c5F)c5ccc([nH]5)c(-c5c(F)c(F)c(F)c(F)c5F)c5nc(c(-c6c(F)c(F)c(F)c(F)c6F)c6ccc3[nH]6)C=C5)C=C4)cc2)c2cc(I)ccc2n1
REMARK SMILES IDX 11 1 10 2 9 3 7 4 8 5 6 7 5 8 4 9 1 10 2 11 3 12 87 13 86 14
REMARK SMILES IDX 80 15 85 16 81 17 84 18 82 19 83 20 12 21 13 22 14 23 15 24
REMARK SMILES IDX 16 26 17 27 18 28 79 29 19 30 78 31 20 32 21 33 22 34 72 35
REMARK SMILES IDX 23 36 77 37 71 38 73 39 24 40 76 41 70 42 69 43 25 45 57 46
REMARK SMILES IDX 37 47 56 48 38 49 41 50 55 51 74 52 39 53 40 54 54 56 75 57
REMARK SMILES IDX 42 58 26 59 27 60 35 61 28 62 29 63 33 64 36 65 30 66 31 67
REMARK SMILES IDX 34 68 32 69 58 70 59 71 67 72 60 73 61 74 65 75 68 76 62 77
REMARK SMILES IDX 63 78 66 79 64 80 43 81 44 82 52 83 45 84 46 85 50 86 53 87
REMARK SMILES IDX 47 88 48 89 51 90 49 91
REMARK H PARENT 9 6 14 25 73 44 41 55
REMARK Flexibility Score: inf
ROOT
ATOM      1  C   UNL A   1      31.940  30.459  26.840  1.00  0.00     0.023 C 
ENDROOT
BRANCH   1   2
ATOM      2  C   UNL A   1      32.574  29.976  25.534  1.00  0.00     0.116 C 
BRANCH   2   3
ATOM      3  N   UNL A   1      31.572  29.693  24.526  1.00  0.00    -0.355 N 
ATOM      4  C   UNL A   1      30.871  28.551  24.290  1.00  0.00     0.230 C 
ATOM      5  O   UNL A   1      30.090  28.544  23.334  1.00  0.00    -0.274 OA
ATOM      6  H   UNL A   1      31.366  30.442  23.919  1.00  0.00     0.163 HD
BRANCH   4   7
ATOM      7  C   UNL A   1      30.972  27.355  25.218  1.00  0.00     0.174 C 
BRANCH   7   8
ATOM      8  S   UNL A   1      30.339  25.793  24.528  1.00  0.00    -0.115 SA
BRANCH   8   9
ATOM      9  C   UNL A   1      31.593  25.217  23.365  1.00  0.00     0.019 A 
ATOM     10  C   UNL A   1      32.618  25.600  19.745  1.00  0.00     0.067 C 
ATOM     11  C   UNL A   1      32.577  25.164  21.178  1.00  0.00     0.039 A 
ATOM     12  C   UNL A   1      31.578  25.611  22.027  1.00  0.00     0.039 A 
ATOM     13  N   UNL A   1      33.533  24.300  21.575  1.00  0.00    -0.253 NA
ATOM     14  C   UNL A   1      33.535  23.871  22.844  1.00  0.00     0.072 A 
ATOM     15  C   UNL A   1      32.593  24.300  23.805  1.00  0.00     0.015 A 
ATOM     16  C   UNL A   1      34.514  22.956  23.208  1.00  0.00     0.030 A 
ATOM     17  C   UNL A   1      32.708  23.783  25.125  1.00  0.00     0.026 A 
ATOM     18  C   UNL A   1      34.610  22.447  24.504  1.00  0.00     0.017 A 
ATOM     19  C   UNL A   1      33.705  22.869  25.464  1.00  0.00     0.014 A 
ATOM     20  I   UNL A   1      33.829  22.137  27.404  1.00  0.00    -0.044 I 
ENDBRANCH   8   9
ENDBRANCH   7   8
ENDBRANCH   4   7
ENDBRANCH   2   3
ENDBRANCH   1   2
BRANCH   1  21
ATOM     21  C   UNL A   1      31.655  31.963  26.902  1.00  0.00     0.023 C 
BRANCH  21  22
ATOM     22  C   UNL A   1      32.830  32.840  27.319  1.00  0.00     0.116 C 
BRANCH  22  23
ATOM     23  N   UNL A   1      32.441  34.197  27.666  1.00  0.00    -0.352 N 
ATOM     24  C   UNL A   1      32.988  35.037  28.610  1.00  0.00     0.251 C 
ATOM     25  H   UNL A   1      31.685  34.567  27.157  1.00  0.00     0.163 HD
ATOM     26  O   UNL A   1      32.474  36.125  28.849  1.00  0.00    -0.269 OA
BRANCH  24  27
ATOM     27  C   UNL A   1      34.174  34.597  29.374  1.00  0.00     0.039 A 
ATOM     28  C   UNL A   1      35.458  34.752  28.849  1.00  0.00     0.014 A 
ATOM     29  C   UNL A   1      33.987  33.971  30.610  1.00  0.00     0.014 A 
ATOM     30  C   UNL A   1      36.537  34.134  29.476  1.00  0.00     0.010 A 
ATOM     31  C   UNL A   1      35.082  33.409  31.273  1.00  0.00     0.010 A 
ATOM     32  C   UNL A   1      36.356  33.440  30.684  1.00  0.00    -0.014 A 
BRANCH  32  33
ATOM     33  C   UNL A   1      37.498  32.715  31.295  1.00  0.00     0.031 A 
ATOM     34  C   UNL A   1      37.958  33.055  32.688  1.00  0.00     0.074 A 
ATOM     35  C   UNL A   1      38.089  31.712  30.619  1.00  0.00     0.049 A 
ATOM     36  N   UNL A   1      38.947  32.546  33.380  1.00  0.00    -0.248 NA
ATOM     37  C   UNL A   1      37.210  34.104  33.399  1.00  0.00     0.031 C 
ATOM     38  C   UNL A   1      37.716  31.271  29.275  1.00  0.00     0.029 A 
ATOM     39  N   UNL A   1      39.111  30.871  30.977  1.00  0.00    -0.354 N 
ATOM     40  C   UNL A   1      38.951  33.222  34.593  1.00  0.00     0.074 A 
ATOM     41  C   UNL A   1      37.881  34.194  34.539  1.00  0.00     0.031 C 
ATOM     42  C   UNL A   1      38.470  30.213  28.938  1.00  0.00     0.029 A 
ATOM     43  C   UNL A   1      39.413  29.938  30.017  1.00  0.00     0.049 A 
ATOM     44  H   UNL A   1      39.583  30.931  31.839  1.00  0.00     0.167 HD
ATOM     45  C   UNL A   1      39.768  33.041  35.659  1.00  0.00     0.037 A 
ATOM     46  C   UNL A   1      40.355  28.976  30.002  1.00  0.00     0.037 A 
ATOM     47  C   UNL A   1      40.817  32.057  35.723  1.00  0.00     0.049 A 
ATOM     48  C   UNL A   1      41.271  28.822  31.182  1.00  0.00     0.074 A 
ATOM     49  C   UNL A   1      41.694  31.798  36.763  1.00  0.00     0.029 A 
ATOM     50  N   UNL A   1      41.124  31.163  34.710  1.00  0.00    -0.354 N 
ATOM     51  N   UNL A   1      41.282  29.485  32.312  1.00  0.00    -0.248 NA
ATOM     52  C   UNL A   1      42.314  27.791  31.080  1.00  0.00     0.031 C 
ATOM     53  C   UNL A   1      42.552  30.767  36.365  1.00  0.00     0.029 A 
ATOM     54  C   UNL A   1      42.184  30.358  35.095  1.00  0.00     0.049 A 
ATOM     55  H   UNL A   1      40.658  31.108  33.844  1.00  0.00     0.167 HD
ATOM     56  C   UNL A   1      42.323  28.951  33.057  1.00  0.00     0.074 A 
ATOM     57  C   UNL A   1      42.908  27.893  32.260  1.00  0.00     0.031 C 
ATOM     58  C   UNL A   1      42.758  29.311  34.289  1.00  0.00     0.037 A 
BRANCH  45  59
ATOM     59  C   UNL A   1      39.570  33.931  36.849  1.00  0.00     0.064 A 
ATOM     60  C   UNL A   1      38.802  33.524  37.949  1.00  0.00     0.173 A 
ATOM     61  C   UNL A   1      40.213  35.176  36.920  1.00  0.00     0.173 A 
ATOM     62  F   UNL A   1      38.159  32.348  37.924  1.00  0.00    -0.203 F 
ATOM     63  C   UNL A   1      38.676  34.336  39.074  1.00  0.00     0.198 A 
ATOM     64  C   UNL A   1      40.102  35.977  38.054  1.00  0.00     0.198 A 
ATOM     65  F   UNL A   1      40.963  35.609  35.896  1.00  0.00    -0.203 F 
ATOM     66  F   UNL A   1      37.915  33.939  40.103  1.00  0.00    -0.200 F 
ATOM     67  C   UNL A   1      39.333  35.557  39.129  1.00  0.00     0.200 A 
ATOM     68  F   UNL A   1      40.746  37.150  38.111  1.00  0.00    -0.200 F 
ATOM     69  F   UNL A   1      39.221  36.331  40.218  1.00  0.00    -0.200 F 
ENDBRANCH  45  59
BRANCH  46  70
ATOM     70  C   UNL A   1      40.470  28.084  28.821  1.00  0.00     0.064 A 
ATOM     71  C   UNL A   1      39.791  26.859  28.779  1.00  0.00     0.173 A 
ATOM     72  C   UNL A   1      41.234  28.450  27.704  1.00  0.00     0.173 A 
ATOM     73  F   UNL A   1      39.065  26.459  29.833  1.00  0.00    -0.203 F 
ATOM     74  C   UNL A   1      39.873  26.032  27.661  1.00  0.00     0.198 A 
ATOM     75  C   UNL A   1      41.296  27.633  26.578  1.00  0.00     0.198 A 
ATOM     76  F   UNL A   1      41.900  29.614  27.699  1.00  0.00    -0.203 F 
ATOM     77  F   UNL A   1      39.237  24.854  27.655  1.00  0.00    -0.200 F 
ATOM     78  C   UNL A   1      40.619  26.424  26.559  1.00  0.00     0.200 A 
ATOM     79  F   UNL A   1      42.006  28.022  25.509  1.00  0.00    -0.200 F 
ATOM     80  F   UNL A   1      40.687  25.633  25.479  1.00  0.00    -0.200 F 
ENDBRANCH  46  70
BRANCH  58  81
ATOM     81  C   UNL A   1      43.916  28.548  34.857  1.00  0.00     0.064 A 
ATOM     82  C   UNL A   1      43.723  27.367  35.587  1.00  0.00     0.173 A 
ATOM     83  C   UNL A   1      45.232  28.977  34.631  1.00  0.00     0.173 A 
ATOM     84  F   UNL A   1      42.482  26.926  35.841  1.00  0.00    -0.203 F 
ATOM     85  C   UNL A   1      44.808  26.651  36.087  1.00  0.00     0.198 A 
ATOM     86  C   UNL A   1      46.314  28.247  35.112  1.00  0.00     0.198 A 
ATOM     87  F   UNL A   1      45.467  30.098  33.932  1.00  0.00    -0.203 F 
ATOM     88  F   UNL A   1      44.599  25.545  36.814  1.00  0.00    -0.200 F 
ATOM     89  C   UNL A   1      46.102  27.088  35.844  1.00  0.00     0.200 A 
ATOM     90  F   UNL A   1      47.564  28.664  34.868  1.00  0.00    -0.200 F 
ATOM     91  F   UNL A   1      47.144  26.394  36.320  1.00  0.00    -0.200 F 
ENDBRANCH  58  81
ENDBRANCH  32  33
ENDBRANCH  24  27
ENDBRANCH  22  23
ENDBRANCH  21  22
ENDBRANCH   1  21
TORSDOF 13
ENDMDL
MODEL 3
REMARK VINA RESULT:     -12.3      5.800     11.198
REMARK SMILES Cc1cc(SCC(=O)NCCCCNC(=O)c2ccc(-c3c4nc(c(-c5c(F)c(F)c(F)c(F)c5F)c5ccc([nH]5)c(-c5c(F)c(F)c(F)c(F)c5F)c5nc(c(-c6c(F)c(F)c(F)c(F)c6F)c6ccc3[nH]6)C=C5)C=C4)cc2)c2cc(I)ccc2n1
REMARK SMILES IDX 11 1 10 2 9 3 7 4 8 5 6 7 5 8 4 9 1 10 2 11 3 12 87 13 86 14
REMARK SMILES IDX 80 15 85 16 81 17 84 18 82 19 83 20 12 21 13 22 14 23 15 24
REMARK SMILES IDX 16 26 17 27 18 28 79 29 19 30 78 31 20 32 21 33 22 34 72 35
REMARK SMILES IDX 23 36 77 37 71 38 73 39 24 40 76 41 70 42 69 43 25 45 57 46
REMARK SMILES IDX 37 47 56 48 38 49 41 50 55 51 74 52 39 53 40 54 54 56 75 57
REMARK SMILES IDX 42 58 26 59 27 60 35 61 28 62 29 63 33 64 36 65 30 66 31 67
REMARK SMILES IDX 34 68 32 69 58 70 59 71 67 72 60 73 61 74 65 75 68 76 62 77
REMARK SMILES IDX 63 78 66 79 64 80 43 81 44 82 52 83 45 84 46 85 50 86 53 87
REMARK SMILES IDX 47 88 48 89 51 90 49 91
REMARK H PARENT 9 6 14 25 73 44 41 55
REMARK Flexibility Score: inf
ROOT
ATOM      1  C   UNL A   1      37.382  21.072  24.687  1.00  0.00     0.023 C 
ENDROOT
BRANCH   1   2
ATOM      2  C   UNL A   1      36.280  21.386  25.700  1.00  0.00     0.116 C 
BRANCH   2   3
ATOM      3  N   UNL A   1      35.058  20.666  25.400  1.00  0.00    -0.355 N 
ATOM      4  C   UNL A   1      34.012  21.018  24.602  1.00  0.00     0.230 C 
ATOM      5  O   UNL A   1      33.054  20.243  24.538  1.00  0.00    -0.274 OA
ATOM      6  H   UNL A   1      34.970  19.789  25.840  1.00  0.00     0.163 HD
BRANCH   4   7
ATOM      7  C   UNL A   1      34.055  22.272  23.751  1.00  0.00     0.174 C 
BRANCH   7   8
ATOM      8  S   UNL A   1      32.435  22.845  23.147  1.00  0.00    -0.115 SA
BRANCH   8   9
ATOM      9  C   UNL A   1      31.610  23.594  24.567  1.00  0.00     0.019 A 
ATOM     10  C   UNL A   1      29.385  22.662  27.480  1.00  0.00     0.067 C 
ATOM     11  C   UNL A   1      30.218  23.451  26.516  1.00  0.00     0.039 A 
ATOM     12  C   UNL A   1      30.809  22.837  25.423  1.00  0.00     0.039 A 
ATOM     13  N   UNL A   1      30.327  24.774  26.751  1.00  0.00    -0.253 NA
ATOM     14  C   UNL A   1      31.051  25.526  25.913  1.00  0.00     0.072 A 
ATOM     15  C   UNL A   1      31.735  24.996  24.797  1.00  0.00     0.015 A 
ATOM     16  C   UNL A   1      31.114  26.889  26.168  1.00  0.00     0.030 A 
ATOM     17  C   UNL A   1      32.484  25.895  23.988  1.00  0.00     0.026 A 
ATOM     18  C   UNL A   1      31.842  27.764  25.360  1.00  0.00     0.017 A 
ATOM     19  C   UNL A   1      32.533  27.260  24.271  1.00  0.00     0.014 A 
ATOM     20  I   UNL A   1      33.635  28.535  23.057  1.00  0.00    -0.044 I 
ENDBRANCH   8   9
ENDBRANCH   7   8
ENDBRANCH   4   7
ENDBRANCH   2   3
ENDBRANCH   1   2
BRANCH   1  21
ATOM     21  C   UNL A   1      38.236  19.845  25.021  1.00  0.00     0.023 C 
BRANCH  21  22
ATOM     22  C   UNL A   1      39.459  20.110  25.891  1.00  0.00     0.116 C 
BRANCH  22  23
ATOM     23  N   UNL A   1      40.434  19.032  25.860  1.00  0.00    -0.352 N 
ATOM     24  C   UNL A   1      41.794  19.092  26.060  1.00  0.00     0.251 C 
ATOM     25  H   UNL A   1      40.072  18.136  25.669  1.00  0.00     0.163 HD
ATOM     26  O   UNL A   1      42.493  18.097  25.898  1.00  0.00    -0.269 OA
BRANCH  24  27
ATOM     27  C   UNL A   1      42.418  20.381  26.424  1.00  0.00     0.039 A 
ATOM     28  C   UNL A   1      42.371  20.851  27.738  1.00  0.00     0.014 A 
ATOM     29  C   UNL A   1      43.010  21.153  25.419  1.00  0.00     0.014 A 
ATOM     30  C   UNL A   1      42.762  22.158  28.016  1.00  0.00     0.010 A 
ATOM     31  C   UNL A   1      43.464  22.441  25.714  1.00  0.00     0.010 A 
ATOM     32  C   UNL A   1      43.294  22.972  27.003  1.00  0.00    -0.014 A 
BRANCH  32  33
ATOM     33  C   UNL A   1      43.627  24.389  27.295  1.00  0.00     0.031 A 
ATOM     34  C   UNL A   1      45.005  24.924  27.005  1.00  0.00     0.074 A 
ATOM     35  C   UNL A   1      42.674  25.212  27.772  1.00  0.00     0.049 A 
ATOM     36  N   UNL A   1      45.486  26.124  27.210  1.00  0.00    -0.248 NA
ATOM     37  C   UNL A   1      45.969  23.988  26.405  1.00  0.00     0.031 C 
ATOM     38  C   UNL A   1      41.296  24.820  28.067  1.00  0.00     0.029 A 
ATOM     39  N   UNL A   1      42.714  26.550  28.070  1.00  0.00    -0.354 N 
ATOM     40  C   UNL A   1      46.808  26.083  26.785  1.00  0.00     0.074 A 
ATOM     41  C   UNL A   1      47.063  24.734  26.328  1.00  0.00     0.031 C 
ATOM     42  C   UNL A   1      40.610  25.903  28.464  1.00  0.00     0.029 A 
ATOM     43  C   UNL A   1      41.511  27.049  28.504  1.00  0.00     0.049 A 
ATOM     44  H   UNL A   1      43.526  27.099  27.983  1.00  0.00     0.167 HD
ATOM     45  C   UNL A   1      47.721  27.083  26.767  1.00  0.00     0.037 A 
ATOM     46  C   UNL A   1      41.175  28.290  28.904  1.00  0.00     0.037 A 
ATOM     47  C   UNL A   1      47.461  28.432  27.198  1.00  0.00     0.049 A 
ATOM     48  C   UNL A   1      42.219  29.371  28.909  1.00  0.00     0.074 A 
ATOM     49  C   UNL A   1      48.325  29.514  27.214  1.00  0.00     0.029 A 
ATOM     50  N   UNL A   1      46.243  28.887  27.678  1.00  0.00    -0.354 N 
ATOM     51  N   UNL A   1      43.471  29.312  28.529  1.00  0.00    -0.248 NA
ATOM     52  C   UNL A   1      41.802  30.689  29.409  1.00  0.00     0.031 C 
ATOM     53  C   UNL A   1      47.637  30.616  27.733  1.00  0.00     0.029 A 
ATOM     54  C   UNL A   1      46.335  30.230  28.003  1.00  0.00     0.049 A 
ATOM     55  H   UNL A   1      45.432  28.335  27.774  1.00  0.00     0.167 HD
ATOM     56  C   UNL A   1      43.992  30.581  28.736  1.00  0.00     0.074 A 
ATOM     57  C   UNL A   1      42.913  31.396  29.255  1.00  0.00     0.031 C 
ATOM     58  C   UNL A   1      45.253  31.027  28.522  1.00  0.00     0.037 A 
BRANCH  45  59
ATOM     59  C   UNL A   1      49.100  26.761  26.273  1.00  0.00     0.064 A 
ATOM     60  C   UNL A   1      50.065  26.188  27.113  1.00  0.00     0.173 A 
ATOM     61  C   UNL A   1      49.437  26.964  24.926  1.00  0.00     0.173 A 
ATOM     62  F   UNL A   1      49.794  25.986  28.411  1.00  0.00    -0.203 F 
ATOM     63  C   UNL A   1      51.322  25.839  26.625  1.00  0.00     0.198 A 
ATOM     64  C   UNL A   1      50.687  26.594  24.436  1.00  0.00     0.198 A 
ATOM     65  F   UNL A   1      48.547  27.504  24.081  1.00  0.00    -0.203 F 
ATOM     66  F   UNL A   1      52.238  25.316  27.452  1.00  0.00    -0.200 F 
ATOM     67  C   UNL A   1      51.629  26.034  25.286  1.00  0.00     0.200 A 
ATOM     68  F   UNL A   1      50.978  26.773  23.141  1.00  0.00    -0.200 F 
ATOM     69  F   UNL A   1      52.834  25.684  24.816  1.00  0.00    -0.200 F 
ENDBRANCH  45  59
BRANCH  46  70
ATOM     70  C   UNL A   1      39.781  28.569  29.328  1.00  0.00     0.064 A 
ATOM     71  C   UNL A   1      39.379  28.359  30.654  1.00  0.00     0.173 A 
ATOM     72  C   UNL A   1      38.834  29.076  28.428  1.00  0.00     0.173 A 
ATOM     73  F   UNL A   1      40.245  27.855  31.545  1.00  0.00    -0.203 F 
ATOM     74  C   UNL A   1      38.078  28.646  31.063  1.00  0.00     0.198 A 
ATOM     75  C   UNL A   1      37.541  29.385  28.843  1.00  0.00     0.198 A 
ATOM     76  F   UNL A   1      39.174  29.294  27.149  1.00  0.00    -0.203 F 
ATOM     77  F   UNL A   1      37.710  28.412  32.328  1.00  0.00    -0.200 F 
ATOM     78  C   UNL A   1      37.163  29.167  30.159  1.00  0.00     0.200 A 
ATOM     79  F   UNL A   1      36.665  29.902  27.970  1.00  0.00    -0.200 F 
ATOM     80  F   UNL A   1      35.916  29.455  30.556  1.00  0.00    -0.200 F 
ENDBRANCH  46  70
BRANCH  58  81
ATOM     81  C   UNL A   1      45.534  32.465  28.837  1.00  0.00     0.064 A 
ATOM     82  C   UNL A   1      45.343  33.472  27.881  1.00  0.00     0.173 A 
ATOM     83  C   UNL A   1      45.956  32.844  30.120  1.00  0.00     0.173 A 
ATOM     84  F   UNL A   1      44.954  33.155  26.637  1.00  0.00    -0.203 F 
ATOM     85  C   UNL A   1      45.581  34.808  28.193  1.00  0.00     0.198 A 
ATOM     86  C   UNL A   1      46.171  34.183  30.435  1.00  0.00     0.198 A 
ATOM     87  F   UNL A   1      46.147  31.917  31.071  1.00  0.00    -0.203 F 
ATOM     88  F   UNL A   1      45.427  35.750  27.253  1.00  0.00    -0.200 F 
ATOM     89  C   UNL A   1      45.988  35.163  29.470  1.00  0.00     0.200 A 
ATOM     90  F   UNL A   1      46.555  34.525  31.672  1.00  0.00    -0.200 F 
ATOM     91  F   UNL A   1      46.211  36.449  29.771  1.00  0.00    -0.200 F 
ENDBRANCH  58  81
ENDBRANCH  32  33
ENDBRANCH  24  27
ENDBRANCH  22  23
ENDBRANCH  21  22
ENDBRANCH   1  21
TORSDOF 13
ENDMDL
