MODEL 1
REMARK VINA RESULT:     -13.3      0.000      0.000
REMARK SMILES Cc1ccc(Nc2c(Cl)cc(Cl)cc2Cl)c(CC(=O)NCCCCNC(=O)c2ccc(-c3c4nc(c(-c5c(F)c(F)c(F)c(F)c5F)c5ccc([nH]5)c(-c5c(F)c(F)c(F)c(F)c5F)c5nc(c(-c6c(F)c(F)c(F)c(F)c6F)c6ccc3[nH]6)C=C5)C=C4)cc2)c1
REMARK SMILES IDX 22 1 21 2 20 3 18 4 19 5 17 7 16 8 1 9 2 10 3 11 91 12 4 13
REMARK SMILES IDX 5 14 6 15 7 17 8 18 14 19 9 20 10 21 13 22 15 23 11 24 12 25
REMARK SMILES IDX 23 26 24 27 25 28 26 29 27 31 28 32 29 33 90 34 30 35 89 36
REMARK SMILES IDX 31 37 32 38 33 39 83 40 34 41 88 42 82 43 84 44 35 45 87 46
REMARK SMILES IDX 81 47 80 48 36 50 68 51 48 52 67 53 49 54 52 55 66 56 85 57
REMARK SMILES IDX 50 58 51 59 65 61 86 62 53 63 37 64 38 65 46 66 39 67 40 68
REMARK SMILES IDX 44 69 47 70 41 71 42 72 45 73 43 74 69 75 70 76 78 77 71 78
REMARK SMILES IDX 72 79 76 80 79 81 73 82 74 83 77 84 75 85 54 86 55 87 63 88
REMARK SMILES IDX 56 89 57 90 61 91 64 92 58 93 59 94 62 95 60 96
REMARK H PARENT 20 6 6 16 25 30 84 49 52 60
REMARK Flexibility Score: inf
ROOT
ATOM      1  C   UNL A   1      32.232  30.030  26.039  1.00  0.00     0.023 C 
ENDROOT
BRANCH   1   2
ATOM      2  C   UNL A   1      32.881  28.669  25.736  1.00  0.00     0.116 C 
BRANCH   2   3
ATOM      3  N   UNL A   1      32.095  27.535  26.189  1.00  0.00    -0.356 N 
ATOM      4  C   UNL A   1      32.380  26.202  26.157  1.00  0.00     0.224 C 
ATOM      5  O   UNL A   1      31.498  25.408  26.494  1.00  0.00    -0.275 OA
ATOM      6  H   UNL A   1      31.221  27.764  26.579  1.00  0.00     0.163 HD
BRANCH   4   7
ATOM      7  C   UNL A   1      33.733  25.693  25.694  1.00  0.00     0.137 C 
BRANCH   7   8
ATOM      8  C   UNL A   1      33.681  24.988  24.357  1.00  0.00    -0.015 A 
ATOM      9  C   UNL A   1      32.487  25.945  20.853  1.00  0.00     0.044 C 
ATOM     10  C   UNL A   1      33.036  25.153  22.001  1.00  0.00    -0.051 A 
ATOM     11  C   UNL A   1      33.278  23.788  21.861  1.00  0.00     0.005 A 
ATOM     12  C   UNL A   1      33.272  25.750  23.240  1.00  0.00     0.009 A 
ATOM     13  C   UNL A   1      33.741  23.036  22.945  1.00  0.00     0.026 A 
ATOM     14  C   UNL A   1      33.945  23.608  24.211  1.00  0.00     0.042 A 
BRANCH  14  15
ATOM     15  N   UNL A   1      34.433  22.837  25.292  1.00  0.00    -0.353 N 
ATOM     16  H   UNL A   1      33.882  22.857  26.108  1.00  0.00     0.167 HD
BRANCH  15  17
ATOM     17  C   UNL A   1      35.602  22.040  25.368  1.00  0.00     0.076 A 
ATOM     18  C   UNL A   1      36.872  22.566  25.680  1.00  0.00     0.067 A 
ATOM     19  C   UNL A   1      35.529  20.668  25.040  1.00  0.00     0.067 A 
ATOM     20  Cl  UNL A   1      37.086  24.201  26.211  1.00  0.00    -0.082 Cl
ATOM     21  C   UNL A   1      38.019  21.765  25.634  1.00  0.00     0.043 A 
ATOM     22  C   UNL A   1      36.671  19.864  25.001  1.00  0.00     0.043 A 
ATOM     23  Cl  UNL A   1      34.016  19.928  24.634  1.00  0.00    -0.082 Cl
ATOM     24  C   UNL A   1      37.911  20.422  25.287  1.00  0.00     0.044 A 
ATOM     25  Cl  UNL A   1      39.323  19.445  25.214  1.00  0.00    -0.084 Cl
ENDBRANCH  15  17
ENDBRANCH  14  15
ENDBRANCH   7   8
ENDBRANCH   4   7
ENDBRANCH   2   3
ENDBRANCH   1   2
BRANCH   1  26
ATOM     26  C   UNL A   1      33.101  31.029  26.804  1.00  0.00     0.023 C 
BRANCH  26  27
ATOM     27  C   UNL A   1      34.177  30.380  27.658  1.00  0.00     0.116 C 
BRANCH  27  28
ATOM     28  N   UNL A   1      34.864  31.289  28.570  1.00  0.00    -0.352 N 
ATOM     29  C   UNL A   1      36.016  31.078  29.312  1.00  0.00     0.251 C 
ATOM     30  H   UNL A   1      34.452  32.177  28.671  1.00  0.00     0.163 HD
ATOM     31  O   UNL A   1      36.419  31.930  30.087  1.00  0.00    -0.269 OA
BRANCH  29  32
ATOM     32  C   UNL A   1      36.834  29.869  29.047  1.00  0.00     0.039 A 
ATOM     33  C   UNL A   1      37.029  28.972  30.104  1.00  0.00     0.014 A 
ATOM     34  C   UNL A   1      37.585  29.750  27.881  1.00  0.00     0.014 A 
ATOM     35  C   UNL A   1      38.155  28.155  30.103  1.00  0.00     0.010 A 
ATOM     36  C   UNL A   1      38.756  29.020  27.922  1.00  0.00     0.010 A 
ATOM     37  C   UNL A   1      39.082  28.296  29.072  1.00  0.00    -0.014 A 
BRANCH  37  38
ATOM     38  C   UNL A   1      40.470  27.861  29.181  1.00  0.00     0.031 A 
ATOM     39  C   UNL A   1      40.879  26.517  28.729  1.00  0.00     0.074 A 
ATOM     40  C   UNL A   1      41.403  28.751  29.593  1.00  0.00     0.049 A 
ATOM     41  N   UNL A   1      42.039  26.010  28.975  1.00  0.00    -0.248 NA
ATOM     42  C   UNL A   1      39.988  25.599  28.025  1.00  0.00     0.031 C 
ATOM     43  C   UNL A   1      42.857  28.649  29.469  1.00  0.00     0.029 A 
ATOM     44  N   UNL A   1      41.210  29.850  30.451  1.00  0.00    -0.354 N 
ATOM     45  C   UNL A   1      42.155  24.866  28.229  1.00  0.00     0.074 A 
ATOM     46  C   UNL A   1      40.818  24.581  27.772  1.00  0.00     0.031 C 
ATOM     47  C   UNL A   1      43.424  29.390  30.433  1.00  0.00     0.029 A 
ATOM     48  C   UNL A   1      42.354  29.862  31.290  1.00  0.00     0.049 A 
ATOM     49  H   UNL A   1      40.448  30.474  30.466  1.00  0.00     0.167 HD
ATOM     50  C   UNL A   1      43.401  24.374  27.987  1.00  0.00     0.037 A 
ATOM     51  C   UNL A   1      42.241  29.595  32.624  1.00  0.00     0.037 A 
ATOM     52  C   UNL A   1      44.381  24.930  28.922  1.00  0.00     0.049 A 
ATOM     53  C   UNL A   1      43.011  28.379  33.102  1.00  0.00     0.074 A 
ATOM     54  C   UNL A   1      45.460  25.793  28.844  1.00  0.00     0.029 A 
ATOM     55  N   UNL A   1      44.150  24.735  30.275  1.00  0.00    -0.354 N 
ATOM     56  N   UNL A   1      43.694  27.581  32.328  1.00  0.00    -0.248 NA
ATOM     57  C   UNL A   1      42.978  27.913  34.490  1.00  0.00     0.031 C 
ATOM     58  C   UNL A   1      45.827  26.158  30.180  1.00  0.00     0.029 A 
ATOM     59  C   UNL A   1      44.996  25.487  31.060  1.00  0.00     0.049 A 
ATOM     60  H   UNL A   1      43.461  24.129  30.633  1.00  0.00     0.167 HD
ATOM     61  C   UNL A   1      44.127  26.505  33.056  1.00  0.00     0.074 A 
ATOM     62  C   UNL A   1      43.653  26.755  34.404  1.00  0.00     0.031 C 
ATOM     63  C   UNL A   1      44.803  25.457  32.501  1.00  0.00     0.037 A 
BRANCH  50  64
ATOM     64  C   UNL A   1      43.759  23.459  26.839  1.00  0.00     0.064 A 
ATOM     65  C   UNL A   1      43.304  22.123  26.825  1.00  0.00     0.173 A 
ATOM     66  C   UNL A   1      44.647  23.789  25.791  1.00  0.00     0.173 A 
ATOM     67  F   UNL A   1      42.477  21.663  27.775  1.00  0.00    -0.203 F 
ATOM     68  C   UNL A   1      43.703  21.205  25.847  1.00  0.00     0.198 A 
ATOM     69  C   UNL A   1      44.997  22.888  24.781  1.00  0.00     0.198 A 
ATOM     70  F   UNL A   1      45.274  24.969  25.732  1.00  0.00    -0.203 F 
ATOM     71  F   UNL A   1      43.289  19.932  25.919  1.00  0.00    -0.200 F 
ATOM     72  C   UNL A   1      44.537  21.592  24.816  1.00  0.00     0.200 A 
ATOM     73  F   UNL A   1      45.814  23.286  23.795  1.00  0.00    -0.200 F 
ATOM     74  F   UNL A   1      44.917  20.716  23.876  1.00  0.00    -0.200 F 
ENDBRANCH  50  64
BRANCH  51  75
ATOM     75  C   UNL A   1      40.952  30.070  33.198  1.00  0.00     0.064 A 
ATOM     76  C   UNL A   1      40.773  31.454  33.393  1.00  0.00     0.173 A 
ATOM     77  C   UNL A   1      39.810  29.264  33.210  1.00  0.00     0.173 A 
ATOM     78  F   UNL A   1      41.836  32.277  33.387  1.00  0.00    -0.203 F 
ATOM     79  C   UNL A   1      39.502  32.017  33.469  1.00  0.00     0.198 A 
ATOM     80  C   UNL A   1      38.538  29.830  33.312  1.00  0.00     0.198 A 
ATOM     81  F   UNL A   1      39.907  27.942  33.004  1.00  0.00    -0.203 F 
ATOM     82  F   UNL A   1      39.363  33.350  33.528  1.00  0.00    -0.200 F 
ATOM     83  C   UNL A   1      38.383  31.204  33.404  1.00  0.00     0.200 A 
ATOM     84  F   UNL A   1      37.454  29.045  33.216  1.00  0.00    -0.200 F 
ATOM     85  F   UNL A   1      37.159  31.747  33.381  1.00  0.00    -0.200 F 
ENDBRANCH  51  75
BRANCH  63  86
ATOM     86  C   UNL A   1      45.295  24.285  33.303  1.00  0.00     0.064 A 
ATOM     87  C   UNL A   1      44.487  23.168  33.568  1.00  0.00     0.173 A 
ATOM     88  C   UNL A   1      46.565  24.291  33.917  1.00  0.00     0.173 A 
ATOM     89  F   UNL A   1      43.239  23.093  33.079  1.00  0.00    -0.203 F 
ATOM     90  C   UNL A   1      44.938  22.104  34.352  1.00  0.00     0.198 A 
ATOM     91  C   UNL A   1      46.993  23.253  34.743  1.00  0.00     0.198 A 
ATOM     92  F   UNL A   1      47.436  25.289  33.710  1.00  0.00    -0.203 F 
ATOM     93  F   UNL A   1      44.156  21.030  34.530  1.00  0.00    -0.200 F 
ATOM     94  C   UNL A   1      46.186  22.151  34.949  1.00  0.00     0.200 A 
ATOM     95  F   UNL A   1      48.197  23.322  35.329  1.00  0.00    -0.200 F 
ATOM     96  F   UNL A   1      46.610  21.139  35.716  1.00  0.00    -0.200 F 
ENDBRANCH  63  86
ENDBRANCH  37  38
ENDBRANCH  29  32
ENDBRANCH  27  28
ENDBRANCH  26  27
ENDBRANCH   1  26
TORSDOF 14
ENDMDL
MODEL 2
REMARK VINA RESULT:     -13.2      1.895      3.325
REMARK SMILES Cc1ccc(Nc2c(Cl)cc(Cl)cc2Cl)c(CC(=O)NCCCCNC(=O)c2ccc(-c3c4nc(c(-c5c(F)c(F)c(F)c(F)c5F)c5ccc([nH]5)c(-c5c(F)c(F)c(F)c(F)c5F)c5nc(c(-c6c(F)c(F)c(F)c(F)c6F)c6ccc3[nH]6)C=C5)C=C4)cc2)c1
REMARK SMILES IDX 22 1 21 2 20 3 18 4 19 5 17 7 16 8 1 9 2 10 3 11 91 12 4 13
REMARK SMILES IDX 5 14 6 15 7 17 8 18 14 19 9 20 10 21 13 22 15 23 11 24 12 25
REMARK SMILES IDX 23 26 24 27 25 28 26 29 27 31 28 32 29 33 90 34 30 35 89 36
REMARK SMILES IDX 31 37 32 38 33 39 83 40 34 41 88 42 82 43 84 44 35 45 87 46
REMARK SMILES IDX 81 47 80 48 36 50 68 51 48 52 67 53 49 54 52 55 66 56 85 57
REMARK SMILES IDX 50 58 51 59 65 61 86 62 53 63 37 64 38 65 46 66 39 67 40 68
REMARK SMILES IDX 44 69 47 70 41 71 42 72 45 73 43 74 69 75 70 76 78 77 71 78
REMARK SMILES IDX 72 79 76 80 79 81 73 82 74 83 77 84 75 85 54 86 55 87 63 88
REMARK SMILES IDX 56 89 57 90 61 91 64 92 58 93 59 94 62 95 60 96
REMARK H PARENT 20 6 6 16 25 30 84 49 52 60
REMARK Flexibility Score: inf
ROOT
ATOM      1  C   UNL A   1      31.801  29.428  26.886  1.00  0.00     0.023 C 
ENDROOT
BRANCH   1   2
ATOM      2  C   UNL A   1      32.506  28.063  26.814  1.00  0.00     0.116 C 
BRANCH   2   3
ATOM      3  N   UNL A   1      31.598  26.933  26.905  1.00  0.00    -0.356 N 
ATOM      4  C   UNL A   1      31.764  25.641  26.501  1.00  0.00     0.224 C 
ATOM      5  O   UNL A   1      30.798  24.877  26.576  1.00  0.00    -0.275 OA
ATOM      6  H   UNL A   1      30.728  27.131  27.321  1.00  0.00     0.163 HD
BRANCH   4   7
ATOM      7  C   UNL A   1      33.089  25.148  25.949  1.00  0.00     0.137 C 
BRANCH   7   8
ATOM      8  C   UNL A   1      32.934  24.101  24.869  1.00  0.00    -0.015 A 
ATOM      9  C   UNL A   1      32.863  20.278  24.815  1.00  0.00     0.044 C 
ATOM     10  C   UNL A   1      32.851  21.708  24.362  1.00  0.00    -0.051 A 
ATOM     11  C   UNL A   1      32.904  22.014  23.004  1.00  0.00     0.005 A 
ATOM     12  C   UNL A   1      32.832  22.755  25.284  1.00  0.00     0.009 A 
ATOM     13  C   UNL A   1      32.945  23.346  22.580  1.00  0.00     0.026 A 
ATOM     14  C   UNL A   1      32.969  24.414  23.492  1.00  0.00     0.042 A 
BRANCH  14  15
ATOM     15  N   UNL A   1      32.990  25.756  23.046  1.00  0.00    -0.353 N 
ATOM     16  H   UNL A   1      33.819  26.039  22.598  1.00  0.00     0.167 HD
BRANCH  15  17
ATOM     17  C   UNL A   1      31.987  26.751  23.154  1.00  0.00     0.076 A 
ATOM     18  C   UNL A   1      30.608  26.459  23.130  1.00  0.00     0.067 A 
ATOM     19  C   UNL A   1      32.362  28.111  23.207  1.00  0.00     0.067 A 
ATOM     20  Cl  UNL A   1      30.012  24.832  23.183  1.00  0.00    -0.082 Cl
ATOM     21  C   UNL A   1      29.651  27.479  23.127  1.00  0.00     0.043 A 
ATOM     22  C   UNL A   1      31.408  29.133  23.211  1.00  0.00     0.043 A 
ATOM     23  Cl  UNL A   1      34.031  28.576  23.231  1.00  0.00    -0.082 Cl
ATOM     24  C   UNL A   1      30.058  28.809  23.159  1.00  0.00     0.044 A 
ATOM     25  Cl  UNL A   1      28.881  30.061  23.136  1.00  0.00    -0.084 Cl
ENDBRANCH  15  17
ENDBRANCH  14  15
ENDBRANCH   7   8
ENDBRANCH   4   7
ENDBRANCH   2   3
ENDBRANCH   1   2
BRANCH   1  26
ATOM     26  C   UNL A   1      32.688  30.620  27.245  1.00  0.00     0.023 C 
BRANCH  26  27
ATOM     27  C   UNL A   1      34.116  30.240  27.598  1.00  0.00     0.116 C 
BRANCH  27  28
ATOM     28  N   UNL A   1      34.815  31.207  28.440  1.00  0.00    -0.352 N 
ATOM     29  C   UNL A   1      35.989  31.051  29.159  1.00  0.00     0.251 C 
ATOM     30  H   UNL A   1      34.393  32.093  28.505  1.00  0.00     0.163 HD
ATOM     31  O   UNL A   1      36.402  31.949  29.875  1.00  0.00    -0.269 OA
BRANCH  29  32
ATOM     32  C   UNL A   1      36.817  29.839  28.937  1.00  0.00     0.039 A 
ATOM     33  C   UNL A   1      37.020  28.982  30.025  1.00  0.00     0.014 A 
ATOM     34  C   UNL A   1      37.568  29.684  27.775  1.00  0.00     0.014 A 
ATOM     35  C   UNL A   1      38.153  28.175  30.052  1.00  0.00     0.010 A 
ATOM     36  C   UNL A   1      38.745  28.966  27.840  1.00  0.00     0.010 A 
ATOM     37  C   UNL A   1      39.078  28.286  29.016  1.00  0.00    -0.014 A 
BRANCH  37  38
ATOM     38  C   UNL A   1      40.469  27.867  29.139  1.00  0.00     0.031 A 
ATOM     39  C   UNL A   1      40.898  26.528  28.691  1.00  0.00     0.074 A 
ATOM     40  C   UNL A   1      41.388  28.767  29.560  1.00  0.00     0.049 A 
ATOM     41  N   UNL A   1      42.060  26.033  28.948  1.00  0.00    -0.248 NA
ATOM     42  C   UNL A   1      40.024  25.600  27.977  1.00  0.00     0.031 C 
ATOM     43  C   UNL A   1      42.844  28.681  29.451  1.00  0.00     0.029 A 
ATOM     44  N   UNL A   1      41.174  29.864  30.416  1.00  0.00    -0.354 N 
ATOM     45  C   UNL A   1      42.197  24.891  28.203  1.00  0.00     0.074 A 
ATOM     46  C   UNL A   1      40.868  24.591  27.733  1.00  0.00     0.031 C 
ATOM     47  C   UNL A   1      43.394  29.427  30.420  1.00  0.00     0.029 A 
ATOM     48  C   UNL A   1      42.309  29.887  31.267  1.00  0.00     0.049 A 
ATOM     49  H   UNL A   1      40.406  30.479  30.424  1.00  0.00     0.167 HD
ATOM     50  C   UNL A   1      43.451  24.412  27.974  1.00  0.00     0.037 A 
ATOM     51  C   UNL A   1      42.186  29.619  32.600  1.00  0.00     0.037 A 
ATOM     52  C   UNL A   1      44.415  24.979  28.918  1.00  0.00     0.049 A 
ATOM     53  C   UNL A   1      42.965  28.411  33.085  1.00  0.00     0.074 A 
ATOM     54  C   UNL A   1      45.485  25.853  28.852  1.00  0.00     0.029 A 
ATOM     55  N   UNL A   1      44.172  24.781  30.269  1.00  0.00    -0.354 N 
ATOM     56  N   UNL A   1      43.664  27.621  32.318  1.00  0.00    -0.248 NA
ATOM     57  C   UNL A   1      42.922  27.944  34.472  1.00  0.00     0.031 C 
ATOM     58  C   UNL A   1      45.835  26.222  30.192  1.00  0.00     0.029 A 
ATOM     59  C   UNL A   1      45.002  25.542  31.063  1.00  0.00     0.049 A 
ATOM     60  H   UNL A   1      43.487  24.167  30.619  1.00  0.00     0.167 HD
ATOM     61  C   UNL A   1      44.101  26.549  33.050  1.00  0.00     0.074 A 
ATOM     62  C   UNL A   1      43.611  26.793  34.393  1.00  0.00     0.031 C 
ATOM     63  C   UNL A   1      44.795  25.509  32.502  1.00  0.00     0.037 A 
BRANCH  50  64
ATOM     64  C   UNL A   1      43.830  23.502  26.828  1.00  0.00     0.064 A 
ATOM     65  C   UNL A   1      43.365  22.169  26.795  1.00  0.00     0.173 A 
ATOM     66  C   UNL A   1      44.747  23.832  25.806  1.00  0.00     0.173 A 
ATOM     67  F   UNL A   1      42.511  21.710  27.721  1.00  0.00    -0.203 F 
ATOM     68  C   UNL A   1      43.782  21.254  25.821  1.00  0.00     0.198 A 
ATOM     69  C   UNL A   1      45.115  22.934  24.799  1.00  0.00     0.198 A 
ATOM     70  F   UNL A   1      45.384  25.006  25.770  1.00  0.00    -0.203 F 
ATOM     71  F   UNL A   1      43.355  19.985  25.874  1.00  0.00    -0.200 F 
ATOM     72  C   UNL A   1      44.644  21.642  24.814  1.00  0.00     0.200 A 
ATOM     73  F   UNL A   1      45.960  23.332  23.837  1.00  0.00    -0.200 F 
ATOM     74  F   UNL A   1      45.040  20.768  23.878  1.00  0.00    -0.200 F 
ENDBRANCH  50  64
BRANCH  51  75
ATOM     75  C   UNL A   1      40.886  30.079  33.161  1.00  0.00     0.064 A 
ATOM     76  C   UNL A   1      40.674  31.464  33.315  1.00  0.00     0.173 A 
ATOM     77  C   UNL A   1      39.763  29.246  33.198  1.00  0.00     0.173 A 
ATOM     78  F   UNL A   1      41.716  32.311  33.284  1.00  0.00    -0.203 F 
ATOM     79  C   UNL A   1      39.390  31.998  33.376  1.00  0.00     0.198 A 
ATOM     80  C   UNL A   1      38.478  29.784  33.284  1.00  0.00     0.198 A 
ATOM     81  F   UNL A   1      39.893  27.922  33.030  1.00  0.00    -0.203 F 
ATOM     82  F   UNL A   1      39.219  33.328  33.396  1.00  0.00    -0.200 F 
ATOM     83  C   UNL A   1      38.291  31.157  33.335  1.00  0.00     0.200 A 
ATOM     84  F   UNL A   1      37.414  28.971  33.212  1.00  0.00    -0.200 F 
ATOM     85  F   UNL A   1      37.053  31.669  33.298  1.00  0.00    -0.200 F 
ENDBRANCH  51  75
BRANCH  63  86
ATOM     86  C   UNL A   1      45.291  24.342  33.309  1.00  0.00     0.064 A 
ATOM     87  C   UNL A   1      44.482  23.231  33.592  1.00  0.00     0.173 A 
ATOM     88  C   UNL A   1      46.568  24.349  33.908  1.00  0.00     0.173 A 
ATOM     89  F   UNL A   1      43.229  23.156  33.118  1.00  0.00    -0.203 F 
ATOM     90  C   UNL A   1      44.938  22.172  34.381  1.00  0.00     0.198 A 
ATOM     91  C   UNL A   1      47.001  23.316  34.737  1.00  0.00     0.198 A 
ATOM     92  F   UNL A   1      47.441  25.341  33.682  1.00  0.00    -0.203 F 
ATOM     93  F   UNL A   1      44.154  21.103  34.577  1.00  0.00    -0.200 F 
ATOM     94  C   UNL A   1      46.193  22.220  34.962  1.00  0.00     0.200 A 
ATOM     95  F   UNL A   1      48.213  23.386  35.309  1.00  0.00    -0.200 F 
ATOM     96  F   UNL A   1      46.622  21.212  35.733  1.00  0.00    -0.200 F 
ENDBRANCH  63  86
ENDBRANCH  37  38
ENDBRANCH  29  32
ENDBRANCH  27  28
ENDBRANCH  26  27
ENDBRANCH   1  26
TORSDOF 14
ENDMDL
MODEL 3
REMARK VINA RESULT:     -13.2      3.882      9.914
REMARK SMILES Cc1ccc(Nc2c(Cl)cc(Cl)cc2Cl)c(CC(=O)NCCCCNC(=O)c2ccc(-c3c4nc(c(-c5c(F)c(F)c(F)c(F)c5F)c5ccc([nH]5)c(-c5c(F)c(F)c(F)c(F)c5F)c5nc(c(-c6c(F)c(F)c(F)c(F)c6F)c6ccc3[nH]6)C=C5)C=C4)cc2)c1
REMARK SMILES IDX 22 1 21 2 20 3 18 4 19 5 17 7 16 8 1 9 2 10 3 11 91 12 4 13
REMARK SMILES IDX 5 14 6 15 7 17 8 18 14 19 9 20 10 21 13 22 15 23 11 24 12 25
REMARK SMILES IDX 23 26 24 27 25 28 26 29 27 31 28 32 29 33 90 34 30 35 89 36
REMARK SMILES IDX 31 37 32 38 33 39 83 40 34 41 88 42 82 43 84 44 35 45 87 46
REMARK SMILES IDX 81 47 80 48 36 50 68 51 48 52 67 53 49 54 52 55 66 56 85 57
REMARK SMILES IDX 50 58 51 59 65 61 86 62 53 63 37 64 38 65 46 66 39 67 40 68
REMARK SMILES IDX 44 69 47 70 41 71 42 72 45 73 43 74 69 75 70 76 78 77 71 78
REMARK SMILES IDX 72 79 76 80 79 81 73 82 74 83 77 84 75 85 54 86 55 87 63 88
REMARK SMILES IDX 56 89 57 90 61 91 64 92 58 93 59 94 62 95 60 96
REMARK H PARENT 20 6 6 16 25 30 84 49 52 60
REMARK Flexibility Score: inf
ROOT
ATOM      1  C   UNL A   1      37.381  21.137  24.990  1.00  0.00     0.023 C 
ENDROOT
BRANCH   1   2
ATOM      2  C   UNL A   1      36.404  22.255  25.392  1.00  0.00     0.116 C 
BRANCH   2   3
ATOM      3  N   UNL A   1      35.834  22.963  24.259  1.00  0.00    -0.356 N 
ATOM      4  C   UNL A   1      35.022  24.059  24.230  1.00  0.00     0.224 C 
ATOM      5  O   UNL A   1      34.562  24.416  23.142  1.00  0.00    -0.275 OA
ATOM      6  H   UNL A   1      36.069  22.596  23.377  1.00  0.00     0.163 HD
BRANCH   4   7
ATOM      7  C   UNL A   1      34.663  24.813  25.497  1.00  0.00     0.137 C 
BRANCH   7   8
ATOM      8  C   UNL A   1      33.436  25.683  25.348  1.00  0.00    -0.015 A 
ATOM      9  C   UNL A   1      32.819  29.326  24.366  1.00  0.00     0.044 C 
ATOM     10  C   UNL A   1      32.583  27.913  24.807  1.00  0.00    -0.051 A 
ATOM     11  C   UNL A   1      31.323  27.516  25.247  1.00  0.00     0.005 A 
ATOM     12  C   UNL A   1      33.623  26.983  24.829  1.00  0.00     0.009 A 
ATOM     13  C   UNL A   1      31.111  26.212  25.707  1.00  0.00     0.026 A 
ATOM     14  C   UNL A   1      32.153  25.273  25.777  1.00  0.00     0.042 A 
BRANCH  14  15
ATOM     15  N   UNL A   1      31.918  23.952  26.226  1.00  0.00    -0.353 N 
ATOM     16  H   UNL A   1      31.443  23.876  27.085  1.00  0.00     0.167 HD
BRANCH  15  17
ATOM     17  C   UNL A   1      32.271  22.723  25.616  1.00  0.00     0.076 A 
ATOM     18  C   UNL A   1      31.859  22.364  24.316  1.00  0.00     0.067 A 
ATOM     19  C   UNL A   1      33.000  21.765  26.354  1.00  0.00     0.067 A 
ATOM     20  Cl  UNL A   1      31.061  23.484  23.261  1.00  0.00    -0.082 Cl
ATOM     21  C   UNL A   1      32.134  21.096  23.793  1.00  0.00     0.043 A 
ATOM     22  C   UNL A   1      33.283  20.500  25.832  1.00  0.00     0.043 A 
ATOM     23  Cl  UNL A   1      33.544  22.106  27.963  1.00  0.00    -0.082 Cl
ATOM     24  C   UNL A   1      32.837  20.170  24.558  1.00  0.00     0.044 A 
ATOM     25  Cl  UNL A   1      33.159  18.606  23.920  1.00  0.00    -0.084 Cl
ENDBRANCH  15  17
ENDBRANCH  14  15
ENDBRANCH   7   8
ENDBRANCH   4   7
ENDBRANCH   2   3
ENDBRANCH   1   2
BRANCH   1  26
ATOM     26  C   UNL A   1      38.754  21.178  25.661  1.00  0.00     0.023 C 
BRANCH  26  27
ATOM     27  C   UNL A   1      39.161  22.559  26.148  1.00  0.00     0.116 C 
BRANCH  27  28
ATOM     28  N   UNL A   1      40.600  22.762  26.276  1.00  0.00    -0.352 N 
ATOM     29  C   UNL A   1      41.300  23.936  26.506  1.00  0.00     0.251 C 
ATOM     30  H   UNL A   1      41.151  21.951  26.188  1.00  0.00     0.163 HD
ATOM     31  O   UNL A   1      42.521  23.940  26.515  1.00  0.00    -0.269 OA
BRANCH  29  32
ATOM     32  C   UNL A   1      40.552  25.161  26.885  1.00  0.00     0.039 A 
ATOM     33  C   UNL A   1      40.812  26.331  26.162  1.00  0.00     0.014 A 
ATOM     34  C   UNL A   1      39.812  25.216  28.063  1.00  0.00     0.014 A 
ATOM     35  C   UNL A   1      40.583  27.565  26.763  1.00  0.00     0.010 A 
ATOM     36  C   UNL A   1      39.680  26.431  28.704  1.00  0.00     0.010 A 
ATOM     37  C   UNL A   1      40.151  27.594  28.087  1.00  0.00    -0.014 A 
BRANCH  37  38
ATOM     38  C   UNL A   1      40.310  28.756  28.954  1.00  0.00     0.031 A 
ATOM     39  C   UNL A   1      39.285  29.817  28.991  1.00  0.00     0.074 A 
ATOM     40  C   UNL A   1      41.355  28.793  29.813  1.00  0.00     0.049 A 
ATOM     41  N   UNL A   1      39.458  30.949  29.584  1.00  0.00    -0.248 NA
ATOM     42  C   UNL A   1      38.002  29.723  28.299  1.00  0.00     0.031 C 
ATOM     43  C   UNL A   1      41.534  29.666  30.972  1.00  0.00     0.029 A 
ATOM     44  N   UNL A   1      42.612  28.181  29.650  1.00  0.00    -0.354 N 
ATOM     45  C   UNL A   1      38.247  31.589  29.615  1.00  0.00     0.074 A 
ATOM     46  C   UNL A   1      37.416  30.860  28.690  1.00  0.00     0.031 C 
ATOM     47  C   UNL A   1      42.846  29.796  31.216  1.00  0.00     0.029 A 
ATOM     48  C   UNL A   1      43.546  29.135  30.131  1.00  0.00     0.049 A 
ATOM     49  H   UNL A   1      42.803  27.288  29.282  1.00  0.00     0.167 HD
ATOM     50  C   UNL A   1      38.063  32.586  30.523  1.00  0.00     0.037 A 
ATOM     51  C   UNL A   1      44.424  29.740  29.279  1.00  0.00     0.037 A 
ATOM     52  C   UNL A   1      39.343  33.080  31.034  1.00  0.00     0.049 A 
ATOM     53  C   UNL A   1      44.290  31.248  29.185  1.00  0.00     0.074 A 
ATOM     54  C   UNL A   1      40.019  33.046  32.240  1.00  0.00     0.029 A 
ATOM     55  N   UNL A   1      40.250  33.571  30.107  1.00  0.00    -0.354 N 
ATOM     56  N   UNL A   1      43.383  31.953  29.802  1.00  0.00    -0.248 NA
ATOM     57  C   UNL A   1      45.115  32.065  28.292  1.00  0.00     0.031 C 
ATOM     58  C   UNL A   1      41.367  33.468  32.001  1.00  0.00     0.029 A 
ATOM     59  C   UNL A   1      41.492  33.791  30.661  1.00  0.00     0.049 A 
ATOM     60  H   UNL A   1      40.031  33.743  29.162  1.00  0.00     0.167 HD
ATOM     61  C   UNL A   1      43.447  33.252  29.373  1.00  0.00     0.074 A 
ATOM     62  C   UNL A   1      44.546  33.274  28.426  1.00  0.00     0.031 C 
ATOM     63  C   UNL A   1      42.571  34.214  29.782  1.00  0.00     0.037 A 
BRANCH  50  64
ATOM     64  C   UNL A   1      36.718  33.055  31.030  1.00  0.00     0.064 A 
ATOM     65  C   UNL A   1      35.900  33.873  30.221  1.00  0.00     0.173 A 
ATOM     66  C   UNL A   1      36.232  32.846  32.339  1.00  0.00     0.173 A 
ATOM     67  F   UNL A   1      36.251  34.178  28.964  1.00  0.00    -0.203 F 
ATOM     68  C   UNL A   1      34.702  34.428  30.687  1.00  0.00     0.198 A 
ATOM     69  C   UNL A   1      35.007  33.351  32.783  1.00  0.00     0.198 A 
ATOM     70  F   UNL A   1      36.946  32.209  33.273  1.00  0.00    -0.203 F 
ATOM     71  F   UNL A   1      33.997  35.248  29.896  1.00  0.00    -0.200 F 
ATOM     72  C   UNL A   1      34.248  34.154  31.962  1.00  0.00     0.200 A 
ATOM     73  F   UNL A   1      34.591  33.077  34.028  1.00  0.00    -0.200 F 
ATOM     74  F   UNL A   1      33.099  34.681  32.408  1.00  0.00    -0.200 F 
ENDBRANCH  50  64
BRANCH  51  75
ATOM     75  C   UNL A   1      44.850  28.849  28.165  1.00  0.00     0.064 A 
ATOM     76  C   UNL A   1      45.750  27.802  28.450  1.00  0.00     0.173 A 
ATOM     77  C   UNL A   1      44.139  28.780  26.963  1.00  0.00     0.173 A 
ATOM     78  F   UNL A   1      46.458  27.816  29.591  1.00  0.00    -0.203 F 
ATOM     79  C   UNL A   1      45.838  26.679  27.631  1.00  0.00     0.198 A 
ATOM     80  C   UNL A   1      44.249  27.664  26.132  1.00  0.00     0.198 A 
ATOM     81  F   UNL A   1      43.247  29.730  26.644  1.00  0.00    -0.203 F 
ATOM     82  F   UNL A   1      46.610  25.646  27.995  1.00  0.00    -0.200 F 
ATOM     83  C   UNL A   1      45.067  26.601  26.484  1.00  0.00     0.200 A 
ATOM     84  F   UNL A   1      43.477  27.574  25.038  1.00  0.00    -0.200 F 
ATOM     85  F   UNL A   1      45.075  25.485  25.743  1.00  0.00    -0.200 F 
ENDBRANCH  51  75
BRANCH  63  86
ATOM     86  C   UNL A   1      42.654  35.644  29.326  1.00  0.00     0.064 A 
ATOM     87  C   UNL A   1      41.982  36.104  28.182  1.00  0.00     0.173 A 
ATOM     88  C   UNL A   1      43.494  36.576  29.969  1.00  0.00     0.173 A 
ATOM     89  F   UNL A   1      41.205  35.278  27.464  1.00  0.00    -0.203 F 
ATOM     90  C   UNL A   1      42.102  37.424  27.740  1.00  0.00     0.198 A 
ATOM     91  C   UNL A   1      43.653  37.878  29.497  1.00  0.00     0.198 A 
ATOM     92  F   UNL A   1      44.159  36.261  31.090  1.00  0.00    -0.203 F 
ATOM     93  F   UNL A   1      41.396  37.837  26.678  1.00  0.00    -0.200 F 
ATOM     94  C   UNL A   1      42.946  38.307  28.391  1.00  0.00     0.200 A 
ATOM     95  F   UNL A   1      44.488  38.717  30.126  1.00  0.00    -0.200 F 
ATOM     96  F   UNL A   1      43.074  39.567  27.956  1.00  0.00    -0.200 F 
ENDBRANCH  63  86
ENDBRANCH  37  38
ENDBRANCH  29  32
ENDBRANCH  27  28
ENDBRANCH  26  27
ENDBRANCH   1  26
TORSDOF 14
ENDMDL
