MODEL 1
REMARK VINA RESULT:     -13.8      0.000      0.000
REMARK SMILES C[C@H](C(=O)NCCCCNC(=O)c1ccc(-c2c3nc(c(-c4c(F)c(F)c(F)c(F)c4F)c4ccc([nH]4)c(-c4c(F)c(F)c(F)c(F)c4F)c4nc(c(-c5c(F)c(F)c(F)c(F)c5F)c5ccc2[nH]5)C=C4)C=C3)cc1)N1C(=O)C[C@@H](N2C(=O)/C(=C/c3ccccc3)SC2=S)C1=O
REMARK SMILES IDX 7 1 6 2 5 3 3 4 4 5 2 7 1 8 76 9 77 10 95 11 78 12 79 13
REMARK SMILES IDX 80 14 96 15 81 16 82 17 93 18 83 19 84 20 92 21 94 22 85 23
REMARK SMILES IDX 86 24 87 25 91 26 88 27 90 28 89 29 8 30 9 31 10 32 11 33
REMARK SMILES IDX 12 35 13 36 14 37 75 38 15 39 74 40 16 41 17 42 18 43 68 44
REMARK SMILES IDX 19 45 73 46 67 47 69 48 20 49 72 50 66 51 65 52 21 54 53 55
REMARK SMILES IDX 33 56 52 57 34 58 37 59 51 60 70 61 35 62 36 63 50 65 71 66
REMARK SMILES IDX 38 67 22 68 23 69 31 70 24 71 25 72 29 73 32 74 26 75 27 76
REMARK SMILES IDX 30 77 28 78 54 79 55 80 63 81 56 82 57 83 61 84 64 85 58 86
REMARK SMILES IDX 59 87 62 88 60 89 39 90 40 91 48 92 41 93 42 94 46 95 49 96
REMARK SMILES IDX 43 97 44 98 47 99 45 100
REMARK H PARENT 5 6 10 34 69 53 37 64
REMARK Flexibility Score: inf
ROOT
ATOM      1  C   UNL A   1      32.031  30.265  26.354  1.00  0.00     0.023 C 
ENDROOT
BRANCH   1   2
ATOM      2  C   UNL A   1      31.321  29.717  25.124  1.00  0.00     0.116 C 
BRANCH   2   3
ATOM      3  N   UNL A   1      32.236  29.406  24.040  1.00  0.00    -0.354 N 
ATOM      4  C   UNL A   1      32.335  28.266  23.293  1.00  0.00     0.243 C 
ATOM      5  O   UNL A   1      33.000  28.313  22.254  1.00  0.00    -0.273 OA
ATOM      6  H   UNL A   1      32.875  30.119  23.809  1.00  0.00     0.163 HD
BRANCH   4   7
ATOM      7  C   UNL A   1      31.603  26.974  23.702  1.00  0.00     0.179 C 
ATOM      8  C   UNL A   1      31.243  26.088  22.504  1.00  0.00     0.042 C 
BRANCH   7   9
ATOM      9  N   UNL A   1      32.176  26.232  24.829  1.00  0.00    -0.268 N 
ATOM     10  C   UNL A   1      31.426  25.950  25.937  1.00  0.00     0.232 C 
ATOM     11  C   UNL A   1      33.405  25.633  24.879  1.00  0.00     0.253 C 
ATOM     12  O   UNL A   1      30.306  26.372  26.184  1.00  0.00    -0.274 OA
ATOM     13  C   UNL A   1      32.178  25.031  26.852  1.00  0.00     0.136 C 
ATOM     14  C   UNL A   1      33.487  24.786  26.130  1.00  0.00     0.191 C 
ATOM     15  O   UNL A   1      34.311  25.683  24.059  1.00  0.00    -0.272 OA
BRANCH  14  16
ATOM     16  N   UNL A   1      33.759  23.391  25.742  1.00  0.00    -0.280 N 
ATOM     17  C   UNL A   1      32.701  22.562  25.400  1.00  0.00     0.266 C 
ATOM     18  C   UNL A   1      35.020  22.839  25.627  1.00  0.00     0.149 C 
ATOM     19  O   UNL A   1      31.527  22.895  25.359  1.00  0.00    -0.268 OA
ATOM     20  C   UNL A   1      33.184  21.198  25.067  1.00  0.00     0.081 C 
ATOM     21  S   UNL A   1      34.897  21.156  25.133  1.00  0.00    -0.054 SA
ATOM     22  S   UNL A   1      36.493  23.558  25.933  1.00  0.00    -0.052 S 
ATOM     23  C   UNL A   1      32.335  20.201  24.783  1.00  0.00     0.029 C 
BRANCH  23  24
ATOM     24  C   UNL A   1      32.694  18.799  24.542  1.00  0.00    -0.024 A 
ATOM     25  C   UNL A   1      32.603  17.862  25.577  1.00  0.00     0.008 A 
ATOM     26  C   UNL A   1      33.196  18.396  23.297  1.00  0.00     0.008 A 
ATOM     27  C   UNL A   1      32.989  16.536  25.361  1.00  0.00     0.001 A 
ATOM     28  C   UNL A   1      33.579  17.070  23.083  1.00  0.00     0.001 A 
ATOM     29  C   UNL A   1      33.473  16.141  24.114  1.00  0.00     0.000 A 
ENDBRANCH  23  24
ENDBRANCH  14  16
ENDBRANCH   7   9
ENDBRANCH   4   7
ENDBRANCH   2   3
ENDBRANCH   1   2
BRANCH   1  30
ATOM     30  C   UNL A   1      31.680  31.712  26.689  1.00  0.00     0.023 C 
BRANCH  30  31
ATOM     31  C   UNL A   1      32.806  32.513  27.330  1.00  0.00     0.116 C 
BRANCH  31  32
ATOM     32  N   UNL A   1      32.433  33.892  27.610  1.00  0.00    -0.352 N 
ATOM     33  C   UNL A   1      32.959  34.756  28.542  1.00  0.00     0.251 C 
ATOM     34  H   UNL A   1      31.705  34.257  27.057  1.00  0.00     0.163 HD
ATOM     35  O   UNL A   1      32.431  35.842  28.753  1.00  0.00    -0.269 OA
BRANCH  33  36
ATOM     36  C   UNL A   1      34.149  34.345  29.313  1.00  0.00     0.039 A 
ATOM     37  C   UNL A   1      33.974  33.734  30.557  1.00  0.00     0.014 A 
ATOM     38  C   UNL A   1      35.431  34.521  28.785  1.00  0.00     0.014 A 
ATOM     39  C   UNL A   1      35.083  33.224  31.234  1.00  0.00     0.010 A 
ATOM     40  C   UNL A   1      36.522  33.939  29.420  1.00  0.00     0.010 A 
ATOM     41  C   UNL A   1      36.360  33.283  30.651  1.00  0.00    -0.014 A 
BRANCH  41  42
ATOM     42  C   UNL A   1      37.540  32.659  31.301  1.00  0.00     0.031 A 
ATOM     43  C   UNL A   1      38.237  31.501  30.643  1.00  0.00     0.074 A 
ATOM     44  C   UNL A   1      37.932  33.077  32.521  1.00  0.00     0.049 A 
ATOM     45  N   UNL A   1      39.216  30.758  31.092  1.00  0.00    -0.248 NA
ATOM     46  C   UNL A   1      37.742  31.104  29.316  1.00  0.00     0.031 C 
ATOM     47  C   UNL A   1      37.304  34.154  33.287  1.00  0.00     0.029 A 
ATOM     48  N   UNL A   1      38.938  32.629  33.341  1.00  0.00    -0.354 N 
ATOM     49  C   UNL A   1      39.440  29.799  30.113  1.00  0.00     0.074 A 
ATOM     50  C   UNL A   1      38.459  30.018  29.074  1.00  0.00     0.031 C 
ATOM     51  C   UNL A   1      37.946  34.294  34.458  1.00  0.00     0.029 A 
ATOM     52  C   UNL A   1      39.001  33.288  34.546  1.00  0.00     0.049 A 
ATOM     53  H   UNL A   1      39.556  31.905  33.090  1.00  0.00     0.167 HD
ATOM     54  C   UNL A   1      40.392  28.836  30.077  1.00  0.00     0.037 A 
ATOM     55  C   UNL A   1      39.805  33.091  35.608  1.00  0.00     0.037 A 
ATOM     56  C   UNL A   1      41.379  28.638  31.106  1.00  0.00     0.049 A 
ATOM     57  C   UNL A   1      40.851  32.010  35.547  1.00  0.00     0.074 A 
ATOM     58  C   UNL A   1      42.432  27.741  31.129  1.00  0.00     0.029 A 
ATOM     59  N   UNL A   1      41.428  29.343  32.300  1.00  0.00    -0.354 N 
ATOM     60  N   UNL A   1      41.109  31.162  34.582  1.00  0.00    -0.248 NA
ATOM     61  C   UNL A   1      41.721  31.863  36.722  1.00  0.00     0.031 C 
ATOM     62  C   UNL A   1      43.081  27.861  32.361  1.00  0.00     0.029 A 
ATOM     63  C   UNL A   1      42.474  28.878  33.081  1.00  0.00     0.049 A 
ATOM     64  H   UNL A   1      40.812  30.067  32.554  1.00  0.00     0.167 HD
ATOM     65  C   UNL A   1      42.185  30.401  35.017  1.00  0.00     0.074 A 
ATOM     66  C   UNL A   1      42.541  30.896  36.331  1.00  0.00     0.031 C 
ATOM     67  C   UNL A   1      42.821  29.384  34.385  1.00  0.00     0.037 A 
BRANCH  54  68
ATOM     68  C   UNL A   1      40.406  27.918  28.888  1.00  0.00     0.064 A 
ATOM     69  C   UNL A   1      41.151  28.212  27.735  1.00  0.00     0.173 A 
ATOM     70  C   UNL A   1      39.685  26.715  28.911  1.00  0.00     0.173 A 
ATOM     71  F   UNL A   1      41.850  29.354  27.655  1.00  0.00    -0.203 F 
ATOM     72  C   UNL A   1      41.142  27.355  26.636  1.00  0.00     0.198 A 
ATOM     73  C   UNL A   1      39.708  25.843  27.826  1.00  0.00     0.198 A 
ATOM     74  F   UNL A   1      38.963  26.379  29.990  1.00  0.00    -0.203 F 
ATOM     75  F   UNL A   1      41.812  27.688  25.524  1.00  0.00    -0.200 F 
ATOM     76  C   UNL A   1      40.426  26.169  26.685  1.00  0.00     0.200 A 
ATOM     77  F   UNL A   1      39.029  24.689  27.880  1.00  0.00    -0.200 F 
ATOM     78  F   UNL A   1      40.424  25.343  25.630  1.00  0.00    -0.200 F 
ENDBRANCH  54  68
BRANCH  55  79
ATOM     79  C   UNL A   1      39.656  33.945  36.816  1.00  0.00     0.064 A 
ATOM     80  C   UNL A   1      40.303  35.184  36.911  1.00  0.00     0.173 A 
ATOM     81  C   UNL A   1      38.858  33.542  37.899  1.00  0.00     0.173 A 
ATOM     82  F   UNL A   1      41.093  35.604  35.912  1.00  0.00    -0.203 F 
ATOM     83  C   UNL A   1      40.176  35.980  38.048  1.00  0.00     0.198 A 
ATOM     84  C   UNL A   1      38.707  34.352  39.022  1.00  0.00     0.198 A 
ATOM     85  F   UNL A   1      38.211  32.369  37.857  1.00  0.00    -0.203 F 
ATOM     86  F   UNL A   1      40.843  37.139  38.130  1.00  0.00    -0.200 F 
ATOM     87  C   UNL A   1      39.372  35.567  39.100  1.00  0.00     0.200 A 
ATOM     88  F   UNL A   1      37.915  33.958  40.028  1.00  0.00    -0.200 F 
ATOM     89  F   UNL A   1      39.244  36.335  40.189  1.00  0.00    -0.200 F 
ENDBRANCH  55  79
BRANCH  67  90
ATOM     90  C   UNL A   1      43.994  28.758  35.084  1.00  0.00     0.064 A 
ATOM     91  C   UNL A   1      43.853  27.615  35.884  1.00  0.00     0.173 A 
ATOM     92  C   UNL A   1      45.285  29.277  34.902  1.00  0.00     0.173 A 
ATOM     93  F   UNL A   1      42.638  27.089  36.102  1.00  0.00    -0.203 F 
ATOM     94  C   UNL A   1      44.959  27.027  36.491  1.00  0.00     0.198 A 
ATOM     95  C   UNL A   1      46.393  28.666  35.483  1.00  0.00     0.198 A 
ATOM     96  F   UNL A   1      45.477  30.366  34.141  1.00  0.00    -0.203 F 
ATOM     97  F   UNL A   1      44.796  25.959  37.286  1.00  0.00    -0.200 F 
ATOM     98  C   UNL A   1      46.228  27.546  36.282  1.00  0.00     0.200 A 
ATOM     99  F   UNL A   1      47.619  29.160  35.266  1.00  0.00    -0.200 F 
ATOM    100  F   UNL A   1      47.293  26.969  36.855  1.00  0.00    -0.200 F 
ENDBRANCH  67  90
ENDBRANCH  41  42
ENDBRANCH  33  36
ENDBRANCH  31  32
ENDBRANCH  30  31
ENDBRANCH   1  30
TORSDOF 14
ENDMDL
MODEL 2
REMARK VINA RESULT:     -13.6      5.574     11.403
REMARK SMILES C[C@H](C(=O)NCCCCNC(=O)c1ccc(-c2c3nc(c(-c4c(F)c(F)c(F)c(F)c4F)c4ccc([nH]4)c(-c4c(F)c(F)c(F)c(F)c4F)c4nc(c(-c5c(F)c(F)c(F)c(F)c5F)c5ccc2[nH]5)C=C4)C=C3)cc1)N1C(=O)C[C@@H](N2C(=O)/C(=C/c3ccccc3)SC2=S)C1=O
REMARK SMILES IDX 7 1 6 2 5 3 3 4 4 5 2 7 1 8 76 9 77 10 95 11 78 12 79 13
REMARK SMILES IDX 80 14 96 15 81 16 82 17 93 18 83 19 84 20 92 21 94 22 85 23
REMARK SMILES IDX 86 24 87 25 91 26 88 27 90 28 89 29 8 30 9 31 10 32 11 33
REMARK SMILES IDX 12 35 13 36 14 37 75 38 15 39 74 40 16 41 17 42 18 43 68 44
REMARK SMILES IDX 19 45 73 46 67 47 69 48 20 49 72 50 66 51 65 52 21 54 53 55
REMARK SMILES IDX 33 56 52 57 34 58 37 59 51 60 70 61 35 62 36 63 50 65 71 66
REMARK SMILES IDX 38 67 22 68 23 69 31 70 24 71 25 72 29 73 32 74 26 75 27 76
REMARK SMILES IDX 30 77 28 78 54 79 55 80 63 81 56 82 57 83 61 84 64 85 58 86
REMARK SMILES IDX 59 87 62 88 60 89 39 90 40 91 48 92 41 93 42 94 46 95 49 96
REMARK SMILES IDX 43 97 44 98 47 99 45 100
REMARK H PARENT 5 6 10 34 69 53 37 64
REMARK Flexibility Score: inf
ROOT
ATOM      1  C   UNL A   1      37.099  21.173  24.673  1.00  0.00     0.023 C 
ENDROOT
BRANCH   1   2
ATOM      2  C   UNL A   1      35.835  21.254  25.517  1.00  0.00     0.116 C 
BRANCH   2   3
ATOM      3  N   UNL A   1      34.643  20.874  24.779  1.00  0.00    -0.354 N 
ATOM      4  C   UNL A   1      33.725  21.669  24.152  1.00  0.00     0.243 C 
ATOM      5  O   UNL A   1      32.940  21.133  23.365  1.00  0.00    -0.273 OA
ATOM      6  H   UNL A   1      34.471  19.906  24.723  1.00  0.00     0.163 HD
BRANCH   4   7
ATOM      7  C   UNL A   1      33.698  23.192  24.376  1.00  0.00     0.179 C 
ATOM      8  C   UNL A   1      34.375  23.975  23.245  1.00  0.00     0.042 C 
BRANCH   7   9
ATOM      9  N   UNL A   1      32.415  23.764  24.798  1.00  0.00    -0.268 N 
ATOM     10  C   UNL A   1      32.149  23.993  26.119  1.00  0.00     0.232 C 
ATOM     11  C   UNL A   1      31.425  24.248  23.987  1.00  0.00     0.253 C 
ATOM     12  O   UNL A   1      32.834  23.644  27.070  1.00  0.00    -0.274 OA
ATOM     13  C   UNL A   1      30.862  24.746  26.267  1.00  0.00     0.136 C 
ATOM     14  C   UNL A   1      30.393  24.953  24.841  1.00  0.00     0.191 C 
ATOM     15  O   UNL A   1      31.351  24.207  22.767  1.00  0.00    -0.272 OA
BRANCH  14  16
ATOM     16  N   UNL A   1      30.282  26.353  24.394  1.00  0.00    -0.280 N 
ATOM     17  C   UNL A   1      29.065  26.821  23.923  1.00  0.00     0.266 C 
ATOM     18  C   UNL A   1      31.301  27.281  24.462  1.00  0.00     0.149 C 
ATOM     19  O   UNL A   1      28.031  26.173  23.868  1.00  0.00    -0.268 OA
ATOM     20  C   UNL A   1      29.172  28.241  23.501  1.00  0.00     0.081 C 
ATOM     21  S   UNL A   1      30.748  28.829  23.834  1.00  0.00    -0.054 SA
ATOM     22  S   UNL A   1      32.865  27.061  24.996  1.00  0.00    -0.052 S 
ATOM     23  C   UNL A   1      28.142  28.887  22.937  1.00  0.00     0.029 C 
BRANCH  23  24
ATOM     24  C   UNL A   1      28.167  30.249  22.392  1.00  0.00    -0.024 A 
ATOM     25  C   UNL A   1      28.241  31.350  23.253  1.00  0.00     0.008 A 
ATOM     26  C   UNL A   1      28.048  30.467  21.013  1.00  0.00     0.008 A 
ATOM     27  C   UNL A   1      28.218  32.649  22.738  1.00  0.00     0.001 A 
ATOM     28  C   UNL A   1      28.028  31.766  20.501  1.00  0.00     0.001 A 
ATOM     29  C   UNL A   1      28.115  32.855  21.363  1.00  0.00     0.000 A 
ENDBRANCH  23  24
ENDBRANCH  14  16
ENDBRANCH   7   9
ENDBRANCH   4   7
ENDBRANCH   2   3
ENDBRANCH   1   2
BRANCH   1  30
ATOM     30  C   UNL A   1      37.998  19.983  25.001  1.00  0.00     0.023 C 
BRANCH  30  31
ATOM     31  C   UNL A   1      39.281  20.336  25.742  1.00  0.00     0.116 C 
BRANCH  31  32
ATOM     32  N   UNL A   1      40.187  19.204  25.878  1.00  0.00    -0.352 N 
ATOM     33  C   UNL A   1      41.539  19.205  26.123  1.00  0.00     0.251 C 
ATOM     34  H   UNL A   1      39.774  18.315  25.783  1.00  0.00     0.163 HD
ATOM     35  O   UNL A   1      42.186  18.165  26.062  1.00  0.00    -0.269 OA
BRANCH  33  36
ATOM     36  C   UNL A   1      42.214  20.483  26.426  1.00  0.00     0.039 A 
ATOM     37  C   UNL A   1      42.766  21.225  25.378  1.00  0.00     0.014 A 
ATOM     38  C   UNL A   1      42.258  20.969  27.736  1.00  0.00     0.014 A 
ATOM     39  C   UNL A   1      43.290  22.493  25.635  1.00  0.00     0.010 A 
ATOM     40  C   UNL A   1      42.702  22.264  27.975  1.00  0.00     0.010 A 
ATOM     41  C   UNL A   1      43.222  23.041  26.926  1.00  0.00    -0.014 A 
BRANCH  41  42
ATOM     42  C   UNL A   1      43.678  24.426  27.207  1.00  0.00     0.031 A 
ATOM     43  C   UNL A   1      42.698  25.455  27.697  1.00  0.00     0.074 A 
ATOM     44  C   UNL A   1      44.950  24.780  26.941  1.00  0.00     0.049 A 
ATOM     45  N   UNL A   1      42.873  26.735  27.904  1.00  0.00    -0.248 NA
ATOM     46  C   UNL A   1      41.327  24.987  27.957  1.00  0.00     0.031 C 
ATOM     47  C   UNL A   1      45.982  23.887  26.412  1.00  0.00     0.029 A 
ATOM     48  N   UNL A   1      45.587  25.990  27.057  1.00  0.00    -0.354 N 
ATOM     49  C   UNL A   1      41.635  27.226  28.298  1.00  0.00     0.074 A 
ATOM     50  C   UNL A   1      40.705  26.119  28.247  1.00  0.00     0.031 C 
ATOM     51  C   UNL A   1      47.125  24.575  26.261  1.00  0.00     0.029 A 
ATOM     52  C   UNL A   1      46.896  25.967  26.640  1.00  0.00     0.049 A 
ATOM     53  H   UNL A   1      45.147  26.799  27.406  1.00  0.00     0.167 HD
ATOM     54  C   UNL A   1      41.310  28.482  28.687  1.00  0.00     0.037 A 
ATOM     55  C   UNL A   1      47.804  26.958  26.555  1.00  0.00     0.037 A 
ATOM     56  C   UNL A   1      42.246  29.573  28.756  1.00  0.00     0.049 A 
ATOM     57  C   UNL A   1      47.417  28.347  26.986  1.00  0.00     0.074 A 
ATOM     58  C   UNL A   1      42.033  30.863  29.208  1.00  0.00     0.029 A 
ATOM     59  N   UNL A   1      43.571  29.504  28.351  1.00  0.00    -0.354 N 
ATOM     60  N   UNL A   1      46.265  28.783  27.436  1.00  0.00    -0.248 NA
ATOM     61  C   UNL A   1      48.457  29.382  26.902  1.00  0.00     0.031 C 
ATOM     62  C   UNL A   1      43.212  31.591  29.021  1.00  0.00     0.029 A 
ATOM     63  C   UNL A   1      44.180  30.739  28.513  1.00  0.00     0.049 A 
ATOM     64  H   UNL A   1      44.014  28.697  28.001  1.00  0.00     0.167 HD
ATOM     65  C   UNL A   1      46.449  30.131  27.716  1.00  0.00     0.074 A 
ATOM     66  C   UNL A   1      47.827  30.439  27.396  1.00  0.00     0.031 C 
ATOM     67  C   UNL A   1      45.555  31.031  28.196  1.00  0.00     0.037 A 
BRANCH  54  68
ATOM     68  C   UNL A   1      39.878  28.744  29.062  1.00  0.00     0.064 A 
ATOM     69  C   UNL A   1      39.417  28.587  30.378  1.00  0.00     0.173 A 
ATOM     70  C   UNL A   1      38.960  29.183  28.096  1.00  0.00     0.173 A 
ATOM     71  F   UNL A   1      40.250  28.158  31.339  1.00  0.00    -0.203 F 
ATOM     72  C   UNL A   1      38.084  28.821  30.705  1.00  0.00     0.198 A 
ATOM     73  C   UNL A   1      37.637  29.452  28.433  1.00  0.00     0.198 A 
ATOM     74  F   UNL A   1      39.349  29.359  26.824  1.00  0.00    -0.203 F 
ATOM     75  F   UNL A   1      37.654  28.605  31.956  1.00  0.00    -0.200 F 
ATOM     76  C   UNL A   1      37.197  29.261  29.734  1.00  0.00     0.200 A 
ATOM     77  F   UNL A   1      36.785  29.893  27.497  1.00  0.00    -0.200 F 
ATOM     78  F   UNL A   1      35.916  29.492  30.051  1.00  0.00    -0.200 F 
ENDBRANCH  54  68
BRANCH  55  79
ATOM     79  C   UNL A   1      49.170  26.667  26.047  1.00  0.00     0.064 A 
ATOM     80  C   UNL A   1      49.520  26.936  24.717  1.00  0.00     0.173 A 
ATOM     81  C   UNL A   1      50.157  26.120  26.881  1.00  0.00     0.173 A 
ATOM     82  F   UNL A   1      48.607  27.441  23.874  1.00  0.00    -0.203 F 
ATOM     83  C   UNL A   1      50.796  26.652  24.234  1.00  0.00     0.198 A 
ATOM     84  C   UNL A   1      51.442  25.864  26.406  1.00  0.00     0.198 A 
ATOM     85  F   UNL A   1      49.878  25.849  28.165  1.00  0.00    -0.203 F 
ATOM     86  F   UNL A   1      51.088  26.878  22.946  1.00  0.00    -0.200 F 
ATOM     87  C   UNL A   1      51.758  26.123  25.081  1.00  0.00     0.200 A 
ATOM     88  F   UNL A   1      52.373  25.370  27.233  1.00  0.00    -0.200 F 
ATOM     89  F   UNL A   1      52.987  25.857  24.619  1.00  0.00    -0.200 F 
ENDBRANCH  55  79
BRANCH  67  90
ATOM     90  C   UNL A   1      46.043  32.429  28.442  1.00  0.00     0.064 A 
ATOM     91  C   UNL A   1      45.942  33.430  27.465  1.00  0.00     0.173 A 
ATOM     92  C   UNL A   1      46.565  32.786  29.696  1.00  0.00     0.173 A 
ATOM     93  F   UNL A   1      45.465  33.137  26.246  1.00  0.00    -0.203 F 
ATOM     94  C   UNL A   1      46.365  34.731  27.728  1.00  0.00     0.198 A 
ATOM     95  C   UNL A   1      46.955  34.094  29.965  1.00  0.00     0.198 A 
ATOM     96  F   UNL A   1      46.677  31.868  30.668  1.00  0.00    -0.203 F 
ATOM     97  F   UNL A   1      46.299  35.661  26.764  1.00  0.00    -0.200 F 
ATOM     98  C   UNL A   1      46.860  35.063  28.979  1.00  0.00     0.200 A 
ATOM     99  F   UNL A   1      47.417  34.417  31.180  1.00  0.00    -0.200 F 
ATOM    100  F   UNL A   1      47.252  36.320  29.234  1.00  0.00    -0.200 F 
ENDBRANCH  67  90
ENDBRANCH  41  42
ENDBRANCH  33  36
ENDBRANCH  31  32
ENDBRANCH  30  31
ENDBRANCH   1  30
TORSDOF 14
ENDMDL
MODEL 3
REMARK VINA RESULT:     -13.5      0.546      7.136
REMARK SMILES C[C@H](C(=O)NCCCCNC(=O)c1ccc(-c2c3nc(c(-c4c(F)c(F)c(F)c(F)c4F)c4ccc([nH]4)c(-c4c(F)c(F)c(F)c(F)c4F)c4nc(c(-c5c(F)c(F)c(F)c(F)c5F)c5ccc2[nH]5)C=C4)C=C3)cc1)N1C(=O)C[C@@H](N2C(=O)/C(=C/c3ccccc3)SC2=S)C1=O
REMARK SMILES IDX 7 1 6 2 5 3 3 4 4 5 2 7 1 8 76 9 77 10 95 11 78 12 79 13
REMARK SMILES IDX 80 14 96 15 81 16 82 17 93 18 83 19 84 20 92 21 94 22 85 23
REMARK SMILES IDX 86 24 87 25 91 26 88 27 90 28 89 29 8 30 9 31 10 32 11 33
REMARK SMILES IDX 12 35 13 36 14 37 75 38 15 39 74 40 16 41 17 42 18 43 68 44
REMARK SMILES IDX 19 45 73 46 67 47 69 48 20 49 72 50 66 51 65 52 21 54 53 55
REMARK SMILES IDX 33 56 52 57 34 58 37 59 51 60 70 61 35 62 36 63 50 65 71 66
REMARK SMILES IDX 38 67 22 68 23 69 31 70 24 71 25 72 29 73 32 74 26 75 27 76
REMARK SMILES IDX 30 77 28 78 54 79 55 80 63 81 56 82 57 83 61 84 64 85 58 86
REMARK SMILES IDX 59 87 62 88 60 89 39 90 40 91 48 92 41 93 42 94 46 95 49 96
REMARK SMILES IDX 43 97 44 98 47 99 45 100
REMARK H PARENT 5 6 10 34 69 53 37 64
REMARK Flexibility Score: inf
ROOT
ATOM      1  C   UNL A   1      31.700  30.271  26.304  1.00  0.00     0.023 C 
ENDROOT
BRANCH   1   2
ATOM      2  C   UNL A   1      31.146  29.759  24.981  1.00  0.00     0.116 C 
BRANCH   2   3
ATOM      3  N   UNL A   1      32.187  29.460  24.014  1.00  0.00    -0.354 N 
ATOM      4  C   UNL A   1      32.424  28.301  23.329  1.00  0.00     0.243 C 
ATOM      5  O   UNL A   1      33.194  28.347  22.366  1.00  0.00    -0.273 OA
ATOM      6  H   UNL A   1      32.810  30.198  23.823  1.00  0.00     0.163 HD
BRANCH   4   7
ATOM      7  C   UNL A   1      31.718  26.987  23.712  1.00  0.00     0.179 C 
ATOM      8  C   UNL A   1      31.400  26.105  22.498  1.00  0.00     0.042 C 
BRANCH   7   9
ATOM      9  N   UNL A   1      32.293  26.246  24.840  1.00  0.00    -0.268 N 
ATOM     10  C   UNL A   1      31.551  25.987  25.959  1.00  0.00     0.232 C 
ATOM     11  C   UNL A   1      33.511  25.627  24.881  1.00  0.00     0.253 C 
ATOM     12  O   UNL A   1      30.441  26.431  26.215  1.00  0.00    -0.274 OA
ATOM     13  C   UNL A   1      32.297  25.065  26.875  1.00  0.00     0.136 C 
ATOM     14  C   UNL A   1      33.594  24.790  26.140  1.00  0.00     0.191 C 
ATOM     15  O   UNL A   1      34.408  25.653  24.050  1.00  0.00    -0.272 OA
BRANCH  14  16
ATOM     16  N   UNL A   1      33.838  23.387  25.762  1.00  0.00    -0.280 N 
ATOM     17  C   UNL A   1      32.760  22.568  25.459  1.00  0.00     0.266 C 
ATOM     18  C   UNL A   1      35.087  22.818  25.621  1.00  0.00     0.149 C 
ATOM     19  O   UNL A   1      31.589  22.916  25.445  1.00  0.00    -0.268 OA
ATOM     20  C   UNL A   1      33.217  21.194  25.131  1.00  0.00     0.081 C 
ATOM     21  S   UNL A   1      34.930  21.129  25.152  1.00  0.00    -0.054 SA
ATOM     22  S   UNL A   1      36.577  23.520  25.879  1.00  0.00    -0.052 S 
ATOM     23  C   UNL A   1      32.347  20.205  24.882  1.00  0.00     0.029 C 
BRANCH  23  24
ATOM     24  C   UNL A   1      32.682  18.795  24.649  1.00  0.00    -0.024 A 
ATOM     25  C   UNL A   1      32.681  17.887  25.714  1.00  0.00     0.008 A 
ATOM     26  C   UNL A   1      33.073  18.355  23.377  1.00  0.00     0.008 A 
ATOM     27  C   UNL A   1      33.045  16.554  25.502  1.00  0.00     0.001 A 
ATOM     28  C   UNL A   1      33.433  17.023  23.168  1.00  0.00     0.001 A 
ATOM     29  C   UNL A   1      33.417  16.123  24.229  1.00  0.00     0.000 A 
ENDBRANCH  23  24
ENDBRANCH  14  16
ENDBRANCH   7   9
ENDBRANCH   4   7
ENDBRANCH   2   3
ENDBRANCH   1   2
BRANCH   1  30
ATOM     30  C   UNL A   1      31.571  31.780  26.495  1.00  0.00     0.023 C 
BRANCH  30  31
ATOM     31  C   UNL A   1      32.728  32.431  27.242  1.00  0.00     0.116 C 
BRANCH  31  32
ATOM     32  N   UNL A   1      32.487  33.835  27.547  1.00  0.00    -0.352 N 
ATOM     33  C   UNL A   1      33.094  34.629  28.492  1.00  0.00     0.251 C 
ATOM     34  H   UNL A   1      31.796  34.276  27.002  1.00  0.00     0.163 HD
ATOM     35  O   UNL A   1      32.671  35.757  28.723  1.00  0.00    -0.269 OA
BRANCH  33  36
ATOM     36  C   UNL A   1      34.242  34.094  29.251  1.00  0.00     0.039 A 
ATOM     37  C   UNL A   1      34.002  33.348  30.408  1.00  0.00     0.014 A 
ATOM     38  C   UNL A   1      35.548  34.290  28.794  1.00  0.00     0.014 A 
ATOM     39  C   UNL A   1      35.069  32.729  31.061  1.00  0.00     0.010 A 
ATOM     40  C   UNL A   1      36.597  33.604  29.396  1.00  0.00     0.010 A 
ATOM     41  C   UNL A   1      36.368  32.815  30.535  1.00  0.00    -0.014 A 
BRANCH  41  42
ATOM     42  C   UNL A   1      37.505  32.084  31.150  1.00  0.00     0.031 A 
ATOM     43  C   UNL A   1      37.997  32.471  32.516  1.00  0.00     0.074 A 
ATOM     44  C   UNL A   1      38.148  31.131  30.446  1.00  0.00     0.049 A 
ATOM     45  N   UNL A   1      39.033  32.026  33.182  1.00  0.00    -0.248 NA
ATOM     46  C   UNL A   1      37.243  33.524  33.213  1.00  0.00     0.031 C 
ATOM     47  C   UNL A   1      37.801  30.703  29.090  1.00  0.00     0.029 A 
ATOM     48  N   UNL A   1      39.243  30.367  30.764  1.00  0.00    -0.354 N 
ATOM     49  C   UNL A   1      39.064  32.756  34.362  1.00  0.00     0.074 A 
ATOM     50  C   UNL A   1      37.979  33.711  34.298  1.00  0.00     0.031 C 
ATOM     51  C   UNL A   1      38.656  29.745  28.698  1.00  0.00     0.029 A 
ATOM     52  C   UNL A   1      39.638  29.522  29.755  1.00  0.00     0.049 A 
ATOM     53  H   UNL A   1      39.702  30.420  31.634  1.00  0.00     0.167 HD
ATOM     54  C   UNL A   1      39.908  32.627  35.413  1.00  0.00     0.037 A 
ATOM     55  C   UNL A   1      40.685  28.678  29.683  1.00  0.00     0.037 A 
ATOM     56  C   UNL A   1      40.972  31.660  35.479  1.00  0.00     0.049 A 
ATOM     57  C   UNL A   1      41.615  28.557  30.861  1.00  0.00     0.074 A 
ATOM     58  C   UNL A   1      41.835  31.398  36.529  1.00  0.00     0.029 A 
ATOM     59  N   UNL A   1      41.325  30.803  34.447  1.00  0.00    -0.354 N 
ATOM     60  N   UNL A   1      41.585  29.193  32.006  1.00  0.00    -0.248 NA
ATOM     61  C   UNL A   1      42.720  27.596  30.737  1.00  0.00     0.031 C 
ATOM     62  C   UNL A   1      42.748  30.425  36.111  1.00  0.00     0.029 A 
ATOM     63  C   UNL A   1      42.415  30.033  34.824  1.00  0.00     0.049 A 
ATOM     64  H   UNL A   1      40.869  30.748  33.577  1.00  0.00     0.167 HD
ATOM     65  C   UNL A   1      42.645  28.692  32.750  1.00  0.00     0.074 A 
ATOM     66  C   UNL A   1      43.292  27.689  31.930  1.00  0.00     0.031 C 
ATOM     67  C   UNL A   1      43.045  29.033  34.000  1.00  0.00     0.037 A 
BRANCH  54  68
ATOM     68  C   UNL A   1      39.719  33.561  36.575  1.00  0.00     0.064 A 
ATOM     69  C   UNL A   1      38.872  33.244  37.649  1.00  0.00     0.173 A 
ATOM     70  C   UNL A   1      40.413  34.779  36.628  1.00  0.00     0.173 A 
ATOM     71  F   UNL A   1      38.175  32.097  37.644  1.00  0.00    -0.203 F 
ATOM     72  C   UNL A   1      38.698  34.128  38.712  1.00  0.00     0.198 A 
ATOM     73  C   UNL A   1      40.266  35.643  37.710  1.00  0.00     0.198 A 
ATOM     74  F   UNL A   1      41.242  35.129  35.633  1.00  0.00    -0.203 F 
ATOM     75  F   UNL A   1      37.838  33.829  39.695  1.00  0.00    -0.200 F 
ATOM     76  C   UNL A   1      39.400  35.322  38.745  1.00  0.00     0.200 A 
ATOM     77  F   UNL A   1      40.958  36.790  37.748  1.00  0.00    -0.200 F 
ATOM     78  F   UNL A   1      39.237  36.169  39.771  1.00  0.00    -0.200 F 
ENDBRANCH  54  68
BRANCH  55  79
ATOM     79  C   UNL A   1      40.903  27.875  28.450  1.00  0.00     0.064 A 
ATOM     80  C   UNL A   1      40.276  26.633  28.276  1.00  0.00     0.173 A 
ATOM     81  C   UNL A   1      41.736  28.334  27.419  1.00  0.00     0.173 A 
ATOM     82  F   UNL A   1      39.486  26.141  29.242  1.00  0.00    -0.203 F 
ATOM     83  C   UNL A   1      40.489  25.872  27.128  1.00  0.00     0.198 A 
ATOM     84  C   UNL A   1      41.924  27.587  26.258  1.00  0.00     0.198 A 
ATOM     85  F   UNL A   1      42.354  29.519  27.531  1.00  0.00    -0.203 F 
ATOM     86  F   UNL A   1      39.913  24.669  27.009  1.00  0.00    -0.200 F 
ATOM     87  C   UNL A   1      41.307  26.353  26.117  1.00  0.00     0.200 A 
ATOM     88  F   UNL A   1      42.701  28.063  25.276  1.00  0.00    -0.200 F 
ATOM     89  F   UNL A   1      41.505  25.625  25.010  1.00  0.00    -0.200 F 
ENDBRANCH  55  79
BRANCH  67  90
ATOM     90  C   UNL A   1      44.216  28.292  34.580  1.00  0.00     0.064 A 
ATOM     91  C   UNL A   1      44.052  27.102  35.304  1.00  0.00     0.173 A 
ATOM     92  C   UNL A   1      45.524  28.749  34.355  1.00  0.00     0.173 A 
ATOM     93  F   UNL A   1      42.822  26.631  35.559  1.00  0.00    -0.203 F 
ATOM     94  C   UNL A   1      45.154  26.409  35.798  1.00  0.00     0.198 A 
ATOM     95  C   UNL A   1      46.624  28.035  34.822  1.00  0.00     0.198 A 
ATOM     96  F   UNL A   1      45.737  29.878  33.662  1.00  0.00    -0.203 F 
ATOM     97  F   UNL A   1      44.972  25.296  36.525  1.00  0.00    -0.200 F 
ATOM     98  C   UNL A   1      46.437  26.870  35.548  1.00  0.00     0.200 A 
ATOM     99  F   UNL A   1      47.863  28.474  34.565  1.00  0.00    -0.200 F 
ATOM    100  F   UNL A   1      47.497  26.192  36.013  1.00  0.00    -0.200 F 
ENDBRANCH  67  90
ENDBRANCH  41  42
ENDBRANCH  33  36
ENDBRANCH  31  32
ENDBRANCH  30  31
ENDBRANCH   1  30
TORSDOF 14
ENDMDL
