MODEL 1
REMARK VINA RESULT:     -13.4      0.000      0.000
REMARK SMILES O=C(NCCCCNC(=O)c1cnccc1C(=O)N1CCC(Cc2ccccc2)CC1)c1ccc(-c2c3nc(c(-c4c(F)c(F)c(F)c(F)c4F)c4ccc([nH]4)c(-c4c(F)c(F)c(F)c(F)c4F)c4nc(c(-c5c(F)c(F)c(F)c(F)c5F)c5ccc2[nH]5)C=C4)C=C3)cc1
REMARK SMILES IDX 6 1 5 2 4 3 3 4 1 5 2 6 32 8 33 9 94 10 34 11 93 12 35 13
REMARK SMILES IDX 36 14 37 15 87 16 38 17 92 18 86 19 88 20 39 21 91 22 85 23
REMARK SMILES IDX 84 24 40 26 72 27 52 28 71 29 53 30 56 31 70 32 89 33 54 34
REMARK SMILES IDX 55 35 69 37 90 38 57 39 41 40 42 41 50 42 43 43 44 44 48 45
REMARK SMILES IDX 51 46 45 47 46 48 49 49 47 50 73 51 74 52 82 53 75 54 76 55
REMARK SMILES IDX 80 56 83 57 77 58 78 59 81 60 79 61 58 62 59 63 67 64 60 65
REMARK SMILES IDX 61 66 65 67 68 68 62 69 63 70 66 71 64 72 7 73 8 74 9 75
REMARK SMILES IDX 10 77 11 78 12 79 16 80 13 81 15 82 14 83 17 84 18 85 19 86
REMARK SMILES IDX 20 87 31 88 21 89 30 90 22 91 23 92 24 93 25 94 29 95 26 96
REMARK SMILES IDX 28 97 27 98
REMARK H PARENT 3 7 88 25 56 36 8 76
REMARK Flexibility Score: inf
ROOT
ATOM      1  C   UNL A   1      37.019  20.252  25.002  1.00  0.00     0.023 C 
ENDROOT
BRANCH   1   2
ATOM      2  C   UNL A   1      38.371  19.530  24.930  1.00  0.00     0.023 C 
BRANCH   2   3
ATOM      3  C   UNL A   1      39.388  19.790  26.036  1.00  0.00     0.116 C 
BRANCH   3   4
ATOM      4  N   UNL A   1      40.517  18.877  26.034  1.00  0.00    -0.352 N 
ATOM      5  O   UNL A   1      42.683  18.251  25.994  1.00  0.00    -0.269 OA
ATOM      6  C   UNL A   1      41.866  19.149  26.128  1.00  0.00     0.251 C 
ATOM      7  H   UNL A   1      40.286  17.924  25.953  1.00  0.00     0.163 HD
BRANCH   6   8
ATOM      8  C   UNL A   1      42.337  20.536  26.360  1.00  0.00     0.039 A 
ATOM      9  C   UNL A   1      42.448  21.059  27.649  1.00  0.00     0.014 A 
ATOM     10  C   UNL A   1      42.702  21.317  25.256  1.00  0.00     0.014 A 
ATOM     11  C   UNL A   1      42.807  22.394  27.826  1.00  0.00     0.010 A 
ATOM     12  C   UNL A   1      43.114  22.642  25.439  1.00  0.00     0.010 A 
ATOM     13  C   UNL A   1      43.144  23.197  26.725  1.00  0.00    -0.014 A 
BRANCH  13  14
ATOM     14  C   UNL A   1      43.557  24.604  26.951  1.00  0.00     0.031 A 
ATOM     15  C   UNL A   1      42.599  25.604  27.523  1.00  0.00     0.074 A 
ATOM     16  C   UNL A   1      44.821  24.968  26.671  1.00  0.00     0.049 A 
ATOM     17  N   UNL A   1      42.800  26.862  27.823  1.00  0.00    -0.248 NA
ATOM     18  C   UNL A   1      41.232  25.132  27.785  1.00  0.00     0.031 C 
ATOM     19  C   UNL A   1      45.829  24.084  26.094  1.00  0.00     0.029 A 
ATOM     20  N   UNL A   1      45.479  26.159  26.846  1.00  0.00    -0.354 N 
ATOM     21  C   UNL A   1      41.584  27.340  28.288  1.00  0.00     0.074 A 
ATOM     22  C   UNL A   1      40.646  26.237  28.224  1.00  0.00     0.031 C 
ATOM     23  C   UNL A   1      46.995  24.745  26.006  1.00  0.00     0.029 A 
ATOM     24  C   UNL A   1      46.799  26.115  26.467  1.00  0.00     0.049 A 
ATOM     25  H   UNL A   1      45.048  26.966  27.209  1.00  0.00     0.167 HD
ATOM     26  C   UNL A   1      41.280  28.587  28.721  1.00  0.00     0.037 A 
ATOM     27  C   UNL A   1      47.741  27.078  26.475  1.00  0.00     0.037 A 
ATOM     28  C   UNL A   1      42.216  29.680  28.778  1.00  0.00     0.049 A 
ATOM     29  C   UNL A   1      47.376  28.454  26.959  1.00  0.00     0.074 A 
ATOM     30  C   UNL A   1      42.006  30.975  29.221  1.00  0.00     0.029 A 
ATOM     31  N   UNL A   1      43.541  29.609  28.367  1.00  0.00    -0.354 N 
ATOM     32  N   UNL A   1      46.230  28.886  27.428  1.00  0.00    -0.248 NA
ATOM     33  C   UNL A   1      48.426  29.479  26.898  1.00  0.00     0.031 C 
ATOM     34  C   UNL A   1      43.189  31.700  29.033  1.00  0.00     0.029 A 
ATOM     35  C   UNL A   1      44.151  30.845  28.518  1.00  0.00     0.049 A 
ATOM     36  H   UNL A   1      43.980  28.800  28.018  1.00  0.00     0.167 HD
ATOM     37  C   UNL A   1      46.418  30.230  27.713  1.00  0.00     0.074 A 
ATOM     38  C   UNL A   1      47.798  30.536  27.396  1.00  0.00     0.031 C 
ATOM     39  C   UNL A   1      45.523  31.133  28.184  1.00  0.00     0.037 A 
BRANCH  26  40
ATOM     40  C   UNL A   1      39.857  28.846  29.123  1.00  0.00     0.064 A 
ATOM     41  C   UNL A   1      39.424  28.695  30.448  1.00  0.00     0.173 A 
ATOM     42  C   UNL A   1      38.918  29.261  28.167  1.00  0.00     0.173 A 
ATOM     43  F   UNL A   1      40.280  28.287  31.397  1.00  0.00    -0.203 F 
ATOM     44  C   UNL A   1      38.094  28.921  30.795  1.00  0.00     0.198 A 
ATOM     45  C   UNL A   1      37.595  29.509  28.522  1.00  0.00     0.198 A 
ATOM     46  F   UNL A   1      39.283  29.425  26.887  1.00  0.00    -0.203 F 
ATOM     47  F   UNL A   1      37.689  28.722  32.058  1.00  0.00    -0.200 F 
ATOM     48  C   UNL A   1      37.182  29.331  29.834  1.00  0.00     0.200 A 
ATOM     49  F   UNL A   1      36.718  29.914  27.593  1.00  0.00    -0.200 F 
ATOM     50  F   UNL A   1      35.902  29.544  30.169  1.00  0.00    -0.200 F 
ENDBRANCH  26  40
BRANCH  27  51
ATOM     51  C   UNL A   1      49.112  26.769  25.992  1.00  0.00     0.064 A 
ATOM     52  C   UNL A   1      49.474  26.986  24.656  1.00  0.00     0.173 A 
ATOM     53  C   UNL A   1      50.093  26.271  26.862  1.00  0.00     0.173 A 
ATOM     54  F   UNL A   1      48.565  27.439  23.780  1.00  0.00    -0.203 F 
ATOM     55  C   UNL A   1      50.766  26.714  24.208  1.00  0.00     0.198 A 
ATOM     56  C   UNL A   1      51.391  26.028  26.420  1.00  0.00     0.198 A 
ATOM     57  F   UNL A   1      49.796  26.047  28.150  1.00  0.00    -0.203 F 
ATOM     58  F   UNL A   1      51.079  26.900  22.919  1.00  0.00    -0.200 F 
ATOM     59  C   UNL A   1      51.725  26.244  25.093  1.00  0.00     0.200 A 
ATOM     60  F   UNL A   1      52.318  25.590  27.284  1.00  0.00    -0.200 F 
ATOM     61  F   UNL A   1      52.971  25.997  24.666  1.00  0.00    -0.200 F 
ENDBRANCH  27  51
BRANCH  39  62
ATOM     62  C   UNL A   1      46.009  32.539  28.380  1.00  0.00     0.064 A 
ATOM     63  C   UNL A   1      46.603  32.945  29.583  1.00  0.00     0.173 A 
ATOM     64  C   UNL A   1      45.925  33.474  27.337  1.00  0.00     0.173 A 
ATOM     65  F   UNL A   1      46.691  32.092  30.614  1.00  0.00    -0.203 F 
ATOM     66  C   UNL A   1      47.080  34.244  29.743  1.00  0.00     0.198 A 
ATOM     67  C   UNL A   1      46.425  34.764  27.492  1.00  0.00     0.198 A 
ATOM     68  F   UNL A   1      45.369  33.133  26.165  1.00  0.00    -0.203 F 
ATOM     69  F   UNL A   1      47.611  34.622  30.913  1.00  0.00    -0.200 F 
ATOM     70  C   UNL A   1      46.998  35.149  28.694  1.00  0.00     0.200 A 
ATOM     71  F   UNL A   1      46.355  35.634  26.475  1.00  0.00    -0.200 F 
ATOM     72  F   UNL A   1      47.467  36.395  28.846  1.00  0.00    -0.200 F 
ENDBRANCH  39  62
ENDBRANCH  13  14
ENDBRANCH   6   8
ENDBRANCH   3   4
ENDBRANCH   2   3
ENDBRANCH   1   2
BRANCH   1  73
ATOM     73  C   UNL A   1      37.013  21.774  24.850  1.00  0.00     0.116 C 
BRANCH  73  74
ATOM     74  N   UNL A   1      36.222  22.459  25.854  1.00  0.00    -0.352 N 
ATOM     75  C   UNL A   1      34.863  22.469  26.037  1.00  0.00     0.253 C 
ATOM     76  H   UNL A   1      36.736  22.995  26.500  1.00  0.00     0.163 HD
ATOM     77  O   UNL A   1      34.376  23.148  26.939  1.00  0.00    -0.269 OA
BRANCH  75  78
ATOM     78  C   UNL A   1      33.951  21.735  25.159  1.00  0.00     0.070 A 
ATOM     79  C   UNL A   1      33.477  20.529  25.665  1.00  0.00     0.125 A 
ATOM     80  C   UNL A   1      33.537  22.110  23.882  1.00  0.00     0.055 A 
ATOM     81  N   UNL A   1      32.583  19.732  25.032  1.00  0.00    -0.264 NA
ATOM     82  C   UNL A   1      32.602  21.303  23.213  1.00  0.00     0.035 A 
ATOM     83  C   UNL A   1      32.153  20.144  23.824  1.00  0.00     0.112 A 
BRANCH  80  84
ATOM     84  C   UNL A   1      33.804  23.425  23.266  1.00  0.00     0.254 C 
ATOM     85  O   UNL A   1      34.764  23.443  22.491  1.00  0.00    -0.269 OA
ATOM     86  N   UNL A   1      32.995  24.544  23.458  1.00  0.00    -0.339 N 
ATOM     87  C   UNL A   1      32.959  25.481  22.347  1.00  0.00     0.120 C 
ATOM     88  C   UNL A   1      32.000  24.745  24.516  1.00  0.00     0.120 C 
ATOM     89  C   UNL A   1      32.819  26.931  22.744  1.00  0.00     0.025 C 
ATOM     90  C   UNL A   1      31.855  26.220  24.921  1.00  0.00     0.025 C 
ATOM     91  C   UNL A   1      31.632  27.127  23.692  1.00  0.00    -0.003 C 
BRANCH  91  92
ATOM     92  C   UNL A   1      31.459  28.602  24.104  1.00  0.00     0.039 C 
BRANCH  92  93
ATOM     93  C   UNL A   1      30.130  29.202  23.693  1.00  0.00    -0.048 A 
ATOM     94  C   UNL A   1      29.140  28.391  23.115  1.00  0.00     0.004 A 
ATOM     95  C   UNL A   1      29.857  30.561  23.893  1.00  0.00     0.004 A 
ATOM     96  C   UNL A   1      27.903  28.923  22.754  1.00  0.00     0.000 A 
ATOM     97  C   UNL A   1      28.629  31.098  23.502  1.00  0.00     0.000 A 
ATOM     98  C   UNL A   1      27.654  30.277  22.937  1.00  0.00     0.000 A 
ENDBRANCH  92  93
ENDBRANCH  91  92
ENDBRANCH  80  84
ENDBRANCH  75  78
ENDBRANCH  73  74
ENDBRANCH   1  73
TORSDOF 14
ENDMDL
MODEL 2
REMARK VINA RESULT:     -13.4      0.194      1.560
REMARK SMILES O=C(NCCCCNC(=O)c1cnccc1C(=O)N1CCC(Cc2ccccc2)CC1)c1ccc(-c2c3nc(c(-c4c(F)c(F)c(F)c(F)c4F)c4ccc([nH]4)c(-c4c(F)c(F)c(F)c(F)c4F)c4nc(c(-c5c(F)c(F)c(F)c(F)c5F)c5ccc2[nH]5)C=C4)C=C3)cc1
REMARK SMILES IDX 6 1 5 2 4 3 3 4 1 5 2 6 32 8 33 9 94 10 34 11 93 12 35 13
REMARK SMILES IDX 36 14 37 15 87 16 38 17 92 18 86 19 88 20 39 21 91 22 85 23
REMARK SMILES IDX 84 24 40 26 72 27 52 28 71 29 53 30 56 31 70 32 89 33 54 34
REMARK SMILES IDX 55 35 69 37 90 38 57 39 41 40 42 41 50 42 43 43 44 44 48 45
REMARK SMILES IDX 51 46 45 47 46 48 49 49 47 50 73 51 74 52 82 53 75 54 76 55
REMARK SMILES IDX 80 56 83 57 77 58 78 59 81 60 79 61 58 62 59 63 67 64 60 65
REMARK SMILES IDX 61 66 65 67 68 68 62 69 63 70 66 71 64 72 7 73 8 74 9 75
REMARK SMILES IDX 10 77 11 78 12 79 16 80 13 81 15 82 14 83 17 84 18 85 19 86
REMARK SMILES IDX 20 87 31 88 21 89 30 90 22 91 23 92 24 93 25 94 29 95 26 96
REMARK SMILES IDX 28 97 27 98
REMARK H PARENT 3 7 88 25 56 36 8 76
REMARK Flexibility Score: inf
ROOT
ATOM      1  C   UNL A   1      37.014  20.218  25.002  1.00  0.00     0.023 C 
ENDROOT
BRANCH   1   2
ATOM      2  C   UNL A   1      38.352  19.466  24.990  1.00  0.00     0.023 C 
BRANCH   2   3
ATOM      3  C   UNL A   1      39.403  19.847  26.029  1.00  0.00     0.116 C 
BRANCH   3   4
ATOM      4  N   UNL A   1      40.529  18.934  26.099  1.00  0.00    -0.352 N 
ATOM      5  O   UNL A   1      42.694  18.306  26.177  1.00  0.00    -0.269 OA
ATOM      6  C   UNL A   1      41.872  19.206  26.254  1.00  0.00     0.251 C 
ATOM      7  H   UNL A   1      40.301  17.979  26.023  1.00  0.00     0.163 HD
BRANCH   6   8
ATOM      8  C   UNL A   1      42.333  20.597  26.484  1.00  0.00     0.039 A 
ATOM      9  C   UNL A   1      42.523  21.096  27.773  1.00  0.00     0.014 A 
ATOM     10  C   UNL A   1      42.609  21.407  25.375  1.00  0.00     0.014 A 
ATOM     11  C   UNL A   1      42.869  22.433  27.955  1.00  0.00     0.010 A 
ATOM     12  C   UNL A   1      43.009  22.736  25.558  1.00  0.00     0.010 A 
ATOM     13  C   UNL A   1      43.115  23.265  26.851  1.00  0.00    -0.014 A 
BRANCH  13  14
ATOM     14  C   UNL A   1      43.518  24.675  27.079  1.00  0.00     0.031 A 
ATOM     15  C   UNL A   1      42.558  25.663  27.669  1.00  0.00     0.074 A 
ATOM     16  C   UNL A   1      44.775  25.053  26.785  1.00  0.00     0.049 A 
ATOM     17  N   UNL A   1      42.751  26.921  27.973  1.00  0.00    -0.248 NA
ATOM     18  C   UNL A   1      41.199  25.176  27.946  1.00  0.00     0.031 C 
ATOM     19  C   UNL A   1      45.784  24.182  26.189  1.00  0.00     0.029 A 
ATOM     20  N   UNL A   1      45.424  26.249  26.957  1.00  0.00    -0.354 N 
ATOM     21  C   UNL A   1      41.536  27.384  28.456  1.00  0.00     0.074 A 
ATOM     22  C   UNL A   1      40.608  26.273  28.398  1.00  0.00     0.031 C 
ATOM     23  C   UNL A   1      46.942  24.854  26.090  1.00  0.00     0.029 A 
ATOM     24  C   UNL A   1      46.739  26.220  26.561  1.00  0.00     0.049 A 
ATOM     25  H   UNL A   1      44.989  27.050  27.330  1.00  0.00     0.167 HD
ATOM     26  C   UNL A   1      41.226  28.626  28.899  1.00  0.00     0.037 A 
ATOM     27  C   UNL A   1      47.671  27.192  26.562  1.00  0.00     0.037 A 
ATOM     28  C   UNL A   1      42.152  29.728  28.950  1.00  0.00     0.049 A 
ATOM     29  C   UNL A   1      47.299  28.561  27.057  1.00  0.00     0.074 A 
ATOM     30  C   UNL A   1      41.935  31.019  29.402  1.00  0.00     0.029 A 
ATOM     31  N   UNL A   1      43.472  29.673  28.521  1.00  0.00    -0.354 N 
ATOM     32  N   UNL A   1      46.156  28.980  27.543  1.00  0.00    -0.248 NA
ATOM     33  C   UNL A   1      48.339  29.597  26.989  1.00  0.00     0.031 C 
ATOM     34  C   UNL A   1      43.109  31.756  29.202  1.00  0.00     0.029 A 
ATOM     35  C   UNL A   1      44.072  30.913  28.670  1.00  0.00     0.049 A 
ATOM     36  H   UNL A   1      43.914  28.869  28.163  1.00  0.00     0.167 HD
ATOM     37  C   UNL A   1      46.334  30.325  27.834  1.00  0.00     0.074 A 
ATOM     38  C   UNL A   1      47.707  30.646  27.500  1.00  0.00     0.031 C 
ATOM     39  C   UNL A   1      45.437  31.217  28.321  1.00  0.00     0.037 A 
BRANCH  26  40
ATOM     40  C   UNL A   1      39.806  28.870  29.321  1.00  0.00     0.064 A 
ATOM     41  C   UNL A   1      38.834  29.322  28.417  1.00  0.00     0.173 A 
ATOM     42  C   UNL A   1      39.413  28.639  30.648  1.00  0.00     0.173 A 
ATOM     43  F   UNL A   1      39.162  29.571  27.140  1.00  0.00    -0.203 F 
ATOM     44  C   UNL A   1      37.527  29.562  28.834  1.00  0.00     0.198 A 
ATOM     45  C   UNL A   1      38.100  28.856  31.055  1.00  0.00     0.198 A 
ATOM     46  F   UNL A   1      40.305  28.202  31.550  1.00  0.00    -0.203 F 
ATOM     47  F   UNL A   1      36.625  30.042  27.966  1.00  0.00    -0.200 F 
ATOM     48  C   UNL A   1      37.160  29.326  30.151  1.00  0.00     0.200 A 
ATOM     49  F   UNL A   1      37.747  28.619  32.326  1.00  0.00    -0.200 F 
ATOM     50  F   UNL A   1      35.903  29.561  30.551  1.00  0.00    -0.200 F 
ENDBRANCH  26  40
BRANCH  27  51
ATOM     51  C   UNL A   1      49.039  26.899  26.059  1.00  0.00     0.064 A 
ATOM     52  C   UNL A   1      50.049  26.461  26.925  1.00  0.00     0.173 A 
ATOM     53  C   UNL A   1      49.355  27.028  24.699  1.00  0.00     0.173 A 
ATOM     54  F   UNL A   1      49.803  26.345  28.238  1.00  0.00    -0.203 F 
ATOM     55  C   UNL A   1      51.327  26.168  26.449  1.00  0.00     0.198 A 
ATOM     56  C   UNL A   1      50.622  26.705  24.220  1.00  0.00     0.198 A 
ATOM     57  F   UNL A   1      48.421  27.441  23.829  1.00  0.00    -0.203 F 
ATOM     58  F   UNL A   1      52.285  25.783  27.303  1.00  0.00    -0.200 F 
ATOM     59  C   UNL A   1      51.609  26.281  25.096  1.00  0.00     0.200 A 
ATOM     60  F   UNL A   1      50.884  26.801  22.909  1.00  0.00    -0.200 F 
ATOM     61  F   UNL A   1      52.832  25.984  24.637  1.00  0.00    -0.200 F 
ENDBRANCH  27  51
BRANCH  39  62
ATOM     62  C   UNL A   1      45.911  32.626  28.517  1.00  0.00     0.064 A 
ATOM     63  C   UNL A   1      46.535  33.027  29.707  1.00  0.00     0.173 A 
ATOM     64  C   UNL A   1      45.786  33.571  27.488  1.00  0.00     0.173 A 
ATOM     65  F   UNL A   1      46.663  32.164  30.726  1.00  0.00    -0.203 F 
ATOM     66  C   UNL A   1      47.002  34.330  29.867  1.00  0.00     0.198 A 
ATOM     67  C   UNL A   1      46.276  34.865  27.642  1.00  0.00     0.198 A 
ATOM     68  F   UNL A   1      45.200  33.235  26.329  1.00  0.00    -0.203 F 
ATOM     69  F   UNL A   1      47.561  34.702  31.026  1.00  0.00    -0.200 F 
ATOM     70  C   UNL A   1      46.879  35.244  28.832  1.00  0.00     0.200 A 
ATOM     71  F   UNL A   1      46.166  35.745  26.637  1.00  0.00    -0.200 F 
ATOM     72  F   UNL A   1      47.337  36.494  28.983  1.00  0.00    -0.200 F 
ENDBRANCH  39  62
ENDBRANCH  13  14
ENDBRANCH   6   8
ENDBRANCH   3   4
ENDBRANCH   2   3
ENDBRANCH   1   2
BRANCH   1  73
ATOM     73  C   UNL A   1      37.053  21.745  24.942  1.00  0.00     0.116 C 
BRANCH  73  74
ATOM     74  N   UNL A   1      36.269  22.391  25.977  1.00  0.00    -0.352 N 
ATOM     75  C   UNL A   1      34.909  22.433  26.144  1.00  0.00     0.253 C 
ATOM     76  H   UNL A   1      36.791  22.869  26.662  1.00  0.00     0.163 HD
ATOM     77  O   UNL A   1      34.431  23.070  27.081  1.00  0.00    -0.269 OA
BRANCH  75  78
ATOM     78  C   UNL A   1      33.987  21.785  25.211  1.00  0.00     0.070 A 
ATOM     79  C   UNL A   1      33.447  20.579  25.647  1.00  0.00     0.125 A 
ATOM     80  C   UNL A   1      33.622  22.240  23.945  1.00  0.00     0.055 A 
ATOM     81  N   UNL A   1      32.534  19.855  24.955  1.00  0.00    -0.264 NA
ATOM     82  C   UNL A   1      32.668  21.509  23.216  1.00  0.00     0.035 A 
ATOM     83  C   UNL A   1      32.153  20.344  23.759  1.00  0.00     0.112 A 
BRANCH  80  84
ATOM     84  C   UNL A   1      33.962  23.569  23.401  1.00  0.00     0.254 C 
ATOM     85  O   UNL A   1      35.012  23.605  22.753  1.00  0.00    -0.269 OA
ATOM     86  N   UNL A   1      33.134  24.684  23.518  1.00  0.00    -0.339 N 
ATOM     87  C   UNL A   1      33.237  25.649  22.434  1.00  0.00     0.120 C 
ATOM     88  C   UNL A   1      32.014  24.861  24.448  1.00  0.00     0.120 C 
ATOM     89  C   UNL A   1      33.047  27.089  22.847  1.00  0.00     0.025 C 
ATOM     90  C   UNL A   1      31.818  26.326  24.869  1.00  0.00     0.025 C 
ATOM     91  C   UNL A   1      31.750  27.263  23.644  1.00  0.00    -0.003 C 
BRANCH  91  92
ATOM     92  C   UNL A   1      31.526  28.728  24.068  1.00  0.00     0.039 C 
BRANCH  92  93
ATOM     93  C   UNL A   1      30.173  29.281  23.669  1.00  0.00    -0.048 A 
ATOM     94  C   UNL A   1      29.207  28.438  23.097  1.00  0.00     0.004 A 
ATOM     95  C   UNL A   1      29.854  30.629  23.874  1.00  0.00     0.004 A 
ATOM     96  C   UNL A   1      27.950  28.926  22.747  1.00  0.00     0.000 A 
ATOM     97  C   UNL A   1      28.604  31.124  23.494  1.00  0.00     0.000 A 
ATOM     98  C   UNL A   1      27.654  30.270  22.935  1.00  0.00     0.000 A 
ENDBRANCH  92  93
ENDBRANCH  91  92
ENDBRANCH  80  84
ENDBRANCH  75  78
ENDBRANCH  73  74
ENDBRANCH   1  73
TORSDOF 14
ENDMDL
MODEL 3
REMARK VINA RESULT:     -13.4      0.568      7.217
REMARK SMILES O=C(NCCCCNC(=O)c1cnccc1C(=O)N1CCC(Cc2ccccc2)CC1)c1ccc(-c2c3nc(c(-c4c(F)c(F)c(F)c(F)c4F)c4ccc([nH]4)c(-c4c(F)c(F)c(F)c(F)c4F)c4nc(c(-c5c(F)c(F)c(F)c(F)c5F)c5ccc2[nH]5)C=C4)C=C3)cc1
REMARK SMILES IDX 6 1 5 2 4 3 3 4 1 5 2 6 32 8 33 9 94 10 34 11 93 12 35 13
REMARK SMILES IDX 36 14 37 15 87 16 38 17 92 18 86 19 88 20 39 21 91 22 85 23
REMARK SMILES IDX 84 24 40 26 72 27 52 28 71 29 53 30 56 31 70 32 89 33 54 34
REMARK SMILES IDX 55 35 69 37 90 38 57 39 41 40 42 41 50 42 43 43 44 44 48 45
REMARK SMILES IDX 51 46 45 47 46 48 49 49 47 50 73 51 74 52 82 53 75 54 76 55
REMARK SMILES IDX 80 56 83 57 77 58 78 59 81 60 79 61 58 62 59 63 67 64 60 65
REMARK SMILES IDX 61 66 65 67 68 68 62 69 63 70 66 71 64 72 7 73 8 74 9 75
REMARK SMILES IDX 10 77 11 78 12 79 16 80 13 81 15 82 14 83 17 84 18 85 19 86
REMARK SMILES IDX 20 87 31 88 21 89 30 90 22 91 23 92 24 93 25 94 29 95 26 96
REMARK SMILES IDX 28 97 27 98
REMARK H PARENT 3 7 88 25 56 36 8 76
REMARK Flexibility Score: inf
ROOT
ATOM      1  C   UNL A   1      36.861  20.324  24.997  1.00  0.00     0.023 C 
ENDROOT
BRANCH   1   2
ATOM      2  C   UNL A   1      38.157  19.505  24.960  1.00  0.00     0.023 C 
BRANCH   2   3
ATOM      3  C   UNL A   1      39.292  19.906  25.898  1.00  0.00     0.116 C 
BRANCH   3   4
ATOM      4  N   UNL A   1      40.427  19.002  25.879  1.00  0.00    -0.352 N 
ATOM      5  O   UNL A   1      42.600  18.394  25.883  1.00  0.00    -0.269 OA
ATOM      6  C   UNL A   1      41.769  19.275  26.045  1.00  0.00     0.251 C 
ATOM      7  H   UNL A   1      40.208  18.055  25.725  1.00  0.00     0.163 HD
BRANCH   6   8
ATOM      8  C   UNL A   1      42.219  20.646  26.388  1.00  0.00     0.039 A 
ATOM      9  C   UNL A   1      42.347  21.057  27.716  1.00  0.00     0.014 A 
ATOM     10  C   UNL A   1      42.546  21.528  25.350  1.00  0.00     0.014 A 
ATOM     11  C   UNL A   1      42.685  22.379  28.002  1.00  0.00     0.010 A 
ATOM     12  C   UNL A   1      42.936  22.840  25.640  1.00  0.00     0.010 A 
ATOM     13  C   UNL A   1      42.982  23.282  26.969  1.00  0.00    -0.014 A 
BRANCH  13  14
ATOM     14  C   UNL A   1      43.373  24.672  27.309  1.00  0.00     0.031 A 
ATOM     15  C   UNL A   1      44.756  25.173  27.022  1.00  0.00     0.074 A 
ATOM     16  C   UNL A   1      42.457  25.498  27.846  1.00  0.00     0.049 A 
ATOM     17  N   UNL A   1      45.258  26.367  27.215  1.00  0.00    -0.248 NA
ATOM     18  C   UNL A   1      45.702  24.205  26.452  1.00  0.00     0.031 C 
ATOM     19  C   UNL A   1      41.091  25.111  28.185  1.00  0.00     0.029 A 
ATOM     20  N   UNL A   1      42.523  26.825  28.184  1.00  0.00    -0.354 N 
ATOM     21  C   UNL A   1      46.583  26.289  26.812  1.00  0.00     0.074 A 
ATOM     22  C   UNL A   1      46.810  24.929  26.369  1.00  0.00     0.031 C 
ATOM     23  C   UNL A   1      40.428  26.187  28.637  1.00  0.00     0.029 A 
ATOM     24  C   UNL A   1      41.341  27.325  28.674  1.00  0.00     0.049 A 
ATOM     25  H   UNL A   1      43.339  27.368  28.085  1.00  0.00     0.167 HD
ATOM     26  C   UNL A   1      47.522  27.265  26.818  1.00  0.00     0.037 A 
ATOM     27  C   UNL A   1      41.033  28.558  29.119  1.00  0.00     0.037 A 
ATOM     28  C   UNL A   1      47.291  28.616  27.264  1.00  0.00     0.049 A 
ATOM     29  C   UNL A   1      42.096  29.622  29.117  1.00  0.00     0.074 A 
ATOM     30  C   UNL A   1      48.175  29.680  27.290  1.00  0.00     0.029 A 
ATOM     31  N   UNL A   1      46.088  29.085  27.775  1.00  0.00    -0.354 N 
ATOM     32  N   UNL A   1      43.337  29.547  28.703  1.00  0.00    -0.248 NA
ATOM     33  C   UNL A   1      41.721  30.934  29.661  1.00  0.00     0.031 C 
ATOM     34  C   UNL A   1      47.522  30.779  27.860  1.00  0.00     0.029 A 
ATOM     35  C   UNL A   1      46.216  30.414  28.146  1.00  0.00     0.049 A 
ATOM     36  H   UNL A   1      45.266  28.550  27.861  1.00  0.00     0.167 HD
ATOM     37  C   UNL A   1      43.894  30.795  28.938  1.00  0.00     0.074 A 
ATOM     38  C   UNL A   1      42.845  31.621  29.502  1.00  0.00     0.031 C 
ATOM     39  C   UNL A   1      45.164  31.216  28.718  1.00  0.00     0.037 A 
BRANCH  26  40
ATOM     40  C   UNL A   1      48.905  26.890  26.372  1.00  0.00     0.064 A 
ATOM     41  C   UNL A   1      49.320  27.044  25.041  1.00  0.00     0.173 A 
ATOM     42  C   UNL A   1      49.830  26.378  27.294  1.00  0.00     0.173 A 
ATOM     43  F   UNL A   1      48.468  27.517  24.118  1.00  0.00    -0.203 F 
ATOM     44  C   UNL A   1      50.601  26.670  24.644  1.00  0.00     0.198 A 
ATOM     45  C   UNL A   1      51.118  26.028  26.898  1.00  0.00     0.198 A 
ATOM     46  F   UNL A   1      49.485  26.216  28.580  1.00  0.00    -0.203 F 
ATOM     47  F   UNL A   1      50.960  26.778  23.357  1.00  0.00    -0.200 F 
ATOM     48  C   UNL A   1      51.500  26.166  25.572  1.00  0.00     0.200 A 
ATOM     49  F   UNL A   1      51.988  25.550  27.799  1.00  0.00    -0.200 F 
ATOM     50  F   UNL A   1      52.731  25.803  25.187  1.00  0.00    -0.200 F 
ENDBRANCH  26  40
BRANCH  27  51
ATOM     51  C   UNL A   1      39.662  28.838  29.618  1.00  0.00     0.064 A 
ATOM     52  C   UNL A   1      39.312  28.588  30.951  1.00  0.00     0.173 A 
ATOM     53  C   UNL A   1      38.681  29.383  28.776  1.00  0.00     0.173 A 
ATOM     54  F   UNL A   1      40.207  28.046  31.789  1.00  0.00    -0.203 F 
ATOM     55  C   UNL A   1      38.030  28.870  31.422  1.00  0.00     0.198 A 
ATOM     56  C   UNL A   1      37.411  29.692  29.255  1.00  0.00     0.198 A 
ATOM     57  F   UNL A   1      38.968  29.642  27.492  1.00  0.00    -0.203 F 
ATOM     58  F   UNL A   1      37.710  28.591  32.693  1.00  0.00    -0.200 F 
ATOM     59  C   UNL A   1      37.084  29.430  30.576  1.00  0.00     0.200 A 
ATOM     60  F   UNL A   1      36.506  30.249  28.438  1.00  0.00    -0.200 F 
ATOM     61  F   UNL A   1      35.857  29.714  31.034  1.00  0.00    -0.200 F 
ENDBRANCH  27  51
BRANCH  39  62
ATOM     62  C   UNL A   1      45.490  32.632  29.094  1.00  0.00     0.064 A 
ATOM     63  C   UNL A   1      46.057  32.943  30.337  1.00  0.00     0.173 A 
ATOM     64  C   UNL A   1      45.280  33.678  28.184  1.00  0.00     0.173 A 
ATOM     65  F   UNL A   1      46.263  31.979  31.247  1.00  0.00    -0.203 F 
ATOM     66  C   UNL A   1      46.388  34.257  30.664  1.00  0.00     0.198 A 
ATOM     67  C   UNL A   1      45.633  34.986  28.504  1.00  0.00     0.198 A 
ATOM     68  F   UNL A   1      44.743  33.430  26.980  1.00  0.00    -0.203 F 
ATOM     69  F   UNL A   1      46.895  34.538  31.871  1.00  0.00    -0.200 F 
ATOM     70  C   UNL A   1      46.183  35.274  29.744  1.00  0.00     0.200 A 
ATOM     71  F   UNL A   1      45.444  35.967  27.611  1.00  0.00    -0.200 F 
ATOM     72  F   UNL A   1      46.510  36.536  30.055  1.00  0.00    -0.200 F 
ENDBRANCH  39  62
ENDBRANCH  13  14
ENDBRANCH   6   8
ENDBRANCH   3   4
ENDBRANCH   2   3
ENDBRANCH   1   2
BRANCH   1  73
ATOM     73  C   UNL A   1      36.981  21.848  25.044  1.00  0.00     0.116 C 
BRANCH  73  74
ATOM     74  N   UNL A   1      36.168  22.466  26.075  1.00  0.00    -0.352 N 
ATOM     75  C   UNL A   1      34.806  22.465  26.231  1.00  0.00     0.253 C 
ATOM     76  H   UNL A   1      36.669  22.959  26.765  1.00  0.00     0.163 HD
ATOM     77  O   UNL A   1      34.301  23.083  27.165  1.00  0.00    -0.269 OA
BRANCH  75  78
ATOM     78  C   UNL A   1      33.912  21.790  25.289  1.00  0.00     0.070 A 
ATOM     79  C   UNL A   1      33.375  20.586  25.735  1.00  0.00     0.125 A 
ATOM     80  C   UNL A   1      33.573  22.216  24.007  1.00  0.00     0.055 A 
ATOM     81  N   UNL A   1      32.486  19.840  25.036  1.00  0.00    -0.264 NA
ATOM     82  C   UNL A   1      32.644  21.462  23.270  1.00  0.00     0.035 A 
ATOM     83  C   UNL A   1      32.128  20.302  23.823  1.00  0.00     0.112 A 
BRANCH  80  84
ATOM     84  C   UNL A   1      33.912  23.539  23.445  1.00  0.00     0.254 C 
ATOM     85  O   UNL A   1      34.962  23.567  22.797  1.00  0.00    -0.269 OA
ATOM     86  N   UNL A   1      33.084  24.655  23.548  1.00  0.00    -0.339 N 
ATOM     87  C   UNL A   1      33.186  25.606  22.453  1.00  0.00     0.120 C 
ATOM     88  C   UNL A   1      31.964  24.843  24.476  1.00  0.00     0.120 C 
ATOM     89  C   UNL A   1      32.994  27.051  22.847  1.00  0.00     0.025 C 
ATOM     90  C   UNL A   1      31.767  26.313  24.879  1.00  0.00     0.025 C 
ATOM     91  C   UNL A   1      31.698  27.235  23.642  1.00  0.00    -0.003 C 
BRANCH  91  92
ATOM     92  C   UNL A   1      31.473  28.704  24.047  1.00  0.00     0.039 C 
BRANCH  92  93
ATOM     93  C   UNL A   1      30.110  29.244  23.667  1.00  0.00    -0.048 A 
ATOM     94  C   UNL A   1      29.139  28.386  23.124  1.00  0.00     0.004 A 
ATOM     95  C   UNL A   1      29.785  30.592  23.860  1.00  0.00     0.004 A 
ATOM     96  C   UNL A   1      27.872  28.862  22.791  1.00  0.00     0.000 A 
ATOM     97  C   UNL A   1      28.525  31.074  23.497  1.00  0.00     0.000 A 
ATOM     98  C   UNL A   1      27.571  30.206  22.967  1.00  0.00     0.000 A 
ENDBRANCH  92  93
ENDBRANCH  91  92
ENDBRANCH  80  84
ENDBRANCH  75  78
ENDBRANCH  73  74
ENDBRANCH   1  73
TORSDOF 14
ENDMDL
