MODEL 1
REMARK VINA RESULT:     -14.2      0.000      0.000
REMARK SMILES O=C(NCCCCNC(=O)c1[nH]ncc1C[N@H+]1CCC[C@H](C(=O)c2ccc3ccccc3c2)C1)c1ccc(-c2c3nc(c(-c4c(F)c(F)c(F)c(F)c4F)c4ccc([nH]4)c(-c4c(F)c(F)c(F)c(F)c4F)c4nc(c(-c5c(F)c(F)c(F)c(F)c5F)c5ccc2[nH]5)C=C4)C=C3)cc1
REMARK SMILES IDX 6 1 5 2 4 3 3 4 1 5 2 6 35 8 36 9 97 10 37 11 96 12 38 13
REMARK SMILES IDX 39 14 40 15 90 16 41 17 95 18 89 19 91 20 42 21 94 22 88 23
REMARK SMILES IDX 87 24 43 26 75 27 55 28 74 29 56 30 59 31 73 32 92 33 57 34
REMARK SMILES IDX 58 35 72 37 93 38 60 39 44 40 45 41 53 42 46 43 47 44 51 45
REMARK SMILES IDX 54 46 48 47 49 48 52 49 50 50 76 51 77 52 85 53 78 54 79 55
REMARK SMILES IDX 83 56 86 57 80 58 81 59 84 60 82 61 61 62 62 63 70 64 63 65
REMARK SMILES IDX 64 66 68 67 71 68 65 69 66 70 69 71 67 72 7 73 8 74 9 75
REMARK SMILES IDX 10 77 11 78 12 79 15 80 13 81 14 83 16 84 17 85 18 86 34 87
REMARK SMILES IDX 19 89 21 90 20 91 22 92 23 93 24 94 25 95 33 96 26 97 32 98
REMARK SMILES IDX 27 99 31 100 28 101 30 102 29 103
REMARK H PARENT 3 7 91 25 59 36 8 76 12 82 17 88
REMARK Flexibility Score: inf
ROOT
ATOM      1  C   UNL A   1      31.463  30.920  25.739  1.00  0.00     0.023 C 
ENDROOT
BRANCH   1   2
ATOM      2  C   UNL A   1      31.344  31.949  26.863  1.00  0.00     0.023 C 
BRANCH   2   3
ATOM      3  C   UNL A   1      32.602  32.755  27.166  1.00  0.00     0.116 C 
BRANCH   3   4
ATOM      4  N   UNL A   1      32.322  34.111  27.613  1.00  0.00    -0.352 N 
ATOM      5  O   UNL A   1      32.514  35.977  28.863  1.00  0.00    -0.269 OA
ATOM      6  C   UNL A   1      32.962  34.875  28.559  1.00  0.00     0.251 C 
ATOM      7  H   UNL A   1      31.557  34.546  27.172  1.00  0.00     0.163 HD
BRANCH   6   8
ATOM      8  C   UNL A   1      34.173  34.365  29.238  1.00  0.00     0.039 A 
ATOM      9  C   UNL A   1      35.443  34.583  28.704  1.00  0.00     0.014 A 
ATOM     10  C   UNL A   1      34.027  33.657  30.435  1.00  0.00     0.014 A 
ATOM     11  C   UNL A   1      36.550  33.967  29.283  1.00  0.00     0.010 A 
ATOM     12  C   UNL A   1      35.148  33.095  31.054  1.00  0.00     0.010 A 
ATOM     13  C   UNL A   1      36.413  33.207  30.457  1.00  0.00    -0.014 A 
BRANCH  13  14
ATOM     14  C   UNL A   1      37.610  32.551  31.039  1.00  0.00     0.031 A 
ATOM     15  C   UNL A   1      38.065  32.869  32.435  1.00  0.00     0.074 A 
ATOM     16  C   UNL A   1      38.254  31.613  30.320  1.00  0.00     0.049 A 
ATOM     17  N   UNL A   1      39.031  32.324  33.133  1.00  0.00    -0.248 NA
ATOM     18  C   UNL A   1      37.350  33.943  33.142  1.00  0.00     0.031 C 
ATOM     19  C   UNL A   1      37.920  31.227  28.949  1.00  0.00     0.029 A 
ATOM     20  N   UNL A   1      39.299  30.789  30.654  1.00  0.00    -0.354 N 
ATOM     21  C   UNL A   1      39.057  33.001  34.343  1.00  0.00     0.074 A 
ATOM     22  C   UNL A   1      38.019  34.007  34.287  1.00  0.00     0.031 C 
ATOM     23  C   UNL A   1      38.700  30.200  28.580  1.00  0.00     0.029 A 
ATOM     24  C   UNL A   1      39.609  29.877  29.676  1.00  0.00     0.049 A 
ATOM     25  H   UNL A   1      39.780  30.846  31.512  1.00  0.00     0.167 HD
ATOM     26  C   UNL A   1      39.868  32.798  35.409  1.00  0.00     0.037 A 
ATOM     27  C   UNL A   1      40.512  28.881  29.670  1.00  0.00     0.037 A 
ATOM     28  C   UNL A   1      40.874  31.772  35.488  1.00  0.00     0.049 A 
ATOM     29  C   UNL A   1      41.375  28.655  30.876  1.00  0.00     0.074 A 
ATOM     30  C   UNL A   1      41.709  31.459  36.548  1.00  0.00     0.029 A 
ATOM     31  N   UNL A   1      41.178  30.886  34.465  1.00  0.00    -0.354 N 
ATOM     32  N   UNL A   1      41.368  29.285  32.024  1.00  0.00    -0.248 NA
ATOM     33  C   UNL A   1      42.375  27.583  30.781  1.00  0.00     0.031 C 
ATOM     34  C   UNL A   1      42.533  30.396  36.157  1.00  0.00     0.029 A 
ATOM     35  C   UNL A   1      42.195  30.035  34.864  1.00  0.00     0.049 A 
ATOM     36  H   UNL A   1      40.736  30.866  33.586  1.00  0.00     0.167 HD
ATOM     37  C   UNL A   1      42.358  28.688  32.789  1.00  0.00     0.074 A 
ATOM     38  C   UNL A   1      42.933  27.631  31.983  1.00  0.00     0.031 C 
ATOM     39  C   UNL A   1      42.758  28.994  34.047  1.00  0.00     0.037 A 
BRANCH  26  40
ATOM     40  C   UNL A   1      39.709  33.713  36.584  1.00  0.00     0.064 A 
ATOM     41  C   UNL A   1      40.348  34.959  36.634  1.00  0.00     0.173 A 
ATOM     42  C   UNL A   1      38.871  33.355  37.651  1.00  0.00     0.173 A 
ATOM     43  F   UNL A   1      41.169  35.336  35.643  1.00  0.00    -0.203 F 
ATOM     44  C   UNL A   1      40.163  35.812  37.719  1.00  0.00     0.198 A 
ATOM     45  C   UNL A   1      38.676  34.218  38.726  1.00  0.00     0.198 A 
ATOM     46  F   UNL A   1      38.238  32.174  37.646  1.00  0.00    -0.203 F 
ATOM     47  F   UNL A   1      40.804  36.989  37.761  1.00  0.00    -0.200 F 
ATOM     48  C   UNL A   1      39.324  35.444  38.760  1.00  0.00     0.200 A 
ATOM     49  F   UNL A   1      37.863  33.862  39.730  1.00  0.00    -0.200 F 
ATOM     50  F   UNL A   1      39.145  36.268  39.802  1.00  0.00    -0.200 F 
ENDBRANCH  26  40
BRANCH  27  51
ATOM     51  C   UNL A   1      40.613  27.997  28.484  1.00  0.00     0.064 A 
ATOM     52  C   UNL A   1      41.408  28.360  27.390  1.00  0.00     0.173 A 
ATOM     53  C   UNL A   1      39.947  26.765  28.436  1.00  0.00     0.173 A 
ATOM     54  F   UNL A   1      42.048  29.538  27.389  1.00  0.00    -0.203 F 
ATOM     55  C   UNL A   1      41.534  27.520  26.287  1.00  0.00     0.198 A 
ATOM     56  C   UNL A   1      40.088  25.918  27.340  1.00  0.00     0.198 A 
ATOM     57  F   UNL A   1      39.178  26.377  29.464  1.00  0.00    -0.203 F 
ATOM     58  F   UNL A   1      42.287  27.896  25.244  1.00  0.00    -0.200 F 
ATOM     59  C   UNL A   1      40.880  26.298  26.265  1.00  0.00     0.200 A 
ATOM     60  F   UNL A   1      39.462  24.734  27.326  1.00  0.00    -0.200 F 
ATOM     61  F   UNL A   1      41.009  25.485  25.208  1.00  0.00    -0.200 F 
ENDBRANCH  27  51
BRANCH  39  62
ATOM     62  C   UNL A   1      43.871  28.175  34.620  1.00  0.00     0.064 A 
ATOM     63  C   UNL A   1      43.612  26.978  35.302  1.00  0.00     0.173 A 
ATOM     64  C   UNL A   1      45.206  28.577  34.467  1.00  0.00     0.173 A 
ATOM     65  F   UNL A   1      42.349  26.566  35.484  1.00  0.00    -0.203 F 
ATOM     66  C   UNL A   1      44.652  26.216  35.825  1.00  0.00     0.198 A 
ATOM     67  C   UNL A   1      46.245  27.805  34.979  1.00  0.00     0.198 A 
ATOM     68  F   UNL A   1      45.499  29.715  33.822  1.00  0.00    -0.203 F 
ATOM     69  F   UNL A   1      44.383  25.091  36.501  1.00  0.00    -0.200 F 
ATOM     70  C   UNL A   1      45.967  26.628  35.662  1.00  0.00     0.200 A 
ATOM     71  F   UNL A   1      47.514  28.202  34.819  1.00  0.00    -0.200 F 
ATOM     72  F   UNL A   1      46.968  25.895  36.169  1.00  0.00    -0.200 F 
ENDBRANCH  39  62
ENDBRANCH  13  14
ENDBRANCH   6   8
ENDBRANCH   3   4
ENDBRANCH   2   3
ENDBRANCH   1   2
BRANCH   1  73
ATOM     73  C   UNL A   1      32.419  29.758  26.004  1.00  0.00     0.116 C 
BRANCH  73  74
ATOM     74  N   UNL A   1      33.424  29.605  24.966  1.00  0.00    -0.351 N 
ATOM     75  C   UNL A   1      33.308  29.026  23.731  1.00  0.00     0.269 C 
ATOM     76  H   UNL A   1      34.314  29.968  25.181  1.00  0.00     0.163 HD
ATOM     77  O   UNL A   1      34.339  28.825  23.081  1.00  0.00    -0.268 OA
BRANCH  75  78
ATOM     78  C   UNL A   1      32.018  28.616  23.265  1.00  0.00     0.131 A 
ATOM     79  N   UNL A   1      31.289  29.383  22.400  1.00  0.00    -0.272 N 
ATOM     80  C   UNL A   1      31.207  27.527  23.571  1.00  0.00     0.057 A 
ATOM     81  N   UNL A   1      30.161  28.795  21.975  1.00  0.00    -0.183 NA
ATOM     82  H   UNL A   1      31.567  30.283  22.114  1.00  0.00     0.190 HD
ATOM     83  C   UNL A   1      30.106  27.673  22.694  1.00  0.00     0.145 A 
BRANCH  80  84
ATOM     84  C   UNL A   1      31.457  26.450  24.575  1.00  0.00     0.303 C 
BRANCH  84  85
ATOM     85  N   UNL A   1      32.442  25.445  24.167  1.00  0.00    -0.330 N 
ATOM     86  C   UNL A   1      32.515  25.213  22.724  1.00  0.00     0.262 C 
ATOM     87  C   UNL A   1      33.761  25.610  24.773  1.00  0.00     0.274 C 
ATOM     88  H   UNL A   1      32.066  24.583  24.562  1.00  0.00     0.348 HD
ATOM     89  C   UNL A   1      33.287  23.931  22.426  1.00  0.00     0.062 C 
ATOM     90  C   UNL A   1      34.637  24.369  24.571  1.00  0.00     0.116 C 
ATOM     91  C   UNL A   1      34.648  23.877  23.120  1.00  0.00     0.023 C 
BRANCH  90  92
ATOM     92  C   UNL A   1      34.366  23.286  25.619  1.00  0.00     0.171 C 
ATOM     93  O   UNL A   1      33.958  23.560  26.746  1.00  0.00    -0.294 OA
BRANCH  92  94
ATOM     94  C   UNL A   1      34.542  21.859  25.283  1.00  0.00     0.019 A 
ATOM     95  C   UNL A   1      35.799  21.271  25.378  1.00  0.00     0.012 A 
ATOM     96  C   UNL A   1      33.421  21.097  24.940  1.00  0.00     0.020 A 
ATOM     97  C   UNL A   1      35.956  19.926  25.040  1.00  0.00     0.009 A 
ATOM     98  C   UNL A   1      33.566  19.739  24.611  1.00  0.00    -0.018 A 
ATOM     99  C   UNL A   1      34.853  19.151  24.645  1.00  0.00    -0.018 A 
ATOM    100  C   UNL A   1      32.461  18.950  24.249  1.00  0.00     0.009 A 
ATOM    101  C   UNL A   1      35.000  17.799  24.296  1.00  0.00     0.009 A 
ATOM    102  C   UNL A   1      32.625  17.604  23.911  1.00  0.00     0.001 A 
ATOM    103  C   UNL A   1      33.892  17.032  23.931  1.00  0.00     0.001 A 
ENDBRANCH  92  94
ENDBRANCH  90  92
ENDBRANCH  84  85
ENDBRANCH  80  84
ENDBRANCH  75  78
ENDBRANCH  73  74
ENDBRANCH   1  73
TORSDOF 15
ENDMDL
MODEL 2
REMARK VINA RESULT:     -14.0      0.589      7.089
REMARK SMILES O=C(NCCCCNC(=O)c1[nH]ncc1C[N@H+]1CCC[C@H](C(=O)c2ccc3ccccc3c2)C1)c1ccc(-c2c3nc(c(-c4c(F)c(F)c(F)c(F)c4F)c4ccc([nH]4)c(-c4c(F)c(F)c(F)c(F)c4F)c4nc(c(-c5c(F)c(F)c(F)c(F)c5F)c5ccc2[nH]5)C=C4)C=C3)cc1
REMARK SMILES IDX 6 1 5 2 4 3 3 4 1 5 2 6 35 8 36 9 97 10 37 11 96 12 38 13
REMARK SMILES IDX 39 14 40 15 90 16 41 17 95 18 89 19 91 20 42 21 94 22 88 23
REMARK SMILES IDX 87 24 43 26 75 27 55 28 74 29 56 30 59 31 73 32 92 33 57 34
REMARK SMILES IDX 58 35 72 37 93 38 60 39 44 40 45 41 53 42 46 43 47 44 51 45
REMARK SMILES IDX 54 46 48 47 49 48 52 49 50 50 76 51 77 52 85 53 78 54 79 55
REMARK SMILES IDX 83 56 86 57 80 58 81 59 84 60 82 61 61 62 62 63 70 64 63 65
REMARK SMILES IDX 64 66 68 67 71 68 65 69 66 70 69 71 67 72 7 73 8 74 9 75
REMARK SMILES IDX 10 77 11 78 12 79 15 80 13 81 14 83 16 84 17 85 18 86 34 87
REMARK SMILES IDX 19 89 21 90 20 91 22 92 23 93 24 94 25 95 33 96 26 97 32 98
REMARK SMILES IDX 27 99 31 100 28 101 30 102 29 103
REMARK H PARENT 3 7 91 25 59 36 8 76 12 82 17 88
REMARK Flexibility Score: inf
ROOT
ATOM      1  C   UNL A   1      31.410  31.172  25.702  1.00  0.00     0.023 C 
ENDROOT
BRANCH   1   2
ATOM      2  C   UNL A   1      31.375  32.126  26.895  1.00  0.00     0.023 C 
BRANCH   2   3
ATOM      3  C   UNL A   1      32.658  32.907  27.163  1.00  0.00     0.116 C 
BRANCH   3   4
ATOM      4  N   UNL A   1      32.417  34.273  27.602  1.00  0.00    -0.352 N 
ATOM      5  O   UNL A   1      32.606  36.115  28.887  1.00  0.00    -0.269 OA
ATOM      6  C   UNL A   1      33.016  34.992  28.609  1.00  0.00     0.251 C 
ATOM      7  H   UNL A   1      31.720  34.755  27.101  1.00  0.00     0.163 HD
BRANCH   6   8
ATOM      8  C   UNL A   1      34.132  34.407  29.383  1.00  0.00     0.039 A 
ATOM      9  C   UNL A   1      35.450  34.515  28.939  1.00  0.00     0.014 A 
ATOM     10  C   UNL A   1      33.847  33.740  30.579  1.00  0.00     0.014 A 
ATOM     11  C   UNL A   1      36.462  33.830  29.608  1.00  0.00     0.010 A 
ATOM     12  C   UNL A   1      34.874  33.109  31.288  1.00  0.00     0.010 A 
ATOM     13  C   UNL A   1      36.183  33.111  30.782  1.00  0.00    -0.014 A 
BRANCH  13  14
ATOM     14  C   UNL A   1      37.281  32.379  31.461  1.00  0.00     0.031 A 
ATOM     15  C   UNL A   1      38.062  31.316  30.742  1.00  0.00     0.074 A 
ATOM     16  C   UNL A   1      37.615  32.722  32.719  1.00  0.00     0.049 A 
ATOM     17  N   UNL A   1      39.110  30.644  31.150  1.00  0.00    -0.248 NA
ATOM     18  C   UNL A   1      37.608  30.952  29.391  1.00  0.00     0.031 C 
ATOM     19  C   UNL A   1      36.922  33.726  33.529  1.00  0.00     0.029 A 
ATOM     20  N   UNL A   1      38.640  32.294  33.523  1.00  0.00    -0.354 N 
ATOM     21  C   UNL A   1      39.423  29.764  30.124  1.00  0.00     0.074 A 
ATOM     22  C   UNL A   1      38.450  29.976  29.074  1.00  0.00     0.031 C 
ATOM     23  C   UNL A   1      37.579  33.882  34.688  1.00  0.00     0.029 A 
ATOM     24  C   UNL A   1      38.717  32.968  34.715  1.00  0.00     0.049 A 
ATOM     25  H   UNL A   1      39.260  31.572  33.269  1.00  0.00     0.167 HD
ATOM     26  C   UNL A   1      40.435  28.866  30.059  1.00  0.00     0.037 A 
ATOM     27  C   UNL A   1      39.614  32.873  35.713  1.00  0.00     0.037 A 
ATOM     28  C   UNL A   1      41.431  28.679  31.081  1.00  0.00     0.049 A 
ATOM     29  C   UNL A   1      40.745  31.894  35.601  1.00  0.00     0.074 A 
ATOM     30  C   UNL A   1      42.523  27.828  31.079  1.00  0.00     0.029 A 
ATOM     31  N   UNL A   1      41.458  29.362  32.288  1.00  0.00    -0.354 N 
ATOM     32  N   UNL A   1      41.046  31.091  34.612  1.00  0.00    -0.248 NA
ATOM     33  C   UNL A   1      41.659  31.807  36.749  1.00  0.00     0.031 C 
ATOM     34  C   UNL A   1      43.200  27.981  32.295  1.00  0.00     0.029 A 
ATOM     35  C   UNL A   1      42.541  28.942  33.043  1.00  0.00     0.049 A 
ATOM     36  H   UNL A   1      40.805  30.043  32.566  1.00  0.00     0.167 HD
ATOM     37  C   UNL A   1      42.181  30.403  35.014  1.00  0.00     0.074 A 
ATOM     38  C   UNL A   1      42.529  30.898  36.329  1.00  0.00     0.031 C 
ATOM     39  C   UNL A   1      42.868  29.442  34.352  1.00  0.00     0.037 A 
BRANCH  26  40
ATOM     40  C   UNL A   1      40.516  28.002  28.838  1.00  0.00     0.064 A 
ATOM     41  C   UNL A   1      39.810  26.795  28.747  1.00  0.00     0.173 A 
ATOM     42  C   UNL A   1      41.275  28.411  27.731  1.00  0.00     0.173 A 
ATOM     43  F   UNL A   1      39.083  26.358  29.786  1.00  0.00    -0.203 F 
ATOM     44  C   UNL A   1      39.869  26.020  27.592  1.00  0.00     0.198 A 
ATOM     45  C   UNL A   1      41.319  27.640  26.572  1.00  0.00     0.198 A 
ATOM     46  F   UNL A   1      41.966  29.558  27.773  1.00  0.00    -0.203 F 
ATOM     47  F   UNL A   1      39.208  24.856  27.533  1.00  0.00    -0.200 F 
ATOM     48  C   UNL A   1      40.618  26.445  26.505  1.00  0.00     0.200 A 
ATOM     49  F   UNL A   1      42.040  28.054  25.521  1.00  0.00    -0.200 F 
ATOM     50  F   UNL A   1      40.672  25.699  25.393  1.00  0.00    -0.200 F 
ENDBRANCH  26  40
BRANCH  27  51
ATOM     51  C   UNL A   1      39.492  33.767  36.889  1.00  0.00     0.064 A 
ATOM     52  C   UNL A   1      40.062  35.046  36.873  1.00  0.00     0.173 A 
ATOM     53  C   UNL A   1      38.780  33.376  38.031  1.00  0.00     0.173 A 
ATOM     54  F   UNL A   1      40.766  35.452  35.807  1.00  0.00    -0.203 F 
ATOM     55  C   UNL A   1      39.925  35.904  37.961  1.00  0.00     0.198 A 
ATOM     56  C   UNL A   1      38.628  34.241  39.110  1.00  0.00     0.198 A 
ATOM     57  F   UNL A   1      38.216  32.161  38.086  1.00  0.00    -0.203 F 
ATOM     58  F   UNL A   1      40.493  37.118  37.930  1.00  0.00    -0.200 F 
ATOM     59  C   UNL A   1      39.202  35.504  39.075  1.00  0.00     0.200 A 
ATOM     60  F   UNL A   1      37.922  33.856  40.181  1.00  0.00    -0.200 F 
ATOM     61  F   UNL A   1      39.061  36.335  40.118  1.00  0.00    -0.200 F 
ENDBRANCH  27  51
BRANCH  39  62
ATOM     62  C   UNL A   1      44.061  28.865  35.046  1.00  0.00     0.064 A 
ATOM     63  C   UNL A   1      45.339  29.415  34.867  1.00  0.00     0.173 A 
ATOM     64  C   UNL A   1      43.925  27.772  35.913  1.00  0.00     0.173 A 
ATOM     65  F   UNL A   1      45.515  30.451  34.034  1.00  0.00    -0.203 F 
ATOM     66  C   UNL A   1      46.443  28.880  35.522  1.00  0.00     0.198 A 
ATOM     67  C   UNL A   1      45.030  27.248  36.578  1.00  0.00     0.198 A 
ATOM     68  F   UNL A   1      42.721  27.215  36.114  1.00  0.00    -0.203 F 
ATOM     69  F   UNL A   1      47.661  29.399  35.314  1.00  0.00    -0.200 F 
ATOM     70  C   UNL A   1      46.288  27.799  36.379  1.00  0.00     0.200 A 
ATOM     71  F   UNL A   1      44.879  26.206  37.407  1.00  0.00    -0.200 F 
ATOM     72  F   UNL A   1      47.354  27.282  37.007  1.00  0.00    -0.200 F 
ENDBRANCH  39  62
ENDBRANCH  13  14
ENDBRANCH   6   8
ENDBRANCH   3   4
ENDBRANCH   2   3
ENDBRANCH   1   2
BRANCH   1  73
ATOM     73  C   UNL A   1      32.232  29.900  25.895  1.00  0.00     0.116 C 
BRANCH  73  74
ATOM     74  N   UNL A   1      33.225  29.704  24.852  1.00  0.00    -0.351 N 
ATOM     75  C   UNL A   1      33.072  29.159  23.606  1.00  0.00     0.269 C 
ATOM     76  H   UNL A   1      34.136  30.004  25.074  1.00  0.00     0.163 HD
ATOM     77  O   UNL A   1      34.087  28.905  22.950  1.00  0.00    -0.268 OA
BRANCH  75  78
ATOM     78  C   UNL A   1      31.758  28.842  23.134  1.00  0.00     0.131 A 
ATOM     79  N   UNL A   1      31.085  29.666  22.275  1.00  0.00    -0.272 N 
ATOM     80  C   UNL A   1      30.873  27.808  23.428  1.00  0.00     0.057 A 
ATOM     81  N   UNL A   1      29.920  29.161  21.842  1.00  0.00    -0.183 NA
ATOM     82  H   UNL A   1      31.425  30.548  21.998  1.00  0.00     0.190 HD
ATOM     83  C   UNL A   1      29.787  28.038  22.550  1.00  0.00     0.145 A 
BRANCH  80  84
ATOM     84  C   UNL A   1      31.047  26.707  24.421  1.00  0.00     0.303 C 
BRANCH  84  85
ATOM     85  N   UNL A   1      31.985  25.657  24.018  1.00  0.00    -0.330 N 
ATOM     86  C   UNL A   1      32.230  25.577  22.577  1.00  0.00     0.262 C 
ATOM     87  C   UNL A   1      33.220  25.618  24.797  1.00  0.00     0.274 C 
ATOM     88  H   UNL A   1      31.485  24.800  24.256  1.00  0.00     0.348 HD
ATOM     89  C   UNL A   1      32.919  24.263  22.222  1.00  0.00     0.062 C 
ATOM     90  C   UNL A   1      34.002  24.322  24.554  1.00  0.00     0.116 C 
ATOM     91  C   UNL A   1      34.165  23.994  23.066  1.00  0.00     0.023 C 
BRANCH  90  92
ATOM     92  C   UNL A   1      33.499  23.165  25.421  1.00  0.00     0.171 C 
ATOM     93  O   UNL A   1      32.701  23.341  26.340  1.00  0.00    -0.294 OA
BRANCH  92  94
ATOM     94  C   UNL A   1      33.925  21.779  25.141  1.00  0.00     0.019 A 
ATOM     95  C   UNL A   1      35.235  21.387  25.403  1.00  0.00     0.012 A 
ATOM     96  C   UNL A   1      32.983  20.856  24.679  1.00  0.00     0.020 A 
ATOM     97  C   UNL A   1      35.631  20.080  25.117  1.00  0.00     0.009 A 
ATOM     98  C   UNL A   1      33.367  19.535  24.400  1.00  0.00    -0.018 A 
ATOM     99  C   UNL A   1      34.714  19.146  24.606  1.00  0.00    -0.018 A 
ATOM    100  C   UNL A   1      32.447  18.587  23.922  1.00  0.00     0.009 A 
ATOM    101  C   UNL A   1      35.102  17.831  24.308  1.00  0.00     0.009 A 
ATOM    102  C   UNL A   1      32.849  17.281  23.637  1.00  0.00     0.001 A 
ATOM    103  C   UNL A   1      34.175  16.905  23.825  1.00  0.00     0.001 A 
ENDBRANCH  92  94
ENDBRANCH  90  92
ENDBRANCH  84  85
ENDBRANCH  80  84
ENDBRANCH  75  78
ENDBRANCH  73  74
ENDBRANCH   1  73
TORSDOF 15
ENDMDL
MODEL 3
REMARK VINA RESULT:     -14.0      5.198     11.012
REMARK SMILES O=C(NCCCCNC(=O)c1[nH]ncc1C[N@H+]1CCC[C@H](C(=O)c2ccc3ccccc3c2)C1)c1ccc(-c2c3nc(c(-c4c(F)c(F)c(F)c(F)c4F)c4ccc([nH]4)c(-c4c(F)c(F)c(F)c(F)c4F)c4nc(c(-c5c(F)c(F)c(F)c(F)c5F)c5ccc2[nH]5)C=C4)C=C3)cc1
REMARK SMILES IDX 6 1 5 2 4 3 3 4 1 5 2 6 35 8 36 9 97 10 37 11 96 12 38 13
REMARK SMILES IDX 39 14 40 15 90 16 41 17 95 18 89 19 91 20 42 21 94 22 88 23
REMARK SMILES IDX 87 24 43 26 75 27 55 28 74 29 56 30 59 31 73 32 92 33 57 34
REMARK SMILES IDX 58 35 72 37 93 38 60 39 44 40 45 41 53 42 46 43 47 44 51 45
REMARK SMILES IDX 54 46 48 47 49 48 52 49 50 50 76 51 77 52 85 53 78 54 79 55
REMARK SMILES IDX 83 56 86 57 80 58 81 59 84 60 82 61 61 62 62 63 70 64 63 65
REMARK SMILES IDX 64 66 68 67 71 68 65 69 66 70 69 71 67 72 7 73 8 74 9 75
REMARK SMILES IDX 10 77 11 78 12 79 15 80 13 81 14 83 16 84 17 85 18 86 34 87
REMARK SMILES IDX 19 89 21 90 20 91 22 92 23 93 24 94 25 95 33 96 26 97 32 98
REMARK SMILES IDX 27 99 31 100 28 101 30 102 29 103
REMARK H PARENT 3 7 91 25 59 36 8 76 12 82 17 88
REMARK Flexibility Score: inf
ROOT
ATOM      1  C   UNL A   1      36.694  20.229  25.102  1.00  0.00     0.023 C 
ENDROOT
BRANCH   1   2
ATOM      2  C   UNL A   1      38.147  19.942  24.726  1.00  0.00     0.023 C 
BRANCH   2   3
ATOM      3  C   UNL A   1      39.177  20.156  25.830  1.00  0.00     0.116 C 
BRANCH   3   4
ATOM      4  N   UNL A   1      40.206  19.129  25.862  1.00  0.00    -0.352 N 
ATOM      5  O   UNL A   1      42.282  18.260  25.991  1.00  0.00    -0.269 OA
ATOM      6  C   UNL A   1      41.556  19.243  26.097  1.00  0.00     0.251 C 
ATOM      7  H   UNL A   1      39.888  18.214  25.690  1.00  0.00     0.163 HD
BRANCH   6   8
ATOM      8  C   UNL A   1      42.145  20.554  26.446  1.00  0.00     0.039 A 
ATOM      9  C   UNL A   1      42.303  20.941  27.777  1.00  0.00     0.014 A 
ATOM     10  C   UNL A   1      42.550  21.408  25.415  1.00  0.00     0.014 A 
ATOM     11  C   UNL A   1      42.722  22.235  28.075  1.00  0.00     0.010 A 
ATOM     12  C   UNL A   1      43.036  22.685  25.717  1.00  0.00     0.010 A 
ATOM     13  C   UNL A   1      43.081  23.124  27.048  1.00  0.00    -0.014 A 
BRANCH  13  14
ATOM     14  C   UNL A   1      43.508  24.502  27.400  1.00  0.00     0.031 A 
ATOM     15  C   UNL A   1      44.880  25.000  27.044  1.00  0.00     0.074 A 
ATOM     16  C   UNL A   1      42.625  25.329  27.989  1.00  0.00     0.049 A 
ATOM     17  N   UNL A   1      45.386  26.200  27.192  1.00  0.00    -0.248 NA
ATOM     18  C   UNL A   1      45.813  24.028  26.453  1.00  0.00     0.031 C 
ATOM     19  C   UNL A   1      41.270  24.958  28.399  1.00  0.00     0.029 A 
ATOM     20  N   UNL A   1      42.720  26.658  28.313  1.00  0.00    -0.354 N 
ATOM     21  C   UNL A   1      46.695  26.121  26.739  1.00  0.00     0.074 A 
ATOM     22  C   UNL A   1      46.915  24.754  26.320  1.00  0.00     0.031 C 
ATOM     23  C   UNL A   1      40.638  26.048  28.860  1.00  0.00     0.029 A 
ATOM     24  C   UNL A   1      41.554  27.184  28.809  1.00  0.00     0.049 A 
ATOM     25  H   UNL A   1      43.546  27.183  28.201  1.00  0.00     0.167 HD
ATOM     26  C   UNL A   1      47.627  27.102  26.671  1.00  0.00     0.037 A 
ATOM     27  C   UNL A   1      41.250  28.444  29.166  1.00  0.00     0.037 A 
ATOM     28  C   UNL A   1      47.402  28.473  27.046  1.00  0.00     0.049 A 
ATOM     29  C   UNL A   1      42.290  29.519  29.049  1.00  0.00     0.074 A 
ATOM     30  C   UNL A   1      48.273  29.546  26.963  1.00  0.00     0.029 A 
ATOM     31  N   UNL A   1      46.215  28.961  27.571  1.00  0.00    -0.354 N 
ATOM     32  N   UNL A   1      43.514  29.435  28.591  1.00  0.00    -0.248 NA
ATOM     33  C   UNL A   1      41.906  30.862  29.504  1.00  0.00     0.031 C 
ATOM     34  C   UNL A   1      47.618  30.681  27.458  1.00  0.00     0.029 A 
ATOM     35  C   UNL A   1      46.335  30.317  27.829  1.00  0.00     0.049 A 
ATOM     36  H   UNL A   1      45.408  28.423  27.736  1.00  0.00     0.167 HD
ATOM     37  C   UNL A   1      44.047  30.710  28.701  1.00  0.00     0.074 A 
ATOM     38  C   UNL A   1      43.007  31.556  29.250  1.00  0.00     0.031 C 
ATOM     39  C   UNL A   1      45.291  31.139  28.380  1.00  0.00     0.037 A 
BRANCH  26  40
ATOM     40  C   UNL A   1      48.990  26.728  26.176  1.00  0.00     0.064 A 
ATOM     41  C   UNL A   1      49.365  26.928  24.840  1.00  0.00     0.173 A 
ATOM     42  C   UNL A   1      49.945  26.204  27.060  1.00  0.00     0.173 A 
ATOM     43  F   UNL A   1      48.481  27.413  23.957  1.00  0.00    -0.203 F 
ATOM     44  C   UNL A   1      50.648  26.605  24.404  1.00  0.00     0.198 A 
ATOM     45  C   UNL A   1      51.231  25.897  26.623  1.00  0.00     0.198 A 
ATOM     46  F   UNL A   1      49.632  25.996  28.347  1.00  0.00    -0.203 F 
ATOM     47  F   UNL A   1      50.979  26.779  23.117  1.00  0.00    -0.200 F 
ATOM     48  C   UNL A   1      51.580  26.095  25.295  1.00  0.00     0.200 A 
ATOM     49  F   UNL A   1      52.132  25.408  27.487  1.00  0.00    -0.200 F 
ATOM     50  F   UNL A   1      52.814  25.789  24.874  1.00  0.00    -0.200 F 
ENDBRANCH  26  40
BRANCH  27  51
ATOM     51  C   UNL A   1      39.879  28.758  29.632  1.00  0.00     0.064 A 
ATOM     52  C   UNL A   1      38.935  29.304  28.753  1.00  0.00     0.173 A 
ATOM     53  C   UNL A   1      39.476  28.488  30.947  1.00  0.00     0.173 A 
ATOM     54  F   UNL A   1      39.285  29.593  27.491  1.00  0.00    -0.203 F 
ATOM     55  C   UNL A   1      37.635  29.572  29.174  1.00  0.00     0.198 A 
ATOM     56  C   UNL A   1      38.171  28.739  31.362  1.00  0.00     0.198 A 
ATOM     57  F   UNL A   1      40.347  27.962  31.820  1.00  0.00    -0.203 F 
ATOM     58  F   UNL A   1      36.754  30.110  28.320  1.00  0.00    -0.200 F 
ATOM     59  C   UNL A   1      37.252  29.283  30.475  1.00  0.00     0.200 A 
ATOM     60  F   UNL A   1      37.802  28.450  32.616  1.00  0.00    -0.200 F 
ATOM     61  F   UNL A   1      35.998  29.531  30.876  1.00  0.00    -0.200 F 
ENDBRANCH  27  51
BRANCH  39  62
ATOM     62  C   UNL A   1      45.591  32.586  28.620  1.00  0.00     0.064 A 
ATOM     63  C   UNL A   1      46.157  33.017  29.828  1.00  0.00     0.173 A 
ATOM     64  C   UNL A   1      45.333  33.542  27.629  1.00  0.00     0.173 A 
ATOM     65  F   UNL A   1      46.405  32.136  30.808  1.00  0.00    -0.203 F 
ATOM     66  C   UNL A   1      46.441  34.362  30.041  1.00  0.00     0.198 A 
ATOM     67  C   UNL A   1      45.631  34.885  27.840  1.00  0.00     0.198 A 
ATOM     68  F   UNL A   1      44.792  33.174  26.458  1.00  0.00    -0.203 F 
ATOM     69  F   UNL A   1      46.953  34.759  31.215  1.00  0.00    -0.200 F 
ATOM     70  C   UNL A   1      46.181  35.295  29.048  1.00  0.00     0.200 A 
ATOM     71  F   UNL A   1      45.382  35.785  26.880  1.00  0.00    -0.200 F 
ATOM     72  F   UNL A   1      46.452  36.591  29.256  1.00  0.00    -0.200 F 
ENDBRANCH  39  62
ENDBRANCH  13  14
ENDBRANCH   6   8
ENDBRANCH   3   4
ENDBRANCH   2   3
ENDBRANCH   1   2
BRANCH   1  73
ATOM     73  C   UNL A   1      36.319  21.705  25.218  1.00  0.00     0.116 C 
BRANCH  73  74
ATOM     74  N   UNL A   1      35.542  21.999  26.410  1.00  0.00    -0.351 N 
ATOM     75  C   UNL A   1      34.253  21.650  26.708  1.00  0.00     0.269 C 
ATOM     76  H   UNL A   1      36.008  22.524  27.101  1.00  0.00     0.163 HD
ATOM     77  O   UNL A   1      33.719  22.170  27.693  1.00  0.00    -0.268 OA
BRANCH  75  78
ATOM     78  C   UNL A   1      33.549  20.752  25.842  1.00  0.00     0.131 A 
ATOM     79  N   UNL A   1      33.198  19.494  26.243  1.00  0.00    -0.272 N 
ATOM     80  C   UNL A   1      33.151  20.845  24.511  1.00  0.00     0.057 A 
ATOM     81  N   UNL A   1      32.443  18.834  25.352  1.00  0.00    -0.183 NA
ATOM     82  H   UNL A   1      33.473  19.108  27.106  1.00  0.00     0.190 HD
ATOM     83  C   UNL A   1      32.423  19.650  24.298  1.00  0.00     0.145 A 
BRANCH  80  84
ATOM     84  C   UNL A   1      33.415  21.956  23.550  1.00  0.00     0.303 C 
BRANCH  84  85
ATOM     85  N   UNL A   1      32.555  23.131  23.716  1.00  0.00    -0.330 N 
ATOM     86  C   UNL A   1      32.446  23.980  22.529  1.00  0.00     0.262 C 
ATOM     87  C   UNL A   1      31.256  22.848  24.322  1.00  0.00     0.274 C 
ATOM     88  H   UNL A   1      33.061  23.689  24.403  1.00  0.00     0.348 HD
ATOM     89  C   UNL A   1      31.838  25.332  22.891  1.00  0.00     0.062 C 
ATOM     90  C   UNL A   1      30.545  24.132  24.763  1.00  0.00     0.116 C 
ATOM     91  C   UNL A   1      30.531  25.210  23.674  1.00  0.00     0.023 C 
BRANCH  90  92
ATOM     92  C   UNL A   1      31.008  24.611  26.142  1.00  0.00     0.171 C 
ATOM     93  O   UNL A   1      30.696  24.020  27.174  1.00  0.00    -0.294 OA
BRANCH  92  94
ATOM     94  C   UNL A   1      31.897  25.784  26.267  1.00  0.00     0.019 A 
ATOM     95  C   UNL A   1      33.261  25.654  26.026  1.00  0.00     0.012 A 
ATOM     96  C   UNL A   1      31.340  27.032  26.561  1.00  0.00     0.020 A 
ATOM     97  C   UNL A   1      34.093  26.765  26.167  1.00  0.00     0.009 A 
ATOM     98  C   UNL A   1      32.166  28.160  26.692  1.00  0.00    -0.018 A 
ATOM     99  C   UNL A   1      33.563  28.021  26.509  1.00  0.00    -0.018 A 
ATOM    100  C   UNL A   1      31.638  29.425  26.999  1.00  0.00     0.009 A 
ATOM    101  C   UNL A   1      34.391  29.145  26.659  1.00  0.00     0.009 A 
ATOM    102  C   UNL A   1      32.475  30.534  27.138  1.00  0.00     0.001 A 
ATOM    103  C   UNL A   1      33.849  30.393  26.974  1.00  0.00     0.001 A 
ENDBRANCH  92  94
ENDBRANCH  90  92
ENDBRANCH  84  85
ENDBRANCH  80  84
ENDBRANCH  75  78
ENDBRANCH  73  74
ENDBRANCH   1  73
TORSDOF 15
ENDMDL
