MODEL 1
REMARK VINA RESULT:     -12.8      0.000      0.000
REMARK SMILES CC(C)CCc1cc2c(cc1Cl)C=C(C(=O)NCCCCNC(=O)c1ccc(-c3c4nc(c(-c5c(F)c(F)c(F)c(F)c5F)c5ccc([nH]5)c(-c5c(F)c(F)c(F)c(F)c5F)c5nc(c(-c6c(F)c(F)c(F)c(F)c6F)c6ccc3[nH]6)C=C5)C=C4)cc1)[C@@H](C(F)(F)F)O2
REMARK SMILES IDX 19 1 18 2 17 3 15 4 16 5 14 7 6 8 7 9 11 10 8 11 10 12 12 13
REMARK SMILES IDX 9 14 93 15 13 16 88 17 5 18 4 19 2 20 1 21 3 22 89 23 90 24
REMARK SMILES IDX 91 25 92 26 20 27 21 28 22 29 23 30 24 32 25 33 26 34 87 35
REMARK SMILES IDX 27 36 86 37 28 38 29 39 30 40 80 41 31 42 85 43 79 44 81 45
REMARK SMILES IDX 32 46 84 47 78 48 77 49 33 51 65 52 45 53 64 54 46 55 49 56
REMARK SMILES IDX 63 57 82 58 47 59 48 60 62 62 83 63 50 64 34 65 35 66 43 67
REMARK SMILES IDX 36 68 37 69 41 70 44 71 38 72 39 73 42 74 40 75 66 76 67 77
REMARK SMILES IDX 75 78 68 79 69 80 73 81 76 82 70 83 71 84 74 85 72 86 51 87
REMARK SMILES IDX 52 88 60 89 53 90 54 91 58 92 61 93 55 94 56 95 59 96 57 97
REMARK H PARENT 17 6 22 31 81 50 49 61
REMARK Flexibility Score: inf
ROOT
ATOM      1  C   UNL A   1      37.378  22.423  24.630  1.00  0.00     0.023 C 
ENDROOT
BRANCH   1   2
ATOM      2  C   UNL A   1      36.912  23.509  25.596  1.00  0.00     0.116 C 
BRANCH   2   3
ATOM      3  N   UNL A   1      35.833  23.056  26.456  1.00  0.00    -0.352 N 
ATOM      4  C   UNL A   1      34.501  23.275  26.560  1.00  0.00     0.251 C 
ATOM      5  O   UNL A   1      33.941  22.672  27.481  1.00  0.00    -0.270 OA
ATOM      6  H   UNL A   1      36.153  22.426  27.141  1.00  0.00     0.163 HD
BRANCH   4   7
ATOM      7  C   UNL A   1      33.700  24.167  25.668  1.00  0.00     0.067 C 
ATOM      8  C   UNL A   1      31.297  28.158  23.685  1.00  0.00    -0.026 A 
ATOM      9  C   UNL A   1      31.586  26.855  23.243  1.00  0.00     0.052 A 
ATOM     10  C   UNL A   1      31.805  28.560  24.932  1.00  0.00     0.045 A 
ATOM     11  C   UNL A   1      32.329  25.978  24.033  1.00  0.00     0.128 A 
ATOM     12  C   UNL A   1      32.560  27.678  25.716  1.00  0.00     0.032 A 
ATOM     13  Cl  UNL A   1      31.549  30.146  25.567  1.00  0.00    -0.084 Cl
ATOM     14  C   UNL A   1      32.821  26.381  25.269  1.00  0.00     0.019 A 
ATOM     15  O   UNL A   1      32.575  24.743  23.508  1.00  0.00    -0.475 OA
ATOM     16  C   UNL A   1      33.624  25.454  26.055  1.00  0.00     0.025 C 
ATOM     17  C   UNL A   1      32.953  23.700  24.449  1.00  0.00     0.314 C 
BRANCH   8  18
ATOM     18  C   UNL A   1      30.449  29.041  22.795  1.00  0.00     0.037 C 
BRANCH  18  19
ATOM     19  C   UNL A   1      28.938  28.793  22.945  1.00  0.00     0.008 C 
BRANCH  19  20
ATOM     20  C   UNL A   1      28.050  30.036  22.735  1.00  0.00    -0.017 C 
ATOM     21  C   UNL A   1      28.528  31.229  23.565  1.00  0.00     0.007 C 
ATOM     22  C   UNL A   1      28.034  30.423  21.254  1.00  0.00     0.007 C 
ENDBRANCH  19  20
ENDBRANCH  18  19
ENDBRANCH   8  18
BRANCH  17  23
ATOM     23  C   UNL A   1      31.705  22.868  24.797  1.00  0.00     0.429 C 
ATOM     24  F   UNL A   1      32.029  21.555  24.914  1.00  0.00    -0.167 F 
ATOM     25  F   UNL A   1      31.153  23.230  25.979  1.00  0.00    -0.167 F 
ATOM     26  F   UNL A   1      30.736  22.964  23.860  1.00  0.00    -0.167 F 
ENDBRANCH  17  23
ENDBRANCH   4   7
ENDBRANCH   2   3
ENDBRANCH   1   2
BRANCH   1  27
ATOM     27  C   UNL A   1      37.774  21.102  25.298  1.00  0.00     0.023 C 
BRANCH  27  28
ATOM     28  C   UNL A   1      39.160  21.078  25.940  1.00  0.00     0.116 C 
BRANCH  28  29
ATOM     29  N   UNL A   1      39.872  19.814  25.801  1.00  0.00    -0.352 N 
ATOM     30  C   UNL A   1      41.219  19.583  25.983  1.00  0.00     0.251 C 
ATOM     31  H   UNL A   1      39.326  19.034  25.550  1.00  0.00     0.163 HD
ATOM     32  O   UNL A   1      41.706  18.480  25.765  1.00  0.00    -0.269 OA
BRANCH  30  33
ATOM     33  C   UNL A   1      42.079  20.717  26.376  1.00  0.00     0.039 A 
ATOM     34  C   UNL A   1      42.195  21.075  27.720  1.00  0.00     0.014 A 
ATOM     35  C   UNL A   1      42.661  21.502  25.377  1.00  0.00     0.014 A 
ATOM     36  C   UNL A   1      42.718  22.318  28.048  1.00  0.00     0.010 A 
ATOM     37  C   UNL A   1      43.254  22.719  25.718  1.00  0.00     0.010 A 
ATOM     38  C   UNL A   1      43.215  23.170  27.047  1.00  0.00    -0.014 A 
BRANCH  38  39
ATOM     39  C   UNL A   1      43.601  24.557  27.412  1.00  0.00     0.031 A 
ATOM     40  C   UNL A   1      44.977  25.073  27.081  1.00  0.00     0.074 A 
ATOM     41  C   UNL A   1      42.680  25.386  27.937  1.00  0.00     0.049 A 
ATOM     42  N   UNL A   1      45.468  26.278  27.240  1.00  0.00    -0.248 NA
ATOM     43  C   UNL A   1      45.930  24.117  26.495  1.00  0.00     0.031 C 
ATOM     44  C   UNL A   1      41.308  25.007  28.276  1.00  0.00     0.029 A 
ATOM     45  N   UNL A   1      42.742  26.723  28.233  1.00  0.00    -0.354 N 
ATOM     46  C   UNL A   1      46.781  26.217  26.791  1.00  0.00     0.074 A 
ATOM     47  C   UNL A   1      47.025  24.854  26.378  1.00  0.00     0.031 C 
ATOM     48  C   UNL A   1      40.637  26.101  28.668  1.00  0.00     0.029 A 
ATOM     49  C   UNL A   1      41.545  27.246  28.652  1.00  0.00     0.049 A 
ATOM     50  H   UNL A   1      43.566  27.256  28.151  1.00  0.00     0.167 HD
ATOM     51  C   UNL A   1      47.694  27.213  26.715  1.00  0.00     0.037 A 
ATOM     52  C   UNL A   1      41.213  28.508  28.985  1.00  0.00     0.037 A 
ATOM     53  C   UNL A   1      47.442  28.580  27.083  1.00  0.00     0.049 A 
ATOM     54  C   UNL A   1      42.259  29.583  28.932  1.00  0.00     0.074 A 
ATOM     55  C   UNL A   1      48.292  29.669  26.994  1.00  0.00     0.029 A 
ATOM     56  N   UNL A   1      46.245  29.047  27.602  1.00  0.00    -0.354 N 
ATOM     57  N   UNL A   1      43.496  29.511  28.506  1.00  0.00    -0.248 NA
ATOM     58  C   UNL A   1      41.870  30.910  29.429  1.00  0.00     0.031 C 
ATOM     59  C   UNL A   1      47.620  30.789  27.491  1.00  0.00     0.029 A 
ATOM     60  C   UNL A   1      46.343  30.403  27.864  1.00  0.00     0.049 A 
ATOM     61  H   UNL A   1      45.444  28.496  27.761  1.00  0.00     0.167 HD
ATOM     62  C   UNL A   1      44.035  30.777  28.688  1.00  0.00     0.074 A 
ATOM     63  C   UNL A   1      42.984  31.606  29.238  1.00  0.00     0.031 C 
ATOM     64  C   UNL A   1      45.293  31.207  28.429  1.00  0.00     0.037 A 
BRANCH  51  65
ATOM     65  C   UNL A   1      49.063  26.871  26.211  1.00  0.00     0.064 A 
ATOM     66  C   UNL A   1      50.047  26.349  27.063  1.00  0.00     0.173 A 
ATOM     67  C   UNL A   1      49.372  27.000  24.848  1.00  0.00     0.173 A 
ATOM     68  F   UNL A   1      49.803  26.220  28.376  1.00  0.00    -0.203 F 
ATOM     69  C   UNL A   1      51.295  25.975  26.569  1.00  0.00     0.198 A 
ATOM     70  C   UNL A   1      50.613  26.608  24.355  1.00  0.00     0.198 A 
ATOM     71  F   UNL A   1      48.462  27.491  23.993  1.00  0.00    -0.203 F 
ATOM     72  F   UNL A   1      52.228  25.501  27.405  1.00  0.00    -0.200 F 
ATOM     73  C   UNL A   1      51.573  26.097  25.216  1.00  0.00     0.200 A 
ATOM     74  F   UNL A   1      50.879  26.719  23.047  1.00  0.00    -0.200 F 
ATOM     75  F   UNL A   1      52.770  25.726  24.742  1.00  0.00    -0.200 F 
ENDBRANCH  51  65
BRANCH  52  76
ATOM     76  C   UNL A   1      39.820  28.817  29.388  1.00  0.00     0.064 A 
ATOM     77  C   UNL A   1      38.885  29.267  28.447  1.00  0.00     0.173 A 
ATOM     78  C   UNL A   1      39.389  28.641  30.711  1.00  0.00     0.173 A 
ATOM     79  F   UNL A   1      39.259  29.468  27.175  1.00  0.00    -0.203 F 
ATOM     80  C   UNL A   1      37.567  29.530  28.815  1.00  0.00     0.198 A 
ATOM     81  C   UNL A   1      38.067  28.885  31.073  1.00  0.00     0.198 A 
ATOM     82  F   UNL A   1      40.249  28.213  31.646  1.00  0.00    -0.203 F 
ATOM     83  F   UNL A   1      36.696  29.980  27.902  1.00  0.00    -0.200 F 
ATOM     84  C   UNL A   1      37.158  29.331  30.126  1.00  0.00     0.200 A 
ATOM     85  F   UNL A   1      37.671  28.680  32.336  1.00  0.00    -0.200 F 
ATOM     86  F   UNL A   1      35.887  29.572  30.475  1.00  0.00    -0.200 F 
ENDBRANCH  52  76
BRANCH  64  87
ATOM     87  C   UNL A   1      45.614  32.630  28.763  1.00  0.00     0.064 A 
ATOM     88  C   UNL A   1      45.354  33.661  27.849  1.00  0.00     0.173 A 
ATOM     89  C   UNL A   1      46.117  32.975  30.025  1.00  0.00     0.173 A 
ATOM     90  F   UNL A   1      44.885  33.374  26.625  1.00  0.00    -0.203 F 
ATOM     91  C   UNL A   1      45.587  34.989  28.187  1.00  0.00     0.198 A 
ATOM     92  C   UNL A   1      46.333  34.307  30.366  1.00  0.00     0.198 A 
ATOM     93  F   UNL A   1      46.377  32.023  30.933  1.00  0.00    -0.203 F 
ATOM     94  F   UNL A   1      45.349  35.959  27.292  1.00  0.00    -0.200 F 
ATOM     95  C   UNL A   1      46.070  35.313  29.447  1.00  0.00     0.200 A 
ATOM     96  F   UNL A   1      46.791  34.620  31.587  1.00  0.00    -0.200 F 
ATOM     97  F   UNL A   1      46.283  36.594  29.775  1.00  0.00    -0.200 F 
ENDBRANCH  64  87
ENDBRANCH  38  39
ENDBRANCH  30  33
ENDBRANCH  28  29
ENDBRANCH  27  28
ENDBRANCH   1  27
TORSDOF 15
ENDMDL
MODEL 2
REMARK VINA RESULT:     -12.7      4.935      8.746
REMARK SMILES CC(C)CCc1cc2c(cc1Cl)C=C(C(=O)NCCCCNC(=O)c1ccc(-c3c4nc(c(-c5c(F)c(F)c(F)c(F)c5F)c5ccc([nH]5)c(-c5c(F)c(F)c(F)c(F)c5F)c5nc(c(-c6c(F)c(F)c(F)c(F)c6F)c6ccc3[nH]6)C=C5)C=C4)cc1)[C@@H](C(F)(F)F)O2
REMARK SMILES IDX 19 1 18 2 17 3 15 4 16 5 14 7 6 8 7 9 11 10 8 11 10 12 12 13
REMARK SMILES IDX 9 14 93 15 13 16 88 17 5 18 4 19 2 20 1 21 3 22 89 23 90 24
REMARK SMILES IDX 91 25 92 26 20 27 21 28 22 29 23 30 24 32 25 33 26 34 87 35
REMARK SMILES IDX 27 36 86 37 28 38 29 39 30 40 80 41 31 42 85 43 79 44 81 45
REMARK SMILES IDX 32 46 84 47 78 48 77 49 33 51 65 52 45 53 64 54 46 55 49 56
REMARK SMILES IDX 63 57 82 58 47 59 48 60 62 62 83 63 50 64 34 65 35 66 43 67
REMARK SMILES IDX 36 68 37 69 41 70 44 71 38 72 39 73 42 74 40 75 66 76 67 77
REMARK SMILES IDX 75 78 68 79 69 80 73 81 76 82 70 83 71 84 74 85 72 86 51 87
REMARK SMILES IDX 52 88 60 89 53 90 54 91 58 92 61 93 55 94 56 95 59 96 57 97
REMARK H PARENT 17 6 22 31 81 50 49 61
REMARK Flexibility Score: inf
ROOT
ATOM      1  C   UNL A   1      33.649  28.842  24.715  1.00  0.00     0.023 C 
ENDROOT
BRANCH   1   2
ATOM      2  C   UNL A   1      33.753  28.559  23.218  1.00  0.00     0.116 C 
BRANCH   2   3
ATOM      3  N   UNL A   1      32.475  28.189  22.637  1.00  0.00    -0.352 N 
ATOM      4  C   UNL A   1      31.674  27.097  22.638  1.00  0.00     0.251 C 
ATOM      5  O   UNL A   1      30.637  27.206  21.976  1.00  0.00    -0.270 OA
ATOM      6  H   UNL A   1      32.091  28.921  22.103  1.00  0.00     0.163 HD
BRANCH   4   7
ATOM      7  C   UNL A   1      31.956  25.820  23.360  1.00  0.00     0.067 C 
ATOM      8  C   UNL A   1      32.698  20.937  24.477  1.00  0.00    -0.026 A 
ATOM      9  C   UNL A   1      32.839  22.147  25.179  1.00  0.00     0.052 A 
ATOM     10  C   UNL A   1      32.328  20.998  23.123  1.00  0.00     0.045 A 
ATOM     11  C   UNL A   1      32.589  23.370  24.558  1.00  0.00     0.128 A 
ATOM     12  C   UNL A   1      32.089  22.232  22.502  1.00  0.00     0.032 A 
ATOM     13  Cl  UNL A   1      32.158  19.585  22.145  1.00  0.00    -0.084 Cl
ATOM     14  C   UNL A   1      32.215  23.422  23.219  1.00  0.00     0.019 A 
ATOM     15  O   UNL A   1      32.773  24.489  25.316  1.00  0.00    -0.475 OA
ATOM     16  C   UNL A   1      31.995  24.717  22.589  1.00  0.00     0.025 C 
ATOM     17  C   UNL A   1      32.124  25.705  24.851  1.00  0.00     0.314 C 
BRANCH   8  18
ATOM     18  C   UNL A   1      32.943  19.645  25.227  1.00  0.00     0.037 C 
BRANCH  18  19
ATOM     19  C   UNL A   1      34.068  18.787  24.622  1.00  0.00     0.008 C 
BRANCH  19  20
ATOM     20  C   UNL A   1      33.885  17.265  24.782  1.00  0.00    -0.017 C 
ATOM     21  C   UNL A   1      32.524  16.911  25.384  1.00  0.00     0.007 C 
ATOM     22  C   UNL A   1      34.033  16.576  23.423  1.00  0.00     0.007 C 
ENDBRANCH  19  20
ENDBRANCH  18  19
ENDBRANCH   8  18
BRANCH  17  23
ATOM     23  C   UNL A   1      30.799  25.886  25.615  1.00  0.00     0.429 C 
ATOM     24  F   UNL A   1      30.816  27.045  26.322  1.00  0.00    -0.167 F 
ATOM     25  F   UNL A   1      29.729  25.959  24.790  1.00  0.00    -0.167 F 
ATOM     26  F   UNL A   1      30.560  24.883  26.488  1.00  0.00    -0.167 F 
ENDBRANCH  17  23
ENDBRANCH   4   7
ENDBRANCH   2   3
ENDBRANCH   1   2
BRANCH   1  27
ATOM     27  C   UNL A   1      32.450  29.706  25.119  1.00  0.00     0.023 C 
BRANCH  27  28
ATOM     28  C   UNL A   1      32.368  30.066  26.601  1.00  0.00     0.116 C 
BRANCH  28  29
ATOM     29  N   UNL A   1      32.306  31.496  26.876  1.00  0.00    -0.352 N 
ATOM     30  C   UNL A   1      33.286  32.287  27.439  1.00  0.00     0.251 C 
ATOM     31  H   UNL A   1      31.468  31.949  26.632  1.00  0.00     0.163 HD
ATOM     32  O   UNL A   1      33.080  33.470  27.683  1.00  0.00    -0.269 OA
BRANCH  30  33
ATOM     33  C   UNL A   1      34.569  31.658  27.809  1.00  0.00     0.039 A 
ATOM     34  C   UNL A   1      34.629  30.287  28.061  1.00  0.00     0.014 A 
ATOM     35  C   UNL A   1      35.683  32.473  28.032  1.00  0.00     0.014 A 
ATOM     36  C   UNL A   1      35.733  29.766  28.723  1.00  0.00     0.010 A 
ATOM     37  C   UNL A   1      36.822  31.930  28.631  1.00  0.00     0.010 A 
ATOM     38  C   UNL A   1      36.823  30.591  29.051  1.00  0.00    -0.014 A 
BRANCH  38  39
ATOM     39  C   UNL A   1      37.902  30.045  29.912  1.00  0.00     0.031 A 
ATOM     40  C   UNL A   1      38.950  29.134  29.328  1.00  0.00     0.074 A 
ATOM     41  C   UNL A   1      38.005  30.456  31.189  1.00  0.00     0.049 A 
ATOM     42  N   UNL A   1      40.017  28.629  29.898  1.00  0.00    -0.248 NA
ATOM     43  C   UNL A   1      38.784  28.735  27.921  1.00  0.00     0.031 C 
ATOM     44  C   UNL A   1      37.066  31.357  31.858  1.00  0.00     0.029 A 
ATOM     45  N   UNL A   1      38.967  30.211  32.136  1.00  0.00    -0.354 N 
ATOM     46  C   UNL A   1      40.634  27.847  28.929  1.00  0.00     0.074 A 
ATOM     47  C   UNL A   1      39.813  27.918  27.742  1.00  0.00     0.031 C 
ATOM     48  C   UNL A   1      37.533  31.645  33.083  1.00  0.00     0.029 A 
ATOM     49  C   UNL A   1      38.778  30.911  33.300  1.00  0.00     0.049 A 
ATOM     50  H   UNL A   1      39.720  29.593  31.992  1.00  0.00     0.167 HD
ATOM     51  C   UNL A   1      41.789  27.148  29.017  1.00  0.00     0.037 A 
ATOM     52  C   UNL A   1      39.526  30.960  34.419  1.00  0.00     0.037 A 
ATOM     53  C   UNL A   1      42.632  27.111  30.182  1.00  0.00     0.049 A 
ATOM     54  C   UNL A   1      40.780  30.139  34.504  1.00  0.00     0.074 A 
ATOM     55  C   UNL A   1      43.847  26.468  30.347  1.00  0.00     0.029 A 
ATOM     56  N   UNL A   1      42.351  27.752  31.377  1.00  0.00    -0.354 N 
ATOM     57  N   UNL A   1      41.350  29.405  33.580  1.00  0.00    -0.248 NA
ATOM     58  C   UNL A   1      41.482  30.136  35.795  1.00  0.00     0.031 C 
ATOM     59  C   UNL A   1      44.285  26.694  31.656  1.00  0.00     0.029 A 
ATOM     60  C   UNL A   1      43.356  27.498  32.295  1.00  0.00     0.049 A 
ATOM     61  H   UNL A   1      41.554  28.305  31.549  1.00  0.00     0.167 HD
ATOM     62  C   UNL A   1      42.472  28.848  34.177  1.00  0.00     0.074 A 
ATOM     63  C   UNL A   1      42.518  29.348  35.535  1.00  0.00     0.031 C 
ATOM     64  C   UNL A   1      43.375  27.990  33.647  1.00  0.00     0.037 A 
BRANCH  51  65
ATOM     65  C   UNL A   1      42.223  26.358  27.820  1.00  0.00     0.064 A 
ATOM     66  C   UNL A   1      43.171  26.861  26.917  1.00  0.00     0.173 A 
ATOM     67  C   UNL A   1      41.739  25.058  27.612  1.00  0.00     0.173 A 
ATOM     68  F   UNL A   1      43.654  28.104  27.067  1.00  0.00    -0.203 F 
ATOM     69  C   UNL A   1      43.614  26.091  25.844  1.00  0.00     0.198 A 
ATOM     70  C   UNL A   1      42.197  24.285  26.549  1.00  0.00     0.198 A 
ATOM     71  F   UNL A   1      40.833  24.533  28.451  1.00  0.00    -0.203 F 
ATOM     72  F   UNL A   1      44.503  26.599  24.980  1.00  0.00    -0.200 F 
ATOM     73  C   UNL A   1      43.132  24.802  25.666  1.00  0.00     0.200 A 
ATOM     74  F   UNL A   1      41.738  23.037  26.382  1.00  0.00    -0.200 F 
ATOM     75  F   UNL A   1      43.569  24.059  24.640  1.00  0.00    -0.200 F 
ENDBRANCH  51  65
BRANCH  52  76
ATOM     76  C   UNL A   1      39.105  31.830  35.544  1.00  0.00     0.064 A 
ATOM     77  C   UNL A   1      39.503  33.172  35.599  1.00  0.00     0.173 A 
ATOM     78  C   UNL A   1      38.274  31.348  36.566  1.00  0.00     0.173 A 
ATOM     79  F   UNL A   1      40.313  33.669  34.654  1.00  0.00    -0.203 F 
ATOM     80  C   UNL A   1      39.085  34.001  36.638  1.00  0.00     0.198 A 
ATOM     81  C   UNL A   1      37.841  32.182  37.592  1.00  0.00     0.198 A 
ATOM     82  F   UNL A   1      37.869  30.070  36.554  1.00  0.00    -0.203 F 
ATOM     83  F   UNL A   1      39.496  35.275  36.682  1.00  0.00    -0.200 F 
ATOM     84  C   UNL A   1      38.249  33.507  37.629  1.00  0.00     0.200 A 
ATOM     85  F   UNL A   1      37.024  31.706  38.541  1.00  0.00    -0.200 F 
ATOM     86  F   UNL A   1      37.837  34.309  38.621  1.00  0.00    -0.200 F 
ENDBRANCH  52  76
BRANCH  64  87
ATOM     87  C   UNL A   1      44.477  27.513  34.540  1.00  0.00     0.064 A 
ATOM     88  C   UNL A   1      44.351  26.319  35.265  1.00  0.00     0.173 A 
ATOM     89  C   UNL A   1      45.691  28.210  34.619  1.00  0.00     0.173 A 
ATOM     90  F   UNL A   1      43.202  25.628  35.228  1.00  0.00    -0.203 F 
ATOM     91  C   UNL A   1      45.402  25.841  36.040  1.00  0.00     0.198 A 
ATOM     92  C   UNL A   1      46.747  27.719  35.381  1.00  0.00     0.198 A 
ATOM     93  F   UNL A   1      45.858  29.354  33.939  1.00  0.00    -0.203 F 
ATOM     94  F   UNL A   1      45.255  24.707  36.740  1.00  0.00    -0.200 F 
ATOM     95  C   UNL A   1      46.601  26.537  36.092  1.00  0.00     0.200 A 
ATOM     96  F   UNL A   1      47.908  28.387  35.425  1.00  0.00    -0.200 F 
ATOM     97  F   UNL A   1      47.616  26.068  36.829  1.00  0.00    -0.200 F 
ENDBRANCH  64  87
ENDBRANCH  38  39
ENDBRANCH  30  33
ENDBRANCH  28  29
ENDBRANCH  27  28
ENDBRANCH   1  27
TORSDOF 15
ENDMDL
MODEL 3
REMARK VINA RESULT:     -12.6      1.820      2.750
REMARK SMILES CC(C)CCc1cc2c(cc1Cl)C=C(C(=O)NCCCCNC(=O)c1ccc(-c3c4nc(c(-c5c(F)c(F)c(F)c(F)c5F)c5ccc([nH]5)c(-c5c(F)c(F)c(F)c(F)c5F)c5nc(c(-c6c(F)c(F)c(F)c(F)c6F)c6ccc3[nH]6)C=C5)C=C4)cc1)[C@@H](C(F)(F)F)O2
REMARK SMILES IDX 19 1 18 2 17 3 15 4 16 5 14 7 6 8 7 9 11 10 8 11 10 12 12 13
REMARK SMILES IDX 9 14 93 15 13 16 88 17 5 18 4 19 2 20 1 21 3 22 89 23 90 24
REMARK SMILES IDX 91 25 92 26 20 27 21 28 22 29 23 30 24 32 25 33 26 34 87 35
REMARK SMILES IDX 27 36 86 37 28 38 29 39 30 40 80 41 31 42 85 43 79 44 81 45
REMARK SMILES IDX 32 46 84 47 78 48 77 49 33 51 65 52 45 53 64 54 46 55 49 56
REMARK SMILES IDX 63 57 82 58 47 59 48 60 62 62 83 63 50 64 34 65 35 66 43 67
REMARK SMILES IDX 36 68 37 69 41 70 44 71 38 72 39 73 42 74 40 75 66 76 67 77
REMARK SMILES IDX 75 78 68 79 69 80 73 81 76 82 70 83 71 84 74 85 72 86 51 87
REMARK SMILES IDX 52 88 60 89 53 90 54 91 58 92 61 93 55 94 56 95 59 96 57 97
REMARK H PARENT 17 6 22 31 81 50 49 61
REMARK Flexibility Score: inf
ROOT
ATOM      1  C   UNL A   1      35.380  23.069  26.548  1.00  0.00     0.023 C 
ENDROOT
BRANCH   1   2
ATOM      2  C   UNL A   1      34.024  22.926  27.234  1.00  0.00     0.116 C 
BRANCH   2   3
ATOM      3  N   UNL A   1      33.067  22.202  26.417  1.00  0.00    -0.352 N 
ATOM      4  C   UNL A   1      32.206  22.499  25.414  1.00  0.00     0.251 C 
ATOM      5  O   UNL A   1      31.541  21.547  24.994  1.00  0.00    -0.270 OA
ATOM      6  H   UNL A   1      33.035  21.246  26.653  1.00  0.00     0.163 HD
BRANCH   4   7
ATOM      7  C   UNL A   1      32.018  23.853  24.811  1.00  0.00     0.067 C 
ATOM      8  C   UNL A   1      29.988  28.168  23.108  1.00  0.00    -0.026 A 
ATOM      9  C   UNL A   1      31.299  27.684  23.268  1.00  0.00     0.052 A 
ATOM     10  C   UNL A   1      28.928  27.361  23.553  1.00  0.00     0.045 A 
ATOM     11  C   UNL A   1      31.536  26.428  23.824  1.00  0.00     0.128 A 
ATOM     12  C   UNL A   1      29.174  26.104  24.121  1.00  0.00     0.032 A 
ATOM     13  Cl  UNL A   1      27.277  27.859  23.444  1.00  0.00    -0.084 Cl
ATOM     14  C   UNL A   1      30.481  25.632  24.255  1.00  0.00     0.019 A 
ATOM     15  O   UNL A   1      32.843  26.056  23.957  1.00  0.00    -0.475 OA
ATOM     16  C   UNL A   1      30.763  24.339  24.865  1.00  0.00     0.025 C 
ATOM     17  C   UNL A   1      33.101  24.633  24.119  1.00  0.00     0.314 C 
BRANCH   8  18
ATOM     18  C   UNL A   1      29.803  29.522  22.456  1.00  0.00     0.037 C 
BRANCH  18  19
ATOM     19  C   UNL A   1      29.677  30.677  23.465  1.00  0.00     0.008 C 
BRANCH  19  20
ATOM     20  C   UNL A   1      28.641  31.756  23.093  1.00  0.00    -0.017 C 
ATOM     21  C   UNL A   1      28.429  31.852  21.582  1.00  0.00     0.007 C 
ATOM     22  C   UNL A   1      27.304  31.451  23.774  1.00  0.00     0.007 C 
ENDBRANCH  19  20
ENDBRANCH  18  19
ENDBRANCH   8  18
BRANCH  17  23
ATOM     23  C   UNL A   1      33.483  24.039  22.751  1.00  0.00     0.429 C 
ATOM     24  F   UNL A   1      33.689  25.029  21.845  1.00  0.00    -0.167 F 
ATOM     25  F   UNL A   1      34.632  23.323  22.799  1.00  0.00    -0.167 F 
ATOM     26  F   UNL A   1      32.528  23.224  22.252  1.00  0.00    -0.167 F 
ENDBRANCH  17  23
ENDBRANCH   4   7
ENDBRANCH   2   3
ENDBRANCH   1   2
BRANCH   1  27
ATOM     27  C   UNL A   1      35.870  21.806  25.833  1.00  0.00     0.023 C 
BRANCH  27  28
ATOM     28  C   UNL A   1      37.120  21.980  24.971  1.00  0.00     0.116 C 
BRANCH  28  29
ATOM     29  N   UNL A   1      38.126  20.940  25.144  1.00  0.00    -0.352 N 
ATOM     30  C   UNL A   1      39.289  21.010  25.882  1.00  0.00     0.251 C 
ATOM     31  H   UNL A   1      37.955  20.089  24.681  1.00  0.00     0.163 HD
ATOM     32  O   UNL A   1      40.090  20.083  25.888  1.00  0.00    -0.269 OA
BRANCH  30  33
ATOM     33  C   UNL A   1      39.585  22.260  26.609  1.00  0.00     0.039 A 
ATOM     34  C   UNL A   1      39.081  23.476  26.145  1.00  0.00     0.014 A 
ATOM     35  C   UNL A   1      40.479  22.223  27.683  1.00  0.00     0.014 A 
ATOM     36  C   UNL A   1      39.625  24.661  26.620  1.00  0.00     0.010 A 
ATOM     37  C   UNL A   1      40.968  23.419  28.211  1.00  0.00     0.010 A 
ATOM     38  C   UNL A   1      40.604  24.644  27.629  1.00  0.00    -0.014 A 
BRANCH  38  39
ATOM     39  C   UNL A   1      41.288  25.912  27.986  1.00  0.00     0.031 A 
ATOM     40  C   UNL A   1      42.675  26.197  27.471  1.00  0.00     0.074 A 
ATOM     41  C   UNL A   1      40.621  26.854  28.679  1.00  0.00     0.049 A 
ATOM     42  N   UNL A   1      43.398  27.282  27.602  1.00  0.00    -0.248 NA
ATOM     43  C   UNL A   1      43.340  25.128  26.708  1.00  0.00     0.031 C 
ATOM     44  C   UNL A   1      39.265  26.703  29.208  1.00  0.00     0.029 A 
ATOM     45  N   UNL A   1      40.972  28.136  29.016  1.00  0.00    -0.354 N 
ATOM     46  C   UNL A   1      44.600  27.019  26.956  1.00  0.00     0.074 A 
ATOM     47  C   UNL A   1      44.525  25.666  26.456  1.00  0.00     0.031 C 
ATOM     48  C   UNL A   1      38.872  27.870  29.741  1.00  0.00     0.029 A 
ATOM     49  C   UNL A   1      39.965  28.833  29.634  1.00  0.00     0.049 A 
ATOM     50  H   UNL A   1      41.861  28.518  28.832  1.00  0.00     0.167 HD
ATOM     51  C   UNL A   1      45.662  27.840  26.782  1.00  0.00     0.037 A 
ATOM     52  C   UNL A   1      39.924  30.108  30.064  1.00  0.00     0.037 A 
ATOM     53  C   UNL A   1      45.722  29.202  27.239  1.00  0.00     0.049 A 
ATOM     54  C   UNL A   1      41.133  30.981  29.896  1.00  0.00     0.074 A 
ATOM     55  C   UNL A   1      46.739  30.126  27.067  1.00  0.00     0.029 A 
ATOM     56  N   UNL A   1      44.719  29.838  27.953  1.00  0.00    -0.354 N 
ATOM     57  N   UNL A   1      42.262  30.720  29.284  1.00  0.00    -0.248 NA
ATOM     58  C   UNL A   1      41.072  32.320  30.500  1.00  0.00     0.031 C 
ATOM     59  C   UNL A   1      46.363  31.312  27.705  1.00  0.00     0.029 A 
ATOM     60  C   UNL A   1      45.104  31.134  28.252  1.00  0.00     0.049 A 
ATOM     61  H   UNL A   1      43.862  29.429  28.210  1.00  0.00     0.167 HD
ATOM     62  C   UNL A   1      43.047  31.855  29.433  1.00  0.00     0.074 A 
ATOM     63  C   UNL A   1      42.257  32.818  30.170  1.00  0.00     0.031 C 
ATOM     64  C   UNL A   1      44.312  32.072  29.003  1.00  0.00     0.037 A 
BRANCH  51  65
ATOM     65  C   UNL A   1      46.857  27.295  26.062  1.00  0.00     0.064 A 
ATOM     66  C   UNL A   1      47.046  27.513  24.689  1.00  0.00     0.173 A 
ATOM     67  C   UNL A   1      47.859  26.609  26.765  1.00  0.00     0.173 A 
ATOM     68  F   UNL A   1      46.109  28.152  23.972  1.00  0.00    -0.203 F 
ATOM     69  C   UNL A   1      48.193  27.056  24.045  1.00  0.00     0.198 A 
ATOM     70  C   UNL A   1      49.012  26.170  26.121  1.00  0.00     0.198 A 
ATOM     71  F   UNL A   1      47.725  26.380  28.080  1.00  0.00    -0.203 F 
ATOM     72  F   UNL A   1      48.343  27.254  22.728  1.00  0.00    -0.200 F 
ATOM     73  C   UNL A   1      49.178  26.393  24.763  1.00  0.00     0.200 A 
ATOM     74  F   UNL A   1      49.967  25.537  26.816  1.00  0.00    -0.200 F 
ATOM     75  F   UNL A   1      50.286  25.965  24.143  1.00  0.00    -0.200 F 
ENDBRANCH  51  65
BRANCH  52  76
ATOM     76  C   UNL A   1      38.685  30.632  30.687  1.00  0.00     0.064 A 
ATOM     77  C   UNL A   1      37.637  31.120  29.896  1.00  0.00     0.173 A 
ATOM     78  C   UNL A   1      38.511  30.627  32.079  1.00  0.00     0.173 A 
ATOM     79  F   UNL A   1      37.768  31.162  28.563  1.00  0.00    -0.203 F 
ATOM     80  C   UNL A   1      36.458  31.585  30.476  1.00  0.00     0.198 A 
ATOM     81  C   UNL A   1      37.325  31.073  32.656  1.00  0.00     0.198 A 
ATOM     82  F   UNL A   1      39.488  30.169  32.875  1.00  0.00    -0.203 F 
ATOM     83  F   UNL A   1      35.477  32.067  29.700  1.00  0.00    -0.200 F 
ATOM     84  C   UNL A   1      36.300  31.554  31.854  1.00  0.00     0.200 A 
ATOM     85  F   UNL A   1      37.171  31.030  33.986  1.00  0.00    -0.200 F 
ATOM     86  F   UNL A   1      35.162  31.989  32.409  1.00  0.00    -0.200 F 
ENDBRANCH  52  76
BRANCH  64  87
ATOM     87  C   UNL A   1      44.937  33.389  29.341  1.00  0.00     0.064 A 
ATOM     88  C   UNL A   1      44.728  34.514  28.531  1.00  0.00     0.173 A 
ATOM     89  C   UNL A   1      45.686  33.548  30.516  1.00  0.00     0.173 A 
ATOM     90  F   UNL A   1      44.028  34.404  27.392  1.00  0.00    -0.203 F 
ATOM     91  C   UNL A   1      45.250  35.754  28.884  1.00  0.00     0.198 A 
ATOM     92  C   UNL A   1      46.193  34.793  30.874  1.00  0.00     0.198 A 
ATOM     93  F   UNL A   1      45.908  32.500  31.323  1.00  0.00    -0.203 F 
ATOM     94  F   UNL A   1      45.056  36.814  28.087  1.00  0.00    -0.200 F 
ATOM     95  C   UNL A   1      45.976  35.895  30.058  1.00  0.00     0.200 A 
ATOM     96  F   UNL A   1      46.887  34.931  32.013  1.00  0.00    -0.200 F 
ATOM     97  F   UNL A   1      46.468  37.092  30.403  1.00  0.00    -0.200 F 
ENDBRANCH  64  87
ENDBRANCH  38  39
ENDBRANCH  30  33
ENDBRANCH  28  29
ENDBRANCH  27  28
ENDBRANCH   1  27
TORSDOF 15
ENDMDL
