MODEL 1
REMARK VINA RESULT:     -12.6      0.000      0.000
REMARK SMILES C[NH2+][C@]1(C(=O)NCCCCNC(=O)c2ccc(-c3c4nc(c(-c5c(F)c(F)c(F)c(F)c5F)c5ccc([nH]5)c(-c5c(F)c(F)c(F)c(F)c5F)c5nc(c(-c6c(F)c(F)c(F)c(F)c6F)c6ccc3[nH]6)C=C5)C=C4)cc2)CC[C@@H](Sc2cc(F)ccc2F)C1
REMARK SMILES IDX 8 1 7 2 6 3 4 4 5 5 3 7 77 8 89 9 78 10 79 11 2 12 1 13
REMARK SMILES IDX 80 16 81 17 82 18 87 19 83 20 86 21 88 22 84 23 85 24 9 25
REMARK SMILES IDX 10 26 11 27 12 28 13 30 14 31 15 32 76 33 16 34 75 35 17 36
REMARK SMILES IDX 18 37 19 38 69 39 20 40 74 41 68 42 70 43 21 44 73 45 67 46
REMARK SMILES IDX 66 47 22 49 54 50 34 51 53 52 35 53 38 54 52 55 71 56 36 57
REMARK SMILES IDX 37 58 51 60 72 61 39 62 23 63 24 64 32 65 25 66 26 67 30 68
REMARK SMILES IDX 33 69 27 70 28 71 31 72 29 73 55 74 56 75 64 76 57 77 58 78
REMARK SMILES IDX 62 79 65 80 59 81 60 82 63 83 61 84 40 85 41 86 49 87 42 88
REMARK SMILES IDX 43 89 47 90 50 91 44 92 45 93 48 94 46 95
REMARK H PARENT 6 6 2 14 2 15 11 29 70 48 38 59
REMARK Flexibility Score: inf
ROOT
ATOM      1  C   UNL A   1      32.150  30.436  26.774  1.00  0.00     0.023 C 
ENDROOT
BRANCH   1   2
ATOM      2  C   UNL A   1      31.815  30.094  25.328  1.00  0.00     0.116 C 
BRANCH   2   3
ATOM      3  N   UNL A   1      32.966  29.685  24.546  1.00  0.00    -0.351 N 
ATOM      4  C   UNL A   1      33.071  28.881  23.443  1.00  0.00     0.281 C 
ATOM      5  O   UNL A   1      34.162  28.933  22.868  1.00  0.00    -0.268 OA
ATOM      6  H   UNL A   1      33.823  30.050  24.864  1.00  0.00     0.163 HD
BRANCH   4   7
ATOM      7  C   UNL A   1      31.890  27.974  22.951  1.00  0.00     0.176 C 
ATOM      8  C   UNL A   1      31.431  26.952  24.013  1.00  0.00     0.080 C 
ATOM      9  C   UNL A   1      30.632  28.826  22.672  1.00  0.00     0.094 C 
ATOM     10  C   UNL A   1      29.908  26.829  23.897  1.00  0.00     0.022 C 
ATOM     11  C   UNL A   1      29.461  27.870  22.870  1.00  0.00     0.059 C 
BRANCH   7  12
ATOM     12  N   UNL A   1      32.168  27.232  21.683  1.00  0.00    -0.336 N 
ATOM     13  C   UNL A   1      32.813  25.931  21.825  1.00  0.00     0.331 C 
ATOM     14  H   UNL A   1      31.278  27.087  21.206  1.00  0.00     0.346 HD
ATOM     15  H   UNL A   1      32.831  27.811  21.168  1.00  0.00     0.346 HD
ENDBRANCH   7  12
BRANCH  11  16
ATOM     16  S   UNL A   1      27.841  28.670  23.204  1.00  0.00    -0.119 SA
BRANCH  16  17
ATOM     17  C   UNL A   1      28.016  30.317  22.532  1.00  0.00     0.046 A 
ATOM     18  C   UNL A   1      27.827  30.526  21.162  1.00  0.00     0.057 A 
ATOM     19  C   UNL A   1      28.458  31.394  23.315  1.00  0.00     0.136 A 
ATOM     20  C   UNL A   1      28.046  31.789  20.612  1.00  0.00     0.124 A 
ATOM     21  C   UNL A   1      28.678  32.655  22.760  1.00  0.00     0.043 A 
ATOM     22  F   UNL A   1      28.661  31.240  24.632  1.00  0.00    -0.206 F 
ATOM     23  F   UNL A   1      27.852  31.976  19.301  1.00  0.00    -0.207 F 
ATOM     24  C   UNL A   1      28.469  32.856  21.397  1.00  0.00     0.042 A 
ENDBRANCH  16  17
ENDBRANCH  11  16
ENDBRANCH   4   7
ENDBRANCH   2   3
ENDBRANCH   1   2
BRANCH   1  25
ATOM     25  C   UNL A   1      31.764  31.842  27.228  1.00  0.00     0.023 C 
BRANCH  25  26
ATOM     26  C   UNL A   1      32.885  32.875  27.244  1.00  0.00     0.116 C 
BRANCH  26  27
ATOM     27  N   UNL A   1      32.464  34.201  27.680  1.00  0.00    -0.352 N 
ATOM     28  C   UNL A   1      33.011  35.027  28.630  1.00  0.00     0.251 C 
ATOM     29  H   UNL A   1      31.667  34.556  27.224  1.00  0.00     0.163 HD
ATOM     30  O   UNL A   1      32.498  36.105  28.874  1.00  0.00    -0.269 OA
BRANCH  28  31
ATOM     31  C   UNL A   1      34.190  34.567  29.402  1.00  0.00     0.039 A 
ATOM     32  C   UNL A   1      33.978  33.948  30.638  1.00  0.00     0.014 A 
ATOM     33  C   UNL A   1      35.483  34.680  28.885  1.00  0.00     0.014 A 
ATOM     34  C   UNL A   1      35.048  33.348  31.303  1.00  0.00     0.010 A 
ATOM     35  C   UNL A   1      36.536  34.020  29.512  1.00  0.00     0.010 A 
ATOM     36  C   UNL A   1      36.325  33.331  30.717  1.00  0.00    -0.014 A 
BRANCH  36  37
ATOM     37  C   UNL A   1      37.438  32.561  31.325  1.00  0.00     0.031 A 
ATOM     38  C   UNL A   1      37.947  32.913  32.692  1.00  0.00     0.074 A 
ATOM     39  C   UNL A   1      38.043  31.596  30.605  1.00  0.00     0.049 A 
ATOM     40  N   UNL A   1      38.951  32.404  33.359  1.00  0.00    -0.248 NA
ATOM     41  C   UNL A   1      37.251  34.005  33.392  1.00  0.00     0.031 C 
ATOM     42  C   UNL A   1      37.682  31.204  29.241  1.00  0.00     0.029 A 
ATOM     43  N   UNL A   1      39.098  30.773  30.915  1.00  0.00    -0.354 N 
ATOM     44  C   UNL A   1      39.018  33.120  34.545  1.00  0.00     0.074 A 
ATOM     45  C   UNL A   1      37.985  34.132  34.489  1.00  0.00     0.031 C 
ATOM     46  C   UNL A   1      38.483  30.205  28.841  1.00  0.00     0.029 A 
ATOM     47  C   UNL A   1      39.436  29.905  29.905  1.00  0.00     0.049 A 
ATOM     48  H   UNL A   1      39.569  30.804  31.779  1.00  0.00     0.167 HD
ATOM     49  C   UNL A   1      39.852  32.936  35.597  1.00  0.00     0.037 A 
ATOM     50  C   UNL A   1      40.404  28.971  29.847  1.00  0.00     0.037 A 
ATOM     51  C   UNL A   1      40.860  31.911  35.661  1.00  0.00     0.049 A 
ATOM     52  C   UNL A   1      41.300  28.770  31.038  1.00  0.00     0.074 A 
ATOM     53  C   UNL A   1      41.717  31.605  36.704  1.00  0.00     0.029 A 
ATOM     54  N   UNL A   1      41.146  31.023  34.633  1.00  0.00    -0.354 N 
ATOM     55  N   UNL A   1      41.308  29.407  32.183  1.00  0.00    -0.248 NA
ATOM     56  C   UNL A   1      42.315  27.713  30.932  1.00  0.00     0.031 C 
ATOM     57  C   UNL A   1      42.542  30.550  36.296  1.00  0.00     0.029 A 
ATOM     58  C   UNL A   1      42.174  30.175  35.014  1.00  0.00     0.049 A 
ATOM     59  H   UNL A   1      40.686  30.998  33.764  1.00  0.00     0.167 HD
ATOM     60  C   UNL A   1      42.308  28.816  32.942  1.00  0.00     0.074 A 
ATOM     61  C   UNL A   1      42.877  27.758  32.132  1.00  0.00     0.031 C 
ATOM     62  C   UNL A   1      42.719  29.122  34.197  1.00  0.00     0.037 A 
BRANCH  49  63
ATOM     63  C   UNL A   1      39.701  33.863  36.766  1.00  0.00     0.064 A 
ATOM     64  C   UNL A   1      38.904  33.524  37.871  1.00  0.00     0.173 A 
ATOM     65  C   UNL A   1      40.375  35.093  36.796  1.00  0.00     0.173 A 
ATOM     66  F   UNL A   1      38.229  32.365  37.886  1.00  0.00    -0.203 F 
ATOM     67  C   UNL A   1      38.763  34.396  38.947  1.00  0.00     0.198 A 
ATOM     68  C   UNL A   1      40.253  35.951  37.886  1.00  0.00     0.198 A 
ATOM     69  F   UNL A   1      41.153  35.463  35.767  1.00  0.00    -0.203 F 
ATOM     70  F   UNL A   1      37.956  34.073  39.967  1.00  0.00    -0.200 F 
ATOM     71  C   UNL A   1      39.442  35.606  38.956  1.00  0.00     0.200 A 
ATOM     72  F   UNL A   1      40.917  37.115  37.898  1.00  0.00    -0.200 F 
ATOM     73  F   UNL A   1      39.306  36.443  39.993  1.00  0.00    -0.200 F 
ENDBRANCH  49  63
BRANCH  50  74
ATOM     74  C   UNL A   1      40.552  28.131  28.631  1.00  0.00     0.064 A 
ATOM     75  C   UNL A   1      39.904  26.891  28.534  1.00  0.00     0.173 A 
ATOM     76  C   UNL A   1      41.335  28.544  27.545  1.00  0.00     0.173 A 
ATOM     77  F   UNL A   1      39.159  26.444  29.556  1.00  0.00    -0.203 F 
ATOM     78  C   UNL A   1      40.048  26.089  27.404  1.00  0.00     0.198 A 
ATOM     79  C   UNL A   1      41.459  27.752  26.405  1.00  0.00     0.198 A 
ATOM     80  F   UNL A   1      41.970  29.725  27.586  1.00  0.00    -0.203 F 
ATOM     81  F   UNL A   1      39.450  24.891  27.354  1.00  0.00    -0.200 F 
ATOM     82  C   UNL A   1      40.821  26.523  26.338  1.00  0.00     0.200 A 
ATOM     83  F   UNL A   1      42.197  28.181  25.372  1.00  0.00    -0.200 F 
ATOM     84  F   UNL A   1      40.957  25.754  25.249  1.00  0.00    -0.200 F 
ENDBRANCH  50  74
BRANCH  62  85
ATOM     85  C   UNL A   1      43.817  28.284  34.780  1.00  0.00     0.064 A 
ATOM     86  C   UNL A   1      45.166  28.630  34.623  1.00  0.00     0.173 A 
ATOM     87  C   UNL A   1      43.511  27.145  35.540  1.00  0.00     0.173 A 
ATOM     88  F   UNL A   1      45.508  29.701  33.892  1.00  0.00    -0.203 F 
ATOM     89  C   UNL A   1      46.173  27.852  35.188  1.00  0.00     0.198 A 
ATOM     90  C   UNL A   1      44.518  26.384  36.124  1.00  0.00     0.198 A 
ATOM     91  F   UNL A   1      42.234  26.776  35.722  1.00  0.00    -0.203 F 
ATOM     92  F   UNL A   1      47.457  28.177  34.991  1.00  0.00    -0.200 F 
ATOM     93  C   UNL A   1      45.848  26.734  35.943  1.00  0.00     0.200 A 
ATOM     94  F   UNL A   1      44.203  25.309  36.862  1.00  0.00    -0.200 F 
ATOM     95  F   UNL A   1      46.818  25.990  36.491  1.00  0.00    -0.200 F 
ENDBRANCH  62  85
ENDBRANCH  36  37
ENDBRANCH  28  31
ENDBRANCH  26  27
ENDBRANCH  25  26
ENDBRANCH   1  25
TORSDOF 14
ENDMDL
MODEL 2
REMARK VINA RESULT:     -12.6      0.877      7.374
REMARK SMILES C[NH2+][C@]1(C(=O)NCCCCNC(=O)c2ccc(-c3c4nc(c(-c5c(F)c(F)c(F)c(F)c5F)c5ccc([nH]5)c(-c5c(F)c(F)c(F)c(F)c5F)c5nc(c(-c6c(F)c(F)c(F)c(F)c6F)c6ccc3[nH]6)C=C5)C=C4)cc2)CC[C@@H](Sc2cc(F)ccc2F)C1
REMARK SMILES IDX 8 1 7 2 6 3 4 4 5 5 3 7 77 8 89 9 78 10 79 11 2 12 1 13
REMARK SMILES IDX 80 16 81 17 82 18 87 19 83 20 86 21 88 22 84 23 85 24 9 25
REMARK SMILES IDX 10 26 11 27 12 28 13 30 14 31 15 32 76 33 16 34 75 35 17 36
REMARK SMILES IDX 18 37 19 38 69 39 20 40 74 41 68 42 70 43 21 44 73 45 67 46
REMARK SMILES IDX 66 47 22 49 54 50 34 51 53 52 35 53 38 54 52 55 71 56 36 57
REMARK SMILES IDX 37 58 51 60 72 61 39 62 23 63 24 64 32 65 25 66 26 67 30 68
REMARK SMILES IDX 33 69 27 70 28 71 31 72 29 73 55 74 56 75 64 76 57 77 58 78
REMARK SMILES IDX 62 79 65 80 59 81 60 82 63 83 61 84 40 85 41 86 49 87 42 88
REMARK SMILES IDX 43 89 47 90 50 91 44 92 45 93 48 94 46 95
REMARK H PARENT 6 6 2 14 2 15 11 29 70 48 38 59
REMARK Flexibility Score: inf
ROOT
ATOM      1  C   UNL A   1      32.140  30.280  27.138  1.00  0.00     0.023 C 
ENDROOT
BRANCH   1   2
ATOM      2  C   UNL A   1      33.421  29.718  26.535  1.00  0.00     0.116 C 
BRANCH   2   3
ATOM      3  N   UNL A   1      33.450  28.269  26.481  1.00  0.00    -0.351 N 
ATOM      4  C   UNL A   1      33.276  27.398  25.439  1.00  0.00     0.281 C 
ATOM      5  O   UNL A   1      33.609  26.233  25.678  1.00  0.00    -0.268 OA
ATOM      6  H   UNL A   1      33.626  27.834  27.347  1.00  0.00     0.163 HD
BRANCH   4   7
ATOM      7  C   UNL A   1      32.706  27.855  24.051  1.00  0.00     0.176 C 
ATOM      8  C   UNL A   1      32.390  26.673  23.110  1.00  0.00     0.080 C 
ATOM      9  C   UNL A   1      31.349  28.573  24.232  1.00  0.00     0.094 C 
ATOM     10  C   UNL A   1      31.120  27.037  22.334  1.00  0.00     0.022 C 
ATOM     11  C   UNL A   1      30.617  28.360  22.911  1.00  0.00     0.059 C 
BRANCH   7  12
ATOM     12  N   UNL A   1      33.579  28.817  23.311  1.00  0.00    -0.336 N 
ATOM     13  C   UNL A   1      34.208  28.312  22.094  1.00  0.00     0.331 C 
ATOM     14  H   UNL A   1      33.009  29.622  23.056  1.00  0.00     0.346 HD
ATOM     15  H   UNL A   1      34.348  29.031  23.946  1.00  0.00     0.346 HD
ENDBRANCH   7  12
BRANCH  11  16
ATOM     16  S   UNL A   1      28.791  28.551  22.987  1.00  0.00    -0.119 SA
BRANCH  16  17
ATOM     17  C   UNL A   1      28.500  30.228  22.443  1.00  0.00     0.046 A 
ATOM     18  C   UNL A   1      28.006  30.460  21.155  1.00  0.00     0.057 A 
ATOM     19  C   UNL A   1      28.866  31.335  23.223  1.00  0.00     0.136 A 
ATOM     20  C   UNL A   1      27.857  31.765  20.688  1.00  0.00     0.124 A 
ATOM     21  C   UNL A   1      28.718  32.640  22.751  1.00  0.00     0.043 A 
ATOM     22  F   UNL A   1      29.352  31.164  24.461  1.00  0.00    -0.206 F 
ATOM     23  F   UNL A   1      27.374  31.970  19.456  1.00  0.00    -0.207 F 
ATOM     24  C   UNL A   1      28.208  32.858  21.473  1.00  0.00     0.042 A 
ENDBRANCH  16  17
ENDBRANCH  11  16
ENDBRANCH   4   7
ENDBRANCH   2   3
ENDBRANCH   1   2
BRANCH   1  25
ATOM     25  C   UNL A   1      31.888  31.765  26.887  1.00  0.00     0.023 C 
BRANCH  25  26
ATOM     26  C   UNL A   1      32.987  32.720  27.341  1.00  0.00     0.116 C 
BRANCH  26  27
ATOM     27  N   UNL A   1      32.509  34.052  27.690  1.00  0.00    -0.352 N 
ATOM     28  C   UNL A   1      33.014  34.957  28.591  1.00  0.00     0.251 C 
ATOM     29  H   UNL A   1      31.703  34.346  27.208  1.00  0.00     0.163 HD
ATOM     30  O   UNL A   1      32.456  36.027  28.764  1.00  0.00    -0.269 OA
BRANCH  28  31
ATOM     31  C   UNL A   1      34.203  34.594  29.398  1.00  0.00     0.039 A 
ATOM     32  C   UNL A   1      34.006  34.106  30.693  1.00  0.00     0.014 A 
ATOM     33  C   UNL A   1      35.491  34.666  28.862  1.00  0.00     0.014 A 
ATOM     34  C   UNL A   1      35.088  33.591  31.409  1.00  0.00     0.010 A 
ATOM     35  C   UNL A   1      36.556  34.088  29.547  1.00  0.00     0.010 A 
ATOM     36  C   UNL A   1      36.361  33.527  30.819  1.00  0.00    -0.014 A 
BRANCH  36  37
ATOM     37  C   UNL A   1      37.487  32.838  31.496  1.00  0.00     0.031 A 
ATOM     38  C   UNL A   1      38.175  31.679  30.835  1.00  0.00     0.074 A 
ATOM     39  C   UNL A   1      37.834  33.209  32.743  1.00  0.00     0.049 A 
ATOM     40  N   UNL A   1      39.128  30.910  31.295  1.00  0.00    -0.248 NA
ATOM     41  C   UNL A   1      37.708  31.318  29.487  1.00  0.00     0.031 C 
ATOM     42  C   UNL A   1      37.198  34.278  33.516  1.00  0.00     0.029 A 
ATOM     43  N   UNL A   1      38.800  32.721  33.589  1.00  0.00    -0.354 N 
ATOM     44  C   UNL A   1      39.364  29.968  30.304  1.00  0.00     0.074 A 
ATOM     45  C   UNL A   1      38.422  30.230  29.237  1.00  0.00     0.031 C 
ATOM     46  C   UNL A   1      37.804  34.381  34.710  1.00  0.00     0.029 A 
ATOM     47  C   UNL A   1      38.850  33.366  34.801  1.00  0.00     0.049 A 
ATOM     48  H   UNL A   1      39.400  31.978  33.349  1.00  0.00     0.167 HD
ATOM     49  C   UNL A   1      40.296  28.985  30.277  1.00  0.00     0.037 A 
ATOM     50  C   UNL A   1      39.650  33.162  35.865  1.00  0.00     0.037 A 
ATOM     51  C   UNL A   1      41.250  28.745  31.328  1.00  0.00     0.049 A 
ATOM     52  C   UNL A   1      40.694  32.082  35.799  1.00  0.00     0.074 A 
ATOM     53  C   UNL A   1      42.273  27.814  31.371  1.00  0.00     0.029 A 
ATOM     54  N   UNL A   1      41.296  29.447  32.525  1.00  0.00    -0.354 N 
ATOM     55  N   UNL A   1      40.954  31.242  34.827  1.00  0.00    -0.248 NA
ATOM     56  C   UNL A   1      41.563  31.928  36.973  1.00  0.00     0.031 C 
ATOM     57  C   UNL A   1      42.919  27.931  32.607  1.00  0.00     0.029 A 
ATOM     58  C   UNL A   1      42.323  28.961  33.318  1.00  0.00     0.049 A 
ATOM     59  H   UNL A   1      40.690  30.181  32.772  1.00  0.00     0.167 HD
ATOM     60  C   UNL A   1      42.028  30.478  35.259  1.00  0.00     0.074 A 
ATOM     61  C   UNL A   1      42.381  30.963  36.578  1.00  0.00     0.031 C 
ATOM     62  C   UNL A   1      42.664  29.464  34.623  1.00  0.00     0.037 A 
BRANCH  49  63
ATOM     63  C   UNL A   1      40.333  28.102  29.065  1.00  0.00     0.064 A 
ATOM     64  C   UNL A   1      41.083  28.447  27.930  1.00  0.00     0.173 A 
ATOM     65  C   UNL A   1      39.629  26.889  29.043  1.00  0.00     0.173 A 
ATOM     66  F   UNL A   1      41.763  29.602  27.895  1.00  0.00    -0.203 F 
ATOM     67  C   UNL A   1      41.101  27.624  26.806  1.00  0.00     0.198 A 
ATOM     68  C   UNL A   1      39.671  26.056  27.928  1.00  0.00     0.198 A 
ATOM     69  F   UNL A   1      38.899  26.511  30.104  1.00  0.00    -0.203 F 
ATOM     70  F   UNL A   1      41.783  27.999  25.715  1.00  0.00    -0.200 F 
ATOM     71  C   UNL A   1      40.400  26.427  26.808  1.00  0.00     0.200 A 
ATOM     72  F   UNL A   1      39.001  24.895  27.935  1.00  0.00    -0.200 F 
ATOM     73  F   UNL A   1      40.420  25.636  25.728  1.00  0.00    -0.200 F 
ENDBRANCH  49  63
BRANCH  50  74
ATOM     74  C   UNL A   1      39.519  34.023  37.068  1.00  0.00     0.064 A 
ATOM     75  C   UNL A   1      38.762  33.603  38.170  1.00  0.00     0.173 A 
ATOM     76  C   UNL A   1      40.143  35.275  37.144  1.00  0.00     0.173 A 
ATOM     77  F   UNL A   1      38.129  32.421  38.136  1.00  0.00    -0.203 F 
ATOM     78  C   UNL A   1      38.620  34.410  39.297  1.00  0.00     0.198 A 
ATOM     79  C   UNL A   1      40.022  36.071  38.282  1.00  0.00     0.198 A 
ATOM     80  F   UNL A   1      40.884  35.720  36.118  1.00  0.00    -0.203 F 
ATOM     81  F   UNL A   1      37.858  34.000  40.321  1.00  0.00    -0.200 F 
ATOM     82  C   UNL A   1      39.255  35.641  39.354  1.00  0.00     0.200 A 
ATOM     83  F   UNL A   1      40.648  37.255  38.338  1.00  0.00    -0.200 F 
ATOM     84  F   UNL A   1      39.123  36.416  40.440  1.00  0.00    -0.200 F 
ENDBRANCH  50  74
BRANCH  62  85
ATOM     85  C   UNL A   1      43.824  28.832  35.332  1.00  0.00     0.064 A 
ATOM     86  C   UNL A   1      45.137  29.287  35.140  1.00  0.00     0.173 A 
ATOM     87  C   UNL A   1      43.614  27.787  36.244  1.00  0.00     0.173 A 
ATOM     88  F   UNL A   1      45.388  30.274  34.267  1.00  0.00    -0.203 F 
ATOM     89  C   UNL A   1      46.201  28.703  35.822  1.00  0.00     0.198 A 
ATOM     90  C   UNL A   1      44.677  27.222  36.941  1.00  0.00     0.198 A 
ATOM     91  F   UNL A   1      42.375  27.320  36.464  1.00  0.00    -0.203 F 
ATOM     92  F   UNL A   1      47.452  29.125  35.594  1.00  0.00    -0.200 F 
ATOM     93  C   UNL A   1      45.970  27.677  36.726  1.00  0.00     0.200 A 
ATOM     94  F   UNL A   1      44.451  26.237  37.822  1.00  0.00    -0.200 F 
ATOM     95  F   UNL A   1      46.995  27.119  37.384  1.00  0.00    -0.200 F 
ENDBRANCH  62  85
ENDBRANCH  36  37
ENDBRANCH  28  31
ENDBRANCH  26  27
ENDBRANCH  25  26
ENDBRANCH   1  25
TORSDOF 14
ENDMDL
MODEL 3
REMARK VINA RESULT:     -12.5      2.142      3.768
REMARK SMILES C[NH2+][C@]1(C(=O)NCCCCNC(=O)c2ccc(-c3c4nc(c(-c5c(F)c(F)c(F)c(F)c5F)c5ccc([nH]5)c(-c5c(F)c(F)c(F)c(F)c5F)c5nc(c(-c6c(F)c(F)c(F)c(F)c6F)c6ccc3[nH]6)C=C5)C=C4)cc2)CC[C@@H](Sc2cc(F)ccc2F)C1
REMARK SMILES IDX 8 1 7 2 6 3 4 4 5 5 3 7 77 8 89 9 78 10 79 11 2 12 1 13
REMARK SMILES IDX 80 16 81 17 82 18 87 19 83 20 86 21 88 22 84 23 85 24 9 25
REMARK SMILES IDX 10 26 11 27 12 28 13 30 14 31 15 32 76 33 16 34 75 35 17 36
REMARK SMILES IDX 18 37 19 38 69 39 20 40 74 41 68 42 70 43 21 44 73 45 67 46
REMARK SMILES IDX 66 47 22 49 54 50 34 51 53 52 35 53 38 54 52 55 71 56 36 57
REMARK SMILES IDX 37 58 51 60 72 61 39 62 23 63 24 64 32 65 25 66 26 67 30 68
REMARK SMILES IDX 33 69 27 70 28 71 31 72 29 73 55 74 56 75 64 76 57 77 58 78
REMARK SMILES IDX 62 79 65 80 59 81 60 82 63 83 61 84 40 85 41 86 49 87 42 88
REMARK SMILES IDX 43 89 47 90 50 91 44 92 45 93 48 94 46 95
REMARK H PARENT 6 6 2 14 2 15 11 29 70 48 38 59
REMARK Flexibility Score: inf
ROOT
ATOM      1  C   UNL A   1      31.805  30.532  25.745  1.00  0.00     0.023 C 
ENDROOT
BRANCH   1   2
ATOM      2  C   UNL A   1      32.793  29.391  25.942  1.00  0.00     0.116 C 
BRANCH   2   3
ATOM      3  N   UNL A   1      33.679  29.187  24.812  1.00  0.00    -0.351 N 
ATOM      4  C   UNL A   1      33.524  28.464  23.659  1.00  0.00     0.281 C 
ATOM      5  O   UNL A   1      34.365  28.698  22.786  1.00  0.00    -0.268 OA
ATOM      6  H   UNL A   1      34.545  29.650  24.886  1.00  0.00     0.163 HD
BRANCH   4   7
ATOM      7  C   UNL A   1      32.361  27.429  23.469  1.00  0.00     0.176 C 
ATOM      8  C   UNL A   1      32.403  26.720  22.099  1.00  0.00     0.080 C 
ATOM      9  C   UNL A   1      32.481  26.283  24.497  1.00  0.00     0.094 C 
ATOM     10  C   UNL A   1      31.965  25.269  22.325  1.00  0.00     0.022 C 
ATOM     11  C   UNL A   1      31.799  25.091  23.834  1.00  0.00     0.059 C 
BRANCH   7  12
ATOM     12  N   UNL A   1      30.991  27.999  23.654  1.00  0.00    -0.336 N 
ATOM     13  C   UNL A   1      30.501  28.864  22.585  1.00  0.00     0.331 C 
ATOM     14  H   UNL A   1      30.340  27.220  23.747  1.00  0.00     0.346 HD
ATOM     15  H   UNL A   1      31.053  28.596  24.480  1.00  0.00     0.346 HD
ENDBRANCH   7  12
BRANCH  11  16
ATOM     16  S   UNL A   1      32.275  23.445  24.497  1.00  0.00    -0.119 SA
BRANCH  16  17
ATOM     17  C   UNL A   1      34.060  23.491  24.551  1.00  0.00     0.046 A 
ATOM     18  C   UNL A   1      34.794  23.120  23.420  1.00  0.00     0.057 A 
ATOM     19  C   UNL A   1      34.759  23.771  25.735  1.00  0.00     0.136 A 
ATOM     20  C   UNL A   1      36.187  23.067  23.477  1.00  0.00     0.124 A 
ATOM     21  C   UNL A   1      36.153  23.715  25.789  1.00  0.00     0.043 A 
ATOM     22  F   UNL A   1      34.099  24.124  26.848  1.00  0.00    -0.206 F 
ATOM     23  F   UNL A   1      36.875  22.720  22.383  1.00  0.00    -0.207 F 
ATOM     24  C   UNL A   1      36.874  23.362  24.650  1.00  0.00     0.042 A 
ENDBRANCH  16  17
ENDBRANCH  11  16
ENDBRANCH   4   7
ENDBRANCH   2   3
ENDBRANCH   1   2
BRANCH   1  25
ATOM     25  C   UNL A   1      31.659  31.491  26.924  1.00  0.00     0.023 C 
BRANCH  25  26
ATOM     26  C   UNL A   1      32.833  32.430  27.177  1.00  0.00     0.116 C 
BRANCH  26  27
ATOM     27  N   UNL A   1      32.441  33.787  27.536  1.00  0.00    -0.352 N 
ATOM     28  C   UNL A   1      33.011  34.656  28.434  1.00  0.00     0.251 C 
ATOM     29  H   UNL A   1      31.650  34.132  27.064  1.00  0.00     0.163 HD
ATOM     30  O   UNL A   1      32.521  35.757  28.617  1.00  0.00    -0.269 OA
BRANCH  28  31
ATOM     31  C   UNL A   1      34.185  34.218  29.227  1.00  0.00     0.039 A 
ATOM     32  C   UNL A   1      33.963  33.480  30.394  1.00  0.00     0.014 A 
ATOM     33  C   UNL A   1      35.487  34.469  28.790  1.00  0.00     0.014 A 
ATOM     34  C   UNL A   1      35.045  32.904  31.062  1.00  0.00     0.010 A 
ATOM     35  C   UNL A   1      36.558  33.835  29.415  1.00  0.00     0.010 A 
ATOM     36  C   UNL A   1      36.344  33.030  30.545  1.00  0.00    -0.014 A 
BRANCH  36  37
ATOM     37  C   UNL A   1      37.484  32.294  31.145  1.00  0.00     0.031 A 
ATOM     38  C   UNL A   1      37.990  32.658  32.510  1.00  0.00     0.074 A 
ATOM     39  C   UNL A   1      38.114  31.348  30.420  1.00  0.00     0.049 A 
ATOM     40  N   UNL A   1      39.013  32.178  33.169  1.00  0.00    -0.248 NA
ATOM     41  C   UNL A   1      37.266  33.726  33.216  1.00  0.00     0.031 C 
ATOM     42  C   UNL A   1      37.757  30.949  29.057  1.00  0.00     0.029 A 
ATOM     43  N   UNL A   1      39.196  30.558  30.722  1.00  0.00    -0.354 N 
ATOM     44  C   UNL A   1      39.065  32.894  34.357  1.00  0.00     0.074 A 
ATOM     45  C   UNL A   1      38.002  33.874  34.309  1.00  0.00     0.031 C 
ATOM     46  C   UNL A   1      38.586  29.975  28.650  1.00  0.00     0.029 A 
ATOM     47  C   UNL A   1      39.554  29.702  29.708  1.00  0.00     0.049 A 
ATOM     48  H   UNL A   1      39.670  30.601  31.583  1.00  0.00     0.167 HD
ATOM     49  C   UNL A   1      39.911  32.734  35.403  1.00  0.00     0.037 A 
ATOM     50  C   UNL A   1      40.550  28.798  29.642  1.00  0.00     0.037 A 
ATOM     51  C   UNL A   1      40.950  31.739  35.460  1.00  0.00     0.049 A 
ATOM     52  C   UNL A   1      41.458  28.622  30.828  1.00  0.00     0.074 A 
ATOM     53  C   UNL A   1      41.822  31.457  36.497  1.00  0.00     0.029 A 
ATOM     54  N   UNL A   1      41.257  30.862  34.429  1.00  0.00    -0.354 N 
ATOM     55  N   UNL A   1      41.453  29.257  31.974  1.00  0.00    -0.248 NA
ATOM     56  C   UNL A   1      42.504  27.597  30.713  1.00  0.00     0.031 C 
ATOM     57  C   UNL A   1      42.676  30.429  36.083  1.00  0.00     0.029 A 
ATOM     58  C   UNL A   1      42.312  30.045  34.802  1.00  0.00     0.049 A 
ATOM     59  H   UNL A   1      40.793  30.825  33.562  1.00  0.00     0.167 HD
ATOM     60  C   UNL A   1      42.475  28.695  32.726  1.00  0.00     0.074 A 
ATOM     61  C   UNL A   1      43.071  27.656  31.910  1.00  0.00     0.031 C 
ATOM     62  C   UNL A   1      42.884  29.011  33.979  1.00  0.00     0.037 A 
BRANCH  49  63
ATOM     63  C   UNL A   1      39.738  33.653  36.576  1.00  0.00     0.064 A 
ATOM     64  C   UNL A   1      40.405  34.886  36.645  1.00  0.00     0.173 A 
ATOM     65  C   UNL A   1      38.883  33.309  37.633  1.00  0.00     0.173 A 
ATOM     66  F   UNL A   1      41.244  35.255  35.666  1.00  0.00    -0.203 F 
ATOM     67  C   UNL A   1      40.245  35.726  37.743  1.00  0.00     0.198 A 
ATOM     68  C   UNL A   1      38.704  34.164  38.718  1.00  0.00     0.198 A 
ATOM     69  F   UNL A   1      38.219  32.143  37.615  1.00  0.00    -0.203 F 
ATOM     70  F   UNL A   1      40.932  36.875  37.810  1.00  0.00    -0.200 F 
ATOM     71  C   UNL A   1      39.391  35.368  38.776  1.00  0.00     0.200 A 
ATOM     72  F   UNL A   1      37.871  33.822  39.710  1.00  0.00    -0.200 F 
ATOM     73  F   UNL A   1      39.237  36.178  39.831  1.00  0.00    -0.200 F 
ENDBRANCH  49  63
BRANCH  50  74
ATOM     74  C   UNL A   1      40.716  27.965  28.424  1.00  0.00     0.064 A 
ATOM     75  C   UNL A   1      40.071  26.726  28.310  1.00  0.00     0.173 A 
ATOM     76  C   UNL A   1      41.514  28.386  27.351  1.00  0.00     0.173 A 
ATOM     77  F   UNL A   1      39.313  26.272  29.318  1.00  0.00    -0.203 F 
ATOM     78  C   UNL A   1      40.232  25.930  27.178  1.00  0.00     0.198 A 
ATOM     79  C   UNL A   1      41.655  27.601  26.208  1.00  0.00     0.198 A 
ATOM     80  F   UNL A   1      42.147  29.568  27.408  1.00  0.00    -0.203 F 
ATOM     81  F   UNL A   1      39.636  24.732  27.113  1.00  0.00    -0.200 F 
ATOM     82  C   UNL A   1      41.020  26.372  26.125  1.00  0.00     0.200 A 
ATOM     83  F   UNL A   1      42.406  28.037  25.188  1.00  0.00    -0.200 F 
ATOM     84  F   UNL A   1      41.172  25.609  25.034  1.00  0.00    -0.200 F 
ENDBRANCH  50  74
BRANCH  62  85
ATOM     85  C   UNL A   1      44.010  28.205  34.554  1.00  0.00     0.064 A 
ATOM     86  C   UNL A   1      45.343  28.626  34.445  1.00  0.00     0.173 A 
ATOM     87  C   UNL A   1      43.747  27.021  35.258  1.00  0.00     0.173 A 
ATOM     88  F   UNL A   1      45.645  29.744  33.768  1.00  0.00    -0.203 F 
ATOM     89  C   UNL A   1      46.376  27.876  35.002  1.00  0.00     0.198 A 
ATOM     90  C   UNL A   1      44.778  26.287  35.834  1.00  0.00     0.198 A 
ATOM     91  F   UNL A   1      42.486  26.580  35.392  1.00  0.00    -0.203 F 
ATOM     92  F   UNL A   1      47.646  28.274  34.851  1.00  0.00    -0.200 F 
ATOM     93  C   UNL A   1      46.092  26.713  35.702  1.00  0.00     0.200 A 
ATOM     94  F   UNL A   1      44.503  25.168  36.519  1.00  0.00    -0.200 F 
ATOM     95  F   UNL A   1      47.087  25.996  36.242  1.00  0.00    -0.200 F 
ENDBRANCH  62  85
ENDBRANCH  36  37
ENDBRANCH  28  31
ENDBRANCH  26  27
ENDBRANCH  25  26
ENDBRANCH   1  25
TORSDOF 14
ENDMDL
