MODEL 1
REMARK VINA RESULT:     -12.1      0.000      0.000
REMARK SMILES CC(C)(C)OC(=O)N1C[C@H](Oc2ccncc2)C[C@H]1C(=O)NCCCCNC(=O)c1ccc(-c2c3nc(c(-c4c(F)c(F)c(F)c(F)c4F)c4ccc([nH]4)c(-c4c(F)c(F)c(F)c(F)c4F)c4nc(c(-c5c(F)c(F)c(F)c(F)c5F)c5ccc2[nH]5)C=C4)C=C3)cc1
REMARK SMILES IDX 24 1 23 2 22 3 20 4 21 5 19 7 8 8 9 9 10 10 18 11 6 12 7 13
REMARK SMILES IDX 5 14 2 15 1 16 3 17 4 18 11 19 12 20 13 21 17 22 14 23 16 24
REMARK SMILES IDX 15 25 25 26 26 27 27 28 28 29 29 31 30 32 31 33 92 34 32 35
REMARK SMILES IDX 91 36 33 37 34 38 35 39 85 40 36 41 90 42 84 43 86 44 37 45
REMARK SMILES IDX 89 46 83 47 82 48 38 50 70 51 50 52 69 53 51 54 54 55 68 56
REMARK SMILES IDX 87 57 52 58 53 59 67 61 88 62 55 63 39 64 40 65 48 66 41 67
REMARK SMILES IDX 42 68 46 69 49 70 43 71 44 72 47 73 45 74 71 75 72 76 80 77
REMARK SMILES IDX 73 78 74 79 78 80 81 81 75 82 76 83 79 84 77 85 56 86 57 87
REMARK SMILES IDX 65 88 58 89 59 90 63 91 66 92 60 93 61 94 64 95 62 96
REMARK H PARENT 22 6 27 30 86 49 54 60
REMARK Flexibility Score: inf
ROOT
ATOM      1  C   UNL A   1      37.103  21.152  24.458  1.00  0.00     0.023 C 
ENDROOT
BRANCH   1   2
ATOM      2  C   UNL A   1      36.739  22.197  25.506  1.00  0.00     0.116 C 
BRANCH   2   3
ATOM      3  N   UNL A   1      35.815  21.677  26.502  1.00  0.00    -0.354 N 
ATOM      4  C   UNL A   1      34.452  21.778  26.551  1.00  0.00     0.243 C 
ATOM      5  O   UNL A   1      33.849  21.091  27.381  1.00  0.00    -0.273 OA
ATOM      6  H   UNL A   1      36.230  21.183  27.245  1.00  0.00     0.163 HD
BRANCH   4   7
ATOM      7  C   UNL A   1      33.712  22.684  25.551  1.00  0.00     0.181 C 
ATOM      8  N   UNL A   1      32.449  22.095  25.107  1.00  0.00    -0.292 N 
ATOM      9  C   UNL A   1      31.313  22.934  25.448  1.00  0.00     0.169 C 
ATOM     10  C   UNL A   1      31.916  24.319  25.675  1.00  0.00     0.195 C 
ATOM     11  C   UNL A   1      33.319  24.021  26.210  1.00  0.00     0.082 C 
BRANCH   8  12
ATOM     12  C   UNL A   1      32.430  21.005  24.275  1.00  0.00     0.411 C 
ATOM     13  O   UNL A   1      32.563  21.085  23.061  1.00  0.00    -0.224 OA
BRANCH  12  14
ATOM     14  O   UNL A   1      32.177  19.853  24.943  1.00  0.00    -0.444 OA
BRANCH  14  15
ATOM     15  C   UNL A   1      32.883  18.626  24.613  1.00  0.00     0.106 C 
ATOM     16  C   UNL A   1      32.528  17.658  25.750  1.00  0.00     0.056 C 
ATOM     17  C   UNL A   1      34.388  18.903  24.626  1.00  0.00     0.056 C 
ATOM     18  C   UNL A   1      32.445  17.977  23.290  1.00  0.00     0.056 C 
ENDBRANCH  14  15
ENDBRANCH  12  14
ENDBRANCH   8  12
BRANCH  10  19
ATOM     19  O   UNL A   1      31.866  25.224  24.555  1.00  0.00    -0.488 OA
BRANCH  19  20
ATOM     20  C   UNL A   1      32.217  26.524  24.770  1.00  0.00     0.122 A 
ATOM     21  C   UNL A   1      33.257  27.108  24.060  1.00  0.00     0.066 A 
ATOM     22  C   UNL A   1      31.430  27.305  25.607  1.00  0.00     0.066 A 
ATOM     23  C   UNL A   1      33.533  28.444  24.297  1.00  0.00     0.115 A 
ATOM     24  C   UNL A   1      31.777  28.634  25.768  1.00  0.00     0.115 A 
ATOM     25  N   UNL A   1      32.826  29.217  25.148  1.00  0.00    -0.264 NA
ENDBRANCH  19  20
ENDBRANCH  10  19
ENDBRANCH   4   7
ENDBRANCH   2   3
ENDBRANCH   1   2
BRANCH   1  26
ATOM     26  C   UNL A   1      37.898  19.960  24.991  1.00  0.00     0.023 C 
BRANCH  26  27
ATOM     27  C   UNL A   1      39.126  20.308  25.827  1.00  0.00     0.116 C 
BRANCH  27  28
ATOM     28  N   UNL A   1      40.095  19.225  25.906  1.00  0.00    -0.352 N 
ATOM     29  C   UNL A   1      41.449  19.289  26.126  1.00  0.00     0.251 C 
ATOM     30  H   UNL A   1      39.728  18.320  25.784  1.00  0.00     0.163 HD
ATOM     31  O   UNL A   1      42.139  18.277  26.051  1.00  0.00    -0.269 OA
BRANCH  29  32
ATOM     32  C   UNL A   1      42.087  20.590  26.418  1.00  0.00     0.039 A 
ATOM     33  C   UNL A   1      42.506  21.388  25.349  1.00  0.00     0.014 A 
ATOM     34  C   UNL A   1      42.264  21.027  27.734  1.00  0.00     0.014 A 
ATOM     35  C   UNL A   1      43.033  22.656  25.597  1.00  0.00     0.010 A 
ATOM     36  C   UNL A   1      42.734  22.316  27.976  1.00  0.00     0.010 A 
ATOM     37  C   UNL A   1      43.116  23.145  26.910  1.00  0.00    -0.014 A 
BRANCH  37  38
ATOM     38  C   UNL A   1      43.589  24.523  27.190  1.00  0.00     0.031 A 
ATOM     39  C   UNL A   1      42.632  25.561  27.704  1.00  0.00     0.074 A 
ATOM     40  C   UNL A   1      44.863  24.859  26.912  1.00  0.00     0.049 A 
ATOM     41  N   UNL A   1      42.833  26.836  27.922  1.00  0.00    -0.248 NA
ATOM     42  C   UNL A   1      41.261  25.110  27.989  1.00  0.00     0.031 C 
ATOM     43  C   UNL A   1      45.876  23.954  26.365  1.00  0.00     0.029 A 
ATOM     44  N   UNL A   1      45.521  26.057  27.037  1.00  0.00    -0.354 N 
ATOM     45  C   UNL A   1      41.614  27.342  28.352  1.00  0.00     0.074 A 
ATOM     46  C   UNL A   1      40.667  26.247  28.325  1.00  0.00     0.031 C 
ATOM     47  C   UNL A   1      47.029  24.626  26.212  1.00  0.00     0.029 A 
ATOM     48  C   UNL A   1      46.828  26.013  26.619  1.00  0.00     0.049 A 
ATOM     49  H   UNL A   1      45.096  26.871  27.392  1.00  0.00     0.167 HD
ATOM     50  C   UNL A   1      41.316  28.600  28.752  1.00  0.00     0.037 A 
ATOM     51  C   UNL A   1      47.759  26.986  26.563  1.00  0.00     0.037 A 
ATOM     52  C   UNL A   1      42.263  29.682  28.807  1.00  0.00     0.049 A 
ATOM     53  C   UNL A   1      47.404  28.372  27.027  1.00  0.00     0.074 A 
ATOM     54  C   UNL A   1      42.067  30.981  29.246  1.00  0.00     0.029 A 
ATOM     55  N   UNL A   1      43.589  29.589  28.412  1.00  0.00    -0.354 N 
ATOM     56  N   UNL A   1      46.262  28.824  27.483  1.00  0.00    -0.248 NA
ATOM     57  C   UNL A   1      48.471  29.381  26.975  1.00  0.00     0.031 C 
ATOM     58  C   UNL A   1      43.268  31.681  29.089  1.00  0.00     0.029 A 
ATOM     59  C   UNL A   1      44.220  30.809  28.587  1.00  0.00     0.049 A 
ATOM     60  H   UNL A   1      44.017  28.776  28.058  1.00  0.00     0.167 HD
ATOM     61  C   UNL A   1      46.478  30.159  27.795  1.00  0.00     0.074 A 
ATOM     62  C   UNL A   1      47.865  30.442  27.488  1.00  0.00     0.031 C 
ATOM     63  C   UNL A   1      45.605  31.069  28.288  1.00  0.00     0.037 A 
BRANCH  50  64
ATOM     64  C   UNL A   1      39.904  28.875  29.177  1.00  0.00     0.064 A 
ATOM     65  C   UNL A   1      38.934  29.300  28.258  1.00  0.00     0.173 A 
ATOM     66  C   UNL A   1      39.506  28.671  30.507  1.00  0.00     0.173 A 
ATOM     67  F   UNL A   1      39.268  29.521  26.977  1.00  0.00    -0.203 F 
ATOM     68  C   UNL A   1      37.620  29.531  28.658  1.00  0.00     0.198 A 
ATOM     69  C   UNL A   1      38.186  28.879  30.899  1.00  0.00     0.198 A 
ATOM     70  F   UNL A   1      40.394  28.259  31.424  1.00  0.00    -0.203 F 
ATOM     71  F   UNL A   1      36.719  29.974  27.771  1.00  0.00    -0.200 F 
ATOM     72  C   UNL A   1      37.247  29.313  29.976  1.00  0.00     0.200 A 
ATOM     73  F   UNL A   1      37.822  28.657  32.170  1.00  0.00    -0.200 F 
ATOM     74  F   UNL A   1      35.979  29.528  30.358  1.00  0.00    -0.200 F 
ENDBRANCH  50  64
BRANCH  51  75
ATOM     75  C   UNL A   1      49.123  26.679  26.066  1.00  0.00     0.064 A 
ATOM     76  C   UNL A   1      49.479  26.941  24.736  1.00  0.00     0.173 A 
ATOM     77  C   UNL A   1      50.094  26.109  26.902  1.00  0.00     0.173 A 
ATOM     78  F   UNL A   1      48.577  27.466  23.894  1.00  0.00    -0.203 F 
ATOM     79  C   UNL A   1      50.749  26.628  24.255  1.00  0.00     0.198 A 
ATOM     80  C   UNL A   1      51.371  25.818  26.427  1.00  0.00     0.198 A 
ATOM     81  F   UNL A   1      49.803  25.842  28.184  1.00  0.00    -0.203 F 
ATOM     82  F   UNL A   1      51.048  26.848  22.968  1.00  0.00    -0.200 F 
ATOM     83  C   UNL A   1      51.695  26.070  25.102  1.00  0.00     0.200 A 
ATOM     84  F   UNL A   1      52.287  25.290  27.250  1.00  0.00    -0.200 F 
ATOM     85  F   UNL A   1      52.915  25.769  24.640  1.00  0.00    -0.200 F 
ENDBRANCH  51  75
BRANCH  63  86
ATOM     86  C   UNL A   1      46.129  32.447  28.558  1.00  0.00     0.064 A 
ATOM     87  C   UNL A   1      46.069  33.459  27.589  1.00  0.00     0.173 A 
ATOM     88  C   UNL A   1      46.663  32.770  29.815  1.00  0.00     0.173 A 
ATOM     89  F   UNL A   1      45.583  33.193  26.367  1.00  0.00    -0.203 F 
ATOM     90  C   UNL A   1      46.543  34.739  27.861  1.00  0.00     0.198 A 
ATOM     91  C   UNL A   1      47.114  34.057  30.093  1.00  0.00     0.198 A 
ATOM     92  F   UNL A   1      46.737  31.838  30.777  1.00  0.00    -0.203 F 
ATOM     93  F   UNL A   1      46.513  35.679  26.907  1.00  0.00    -0.200 F 
ATOM     94  C   UNL A   1      47.059  35.038  29.114  1.00  0.00     0.200 A 
ATOM     95  F   UNL A   1      47.602  34.348  31.306  1.00  0.00    -0.200 F 
ATOM     96  F   UNL A   1      47.509  36.273  29.376  1.00  0.00    -0.200 F 
ENDBRANCH  63  86
ENDBRANCH  37  38
ENDBRANCH  29  32
ENDBRANCH  27  28
ENDBRANCH  26  27
ENDBRANCH   1  26
TORSDOF 16
ENDMDL
MODEL 2
REMARK VINA RESULT:     -11.9      4.585     10.043
REMARK SMILES CC(C)(C)OC(=O)N1C[C@H](Oc2ccncc2)C[C@H]1C(=O)NCCCCNC(=O)c1ccc(-c2c3nc(c(-c4c(F)c(F)c(F)c(F)c4F)c4ccc([nH]4)c(-c4c(F)c(F)c(F)c(F)c4F)c4nc(c(-c5c(F)c(F)c(F)c(F)c5F)c5ccc2[nH]5)C=C4)C=C3)cc1
REMARK SMILES IDX 24 1 23 2 22 3 20 4 21 5 19 7 8 8 9 9 10 10 18 11 6 12 7 13
REMARK SMILES IDX 5 14 2 15 1 16 3 17 4 18 11 19 12 20 13 21 17 22 14 23 16 24
REMARK SMILES IDX 15 25 25 26 26 27 27 28 28 29 29 31 30 32 31 33 92 34 32 35
REMARK SMILES IDX 91 36 33 37 34 38 35 39 85 40 36 41 90 42 84 43 86 44 37 45
REMARK SMILES IDX 89 46 83 47 82 48 38 50 70 51 50 52 69 53 51 54 54 55 68 56
REMARK SMILES IDX 87 57 52 58 53 59 67 61 88 62 55 63 39 64 40 65 48 66 41 67
REMARK SMILES IDX 42 68 46 69 49 70 43 71 44 72 47 73 45 74 71 75 72 76 80 77
REMARK SMILES IDX 73 78 74 79 78 80 81 81 75 82 76 83 79 84 77 85 56 86 57 87
REMARK SMILES IDX 65 88 58 89 59 90 63 91 66 92 60 93 61 94 64 95 62 96
REMARK H PARENT 22 6 27 30 86 49 54 60
REMARK Flexibility Score: inf
ROOT
ATOM      1  C   UNL A   1      31.335  28.918  23.608  1.00  0.00     0.023 C 
ENDROOT
BRANCH   1   2
ATOM      2  C   UNL A   1      30.797  27.540  23.242  1.00  0.00     0.116 C 
BRANCH   2   3
ATOM      3  N   UNL A   1      31.412  27.014  22.033  1.00  0.00    -0.354 N 
ATOM      4  C   UNL A   1      32.274  25.962  21.890  1.00  0.00     0.243 C 
ATOM      5  O   UNL A   1      32.516  25.562  20.748  1.00  0.00    -0.273 OA
ATOM      6  H   UNL A   1      31.173  27.481  21.200  1.00  0.00     0.163 HD
BRANCH   4   7
ATOM      7  C   UNL A   1      32.864  25.278  23.136  1.00  0.00     0.181 C 
ATOM      8  N   UNL A   1      32.328  23.930  23.328  1.00  0.00    -0.292 N 
ATOM      9  C   UNL A   1      33.375  22.923  23.291  1.00  0.00     0.169 C 
ATOM     10  C   UNL A   1      34.660  23.698  23.574  1.00  0.00     0.195 C 
ATOM     11  C   UNL A   1      34.385  25.085  22.986  1.00  0.00     0.082 C 
BRANCH   8  12
ATOM     12  C   UNL A   1      31.030  23.734  23.722  1.00  0.00     0.411 C 
ATOM     13  O   UNL A   1      30.069  24.201  23.126  1.00  0.00    -0.224 OA
BRANCH  12  14
ATOM     14  O   UNL A   1      30.944  23.031  24.879  1.00  0.00    -0.444 OA
BRANCH  14  15
ATOM     15  C   UNL A   1      30.806  23.709  26.158  1.00  0.00     0.106 C 
ATOM     16  C   UNL A   1      32.198  23.615  26.798  1.00  0.00     0.056 C 
ATOM     17  C   UNL A   1      29.794  22.945  27.014  1.00  0.00     0.056 C 
ATOM     18  C   UNL A   1      30.437  25.197  26.050  1.00  0.00     0.056 C 
ENDBRANCH  14  15
ENDBRANCH  12  14
ENDBRANCH   8  12
BRANCH  10  19
ATOM     19  O   UNL A   1      35.117  23.691  24.940  1.00  0.00    -0.488 OA
BRANCH  19  20
ATOM     20  C   UNL A   1      36.277  23.032  25.223  1.00  0.00     0.122 A 
ATOM     21  C   UNL A   1      36.513  21.759  24.721  1.00  0.00     0.066 A 
ATOM     22  C   UNL A   1      37.285  23.703  25.903  1.00  0.00     0.066 A 
ATOM     23  C   UNL A   1      37.729  21.164  25.012  1.00  0.00     0.115 A 
ATOM     24  C   UNL A   1      38.471  23.029  26.133  1.00  0.00     0.115 A 
ATOM     25  N   UNL A   1      38.708  21.764  25.721  1.00  0.00    -0.264 NA
ENDBRANCH  19  20
ENDBRANCH  10  19
ENDBRANCH   4   7
ENDBRANCH   2   3
ENDBRANCH   1   2
BRANCH   1  26
ATOM     26  C   UNL A   1      32.843  28.972  23.856  1.00  0.00     0.023 C 
BRANCH  26  27
ATOM     27  C   UNL A   1      33.264  29.231  25.301  1.00  0.00     0.116 C 
BRANCH  27  28
ATOM     28  N   UNL A   1      32.725  30.468  25.844  1.00  0.00    -0.352 N 
ATOM     29  C   UNL A   1      33.202  31.241  26.875  1.00  0.00     0.251 C 
ATOM     30  H   UNL A   1      31.903  30.797  25.413  1.00  0.00     0.163 HD
ATOM     31  O   UNL A   1      32.556  32.204  27.279  1.00  0.00    -0.269 OA
BRANCH  29  32
ATOM     32  C   UNL A   1      34.481  30.891  27.527  1.00  0.00     0.039 A 
ATOM     33  C   UNL A   1      35.443  31.890  27.700  1.00  0.00     0.014 A 
ATOM     34  C   UNL A   1      34.729  29.590  27.974  1.00  0.00     0.014 A 
ATOM     35  C   UNL A   1      36.623  31.604  28.388  1.00  0.00     0.010 A 
ATOM     36  C   UNL A   1      35.879  29.321  28.713  1.00  0.00     0.010 A 
ATOM     37  C   UNL A   1      36.833  30.327  28.933  1.00  0.00    -0.014 A 
BRANCH  37  38
ATOM     38  C   UNL A   1      38.038  30.027  29.745  1.00  0.00     0.031 A 
ATOM     39  C   UNL A   1      39.085  29.085  29.224  1.00  0.00     0.074 A 
ATOM     40  C   UNL A   1      38.154  30.547  30.982  1.00  0.00     0.049 A 
ATOM     41  N   UNL A   1      40.159  28.629  29.819  1.00  0.00    -0.248 NA
ATOM     42  C   UNL A   1      38.887  28.566  27.861  1.00  0.00     0.031 C 
ATOM     43  C   UNL A   1      37.181  31.437  31.619  1.00  0.00     0.029 A 
ATOM     44  N   UNL A   1      39.132  30.390  31.931  1.00  0.00    -0.354 N 
ATOM     45  C   UNL A   1      40.753  27.761  28.913  1.00  0.00     0.074 A 
ATOM     46  C   UNL A   1      39.901  27.720  27.744  1.00  0.00     0.031 C 
ATOM     47  C   UNL A   1      37.617  31.756  32.849  1.00  0.00     0.029 A 
ATOM     48  C   UNL A   1      38.881  31.069  33.098  1.00  0.00     0.049 A 
ATOM     49  H   UNL A   1      39.938  29.842  31.789  1.00  0.00     0.167 HD
ATOM     50  C   UNL A   1      41.915  27.077  29.037  1.00  0.00     0.037 A 
ATOM     51  C   UNL A   1      39.587  31.125  34.244  1.00  0.00     0.037 A 
ATOM     52  C   UNL A   1      42.777  27.140  30.188  1.00  0.00     0.049 A 
ATOM     53  C   UNL A   1      40.881  30.365  34.349  1.00  0.00     0.074 A 
ATOM     54  C   UNL A   1      44.000  26.521  30.386  1.00  0.00     0.029 A 
ATOM     55  N   UNL A   1      42.507  27.870  31.335  1.00  0.00    -0.354 N 
ATOM     56  N   UNL A   1      41.460  29.592  33.464  1.00  0.00    -0.248 NA
ATOM     57  C   UNL A   1      41.624  30.494  35.611  1.00  0.00     0.031 C 
ATOM     58  C   UNL A   1      44.456  26.854  31.666  1.00  0.00     0.029 A 
ATOM     59  C   UNL A   1      43.536  27.709  32.249  1.00  0.00     0.049 A 
ATOM     60  H   UNL A   1      41.704  28.421  31.479  1.00  0.00     0.167 HD
ATOM     61  C   UNL A   1      42.642  29.161  34.049  1.00  0.00     0.074 A 
ATOM     62  C   UNL A   1      42.706  29.770  35.362  1.00  0.00     0.031 C 
ATOM     63  C   UNL A   1      43.588  28.333  33.546  1.00  0.00     0.037 A 
BRANCH  50  64
ATOM     64  C   UNL A   1      42.331  26.205  27.890  1.00  0.00     0.064 A 
ATOM     65  C   UNL A   1      41.840  24.899  27.750  1.00  0.00     0.173 A 
ATOM     66  C   UNL A   1      43.193  26.694  26.897  1.00  0.00     0.173 A 
ATOM     67  F   UNL A   1      41.022  24.381  28.679  1.00  0.00    -0.203 F 
ATOM     68  C   UNL A   1      42.215  24.105  26.668  1.00  0.00     0.198 A 
ATOM     69  C   UNL A   1      43.546  25.907  25.805  1.00  0.00     0.198 A 
ATOM     70  F   UNL A   1      43.685  27.940  26.982  1.00  0.00    -0.203 F 
ATOM     71  F   UNL A   1      41.765  22.846  26.576  1.00  0.00    -0.200 F 
ATOM     72  C   UNL A   1      43.061  24.613  25.694  1.00  0.00     0.200 A 
ATOM     73  F   UNL A   1      44.354  26.402  24.856  1.00  0.00    -0.200 F 
ATOM     74  F   UNL A   1      43.414  23.850  24.649  1.00  0.00    -0.200 F 
ENDBRANCH  50  64
BRANCH  51  75
ATOM     75  C   UNL A   1      39.095  31.946  35.378  1.00  0.00     0.064 A 
ATOM     76  C   UNL A   1      39.391  33.314  35.455  1.00  0.00     0.173 A 
ATOM     77  C   UNL A   1      38.332  31.383  36.411  1.00  0.00     0.173 A 
ATOM     78  F   UNL A   1      40.136  33.892  34.502  1.00  0.00    -0.203 F 
ATOM     79  C   UNL A   1      38.958  34.085  36.533  1.00  0.00     0.198 A 
ATOM     80  C   UNL A   1      37.879  32.159  37.476  1.00  0.00     0.198 A 
ATOM     81  F   UNL A   1      38.021  30.079  36.381  1.00  0.00    -0.203 F 
ATOM     82  F   UNL A   1      39.292  35.380  36.604  1.00  0.00    -0.200 F 
ATOM     83  C   UNL A   1      38.199  33.507  37.540  1.00  0.00     0.200 A 
ATOM     84  F   UNL A   1      37.137  31.601  38.441  1.00  0.00    -0.200 F 
ATOM     85  F   UNL A   1      37.783  34.248  38.575  1.00  0.00    -0.200 F 
ENDBRANCH  51  75
BRANCH  63  86
ATOM     86  C   UNL A   1      44.789  28.063  34.402  1.00  0.00     0.064 A 
ATOM     87  C   UNL A   1      45.928  28.879  34.347  1.00  0.00     0.173 A 
ATOM     88  C   UNL A   1      44.785  26.998  35.316  1.00  0.00     0.173 A 
ATOM     89  F   UNL A   1      45.985  29.900  33.477  1.00  0.00    -0.203 F 
ATOM     90  C   UNL A   1      47.028  28.628  35.162  1.00  0.00     0.198 A 
ATOM     91  C   UNL A   1      45.876  26.764  36.147  1.00  0.00     0.198 A 
ATOM     92  F   UNL A   1      43.716  26.192  35.409  1.00  0.00    -0.203 F 
ATOM     93  F   UNL A   1      48.121  29.396  35.064  1.00  0.00    -0.200 F 
ATOM     94  C   UNL A   1      46.999  27.574  36.065  1.00  0.00     0.200 A 
ATOM     95  F   UNL A   1      45.843  25.753  37.025  1.00  0.00    -0.200 F 
ATOM     96  F   UNL A   1      48.057  27.337  36.852  1.00  0.00    -0.200 F 
ENDBRANCH  63  86
ENDBRANCH  37  38
ENDBRANCH  29  32
ENDBRANCH  27  28
ENDBRANCH  26  27
ENDBRANCH   1  26
TORSDOF 16
ENDMDL
MODEL 3
REMARK VINA RESULT:     -11.9      5.513     11.326
REMARK SMILES CC(C)(C)OC(=O)N1C[C@H](Oc2ccncc2)C[C@H]1C(=O)NCCCCNC(=O)c1ccc(-c2c3nc(c(-c4c(F)c(F)c(F)c(F)c4F)c4ccc([nH]4)c(-c4c(F)c(F)c(F)c(F)c4F)c4nc(c(-c5c(F)c(F)c(F)c(F)c5F)c5ccc2[nH]5)C=C4)C=C3)cc1
REMARK SMILES IDX 24 1 23 2 22 3 20 4 21 5 19 7 8 8 9 9 10 10 18 11 6 12 7 13
REMARK SMILES IDX 5 14 2 15 1 16 3 17 4 18 11 19 12 20 13 21 17 22 14 23 16 24
REMARK SMILES IDX 15 25 25 26 26 27 27 28 28 29 29 31 30 32 31 33 92 34 32 35
REMARK SMILES IDX 91 36 33 37 34 38 35 39 85 40 36 41 90 42 84 43 86 44 37 45
REMARK SMILES IDX 89 46 83 47 82 48 38 50 70 51 50 52 69 53 51 54 54 55 68 56
REMARK SMILES IDX 87 57 52 58 53 59 67 61 88 62 55 63 39 64 40 65 48 66 41 67
REMARK SMILES IDX 42 68 46 69 49 70 43 71 44 72 47 73 45 74 71 75 72 76 80 77
REMARK SMILES IDX 73 78 74 79 78 80 81 81 75 82 76 83 79 84 77 85 56 86 57 87
REMARK SMILES IDX 65 88 58 89 59 90 63 91 66 92 60 93 61 94 64 95 62 96
REMARK H PARENT 22 6 27 30 86 49 54 60
REMARK Flexibility Score: inf
ROOT
ATOM      1  C   UNL A   1      32.026  30.333  27.025  1.00  0.00     0.023 C 
ENDROOT
BRANCH   1   2
ATOM      2  C   UNL A   1      31.667  29.472  25.819  1.00  0.00     0.116 C 
BRANCH   2   3
ATOM      3  N   UNL A   1      32.553  29.711  24.691  1.00  0.00    -0.354 N 
ATOM      4  C   UNL A   1      32.869  28.881  23.650  1.00  0.00     0.243 C 
ATOM      5  O   UNL A   1      33.486  29.359  22.694  1.00  0.00    -0.273 OA
ATOM      6  H   UNL A   1      32.985  30.595  24.673  1.00  0.00     0.163 HD
BRANCH   4   7
ATOM      7  C   UNL A   1      32.405  27.414  23.670  1.00  0.00     0.181 C 
ATOM      8  N   UNL A   1      31.294  27.177  22.748  1.00  0.00    -0.292 N 
ATOM      9  C   UNL A   1      31.636  26.196  21.731  1.00  0.00     0.169 C 
ATOM     10  C   UNL A   1      32.821  25.433  22.321  1.00  0.00     0.195 C 
ATOM     11  C   UNL A   1      33.530  26.477  23.188  1.00  0.00     0.082 C 
BRANCH   8  12
ATOM     12  C   UNL A   1      30.042  27.672  23.005  1.00  0.00     0.411 C 
ATOM     13  O   UNL A   1      29.348  27.291  23.938  1.00  0.00    -0.224 OA
BRANCH  12  14
ATOM     14  O   UNL A   1      29.642  28.570  22.071  1.00  0.00    -0.444 OA
BRANCH  14  15
ATOM     15  C   UNL A   1      28.636  29.573  22.379  1.00  0.00     0.106 C 
ATOM     16  C   UNL A   1      29.293  30.467  23.440  1.00  0.00     0.056 C 
ATOM     17  C   UNL A   1      27.412  28.878  22.977  1.00  0.00     0.056 C 
ATOM     18  C   UNL A   1      28.246  30.466  21.190  1.00  0.00     0.056 C 
ENDBRANCH  14  15
ENDBRANCH  12  14
ENDBRANCH   8  12
BRANCH  10  19
ATOM     19  O   UNL A   1      32.509  24.194  22.985  1.00  0.00    -0.488 OA
BRANCH  19  20
ATOM     20  C   UNL A   1      33.449  23.663  23.819  1.00  0.00     0.122 A 
ATOM     21  C   UNL A   1      33.252  23.643  25.193  1.00  0.00     0.066 A 
ATOM     22  C   UNL A   1      34.547  23.013  23.270  1.00  0.00     0.066 A 
ATOM     23  C   UNL A   1      34.227  23.052  25.978  1.00  0.00     0.115 A 
ATOM     24  C   UNL A   1      35.460  22.439  24.138  1.00  0.00     0.115 A 
ATOM     25  N   UNL A   1      35.335  22.463  25.483  1.00  0.00    -0.264 NA
ENDBRANCH  19  20
ENDBRANCH  10  19
ENDBRANCH   4   7
ENDBRANCH   2   3
ENDBRANCH   1   2
BRANCH   1  26
ATOM     26  C   UNL A   1      31.726  31.823  26.859  1.00  0.00     0.023 C 
BRANCH  26  27
ATOM     27  C   UNL A   1      32.900  32.764  27.115  1.00  0.00     0.116 C 
BRANCH  27  28
ATOM     28  N   UNL A   1      32.491  34.087  27.563  1.00  0.00    -0.352 N 
ATOM     29  C   UNL A   1      32.998  34.850  28.586  1.00  0.00     0.251 C 
ATOM     30  H   UNL A   1      31.746  34.491  27.062  1.00  0.00     0.163 HD
ATOM     31  O   UNL A   1      32.456  35.906  28.901  1.00  0.00    -0.269 OA
BRANCH  29  32
ATOM     32  C   UNL A   1      34.179  34.379  29.340  1.00  0.00     0.039 A 
ATOM     33  C   UNL A   1      33.980  33.699  30.545  1.00  0.00     0.014 A 
ATOM     34  C   UNL A   1      35.474  34.599  28.860  1.00  0.00     0.014 A 
ATOM     35  C   UNL A   1      35.075  33.171  31.231  1.00  0.00     0.010 A 
ATOM     36  C   UNL A   1      36.559  34.020  29.514  1.00  0.00     0.010 A 
ATOM     37  C   UNL A   1      36.370  33.296  30.701  1.00  0.00    -0.014 A 
BRANCH  37  38
ATOM     38  C   UNL A   1      37.536  32.666  31.367  1.00  0.00     0.031 A 
ATOM     39  C   UNL A   1      38.256  31.523  30.709  1.00  0.00     0.074 A 
ATOM     40  C   UNL A   1      37.904  33.076  32.596  1.00  0.00     0.049 A 
ATOM     41  N   UNL A   1      39.235  30.786  31.170  1.00  0.00    -0.248 NA
ATOM     42  C   UNL A   1      37.797  31.141  29.364  1.00  0.00     0.031 C 
ATOM     43  C   UNL A   1      37.255  34.144  33.359  1.00  0.00     0.029 A 
ATOM     44  N   UNL A   1      38.902  32.633  33.427  1.00  0.00    -0.354 N 
ATOM     45  C   UNL A   1      39.498  29.847  30.182  1.00  0.00     0.074 A 
ATOM     46  C   UNL A   1      38.550  30.078  29.114  1.00  0.00     0.031 C 
ATOM     47  C   UNL A   1      37.879  34.281  34.541  1.00  0.00     0.029 A 
ATOM     48  C   UNL A   1      38.948  33.292  34.631  1.00  0.00     0.049 A 
ATOM     49  H   UNL A   1      39.526  31.912  33.183  1.00  0.00     0.167 HD
ATOM     50  C   UNL A   1      40.457  28.892  30.159  1.00  0.00     0.037 A 
ATOM     51  C   UNL A   1      39.758  33.112  35.692  1.00  0.00     0.037 A 
ATOM     52  C   UNL A   1      41.419  28.680  31.208  1.00  0.00     0.049 A 
ATOM     53  C   UNL A   1      40.824  32.052  35.634  1.00  0.00     0.074 A 
ATOM     54  C   UNL A   1      42.461  27.769  31.254  1.00  0.00     0.029 A 
ATOM     55  N   UNL A   1      41.459  29.393  32.397  1.00  0.00    -0.354 N 
ATOM     56  N   UNL A   1      41.098  31.207  34.672  1.00  0.00    -0.248 NA
ATOM     57  C   UNL A   1      41.699  31.927  36.809  1.00  0.00     0.031 C 
ATOM     58  C   UNL A   1      43.114  27.912  32.483  1.00  0.00     0.029 A 
ATOM     59  C   UNL A   1      42.501  28.936  33.187  1.00  0.00     0.049 A 
ATOM     60  H   UNL A   1      40.838  30.117  32.643  1.00  0.00     0.167 HD
ATOM     61  C   UNL A   1      42.187  30.468  35.111  1.00  0.00     0.074 A 
ATOM     62  C   UNL A   1      42.534  30.973  36.423  1.00  0.00     0.031 C 
ATOM     63  C   UNL A   1      42.839  29.459  34.485  1.00  0.00     0.037 A 
BRANCH  50  64
ATOM     64  C   UNL A   1      40.523  28.006  28.951  1.00  0.00     0.064 A 
ATOM     65  C   UNL A   1      39.773  26.823  28.871  1.00  0.00     0.173 A 
ATOM     66  C   UNL A   1      41.309  28.362  27.845  1.00  0.00     0.173 A 
ATOM     67  F   UNL A   1      39.015  26.432  29.907  1.00  0.00    -0.203 F 
ATOM     68  C   UNL A   1      39.823  26.019  27.735  1.00  0.00     0.198 A 
ATOM     69  C   UNL A   1      41.338  27.569  26.702  1.00  0.00     0.198 A 
ATOM     70  F   UNL A   1      42.041  29.487  27.870  1.00  0.00    -0.203 F 
ATOM     71  F   UNL A   1      39.129  24.874  27.696  1.00  0.00    -0.200 F 
ATOM     72  C   UNL A   1      40.600  26.396  26.650  1.00  0.00     0.200 A 
ATOM     73  F   UNL A   1      42.080  27.940  25.648  1.00  0.00    -0.200 F 
ATOM     74  F   UNL A   1      40.641  25.625  25.554  1.00  0.00    -0.200 F 
ENDBRANCH  50  64
BRANCH  51  75
ATOM     75  C   UNL A   1      39.605  33.969  36.895  1.00  0.00     0.064 A 
ATOM     76  C   UNL A   1      40.242  35.214  36.974  1.00  0.00     0.173 A 
ATOM     77  C   UNL A   1      38.833  33.559  37.991  1.00  0.00     0.173 A 
ATOM     78  F   UNL A   1      41.010  35.639  35.960  1.00  0.00    -0.203 F 
ATOM     79  C   UNL A   1      40.128  36.011  38.112  1.00  0.00     0.198 A 
ATOM     80  C   UNL A   1      38.699  34.366  39.118  1.00  0.00     0.198 A 
ATOM     81  F   UNL A   1      38.201  32.376  37.961  1.00  0.00    -0.203 F 
ATOM     82  F   UNL A   1      40.783  37.177  38.179  1.00  0.00    -0.200 F 
ATOM     83  C   UNL A   1      39.352  35.587  39.181  1.00  0.00     0.200 A 
ATOM     84  F   UNL A   1      37.940  33.959  40.145  1.00  0.00    -0.200 F 
ATOM     85  F   UNL A   1      39.242  36.352  40.275  1.00  0.00    -0.200 F 
ENDBRANCH  51  75
BRANCH  63  86
ATOM     86  C   UNL A   1      44.014  28.857  35.195  1.00  0.00     0.064 A 
ATOM     87  C   UNL A   1      43.865  27.775  36.074  1.00  0.00     0.173 A 
ATOM     88  C   UNL A   1      45.310  29.344  34.963  1.00  0.00     0.173 A 
ATOM     89  F   UNL A   1      42.644  27.286  36.340  1.00  0.00    -0.203 F 
ATOM     90  C   UNL A   1      44.968  27.214  36.711  1.00  0.00     0.198 A 
ATOM     91  C   UNL A   1      46.414  28.766  35.582  1.00  0.00     0.198 A 
ATOM     92  F   UNL A   1      45.505  30.375  34.126  1.00  0.00    -0.203 F 
ATOM     93  F   UNL A   1      44.798  26.207  37.578  1.00  0.00    -0.200 F 
ATOM     94  C   UNL A   1      46.241  27.706  36.460  1.00  0.00     0.200 A 
ATOM     95  F   UNL A   1      47.643  29.234  35.331  1.00  0.00    -0.200 F 
ATOM     96  F   UNL A   1      47.303  27.160  37.070  1.00  0.00    -0.200 F 
ENDBRANCH  63  86
ENDBRANCH  37  38
ENDBRANCH  29  32
ENDBRANCH  27  28
ENDBRANCH  26  27
ENDBRANCH   1  26
TORSDOF 16
ENDMDL
