MODEL 1
REMARK VINA RESULT:     -13.7      0.000      0.000
REMARK SMILES O=C(NCCCCNC(=O)c1ccc2c(c1)[C@@H]1C=CC[C@@H]1[C@H](c1ccncc1)N2)c1ccc(-c2c3nc(c(-c4c(F)c(F)c(F)c(F)c4F)c4ccc([nH]4)c(-c4c(F)c(F)c(F)c(F)c4F)c4nc(c(-c5c(F)c(F)c(F)c(F)c5F)c5ccc2[nH]5)C=C4)C=C3)cc1
REMARK SMILES IDX 5 1 4 2 3 3 1 4 2 5 30 7 31 8 92 9 32 10 91 11 33 12 34 13
REMARK SMILES IDX 35 14 85 15 36 16 90 17 84 18 86 19 37 20 89 21 83 22 82 23
REMARK SMILES IDX 38 25 70 26 50 27 69 28 51 29 54 30 68 31 87 32 52 33 53 34
REMARK SMILES IDX 67 36 88 37 55 38 39 39 40 40 48 41 41 42 42 43 46 44 49 45
REMARK SMILES IDX 43 46 44 47 47 48 45 49 71 50 72 51 80 52 73 53 74 54 78 55
REMARK SMILES IDX 81 56 75 57 76 58 79 59 77 60 56 61 57 62 65 63 58 64 59 65
REMARK SMILES IDX 63 66 66 67 60 68 61 69 64 70 62 71 6 72 7 73 8 74 9 75
REMARK SMILES IDX 10 77 11 78 12 79 16 80 13 81 15 82 14 83 17 84 29 85 18 86
REMARK SMILES IDX 21 87 22 88 19 90 20 91 23 92 24 93 28 94 25 95 27 96 26 97
REMARK H PARENT 3 6 86 24 54 35 8 76 29 89
REMARK Flexibility Score: inf
ROOT
ATOM      1  C   UNL A   1      31.749  28.640  25.367  1.00  0.00     0.023 C 
ENDROOT
BRANCH   1   2
ATOM      2  C   UNL A   1      32.896  29.443  25.962  1.00  0.00     0.116 C 
BRANCH   2   3
ATOM      3  N   UNL A   1      32.536  30.820  26.266  1.00  0.00    -0.352 N 
ATOM      4  O   UNL A   1      32.633  32.800  27.349  1.00  0.00    -0.269 OA
ATOM      5  C   UNL A   1      33.145  31.708  27.121  1.00  0.00     0.251 C 
ATOM      6  H   UNL A   1      31.745  31.165  25.792  1.00  0.00     0.163 HD
BRANCH   5   7
ATOM      7  C   UNL A   1      34.407  31.330  27.793  1.00  0.00     0.039 A 
ATOM      8  C   UNL A   1      34.610  30.024  28.240  1.00  0.00     0.014 A 
ATOM      9  C   UNL A   1      35.395  32.301  27.986  1.00  0.00     0.014 A 
ATOM     10  C   UNL A   1      35.726  29.725  29.012  1.00  0.00     0.010 A 
ATOM     11  C   UNL A   1      36.562  31.974  28.685  1.00  0.00     0.010 A 
ATOM     12  C   UNL A   1      36.722  30.692  29.230  1.00  0.00    -0.014 A 
BRANCH  12  13
ATOM     13  C   UNL A   1      37.949  30.304  29.970  1.00  0.00     0.031 A 
ATOM     14  C   UNL A   1      38.187  30.755  31.384  1.00  0.00     0.074 A 
ATOM     15  C   UNL A   1      38.833  29.494  29.358  1.00  0.00     0.049 A 
ATOM     16  N   UNL A   1      39.188  30.467  32.181  1.00  0.00    -0.248 NA
ATOM     17  C   UNL A   1      37.182  31.645  31.983  1.00  0.00     0.031 C 
ATOM     18  C   UNL A   1      38.712  29.009  27.981  1.00  0.00     0.029 A 
ATOM     19  N   UNL A   1      39.990  28.917  29.812  1.00  0.00    -0.354 N 
ATOM     20  C   UNL A   1      38.941  31.150  33.364  1.00  0.00     0.074 A 
ATOM     21  C   UNL A   1      37.709  31.886  33.177  1.00  0.00     0.031 C 
ATOM     22  C   UNL A   1      39.722  28.168  27.720  1.00  0.00     0.029 A 
ATOM     23  C   UNL A   1      40.594  28.102  28.886  1.00  0.00     0.049 A 
ATOM     24  H   UNL A   1      40.353  29.072  30.714  1.00  0.00     0.167 HD
ATOM     25  C   UNL A   1      39.675  31.152  34.504  1.00  0.00     0.037 A 
ATOM     26  C   UNL A   1      41.732  27.389  28.963  1.00  0.00     0.037 A 
ATOM     27  C   UNL A   1      40.893  30.403  34.689  1.00  0.00     0.049 A 
ATOM     28  C   UNL A   1      42.528  27.422  30.234  1.00  0.00     0.074 A 
ATOM     29  C   UNL A   1      41.690  30.315  35.818  1.00  0.00     0.029 A 
ATOM     30  N   UNL A   1      41.490  29.611  33.719  1.00  0.00    -0.354 N 
ATOM     31  N   UNL A   1      42.266  28.048  31.356  1.00  0.00    -0.248 NA
ATOM     32  C   UNL A   1      43.778  26.652  30.250  1.00  0.00     0.031 C 
ATOM     33  C   UNL A   1      42.790  29.505  35.518  1.00  0.00     0.029 A 
ATOM     34  C   UNL A   1      42.656  29.050  34.216  1.00  0.00     0.049 A 
ATOM     35  H   UNL A   1      41.138  29.469  32.810  1.00  0.00     0.167 HD
ATOM     36  C   UNL A   1      43.312  27.742  32.213  1.00  0.00     0.074 A 
ATOM     37  C   UNL A   1      44.197  26.851  31.492  1.00  0.00     0.031 C 
ATOM     38  C   UNL A   1      43.527  28.170  33.481  1.00  0.00     0.037 A 
BRANCH  25  39
ATOM     39  C   UNL A   1      39.193  31.997  35.647  1.00  0.00     0.064 A 
ATOM     40  C   UNL A   1      38.368  31.472  36.652  1.00  0.00     0.173 A 
ATOM     41  C   UNL A   1      39.621  33.327  35.779  1.00  0.00     0.173 A 
ATOM     42  F   UNL A   1      37.922  30.209  36.569  1.00  0.00    -0.203 F 
ATOM     43  C   UNL A   1      37.977  32.252  37.738  1.00  0.00     0.198 A 
ATOM     44  C   UNL A   1      39.248  34.096  36.878  1.00  0.00     0.198 A 
ATOM     45  F   UNL A   1      40.419  33.875  34.849  1.00  0.00    -0.203 F 
ATOM     46  F   UNL A   1      37.163  31.738  38.672  1.00  0.00    -0.200 F 
ATOM     47  C   UNL A   1      38.424  33.559  37.855  1.00  0.00     0.200 A 
ATOM     48  F   UNL A   1      39.692  35.356  36.996  1.00  0.00    -0.200 F 
ATOM     49  F   UNL A   1      38.059  34.303  38.908  1.00  0.00    -0.200 F 
ENDBRANCH  25  39
BRANCH  26  50
ATOM     50  C   UNL A   1      42.184  26.594  27.792  1.00  0.00     0.064 A 
ATOM     51  C   UNL A   1      43.092  27.124  26.867  1.00  0.00     0.173 A 
ATOM     52  C   UNL A   1      41.725  25.285  27.585  1.00  0.00     0.173 A 
ATOM     53  F   UNL A   1      43.544  28.378  27.014  1.00  0.00    -0.203 F 
ATOM     54  C   UNL A   1      43.510  26.380  25.765  1.00  0.00     0.198 A 
ATOM     55  C   UNL A   1      42.169  24.531  26.501  1.00  0.00     0.198 A 
ATOM     56  F   UNL A   1      40.860  24.731  28.447  1.00  0.00    -0.203 F 
ATOM     57  F   UNL A   1      44.347  26.924  24.871  1.00  0.00    -0.200 F 
ATOM     58  C   UNL A   1      43.055  25.082  25.588  1.00  0.00     0.200 A 
ATOM     59  F   UNL A   1      41.738  23.272  26.343  1.00  0.00    -0.200 F 
ATOM     60  F   UNL A   1      43.464  24.364  24.533  1.00  0.00    -0.200 F 
ENDBRANCH  26  50
BRANCH  38  61
ATOM     61  C   UNL A   1      44.761  27.664  34.165  1.00  0.00     0.064 A 
ATOM     62  C   UNL A   1      45.971  28.371  34.107  1.00  0.00     0.173 A 
ATOM     63  C   UNL A   1      44.732  26.465  34.894  1.00  0.00     0.173 A 
ATOM     64  F   UNL A   1      46.052  29.512  33.407  1.00  0.00    -0.203 F 
ATOM     65  C   UNL A   1      47.116  27.881  34.729  1.00  0.00     0.198 A 
ATOM     66  C   UNL A   1      45.871  25.993  35.537  1.00  0.00     0.198 A 
ATOM     67  F   UNL A   1      43.598  25.754  34.982  1.00  0.00    -0.203 F 
ATOM     68  F   UNL A   1      48.274  28.546  34.617  1.00  0.00    -0.200 F 
ATOM     69  C   UNL A   1      47.064  26.695  35.448  1.00  0.00     0.200 A 
ATOM     70  F   UNL A   1      45.818  24.852  36.238  1.00  0.00    -0.200 F 
ATOM     71  F   UNL A   1      48.167  26.224  36.045  1.00  0.00    -0.200 F 
ENDBRANCH  38  61
ENDBRANCH  12  13
ENDBRANCH   5   7
ENDBRANCH   2   3
ENDBRANCH   1   2
BRANCH   1  72
ATOM     72  C   UNL A   1      30.958  29.349  24.273  1.00  0.00     0.023 C 
BRANCH  72  73
ATOM     73  C   UNL A   1      31.132  28.778  22.870  1.00  0.00     0.116 C 
BRANCH  73  74
ATOM     74  N   UNL A   1      32.487  28.931  22.360  1.00  0.00    -0.352 N 
ATOM     75  C   UNL A   1      33.474  27.983  22.224  1.00  0.00     0.251 C 
ATOM     76  H   UNL A   1      32.731  29.840  22.073  1.00  0.00     0.163 HD
ATOM     77  O   UNL A   1      34.611  28.310  21.903  1.00  0.00    -0.269 OA
BRANCH  75  78
ATOM     78  C   UNL A   1      33.157  26.566  22.489  1.00  0.00     0.040 A 
ATOM     79  C   UNL A   1      32.567  25.802  21.486  1.00  0.00     0.016 A 
ATOM     80  C   UNL A   1      33.496  25.983  23.710  1.00  0.00     0.020 A 
ATOM     81  C   UNL A   1      32.358  24.438  21.699  1.00  0.00     0.027 A 
ATOM     82  C   UNL A   1      33.369  24.598  23.891  1.00  0.00    -0.017 A 
ATOM     83  C   UNL A   1      32.737  23.826  22.904  1.00  0.00     0.038 A 
ATOM     84  C   UNL A   1      33.948  23.958  25.133  1.00  0.00     0.049 C 
ATOM     85  N   UNL A   1      32.566  22.455  23.052  1.00  0.00    -0.378 N 
ATOM     86  C   UNL A   1      35.429  24.224  25.283  1.00  0.00    -0.023 C 
ATOM     87  C   UNL A   1      33.944  22.420  25.097  1.00  0.00     0.031 C 
ATOM     88  C   UNL A   1      32.712  21.865  24.377  1.00  0.00     0.114 C 
ATOM     89  H   UNL A   1      32.349  21.890  22.276  1.00  0.00     0.161 HD
ATOM     90  C   UNL A   1      36.169  23.165  24.934  1.00  0.00    -0.030 C 
ATOM     91  C   UNL A   1      35.309  22.018  24.509  1.00  0.00     0.034 C 
BRANCH  88  92
ATOM     92  C   UNL A   1      32.707  20.344  24.340  1.00  0.00    -0.022 A 
ATOM     93  C   UNL A   1      32.452  19.693  23.123  1.00  0.00     0.026 A 
ATOM     94  C   UNL A   1      32.935  19.544  25.466  1.00  0.00     0.026 A 
ATOM     95  C   UNL A   1      32.442  18.307  23.086  1.00  0.00     0.111 A 
ATOM     96  C   UNL A   1      32.922  18.164  25.324  1.00  0.00     0.111 A 
ATOM     97  N   UNL A   1      32.680  17.527  24.159  1.00  0.00    -0.265 NA
ENDBRANCH  88  92
ENDBRANCH  75  78
ENDBRANCH  73  74
ENDBRANCH  72  73
ENDBRANCH   1  72
TORSDOF 12
ENDMDL
MODEL 2
REMARK VINA RESULT:     -13.7      1.331      2.347
REMARK SMILES O=C(NCCCCNC(=O)c1ccc2c(c1)[C@@H]1C=CC[C@@H]1[C@H](c1ccncc1)N2)c1ccc(-c2c3nc(c(-c4c(F)c(F)c(F)c(F)c4F)c4ccc([nH]4)c(-c4c(F)c(F)c(F)c(F)c4F)c4nc(c(-c5c(F)c(F)c(F)c(F)c5F)c5ccc2[nH]5)C=C4)C=C3)cc1
REMARK SMILES IDX 5 1 4 2 3 3 1 4 2 5 30 7 31 8 92 9 32 10 91 11 33 12 34 13
REMARK SMILES IDX 35 14 85 15 36 16 90 17 84 18 86 19 37 20 89 21 83 22 82 23
REMARK SMILES IDX 38 25 70 26 50 27 69 28 51 29 54 30 68 31 87 32 52 33 53 34
REMARK SMILES IDX 67 36 88 37 55 38 39 39 40 40 48 41 41 42 42 43 46 44 49 45
REMARK SMILES IDX 43 46 44 47 47 48 45 49 71 50 72 51 80 52 73 53 74 54 78 55
REMARK SMILES IDX 81 56 75 57 76 58 79 59 77 60 56 61 57 62 65 63 58 64 59 65
REMARK SMILES IDX 63 66 66 67 60 68 61 69 64 70 62 71 6 72 7 73 8 74 9 75
REMARK SMILES IDX 10 77 11 78 12 79 16 80 13 81 15 82 14 83 17 84 29 85 18 86
REMARK SMILES IDX 21 87 22 88 19 90 20 91 23 92 24 93 28 94 25 95 27 96 26 97
REMARK H PARENT 3 6 86 24 54 35 8 76 29 89
REMARK Flexibility Score: inf
ROOT
ATOM      1  C   UNL A   1      31.577  31.466  26.521  1.00  0.00     0.023 C 
ENDROOT
BRANCH   1   2
ATOM      2  C   UNL A   1      32.819  32.271  26.875  1.00  0.00     0.116 C 
BRANCH   2   3
ATOM      3  N   UNL A   1      32.515  33.608  27.364  1.00  0.00    -0.352 N 
ATOM      4  O   UNL A   1      32.637  35.387  28.750  1.00  0.00    -0.269 OA
ATOM      5  C   UNL A   1      33.101  34.309  28.391  1.00  0.00     0.251 C 
ATOM      6  H   UNL A   1      31.788  34.076  26.894  1.00  0.00     0.163 HD
BRANCH   5   7
ATOM      7  C   UNL A   1      34.278  33.745  29.086  1.00  0.00     0.039 A 
ATOM      8  C   UNL A   1      35.560  34.228  28.818  1.00  0.00     0.014 A 
ATOM      9  C   UNL A   1      34.095  32.712  30.010  1.00  0.00     0.014 A 
ATOM     10  C   UNL A   1      36.666  33.580  29.353  1.00  0.00     0.010 A 
ATOM     11  C   UNL A   1      35.207  32.121  30.619  1.00  0.00     0.010 A 
ATOM     12  C   UNL A   1      36.502  32.529  30.271  1.00  0.00    -0.014 A 
BRANCH  12  13
ATOM     13  C   UNL A   1      37.707  31.933  30.901  1.00  0.00     0.031 A 
ATOM     14  C   UNL A   1      38.144  32.322  32.285  1.00  0.00     0.074 A 
ATOM     15  C   UNL A   1      38.384  30.992  30.216  1.00  0.00     0.049 A 
ATOM     16  N   UNL A   1      39.148  31.862  32.990  1.00  0.00    -0.248 NA
ATOM     17  C   UNL A   1      37.361  33.363  32.967  1.00  0.00     0.031 C 
ATOM     18  C   UNL A   1      38.060  30.548  28.858  1.00  0.00     0.029 A 
ATOM     19  N   UNL A   1      39.463  30.222  30.567  1.00  0.00    -0.354 N 
ATOM     20  C   UNL A   1      39.127  32.565  34.188  1.00  0.00     0.074 A 
ATOM     21  C   UNL A   1      38.026  33.500  34.107  1.00  0.00     0.031 C 
ATOM     22  C   UNL A   1      38.887  29.550  28.511  1.00  0.00     0.029 A 
ATOM     23  C   UNL A   1      39.836  29.327  29.596  1.00  0.00     0.049 A 
ATOM     24  H   UNL A   1      39.926  30.305  31.432  1.00  0.00     0.167 HD
ATOM     25  C   UNL A   1      39.950  32.432  35.257  1.00  0.00     0.037 A 
ATOM     26  C   UNL A   1      40.839  28.432  29.573  1.00  0.00     0.037 A 
ATOM     27  C   UNL A   1      41.035  31.486  35.336  1.00  0.00     0.049 A 
ATOM     28  C   UNL A   1      41.739  28.317  30.769  1.00  0.00     0.074 A 
ATOM     29  C   UNL A   1      41.904  31.255  36.390  1.00  0.00     0.029 A 
ATOM     30  N   UNL A   1      41.401  30.616  34.320  1.00  0.00    -0.354 N 
ATOM     31  N   UNL A   1      41.688  28.967  31.906  1.00  0.00    -0.248 NA
ATOM     32  C   UNL A   1      42.838  27.347  30.676  1.00  0.00     0.031 C 
ATOM     33  C   UNL A   1      42.820  30.274  35.996  1.00  0.00     0.029 A 
ATOM     34  C   UNL A   1      42.495  29.861  34.714  1.00  0.00     0.049 A 
ATOM     35  H   UNL A   1      40.951  30.544  33.448  1.00  0.00     0.167 HD
ATOM     36  C   UNL A   1      42.740  28.481  32.667  1.00  0.00     0.074 A 
ATOM     37  C   UNL A   1      43.394  27.460  31.874  1.00  0.00     0.031 C 
ATOM     38  C   UNL A   1      43.136  28.854  33.908  1.00  0.00     0.037 A 
BRANCH  25  39
ATOM     39  C   UNL A   1      39.721  33.335  36.435  1.00  0.00     0.064 A 
ATOM     40  C   UNL A   1      40.322  34.598  36.521  1.00  0.00     0.173 A 
ATOM     41  C   UNL A   1      38.830  32.961  37.453  1.00  0.00     0.173 A 
ATOM     42  F   UNL A   1      41.189  34.999  35.578  1.00  0.00    -0.203 F 
ATOM     43  C   UNL A   1      40.053  35.448  37.591  1.00  0.00     0.198 A 
ATOM     44  C   UNL A   1      38.544  33.823  38.509  1.00  0.00     0.198 A 
ATOM     45  F   UNL A   1      38.222  31.766  37.415  1.00  0.00    -0.203 F 
ATOM     46  F   UNL A   1      40.662  36.640  37.668  1.00  0.00    -0.200 F 
ATOM     47  C   UNL A   1      39.158  35.065  38.578  1.00  0.00     0.200 A 
ATOM     48  F   UNL A   1      37.670  33.456  39.456  1.00  0.00    -0.200 F 
ATOM     49  F   UNL A   1      38.889  35.890  39.600  1.00  0.00    -0.200 F 
ENDBRANCH  25  39
BRANCH  26  50
ATOM     50  C   UNL A   1      41.044  27.584  28.371  1.00  0.00     0.064 A 
ATOM     51  C   UNL A   1      40.352  26.377  28.213  1.00  0.00     0.173 A 
ATOM     52  C   UNL A   1      41.928  27.971  27.354  1.00  0.00     0.173 A 
ATOM     53  F   UNL A   1      39.510  25.956  29.169  1.00  0.00    -0.203 F 
ATOM     54  C   UNL A   1      40.549  25.578  27.088  1.00  0.00     0.198 A 
ATOM     55  C   UNL A   1      42.100  27.188  26.215  1.00  0.00     0.198 A 
ATOM     56  F   UNL A   1      42.610  29.121  27.456  1.00  0.00    -0.203 F 
ATOM     57  F   UNL A   1      39.906  24.408  26.980  1.00  0.00    -0.200 F 
ATOM     58  C   UNL A   1      41.417  25.988  26.087  1.00  0.00     0.200 A 
ATOM     59  F   UNL A   1      42.928  27.596  25.243  1.00  0.00    -0.200 F 
ATOM     60  F   UNL A   1      41.600  25.224  25.001  1.00  0.00    -0.200 F 
ENDBRANCH  26  50
BRANCH  38  61
ATOM     61  C   UNL A   1      44.323  28.140  34.482  1.00  0.00     0.064 A 
ATOM     62  C   UNL A   1      45.625  28.638  34.318  1.00  0.00     0.173 A 
ATOM     63  C   UNL A   1      44.158  26.953  35.210  1.00  0.00     0.173 A 
ATOM     64  F   UNL A   1      45.834  29.760  33.614  1.00  0.00    -0.203 F 
ATOM     65  C   UNL A   1      46.721  27.956  34.837  1.00  0.00     0.198 A 
ATOM     66  C   UNL A   1      45.254  26.289  35.752  1.00  0.00     0.198 A 
ATOM     67  F   UNL A   1      42.933  26.438  35.398  1.00  0.00    -0.203 F 
ATOM     68  F   UNL A   1      47.959  28.420  34.624  1.00  0.00    -0.200 F 
ATOM     69  C   UNL A   1      46.534  26.785  35.558  1.00  0.00     0.200 A 
ATOM     70  F   UNL A   1      45.073  25.162  36.455  1.00  0.00    -0.200 F 
ATOM     71  F   UNL A   1      47.591  26.129  36.056  1.00  0.00    -0.200 F 
ENDBRANCH  38  61
ENDBRANCH  12  13
ENDBRANCH   5   7
ENDBRANCH   2   3
ENDBRANCH   1   2
BRANCH   1  72
ATOM     72  C   UNL A   1      31.777  29.955  26.461  1.00  0.00     0.023 C 
BRANCH  72  73
ATOM     73  C   UNL A   1      31.537  29.321  25.095  1.00  0.00     0.116 C 
BRANCH  73  74
ATOM     74  N   UNL A   1      32.640  29.534  24.169  1.00  0.00    -0.352 N 
ATOM     75  C   UNL A   1      33.421  28.605  23.523  1.00  0.00     0.251 C 
ATOM     76  H   UNL A   1      32.857  30.475  23.979  1.00  0.00     0.163 HD
ATOM     77  O   UNL A   1      34.403  28.957  22.879  1.00  0.00    -0.269 OA
BRANCH  75  78
ATOM     78  C   UNL A   1      33.079  27.173  23.628  1.00  0.00     0.040 A 
ATOM     79  C   UNL A   1      32.217  26.609  22.691  1.00  0.00     0.016 A 
ATOM     80  C   UNL A   1      33.655  26.381  24.622  1.00  0.00     0.020 A 
ATOM     81  C   UNL A   1      31.971  25.235  22.729  1.00  0.00     0.027 A 
ATOM     82  C   UNL A   1      33.479  24.990  24.606  1.00  0.00    -0.017 A 
ATOM     83  C   UNL A   1      32.580  24.415  23.693  1.00  0.00     0.038 A 
ATOM     84  C   UNL A   1      34.288  24.130  25.551  1.00  0.00     0.049 C 
ATOM     85  N   UNL A   1      32.354  23.045  23.658  1.00  0.00    -0.378 N 
ATOM     86  C   UNL A   1      35.777  24.325  25.376  1.00  0.00    -0.023 C 
ATOM     87  C   UNL A   1      34.170  22.622  25.273  1.00  0.00     0.031 C 
ATOM     88  C   UNL A   1      32.768  22.233  24.797  1.00  0.00     0.114 C 
ATOM     89  H   UNL A   1      31.923  22.627  22.879  1.00  0.00     0.161 HD
ATOM     90  C   UNL A   1      36.340  23.320  24.693  1.00  0.00    -0.030 C 
ATOM     91  C   UNL A   1      35.326  22.288  24.314  1.00  0.00     0.034 C 
BRANCH  88  92
ATOM     92  C   UNL A   1      32.648  20.742  24.521  1.00  0.00    -0.022 A 
ATOM     93  C   UNL A   1      32.905  19.833  25.558  1.00  0.00     0.026 A 
ATOM     94  C   UNL A   1      32.302  20.215  23.271  1.00  0.00     0.026 A 
ATOM     95  C   UNL A   1      32.800  18.473  25.310  1.00  0.00     0.111 A 
ATOM     96  C   UNL A   1      32.206  18.838  23.125  1.00  0.00     0.111 A 
ATOM     97  N   UNL A   1      32.449  17.956  24.116  1.00  0.00    -0.265 NA
ENDBRANCH  88  92
ENDBRANCH  75  78
ENDBRANCH  73  74
ENDBRANCH  72  73
ENDBRANCH   1  72
TORSDOF 12
ENDMDL
MODEL 3
REMARK VINA RESULT:     -13.6      0.162      1.222
REMARK SMILES O=C(NCCCCNC(=O)c1ccc2c(c1)[C@@H]1C=CC[C@@H]1[C@H](c1ccncc1)N2)c1ccc(-c2c3nc(c(-c4c(F)c(F)c(F)c(F)c4F)c4ccc([nH]4)c(-c4c(F)c(F)c(F)c(F)c4F)c4nc(c(-c5c(F)c(F)c(F)c(F)c5F)c5ccc2[nH]5)C=C4)C=C3)cc1
REMARK SMILES IDX 5 1 4 2 3 3 1 4 2 5 30 7 31 8 92 9 32 10 91 11 33 12 34 13
REMARK SMILES IDX 35 14 85 15 36 16 90 17 84 18 86 19 37 20 89 21 83 22 82 23
REMARK SMILES IDX 38 25 70 26 50 27 69 28 51 29 54 30 68 31 87 32 52 33 53 34
REMARK SMILES IDX 67 36 88 37 55 38 39 39 40 40 48 41 41 42 42 43 46 44 49 45
REMARK SMILES IDX 43 46 44 47 47 48 45 49 71 50 72 51 80 52 73 53 74 54 78 55
REMARK SMILES IDX 81 56 75 57 76 58 79 59 77 60 56 61 57 62 65 63 58 64 59 65
REMARK SMILES IDX 63 66 66 67 60 68 61 69 64 70 62 71 6 72 7 73 8 74 9 75
REMARK SMILES IDX 10 77 11 78 12 79 16 80 13 81 15 82 14 83 17 84 29 85 18 86
REMARK SMILES IDX 21 87 22 88 19 90 20 91 23 92 24 93 28 94 25 95 27 96 26 97
REMARK H PARENT 3 6 86 24 54 35 8 76 29 89
REMARK Flexibility Score: inf
ROOT
ATOM      1  C   UNL A   1      31.834  28.663  25.405  1.00  0.00     0.023 C 
ENDROOT
BRANCH   1   2
ATOM      2  C   UNL A   1      33.008  29.478  25.930  1.00  0.00     0.116 C 
BRANCH   2   3
ATOM      3  N   UNL A   1      32.655  30.852  26.251  1.00  0.00    -0.352 N 
ATOM      4  O   UNL A   1      32.754  32.813  27.367  1.00  0.00    -0.269 OA
ATOM      5  C   UNL A   1      33.260  31.721  27.128  1.00  0.00     0.251 C 
ATOM      6  H   UNL A   1      31.872  31.211  25.774  1.00  0.00     0.163 HD
BRANCH   5   7
ATOM      7  C   UNL A   1      34.512  31.323  27.808  1.00  0.00     0.039 A 
ATOM      8  C   UNL A   1      34.687  30.016  28.261  1.00  0.00     0.014 A 
ATOM      9  C   UNL A   1      35.516  32.276  28.001  1.00  0.00     0.014 A 
ATOM     10  C   UNL A   1      35.793  29.700  29.041  1.00  0.00     0.010 A 
ATOM     11  C   UNL A   1      36.673  31.931  28.708  1.00  0.00     0.010 A 
ATOM     12  C   UNL A   1      36.806  30.649  29.260  1.00  0.00    -0.014 A 
BRANCH  12  13
ATOM     13  C   UNL A   1      38.022  30.242  30.009  1.00  0.00     0.031 A 
ATOM     14  C   UNL A   1      38.261  30.693  31.422  1.00  0.00     0.074 A 
ATOM     15  C   UNL A   1      38.895  29.414  29.404  1.00  0.00     0.049 A 
ATOM     16  N   UNL A   1      39.251  30.391  32.225  1.00  0.00    -0.248 NA
ATOM     17  C   UNL A   1      37.269  31.603  32.012  1.00  0.00     0.031 C 
ATOM     18  C   UNL A   1      38.773  28.926  28.028  1.00  0.00     0.029 A 
ATOM     19  N   UNL A   1      40.038  28.817  29.867  1.00  0.00    -0.354 N 
ATOM     20  C   UNL A   1      39.011  31.082  33.405  1.00  0.00     0.074 A 
ATOM     21  C   UNL A   1      37.793  31.840  33.208  1.00  0.00     0.031 C 
ATOM     22  C   UNL A   1      39.769  28.065  27.776  1.00  0.00     0.029 A 
ATOM     23  C   UNL A   1      40.633  27.988  28.948  1.00  0.00     0.049 A 
ATOM     24  H   UNL A   1      40.399  28.969  30.770  1.00  0.00     0.167 HD
ATOM     25  C   UNL A   1      39.738  31.076  34.549  1.00  0.00     0.037 A 
ATOM     26  C   UNL A   1      41.757  27.255  29.033  1.00  0.00     0.037 A 
ATOM     27  C   UNL A   1      40.941  30.305  34.743  1.00  0.00     0.049 A 
ATOM     28  C   UNL A   1      42.546  27.278  30.309  1.00  0.00     0.074 A 
ATOM     29  C   UNL A   1      41.730  30.207  35.877  1.00  0.00     0.029 A 
ATOM     30  N   UNL A   1      41.529  29.499  33.780  1.00  0.00    -0.354 N 
ATOM     31  N   UNL A   1      42.290  27.913  31.427  1.00  0.00    -0.248 NA
ATOM     32  C   UNL A   1      43.782  26.485  30.335  1.00  0.00     0.031 C 
ATOM     33  C   UNL A   1      42.817  29.376  35.586  1.00  0.00     0.029 A 
ATOM     34  C   UNL A   1      42.682  28.918  34.286  1.00  0.00     0.049 A 
ATOM     35  H   UNL A   1      41.180  29.360  32.870  1.00  0.00     0.167 HD
ATOM     36  C   UNL A   1      43.325  27.592  32.291  1.00  0.00     0.074 A 
ATOM     37  C   UNL A   1      44.198  26.681  31.578  1.00  0.00     0.031 C 
ATOM     38  C   UNL A   1      43.541  28.020  33.558  1.00  0.00     0.037 A 
BRANCH  25  39
ATOM     39  C   UNL A   1      39.265  31.933  35.686  1.00  0.00     0.064 A 
ATOM     40  C   UNL A   1      38.354  31.454  36.638  1.00  0.00     0.173 A 
ATOM     41  C   UNL A   1      39.785  33.224  35.867  1.00  0.00     0.173 A 
ATOM     42  F   UNL A   1      37.819  30.230  36.506  1.00  0.00    -0.203 F 
ATOM     43  C   UNL A   1      37.970  32.241  37.722  1.00  0.00     0.198 A 
ATOM     44  C   UNL A   1      39.418  33.999  36.965  1.00  0.00     0.198 A 
ATOM     45  F   UNL A   1      40.666  33.727  34.989  1.00  0.00    -0.203 F 
ATOM     46  F   UNL A   1      37.074  31.774  38.604  1.00  0.00    -0.200 F 
ATOM     47  C   UNL A   1      38.508  33.508  37.889  1.00  0.00     0.200 A 
ATOM     48  F   UNL A   1      39.949  35.218  37.131  1.00  0.00    -0.200 F 
ATOM     49  F   UNL A   1      38.148  34.258  38.940  1.00  0.00    -0.200 F 
ENDBRANCH  25  39
BRANCH  26  50
ATOM     50  C   UNL A   1      42.201  26.447  27.868  1.00  0.00     0.064 A 
ATOM     51  C   UNL A   1      43.149  26.943  26.965  1.00  0.00     0.173 A 
ATOM     52  C   UNL A   1      41.693  25.159  27.644  1.00  0.00     0.173 A 
ATOM     53  F   UNL A   1      43.650  28.177  27.129  1.00  0.00    -0.203 F 
ATOM     54  C   UNL A   1      43.561  26.188  25.869  1.00  0.00     0.198 A 
ATOM     55  C   UNL A   1      42.129  24.393  26.566  1.00  0.00     0.198 A 
ATOM     56  F   UNL A   1      40.788  24.637  28.484  1.00  0.00    -0.203 F 
ATOM     57  F   UNL A   1      44.438  26.702  24.996  1.00  0.00    -0.200 F 
ATOM     58  C   UNL A   1      43.056  24.910  25.674  1.00  0.00     0.200 A 
ATOM     59  F   UNL A   1      41.650  23.153  26.391  1.00  0.00    -0.200 F 
ATOM     60  F   UNL A   1      43.458  24.181  24.625  1.00  0.00    -0.200 F 
ENDBRANCH  26  50
BRANCH  38  61
ATOM     61  C   UNL A   1      44.762  27.494  34.251  1.00  0.00     0.064 A 
ATOM     62  C   UNL A   1      44.730  26.295  34.979  1.00  0.00     0.173 A 
ATOM     63  C   UNL A   1      45.978  28.190  34.179  1.00  0.00     0.173 A 
ATOM     64  F   UNL A   1      43.585  25.605  35.091  1.00  0.00    -0.203 F 
ATOM     65  C   UNL A   1      45.864  25.827  35.635  1.00  0.00     0.198 A 
ATOM     66  C   UNL A   1      47.117  27.704  34.814  1.00  0.00     0.198 A 
ATOM     67  F   UNL A   1      46.061  29.339  33.492  1.00  0.00    -0.203 F 
ATOM     68  F   UNL A   1      45.798  24.708  36.368  1.00  0.00    -0.200 F 
ATOM     69  C   UNL A   1      47.058  26.529  35.548  1.00  0.00     0.200 A 
ATOM     70  F   UNL A   1      48.272  28.378  34.722  1.00  0.00    -0.200 F 
ATOM     71  F   UNL A   1      48.149  26.078  36.181  1.00  0.00    -0.200 F 
ENDBRANCH  38  61
ENDBRANCH  12  13
ENDBRANCH   5   7
ENDBRANCH   2   3
ENDBRANCH   1   2
BRANCH   1  72
ATOM     72  C   UNL A   1      31.052  29.310  24.267  1.00  0.00     0.023 C 
BRANCH  72  73
ATOM     73  C   UNL A   1      31.266  28.685  22.892  1.00  0.00     0.116 C 
BRANCH  73  74
ATOM     74  N   UNL A   1      32.630  28.835  22.408  1.00  0.00    -0.352 N 
ATOM     75  C   UNL A   1      33.611  27.881  22.269  1.00  0.00     0.251 C 
ATOM     76  H   UNL A   1      32.887  29.747  22.142  1.00  0.00     0.163 HD
ATOM     77  O   UNL A   1      34.757  28.204  21.973  1.00  0.00    -0.269 OA
BRANCH  75  78
ATOM     78  C   UNL A   1      33.278  26.462  22.501  1.00  0.00     0.040 A 
ATOM     79  C   UNL A   1      32.750  25.707  21.457  1.00  0.00     0.016 A 
ATOM     80  C   UNL A   1      33.540  25.868  23.736  1.00  0.00     0.020 A 
ATOM     81  C   UNL A   1      32.528  24.342  21.645  1.00  0.00     0.027 A 
ATOM     82  C   UNL A   1      33.401  24.482  23.897  1.00  0.00    -0.017 A 
ATOM     83  C   UNL A   1      32.831  23.719  22.865  1.00  0.00     0.038 A 
ATOM     84  C   UNL A   1      33.902  23.830  25.166  1.00  0.00     0.049 C 
ATOM     85  N   UNL A   1      32.651  22.346  22.990  1.00  0.00    -0.378 N 
ATOM     86  C   UNL A   1      35.371  24.093  25.410  1.00  0.00    -0.023 C 
ATOM     87  C   UNL A   1      33.899  22.292  25.116  1.00  0.00     0.031 C 
ATOM     88  C   UNL A   1      32.714  21.745  24.317  1.00  0.00     0.114 C 
ATOM     89  H   UNL A   1      32.482  21.789  22.197  1.00  0.00     0.161 HD
ATOM     90  C   UNL A   1      36.131  23.036  25.098  1.00  0.00    -0.030 C 
ATOM     91  C   UNL A   1      35.297  21.894  24.611  1.00  0.00     0.034 C 
BRANCH  88  92
ATOM     92  C   UNL A   1      32.710  20.225  24.265  1.00  0.00    -0.022 A 
ATOM     93  C   UNL A   1      32.904  19.501  25.452  1.00  0.00     0.026 A 
ATOM     94  C   UNL A   1      32.530  19.493  23.085  1.00  0.00     0.026 A 
ATOM     95  C   UNL A   1      32.905  18.115  25.408  1.00  0.00     0.111 A 
ATOM     96  C   UNL A   1      32.528  18.107  23.146  1.00  0.00     0.111 A 
ATOM     97  N   UNL A   1      32.713  17.402  24.281  1.00  0.00    -0.265 NA
ENDBRANCH  88  92
ENDBRANCH  75  78
ENDBRANCH  73  74
ENDBRANCH  72  73
ENDBRANCH   1  72
TORSDOF 12
ENDMDL
