MODEL 1
REMARK VINA RESULT:     -12.1      0.000      0.000
REMARK SMILES O=C(NCCCCNC(=O)[C@@]1(Cc2cn3ccccc3n2)CCC[NH2+]C1)c1ccc(-c2c3nc(c(-c4c(F)c(F)c(F)c(F)c4F)c4ccc([nH]4)c(-c4c(F)c(F)c(F)c(F)c4F)c4nc(c(-c5c(F)c(F)c(F)c(F)c5F)c5ccc2[nH]5)C=C4)C=C3)cc1
REMARK SMILES IDX 5 1 4 2 3 3 1 4 2 5 27 7 28 8 89 9 29 10 88 11 30 12 31 13
REMARK SMILES IDX 32 14 82 15 33 16 87 17 81 18 83 19 34 20 86 21 80 22 79 23
REMARK SMILES IDX 35 25 67 26 47 27 66 28 48 29 51 30 65 31 84 32 49 33 50 34
REMARK SMILES IDX 64 36 85 37 52 38 36 39 37 40 45 41 38 42 39 43 43 44 46 45
REMARK SMILES IDX 40 46 41 47 44 48 42 49 68 50 69 51 77 52 70 53 71 54 75 55
REMARK SMILES IDX 78 56 72 57 73 58 76 59 74 60 53 61 54 62 62 63 55 64 56 65
REMARK SMILES IDX 60 66 63 67 57 68 58 69 61 70 59 71 6 72 7 73 8 74 9 75
REMARK SMILES IDX 10 77 11 78 22 79 26 80 23 81 25 82 24 83 12 86 13 87 14 88
REMARK SMILES IDX 21 89 15 90 20 91 16 92 19 93 17 94 18 95
REMARK H PARENT 3 6 83 24 51 35 8 76 25 84 25 85
REMARK Flexibility Score: inf
ROOT
ATOM      1  C   UNL A   1      39.299  21.281  25.710  1.00  0.00     0.023 C 
ENDROOT
BRANCH   1   2
ATOM      2  C   UNL A   1      39.691  20.114  26.608  1.00  0.00     0.116 C 
BRANCH   2   3
ATOM      3  N   UNL A   1      40.746  19.280  26.051  1.00  0.00    -0.352 N 
ATOM      4  O   UNL A   1      42.825  18.787  25.314  1.00  0.00    -0.269 OA
ATOM      5  C   UNL A   1      42.080  19.572  25.891  1.00  0.00     0.251 C 
ATOM      6  H   UNL A   1      40.467  18.385  25.749  1.00  0.00     0.163 HD
BRANCH   5   7
ATOM      7  C   UNL A   1      42.601  20.864  26.382  1.00  0.00     0.039 A 
ATOM      8  C   UNL A   1      42.653  21.131  27.752  1.00  0.00     0.014 A 
ATOM      9  C   UNL A   1      42.996  21.834  25.457  1.00  0.00     0.014 A 
ATOM     10  C   UNL A   1      42.940  22.417  28.188  1.00  0.00     0.010 A 
ATOM     11  C   UNL A   1      43.369  23.104  25.905  1.00  0.00     0.010 A 
ATOM     12  C   UNL A   1      43.299  23.419  27.270  1.00  0.00    -0.014 A 
BRANCH  12  13
ATOM     13  C   UNL A   1      43.621  24.777  27.775  1.00  0.00     0.031 A 
ATOM     14  C   UNL A   1      45.044  25.253  27.871  1.00  0.00     0.074 A 
ATOM     15  C   UNL A   1      42.607  25.601  28.096  1.00  0.00     0.049 A 
ATOM     16  N   UNL A   1      45.497  26.427  28.234  1.00  0.00    -0.248 NA
ATOM     17  C   UNL A   1      46.098  24.288  27.523  1.00  0.00     0.031 C 
ATOM     18  C   UNL A   1      41.188  25.243  28.050  1.00  0.00     0.029 A 
ATOM     19  N   UNL A   1      42.609  26.914  28.492  1.00  0.00    -0.354 N 
ATOM     20  C   UNL A   1      46.882  26.334  28.186  1.00  0.00     0.074 A 
ATOM     21  C   UNL A   1      47.199  24.983  27.775  1.00  0.00     0.031 C 
ATOM     22  C   UNL A   1      40.454  26.326  28.342  1.00  0.00     0.029 A 
ATOM     23  C   UNL A   1      41.349  27.436  28.650  1.00  0.00     0.049 A 
ATOM     24  H   UNL A   1      43.431  27.431  28.648  1.00  0.00     0.167 HD
ATOM     25  C   UNL A   1      47.801  27.292  28.456  1.00  0.00     0.037 A 
ATOM     26  C   UNL A   1      40.957  28.673  29.004  1.00  0.00     0.037 A 
ATOM     27  C   UNL A   1      47.480  28.645  28.831  1.00  0.00     0.049 A 
ATOM     28  C   UNL A   1      41.998  29.714  29.291  1.00  0.00     0.074 A 
ATOM     29  C   UNL A   1      48.341  29.702  29.075  1.00  0.00     0.029 A 
ATOM     30  N   UNL A   1      46.193  29.128  29.017  1.00  0.00    -0.354 N 
ATOM     31  N   UNL A   1      43.303  29.621  29.211  1.00  0.00    -0.248 NA
ATOM     32  C   UNL A   1      41.511  31.030  29.724  1.00  0.00     0.031 C 
ATOM     33  C   UNL A   1      47.575  30.815  29.446  1.00  0.00     0.029 A 
ATOM     34  C   UNL A   1      46.236  30.462  29.393  1.00  0.00     0.049 A 
ATOM     35  H   UNL A   1      45.369  28.602  28.898  1.00  0.00     0.167 HD
ATOM     36  C   UNL A   1      43.795  30.867  29.570  1.00  0.00     0.074 A 
ATOM     37  C   UNL A   1      42.645  31.705  29.849  1.00  0.00     0.031 C 
ATOM     38  C   UNL A   1      45.082  31.278  29.667  1.00  0.00     0.037 A 
BRANCH  25  39
ATOM     39  C   UNL A   1      49.250  26.909  28.376  1.00  0.00     0.064 A 
ATOM     40  C   UNL A   1      49.962  26.957  27.168  1.00  0.00     0.173 A 
ATOM     41  C   UNL A   1      49.948  26.533  29.534  1.00  0.00     0.173 A 
ATOM     42  F   UNL A   1      49.339  27.298  26.030  1.00  0.00    -0.203 F 
ATOM     43  C   UNL A   1      51.314  26.621  27.119  1.00  0.00     0.198 A 
ATOM     44  C   UNL A   1      51.305  26.221  29.487  1.00  0.00     0.198 A 
ATOM     45  F   UNL A   1      49.315  26.477  30.716  1.00  0.00    -0.203 F 
ATOM     46  F   UNL A   1      51.965  26.635  25.949  1.00  0.00    -0.200 F 
ATOM     47  C   UNL A   1      51.985  26.260  28.279  1.00  0.00     0.200 A 
ATOM     48  F   UNL A   1      51.954  25.882  30.609  1.00  0.00    -0.200 F 
ATOM     49  F   UNL A   1      53.286  25.943  28.231  1.00  0.00    -0.200 F 
ENDBRANCH  25  39
BRANCH  26  50
ATOM     50  C   UNL A   1      39.509  28.989  29.084  1.00  0.00     0.064 A 
ATOM     51  C   UNL A   1      38.792  29.363  27.940  1.00  0.00     0.173 A 
ATOM     52  C   UNL A   1      38.810  28.897  30.296  1.00  0.00     0.173 A 
ATOM     53  F   UNL A   1      39.423  29.481  26.763  1.00  0.00    -0.203 F 
ATOM     54  C   UNL A   1      37.429  29.642  28.007  1.00  0.00     0.198 A 
ATOM     55  C   UNL A   1      37.441  29.150  30.357  1.00  0.00     0.198 A 
ATOM     56  F   UNL A   1      39.452  28.537  31.416  1.00  0.00    -0.203 F 
ATOM     57  F   UNL A   1      36.772  30.028  26.905  1.00  0.00    -0.200 F 
ATOM     58  C   UNL A   1      36.753  29.527  29.213  1.00  0.00     0.200 A 
ATOM     59  F   UNL A   1      36.790  29.023  31.521  1.00  0.00    -0.200 F 
ATOM     60  F   UNL A   1      35.440  29.784  29.275  1.00  0.00    -0.200 F 
ENDBRANCH  26  50
BRANCH  38  61
ATOM     61  C   UNL A   1      45.308  32.705  30.071  1.00  0.00     0.064 A 
ATOM     62  C   UNL A   1      45.354  33.735  29.121  1.00  0.00     0.173 A 
ATOM     63  C   UNL A   1      45.468  33.044  31.422  1.00  0.00     0.173 A 
ATOM     64  F   UNL A   1      45.224  33.455  27.815  1.00  0.00    -0.203 F 
ATOM     65  C   UNL A   1      45.577  35.053  29.508  1.00  0.00     0.198 A 
ATOM     66  C   UNL A   1      45.667  34.367  31.808  1.00  0.00     0.198 A 
ATOM     67  F   UNL A   1      45.428  32.093  32.368  1.00  0.00    -0.203 F 
ATOM     68  F   UNL A   1      45.666  36.016  28.580  1.00  0.00    -0.200 F 
ATOM     69  C   UNL A   1      45.729  35.368  30.851  1.00  0.00     0.200 A 
ATOM     70  F   UNL A   1      45.804  34.671  33.105  1.00  0.00    -0.200 F 
ATOM     71  F   UNL A   1      45.947  36.637  31.221  1.00  0.00    -0.200 F 
ENDBRANCH  38  61
ENDBRANCH  12  13
ENDBRANCH   5   7
ENDBRANCH   2   3
ENDBRANCH   1   2
BRANCH   1  72
ATOM     72  C   UNL A   1      39.202  22.636  26.408  1.00  0.00     0.023 C 
BRANCH  72  73
ATOM     73  C   UNL A   1      38.015  23.494  25.978  1.00  0.00     0.116 C 
BRANCH  73  74
ATOM     74  N   UNL A   1      37.674  23.303  24.579  1.00  0.00    -0.355 N 
ATOM     75  C   UNL A   1      36.483  23.212  23.922  1.00  0.00     0.232 C 
ATOM     76  H   UNL A   1      38.459  23.223  23.989  1.00  0.00     0.163 HD
ATOM     77  O   UNL A   1      36.568  23.073  22.698  1.00  0.00    -0.274 OA
BRANCH  75  78
ATOM     78  C   UNL A   1      35.117  23.300  24.644  1.00  0.00     0.104 C 
ATOM     79  C   UNL A   1      35.012  24.718  25.291  1.00  0.00     0.029 C 
ATOM     80  C   UNL A   1      34.004  23.205  23.567  1.00  0.00     0.277 C 
ATOM     81  C   UNL A   1      33.592  25.121  25.684  1.00  0.00     0.063 C 
ATOM     82  N   UNL A   1      32.654  23.603  23.976  1.00  0.00    -0.345 N 
ATOM     83  C   UNL A   1      32.621  24.954  24.524  1.00  0.00     0.260 C 
ATOM     84  H   UNL A   1      32.040  23.562  23.164  1.00  0.00     0.346 HD
ATOM     85  H   UNL A   1      32.346  22.962  24.707  1.00  0.00     0.346 HD
BRANCH  78  86
ATOM     86  C   UNL A   1      35.149  22.209  25.754  1.00  0.00     0.080 C 
BRANCH  86  87
ATOM     87  C   UNL A   1      34.576  20.876  25.430  1.00  0.00     0.061 A 
ATOM     88  C   UNL A   1      33.329  20.366  25.725  1.00  0.00     0.116 A 
ATOM     89  N   UNL A   1      35.315  19.959  24.715  1.00  0.00    -0.234 NA
ATOM     90  N   UNL A   1      33.379  19.048  25.360  1.00  0.00    -0.307 N 
ATOM     91  C   UNL A   1      34.587  18.863  24.700  1.00  0.00     0.136 A 
ATOM     92  C   UNL A   1      32.464  18.027  25.597  1.00  0.00     0.093 A 
ATOM     93  C   UNL A   1      34.852  17.562  24.186  1.00  0.00     0.048 A 
ATOM     94  C   UNL A   1      32.738  16.788  25.152  1.00  0.00     0.018 A 
ATOM     95  C   UNL A   1      33.971  16.567  24.408  1.00  0.00     0.005 A 
ENDBRANCH  86  87
ENDBRANCH  78  86
ENDBRANCH  75  78
ENDBRANCH  73  74
ENDBRANCH  72  73
ENDBRANCH   1  72
TORSDOF 13
ENDMDL
MODEL 2
REMARK VINA RESULT:     -12.0      0.084      1.952
REMARK SMILES O=C(NCCCCNC(=O)[C@@]1(Cc2cn3ccccc3n2)CCC[NH2+]C1)c1ccc(-c2c3nc(c(-c4c(F)c(F)c(F)c(F)c4F)c4ccc([nH]4)c(-c4c(F)c(F)c(F)c(F)c4F)c4nc(c(-c5c(F)c(F)c(F)c(F)c5F)c5ccc2[nH]5)C=C4)C=C3)cc1
REMARK SMILES IDX 5 1 4 2 3 3 1 4 2 5 27 7 28 8 89 9 29 10 88 11 30 12 31 13
REMARK SMILES IDX 32 14 82 15 33 16 87 17 81 18 83 19 34 20 86 21 80 22 79 23
REMARK SMILES IDX 35 25 67 26 47 27 66 28 48 29 51 30 65 31 84 32 49 33 50 34
REMARK SMILES IDX 64 36 85 37 52 38 36 39 37 40 45 41 38 42 39 43 43 44 46 45
REMARK SMILES IDX 40 46 41 47 44 48 42 49 68 50 69 51 77 52 70 53 71 54 75 55
REMARK SMILES IDX 78 56 72 57 73 58 76 59 74 60 53 61 54 62 62 63 55 64 56 65
REMARK SMILES IDX 60 66 63 67 57 68 58 69 61 70 59 71 6 72 7 73 8 74 9 75
REMARK SMILES IDX 10 77 11 78 22 79 26 80 23 81 25 82 24 83 12 86 13 87 14 88
REMARK SMILES IDX 21 89 15 90 20 91 16 92 19 93 17 94 18 95
REMARK H PARENT 3 6 83 24 51 35 8 76 25 84 25 85
REMARK Flexibility Score: inf
ROOT
ATOM      1  C   UNL A   1      39.326  21.337  25.723  1.00  0.00     0.023 C 
ENDROOT
BRANCH   1   2
ATOM      2  C   UNL A   1      39.693  20.133  26.581  1.00  0.00     0.116 C 
BRANCH   2   3
ATOM      3  N   UNL A   1      40.750  19.311  26.011  1.00  0.00    -0.352 N 
ATOM      4  O   UNL A   1      42.828  18.840  25.256  1.00  0.00    -0.269 OA
ATOM      5  C   UNL A   1      42.081  19.614  25.844  1.00  0.00     0.251 C 
ATOM      6  H   UNL A   1      40.476  18.417  25.703  1.00  0.00     0.163 HD
BRANCH   5   7
ATOM      7  C   UNL A   1      42.595  20.906  26.342  1.00  0.00     0.039 A 
ATOM      8  C   UNL A   1      42.641  21.168  27.714  1.00  0.00     0.014 A 
ATOM      9  C   UNL A   1      42.991  21.881  25.423  1.00  0.00     0.014 A 
ATOM     10  C   UNL A   1      42.922  22.454  28.156  1.00  0.00     0.010 A 
ATOM     11  C   UNL A   1      43.358  23.151  25.877  1.00  0.00     0.010 A 
ATOM     12  C   UNL A   1      43.282  23.460  27.243  1.00  0.00    -0.014 A 
BRANCH  12  13
ATOM     13  C   UNL A   1      43.597  24.817  27.755  1.00  0.00     0.031 A 
ATOM     14  C   UNL A   1      45.017  25.300  27.850  1.00  0.00     0.074 A 
ATOM     15  C   UNL A   1      42.579  25.634  28.083  1.00  0.00     0.049 A 
ATOM     16  N   UNL A   1      45.464  26.476  28.219  1.00  0.00    -0.248 NA
ATOM     17  C   UNL A   1      46.075  24.344  27.495  1.00  0.00     0.031 C 
ATOM     18  C   UNL A   1      41.162  25.268  28.038  1.00  0.00     0.029 A 
ATOM     19  N   UNL A   1      42.573  26.944  28.486  1.00  0.00    -0.354 N 
ATOM     20  C   UNL A   1      46.849  26.390  28.167  1.00  0.00     0.074 A 
ATOM     21  C   UNL A   1      47.173  25.044  27.748  1.00  0.00     0.031 C 
ATOM     22  C   UNL A   1      40.421  26.345  28.337  1.00  0.00     0.029 A 
ATOM     23  C   UNL A   1      41.311  27.458  28.649  1.00  0.00     0.049 A 
ATOM     24  H   UNL A   1      43.393  27.465  28.642  1.00  0.00     0.167 HD
ATOM     25  C   UNL A   1      47.763  27.352  28.440  1.00  0.00     0.037 A 
ATOM     26  C   UNL A   1      40.913  28.691  29.011  1.00  0.00     0.037 A 
ATOM     27  C   UNL A   1      47.436  28.701  28.823  1.00  0.00     0.049 A 
ATOM     28  C   UNL A   1      41.949  29.737  29.301  1.00  0.00     0.074 A 
ATOM     29  C   UNL A   1      48.291  29.762  29.071  1.00  0.00     0.029 A 
ATOM     30  N   UNL A   1      46.146  29.176  29.014  1.00  0.00    -0.354 N 
ATOM     31  N   UNL A   1      43.254  29.652  29.218  1.00  0.00    -0.248 NA
ATOM     32  C   UNL A   1      41.455  31.047  29.743  1.00  0.00     0.031 C 
ATOM     33  C   UNL A   1      47.520  30.868  29.449  1.00  0.00     0.029 A 
ATOM     34  C   UNL A   1      46.183  30.508  29.398  1.00  0.00     0.049 A 
ATOM     35  H   UNL A   1      45.325  28.646  28.895  1.00  0.00     0.167 HD
ATOM     36  C   UNL A   1      43.739  30.899  29.583  1.00  0.00     0.074 A 
ATOM     37  C   UNL A   1      42.585  31.728  29.869  1.00  0.00     0.031 C 
ATOM     38  C   UNL A   1      45.024  31.316  29.679  1.00  0.00     0.037 A 
BRANCH  25  39
ATOM     39  C   UNL A   1      49.215  26.978  28.355  1.00  0.00     0.064 A 
ATOM     40  C   UNL A   1      49.939  26.561  29.481  1.00  0.00     0.173 A 
ATOM     41  C   UNL A   1      49.879  26.996  27.118  1.00  0.00     0.173 A 
ATOM     42  F   UNL A   1      49.355  26.538  30.689  1.00  0.00    -0.203 F 
ATOM     43  C   UNL A   1      51.279  26.195  29.377  1.00  0.00     0.198 A 
ATOM     44  C   UNL A   1      51.211  26.606  27.012  1.00  0.00     0.198 A 
ATOM     45  F   UNL A   1      49.230  27.382  26.009  1.00  0.00    -0.203 F 
ATOM     46  F   UNL A   1      51.962  25.836  30.472  1.00  0.00    -0.200 F 
ATOM     47  C   UNL A   1      51.912  26.211  28.142  1.00  0.00     0.200 A 
ATOM     48  F   UNL A   1      51.818  26.613  25.817  1.00  0.00    -0.200 F 
ATOM     49  F   UNL A   1      53.200  25.853  28.042  1.00  0.00    -0.200 F 
ENDBRANCH  25  39
BRANCH  26  50
ATOM     50  C   UNL A   1      39.463  28.998  29.096  1.00  0.00     0.064 A 
ATOM     51  C   UNL A   1      38.783  28.918  30.319  1.00  0.00     0.173 A 
ATOM     52  C   UNL A   1      38.738  29.404  27.968  1.00  0.00     0.173 A 
ATOM     53  F   UNL A   1      39.434  28.517  31.421  1.00  0.00    -0.203 F 
ATOM     54  C   UNL A   1      37.428  29.224  30.408  1.00  0.00     0.198 A 
ATOM     55  C   UNL A   1      37.388  29.736  28.063  1.00  0.00     0.198 A 
ATOM     56  F   UNL A   1      39.346  29.501  26.777  1.00  0.00    -0.203 F 
ATOM     57  F   UNL A   1      36.793  29.109  31.582  1.00  0.00    -0.200 F 
ATOM     58  C   UNL A   1      36.733  29.640  29.282  1.00  0.00     0.200 A 
ATOM     59  F   UNL A   1      36.725  30.152  26.975  1.00  0.00    -0.200 F 
ATOM     60  F   UNL A   1      35.432  29.946  29.369  1.00  0.00    -0.200 F 
ENDBRANCH  26  50
BRANCH  38  61
ATOM     61  C   UNL A   1      45.243  32.742  30.090  1.00  0.00     0.064 A 
ATOM     62  C   UNL A   1      45.421  33.096  31.435  1.00  0.00     0.173 A 
ATOM     63  C   UNL A   1      45.290  33.760  29.126  1.00  0.00     0.173 A 
ATOM     64  F   UNL A   1      45.366  32.159  32.392  1.00  0.00    -0.203 F 
ATOM     65  C   UNL A   1      45.611  34.425  31.803  1.00  0.00     0.198 A 
ATOM     66  C   UNL A   1      45.504  35.085  29.496  1.00  0.00     0.198 A 
ATOM     67  F   UNL A   1      45.129  33.470  27.826  1.00  0.00    -0.203 F 
ATOM     68  F   UNL A   1      45.729  34.748  33.099  1.00  0.00    -0.200 F 
ATOM     69  C   UNL A   1      45.656  35.417  30.834  1.00  0.00     0.200 A 
ATOM     70  F   UNL A   1      45.557  36.041  28.559  1.00  0.00    -0.200 F 
ATOM     71  F   UNL A   1      45.837  36.695  31.191  1.00  0.00    -0.200 F 
ENDBRANCH  38  61
ENDBRANCH  12  13
ENDBRANCH   5   7
ENDBRANCH   2   3
ENDBRANCH   1   2
BRANCH   1  72
ATOM     72  C   UNL A   1      39.188  22.657  26.478  1.00  0.00     0.023 C 
BRANCH  72  73
ATOM     73  C   UNL A   1      38.037  23.545  26.011  1.00  0.00     0.116 C 
BRANCH  73  74
ATOM     74  N   UNL A   1      37.702  23.323  24.616  1.00  0.00    -0.355 N 
ATOM     75  C   UNL A   1      36.513  23.199  23.959  1.00  0.00     0.232 C 
ATOM     76  H   UNL A   1      38.488  23.248  24.027  1.00  0.00     0.163 HD
ATOM     77  O   UNL A   1      36.602  23.040  22.737  1.00  0.00    -0.274 OA
BRANCH  75  78
ATOM     78  C   UNL A   1      35.145  23.273  24.679  1.00  0.00     0.104 C 
ATOM     79  C   UNL A   1      35.034  24.682  25.344  1.00  0.00     0.029 C 
ATOM     80  C   UNL A   1      34.035  23.189  23.598  1.00  0.00     0.277 C 
ATOM     81  C   UNL A   1      33.612  25.076  25.738  1.00  0.00     0.063 C 
ATOM     82  N   UNL A   1      32.683  23.577  24.008  1.00  0.00    -0.345 N 
ATOM     83  C   UNL A   1      32.644  24.921  24.574  1.00  0.00     0.260 C 
ATOM     84  H   UNL A   1      32.071  23.546  23.193  1.00  0.00     0.346 HD
ATOM     85  H   UNL A   1      32.374  22.926  24.729  1.00  0.00     0.346 HD
BRANCH  78  86
ATOM     86  C   UNL A   1      35.177  22.167  25.775  1.00  0.00     0.080 C 
BRANCH  86  87
ATOM     87  C   UNL A   1      34.586  20.845  25.440  1.00  0.00     0.061 A 
ATOM     88  C   UNL A   1      33.335  20.346  25.740  1.00  0.00     0.116 A 
ATOM     89  N   UNL A   1      35.308  19.928  24.708  1.00  0.00    -0.234 NA
ATOM     90  N   UNL A   1      33.367  19.032  25.359  1.00  0.00    -0.307 N 
ATOM     91  C   UNL A   1      34.568  18.840  24.686  1.00  0.00     0.136 A 
ATOM     92  C   UNL A   1      32.442  18.019  25.591  1.00  0.00     0.093 A 
ATOM     93  C   UNL A   1      34.813  17.543  24.155  1.00  0.00     0.048 A 
ATOM     94  C   UNL A   1      32.699  16.782  25.131  1.00  0.00     0.018 A 
ATOM     95  C   UNL A   1      33.923  16.555  24.373  1.00  0.00     0.005 A 
ENDBRANCH  86  87
ENDBRANCH  78  86
ENDBRANCH  75  78
ENDBRANCH  73  74
ENDBRANCH  72  73
ENDBRANCH   1  72
TORSDOF 13
ENDMDL
MODEL 3
REMARK VINA RESULT:     -12.0      4.626      9.413
REMARK SMILES O=C(NCCCCNC(=O)[C@@]1(Cc2cn3ccccc3n2)CCC[NH2+]C1)c1ccc(-c2c3nc(c(-c4c(F)c(F)c(F)c(F)c4F)c4ccc([nH]4)c(-c4c(F)c(F)c(F)c(F)c4F)c4nc(c(-c5c(F)c(F)c(F)c(F)c5F)c5ccc2[nH]5)C=C4)C=C3)cc1
REMARK SMILES IDX 5 1 4 2 3 3 1 4 2 5 27 7 28 8 89 9 29 10 88 11 30 12 31 13
REMARK SMILES IDX 32 14 82 15 33 16 87 17 81 18 83 19 34 20 86 21 80 22 79 23
REMARK SMILES IDX 35 25 67 26 47 27 66 28 48 29 51 30 65 31 84 32 49 33 50 34
REMARK SMILES IDX 64 36 85 37 52 38 36 39 37 40 45 41 38 42 39 43 43 44 46 45
REMARK SMILES IDX 40 46 41 47 44 48 42 49 68 50 69 51 77 52 70 53 71 54 75 55
REMARK SMILES IDX 78 56 72 57 73 58 76 59 74 60 53 61 54 62 62 63 55 64 56 65
REMARK SMILES IDX 60 66 63 67 57 68 58 69 61 70 59 71 6 72 7 73 8 74 9 75
REMARK SMILES IDX 10 77 11 78 22 79 26 80 23 81 25 82 24 83 12 86 13 87 14 88
REMARK SMILES IDX 21 89 15 90 20 91 16 92 19 93 17 94 18 95
REMARK H PARENT 3 6 83 24 51 35 8 76 25 84 25 85
REMARK Flexibility Score: inf
ROOT
ATOM      1  C   UNL A   1      31.876  28.622  26.173  1.00  0.00     0.023 C 
ENDROOT
BRANCH   1   2
ATOM      2  C   UNL A   1      32.914  29.692  25.863  1.00  0.00     0.116 C 
BRANCH   2   3
ATOM      3  N   UNL A   1      32.542  31.019  26.332  1.00  0.00    -0.352 N 
ATOM      4  O   UNL A   1      32.696  32.889  27.591  1.00  0.00    -0.269 OA
ATOM      5  C   UNL A   1      33.196  31.830  27.229  1.00  0.00     0.251 C 
ATOM      6  H   UNL A   1      31.709  31.386  25.956  1.00  0.00     0.163 HD
BRANCH   5   7
ATOM      7  C   UNL A   1      34.490  31.391  27.789  1.00  0.00     0.039 A 
ATOM      8  C   UNL A   1      34.685  30.058  28.160  1.00  0.00     0.014 A 
ATOM      9  C   UNL A   1      35.502  32.334  27.986  1.00  0.00     0.014 A 
ATOM     10  C   UNL A   1      35.821  29.707  28.877  1.00  0.00     0.010 A 
ATOM     11  C   UNL A   1      36.683  31.958  28.631  1.00  0.00     0.010 A 
ATOM     12  C   UNL A   1      36.831  30.652  29.122  1.00  0.00    -0.014 A 
BRANCH  12  13
ATOM     13  C   UNL A   1      38.042  30.234  29.873  1.00  0.00     0.031 A 
ATOM     14  C   UNL A   1      38.254  30.654  31.300  1.00  0.00     0.074 A 
ATOM     15  C   UNL A   1      38.926  29.420  29.267  1.00  0.00     0.049 A 
ATOM     16  N   UNL A   1      39.225  30.330  32.118  1.00  0.00    -0.248 NA
ATOM     17  C   UNL A   1      37.256  31.560  31.887  1.00  0.00     0.031 C 
ATOM     18  C   UNL A   1      38.826  28.955  27.882  1.00  0.00     0.029 A 
ATOM     19  N   UNL A   1      40.061  28.815  29.741  1.00  0.00    -0.354 N 
ATOM     20  C   UNL A   1      38.971  31.013  33.301  1.00  0.00     0.074 A 
ATOM     21  C   UNL A   1      37.764  31.783  33.092  1.00  0.00     0.031 C 
ATOM     22  C   UNL A   1      39.819  28.089  27.637  1.00  0.00     0.029 A 
ATOM     23  C   UNL A   1      40.656  27.982  28.827  1.00  0.00     0.049 A 
ATOM     24  H   UNL A   1      40.414  28.963  30.648  1.00  0.00     0.167 HD
ATOM     25  C   UNL A   1      39.680  30.991  34.455  1.00  0.00     0.037 A 
ATOM     26  C   UNL A   1      41.756  27.215  28.935  1.00  0.00     0.037 A 
ATOM     27  C   UNL A   1      40.861  30.196  34.670  1.00  0.00     0.049 A 
ATOM     28  C   UNL A   1      42.517  27.207  30.228  1.00  0.00     0.074 A 
ATOM     29  C   UNL A   1      41.620  30.068  35.822  1.00  0.00     0.029 A 
ATOM     30  N   UNL A   1      41.456  29.392  33.709  1.00  0.00    -0.354 N 
ATOM     31  N   UNL A   1      42.248  27.833  31.348  1.00  0.00    -0.248 NA
ATOM     32  C   UNL A   1      43.738  26.393  30.268  1.00  0.00     0.031 C 
ATOM     33  C   UNL A   1      42.696  29.215  35.545  1.00  0.00     0.029 A 
ATOM     34  C   UNL A   1      42.585  28.781  34.234  1.00  0.00     0.049 A 
ATOM     35  H   UNL A   1      41.127  29.272  32.789  1.00  0.00     0.167 HD
ATOM     36  C   UNL A   1      43.257  27.479  32.232  1.00  0.00     0.074 A 
ATOM     37  C   UNL A   1      44.132  26.567  31.522  1.00  0.00     0.031 C 
ATOM     38  C   UNL A   1      43.444  27.878  33.512  1.00  0.00     0.037 A 
BRANCH  25  39
ATOM     39  C   UNL A   1      39.211  31.871  35.578  1.00  0.00     0.064 A 
ATOM     40  C   UNL A   1      39.574  33.223  35.660  1.00  0.00     0.173 A 
ATOM     41  C   UNL A   1      38.347  31.363  36.561  1.00  0.00     0.173 A 
ATOM     42  F   UNL A   1      40.407  33.754  34.752  1.00  0.00    -0.203 F 
ATOM     43  C   UNL A   1      39.108  34.029  36.697  1.00  0.00     0.198 A 
ATOM     44  C   UNL A   1      37.863  32.177  37.583  1.00  0.00     0.198 A 
ATOM     45  F   UNL A   1      37.965  30.078  36.525  1.00  0.00    -0.203 F 
ATOM     46  F   UNL A   1      39.499  35.308  36.778  1.00  0.00    -0.200 F 
ATOM     47  C   UNL A   1      38.248  33.507  37.653  1.00  0.00     0.200 A 
ATOM     48  F   UNL A   1      37.025  31.674  38.500  1.00  0.00    -0.200 F 
ATOM     49  F   UNL A   1      37.796  34.285  38.646  1.00  0.00    -0.200 F 
ENDBRANCH  25  39
BRANCH  26  50
ATOM     50  C   UNL A   1      42.184  26.379  27.785  1.00  0.00     0.064 A 
ATOM     51  C   UNL A   1      43.178  26.825  26.904  1.00  0.00     0.173 A 
ATOM     52  C   UNL A   1      41.628  25.112  27.561  1.00  0.00     0.173 A 
ATOM     53  F   UNL A   1      43.725  28.038  27.070  1.00  0.00    -0.203 F 
ATOM     54  C   UNL A   1      43.596  26.036  25.836  1.00  0.00     0.198 A 
ATOM     55  C   UNL A   1      42.066  24.312  26.507  1.00  0.00     0.198 A 
ATOM     56  F   UNL A   1      40.678  24.640  28.380  1.00  0.00    -0.203 F 
ATOM     57  F   UNL A   1      44.526  26.497  24.989  1.00  0.00    -0.200 F 
ATOM     58  C   UNL A   1      43.046  24.778  25.642  1.00  0.00     0.200 A 
ATOM     59  F   UNL A   1      41.543  23.091  26.334  1.00  0.00    -0.200 F 
ATOM     60  F   UNL A   1      43.456  24.014  24.621  1.00  0.00    -0.200 F 
ENDBRANCH  26  50
BRANCH  38  61
ATOM     61  C   UNL A   1      44.631  27.310  34.231  1.00  0.00     0.064 A 
ATOM     62  C   UNL A   1      45.863  27.981  34.253  1.00  0.00     0.173 A 
ATOM     63  C   UNL A   1      44.531  26.089  34.915  1.00  0.00     0.173 A 
ATOM     64  F   UNL A   1      46.010  29.141  33.598  1.00  0.00    -0.203 F 
ATOM     65  C   UNL A   1      46.960  27.436  34.914  1.00  0.00     0.198 A 
ATOM     66  C   UNL A   1      45.624  25.560  35.595  1.00  0.00     0.198 A 
ATOM     67  F   UNL A   1      43.372  25.413  34.926  1.00  0.00    -0.203 F 
ATOM     68  F   UNL A   1      48.141  28.069  34.881  1.00  0.00    -0.200 F 
ATOM     69  C   UNL A   1      46.838  26.229  35.587  1.00  0.00     0.200 A 
ATOM     70  F   UNL A   1      45.504  24.399  36.253  1.00  0.00    -0.200 F 
ATOM     71  F   UNL A   1      47.897  25.705  36.220  1.00  0.00    -0.200 F 
ENDBRANCH  38  61
ENDBRANCH  12  13
ENDBRANCH   5   7
ENDBRANCH   2   3
ENDBRANCH   1   2
BRANCH   1  72
ATOM     72  C   UNL A   1      32.434  27.314  26.731  1.00  0.00     0.023 C 
BRANCH  72  73
ATOM     73  C   UNL A   1      32.142  26.079  25.883  1.00  0.00     0.116 C 
BRANCH  73  74
ATOM     74  N   UNL A   1      31.746  24.938  26.689  1.00  0.00    -0.355 N 
ATOM     75  C   UNL A   1      32.243  23.674  26.810  1.00  0.00     0.232 C 
ATOM     76  H   UNL A   1      30.963  25.111  27.262  1.00  0.00     0.163 HD
ATOM     77  O   UNL A   1      31.661  22.957  27.630  1.00  0.00    -0.274 OA
BRANCH  75  78
ATOM     78  C   UNL A   1      33.463  23.171  26.002  1.00  0.00     0.104 C 
ATOM     79  C   UNL A   1      34.250  24.424  25.500  1.00  0.00     0.029 C 
ATOM     80  C   UNL A   1      34.395  22.406  26.977  1.00  0.00     0.277 C 
ATOM     81  C   UNL A   1      35.677  24.124  25.048  1.00  0.00     0.063 C 
ATOM     82  N   UNL A   1      35.760  22.138  26.513  1.00  0.00    -0.345 N 
ATOM     83  C   UNL A   1      36.452  23.356  26.109  1.00  0.00     0.260 C 
ATOM     84  H   UNL A   1      36.283  21.698  27.270  1.00  0.00     0.346 HD
ATOM     85  H   UNL A   1      35.700  21.527  25.699  1.00  0.00     0.346 HD
BRANCH  78  86
ATOM     86  C   UNL A   1      32.879  22.388  24.789  1.00  0.00     0.080 C 
BRANCH  86  87
ATOM     87  C   UNL A   1      33.075  20.915  24.759  1.00  0.00     0.061 A 
ATOM     88  C   UNL A   1      32.161  19.907  24.982  1.00  0.00     0.116 A 
ATOM     89  N   UNL A   1      34.310  20.386  24.453  1.00  0.00    -0.234 NA
ATOM     90  N   UNL A   1      32.893  18.750  25.008  1.00  0.00    -0.307 N 
ATOM     91  C   UNL A   1      34.185  19.087  24.626  1.00  0.00     0.136 A 
ATOM     92  C   UNL A   1      32.506  17.464  25.370  1.00  0.00     0.093 A 
ATOM     93  C   UNL A   1      35.132  18.029  24.540  1.00  0.00     0.048 A 
ATOM     94  C   UNL A   1      33.415  16.474  25.335  1.00  0.00     0.018 A 
ATOM     95  C   UNL A   1      34.767  16.779  24.886  1.00  0.00     0.005 A 
ENDBRANCH  86  87
ENDBRANCH  78  86
ENDBRANCH  75  78
ENDBRANCH  73  74
ENDBRANCH  72  73
ENDBRANCH   1  72
TORSDOF 13
ENDMDL
