MODEL 1
REMARK VINA RESULT:     -12.9      0.000      0.000
REMARK SMILES Cc1ccc(C(=O)NCCCCNC(=O)c2ccc(-c3c4nc(c(-c5c(F)c(F)c(F)c(F)c5F)c5ccc([nH]5)c(-c5c(F)c(F)c(F)c(F)c5F)c5nc(c(-c6c(F)c(F)c(F)c(F)c6F)c6ccc3[nH]6)C=C5)C=C4)cc2)cc1N1CC(C)C1
REMARK SMILES IDX 11 1 10 2 9 3 8 4 6 5 7 6 5 8 1 9 2 10 3 11 80 12 4 13 79 14
REMARK SMILES IDX 81 15 82 16 85 17 83 18 84 19 12 20 13 21 14 22 15 24 16 25
REMARK SMILES IDX 17 26 78 27 18 28 77 29 19 30 20 31 21 32 71 33 22 34 76 35
REMARK SMILES IDX 70 36 72 37 23 38 75 39 69 40 68 41 24 43 56 44 36 45 55 46
REMARK SMILES IDX 37 47 40 48 54 49 73 50 38 51 39 52 53 54 74 55 41 56 25 57
REMARK SMILES IDX 26 58 34 59 27 60 28 61 32 62 35 63 29 64 30 65 33 66 31 67
REMARK SMILES IDX 57 68 58 69 66 70 59 71 60 72 64 73 67 74 61 75 62 76 65 77
REMARK SMILES IDX 63 78 42 79 43 80 51 81 44 82 45 83 49 84 52 85 46 86 47 87
REMARK SMILES IDX 50 88 48 89
REMARK H PARENT 8 7 13 23 72 42 40 53
REMARK Flexibility Score: inf
ROOT
ATOM      1  C   UNL A   1      33.328  29.921  25.961  1.00  0.00     0.023 C 
ENDROOT
BRANCH   1   2
ATOM      2  C   UNL A   1      33.736  28.749  25.056  1.00  0.00     0.023 C 
BRANCH   2   3
ATOM      3  C   UNL A   1      32.610  28.220  24.153  1.00  0.00     0.116 C 
BRANCH   3   4
ATOM      4  N   UNL A   1      33.107  27.366  23.092  1.00  0.00    -0.352 N 
ATOM      5  C   UNL A   1      33.559  26.073  23.026  1.00  0.00     0.251 C 
ATOM      6  O   UNL A   1      33.878  25.679  21.901  1.00  0.00    -0.269 OA
ATOM      7  H   UNL A   1      33.125  27.819  22.218  1.00  0.00     0.163 HD
BRANCH   5   8
ATOM      8  C   UNL A   1      33.682  25.127  24.179  1.00  0.00     0.041 A 
ATOM      9  C   UNL A   1      33.634  22.452  27.602  1.00  0.00     0.046 C 
ATOM     10  C   UNL A   1      33.695  23.373  26.415  1.00  0.00    -0.028 A 
ATOM     11  C   UNL A   1      32.511  23.995  25.998  1.00  0.00     0.006 A 
ATOM     12  C   UNL A   1      34.882  23.630  25.710  1.00  0.00     0.040 A 
ATOM     13  C   UNL A   1      32.510  24.869  24.908  1.00  0.00     0.014 A 
ATOM     14  C   UNL A   1      34.848  24.478  24.585  1.00  0.00     0.040 A 
BRANCH  12  15
ATOM     15  N   UNL A   1      36.106  23.059  26.126  1.00  0.00    -0.371 N 
ATOM     16  C   UNL A   1      37.402  23.674  26.132  1.00  0.00     0.121 C 
ATOM     17  C   UNL A   1      36.598  21.782  25.689  1.00  0.00     0.121 C 
ATOM     18  C   UNL A   1      37.964  22.432  25.438  1.00  0.00     0.025 C 
ATOM     19  C   UNL A   1      39.166  21.785  26.094  1.00  0.00     0.011 C 
ENDBRANCH  12  15
ENDBRANCH   5   8
ENDBRANCH   3   4
ENDBRANCH   2   3
ENDBRANCH   1   2
BRANCH   1  20
ATOM     20  C   UNL A   1      34.012  29.914  27.322  1.00  0.00     0.116 C 
BRANCH  20  21
ATOM     21  N   UNL A   1      34.833  31.087  27.619  1.00  0.00    -0.352 N 
ATOM     22  C   UNL A   1      36.101  31.181  28.160  1.00  0.00     0.251 C 
ATOM     23  H   UNL A   1      34.414  31.950  27.400  1.00  0.00     0.163 HD
ATOM     24  O   UNL A   1      36.551  32.271  28.453  1.00  0.00    -0.269 OA
BRANCH  22  25
ATOM     25  C   UNL A   1      36.980  29.976  28.255  1.00  0.00     0.039 A 
ATOM     26  C   UNL A   1      37.001  29.267  29.468  1.00  0.00     0.014 A 
ATOM     27  C   UNL A   1      37.892  29.651  27.259  1.00  0.00     0.014 A 
ATOM     28  C   UNL A   1      38.083  28.441  29.766  1.00  0.00     0.010 A 
ATOM     29  C   UNL A   1      39.023  28.940  27.597  1.00  0.00     0.010 A 
ATOM     30  C   UNL A   1      39.149  28.391  28.877  1.00  0.00    -0.014 A 
BRANCH  30  31
ATOM     31  C   UNL A   1      40.475  27.881  29.202  1.00  0.00     0.031 A 
ATOM     32  C   UNL A   1      40.856  26.506  28.819  1.00  0.00     0.074 A 
ATOM     33  C   UNL A   1      41.407  28.759  29.640  1.00  0.00     0.049 A 
ATOM     34  N   UNL A   1      41.958  25.939  29.175  1.00  0.00    -0.248 NA
ATOM     35  C   UNL A   1      39.988  25.621  28.042  1.00  0.00     0.031 C 
ATOM     36  C   UNL A   1      42.861  28.619  29.587  1.00  0.00     0.029 A 
ATOM     37  N   UNL A   1      41.202  29.909  30.424  1.00  0.00    -0.354 N 
ATOM     38  C   UNL A   1      42.094  24.800  28.418  1.00  0.00     0.074 A 
ATOM     39  C   UNL A   1      40.790  24.568  27.853  1.00  0.00     0.031 C 
ATOM     40  C   UNL A   1      43.411  29.423  30.511  1.00  0.00     0.029 A 
ATOM     41  C   UNL A   1      42.317  29.958  31.299  1.00  0.00     0.049 A 
ATOM     42  H   UNL A   1      40.448  30.542  30.378  1.00  0.00     0.167 HD
ATOM     43  C   UNL A   1      43.342  24.291  28.234  1.00  0.00     0.037 A 
ATOM     44  C   UNL A   1      42.176  29.772  32.645  1.00  0.00     0.037 A 
ATOM     45  C   UNL A   1      44.279  24.851  29.207  1.00  0.00     0.049 A 
ATOM     46  C   UNL A   1      42.986  28.621  33.195  1.00  0.00     0.074 A 
ATOM     47  C   UNL A   1      45.328  25.748  29.121  1.00  0.00     0.029 A 
ATOM     48  N   UNL A   1      44.015  24.677  30.564  1.00  0.00    -0.354 N 
ATOM     49  N   UNL A   1      43.431  27.633  32.469  1.00  0.00    -0.248 NA
ATOM     50  C   UNL A   1      43.334  28.480  34.606  1.00  0.00     0.031 C 
ATOM     51  C   UNL A   1      45.610  26.205  30.439  1.00  0.00     0.029 A 
ATOM     52  C   UNL A   1      44.775  25.542  31.323  1.00  0.00     0.049 A 
ATOM     53  H   UNL A   1      43.374  24.026  30.931  1.00  0.00     0.167 HD
ATOM     54  C   UNL A   1      44.088  26.738  33.270  1.00  0.00     0.074 A 
ATOM     55  C   UNL A   1      44.015  27.319  34.597  1.00  0.00     0.031 C 
ATOM     56  C   UNL A   1      44.628  25.586  32.772  1.00  0.00     0.037 A 
BRANCH  43  57
ATOM     57  C   UNL A   1      43.772  23.440  27.056  1.00  0.00     0.064 A 
ATOM     58  C   UNL A   1      44.560  24.004  26.027  1.00  0.00     0.173 A 
ATOM     59  C   UNL A   1      43.329  22.124  26.799  1.00  0.00     0.173 A 
ATOM     60  F   UNL A   1      45.037  25.253  26.127  1.00  0.00    -0.203 F 
ATOM     61  C   UNL A   1      44.865  23.313  24.848  1.00  0.00     0.198 A 
ATOM     62  C   UNL A   1      43.681  21.415  25.647  1.00  0.00     0.198 A 
ATOM     63  F   UNL A   1      42.481  21.483  27.610  1.00  0.00    -0.203 F 
ATOM     64  F   UNL A   1      45.563  23.922  23.880  1.00  0.00    -0.200 F 
ATOM     65  C   UNL A   1      44.435  22.014  24.663  1.00  0.00     0.200 A 
ATOM     66  F   UNL A   1      43.247  20.157  25.486  1.00  0.00    -0.200 F 
ATOM     67  F   UNL A   1      44.728  21.350  23.537  1.00  0.00    -0.200 F 
ENDBRANCH  43  57
BRANCH  44  68
ATOM     68  C   UNL A   1      40.843  30.196  33.150  1.00  0.00     0.064 A 
ATOM     69  C   UNL A   1      40.577  31.577  33.243  1.00  0.00     0.173 A 
ATOM     70  C   UNL A   1      39.748  29.324  33.132  1.00  0.00     0.173 A 
ATOM     71  F   UNL A   1      41.594  32.454  33.265  1.00  0.00    -0.203 F 
ATOM     72  C   UNL A   1      39.276  32.069  33.175  1.00  0.00     0.198 A 
ATOM     73  C   UNL A   1      38.443  29.822  33.085  1.00  0.00     0.198 A 
ATOM     74  F   UNL A   1      39.934  28.001  33.031  1.00  0.00    -0.203 F 
ATOM     75  F   UNL A   1      39.065  33.392  33.130  1.00  0.00    -0.200 F 
ATOM     76  C   UNL A   1      38.212  31.192  33.064  1.00  0.00     0.200 A 
ATOM     77  F   UNL A   1      37.412  28.976  32.949  1.00  0.00    -0.200 F 
ATOM     78  F   UNL A   1      36.968  31.661  32.889  1.00  0.00    -0.200 F 
ENDBRANCH  44  68
BRANCH  56  79
ATOM     79  C   UNL A   1      45.137  24.428  33.598  1.00  0.00     0.064 A 
ATOM     80  C   UNL A   1      44.424  23.232  33.792  1.00  0.00     0.173 A 
ATOM     81  C   UNL A   1      46.457  24.438  34.107  1.00  0.00     0.173 A 
ATOM     82  F   UNL A   1      43.215  23.044  33.248  1.00  0.00    -0.203 F 
ATOM     83  C   UNL A   1      44.962  22.157  34.508  1.00  0.00     0.198 A 
ATOM     84  C   UNL A   1      47.012  23.343  34.770  1.00  0.00     0.198 A 
ATOM     85  F   UNL A   1      47.258  25.503  33.954  1.00  0.00    -0.203 F 
ATOM     86  F   UNL A   1      44.224  21.056  34.705  1.00  0.00    -0.200 F 
ATOM     87  C   UNL A   1      46.258  22.210  34.988  1.00  0.00     0.200 A 
ATOM     88  F   UNL A   1      48.287  23.388  35.179  1.00  0.00    -0.200 F 
ATOM     89  F   UNL A   1      46.784  21.161  35.635  1.00  0.00    -0.200 F 
ENDBRANCH  56  79
ENDBRANCH  30  31
ENDBRANCH  22  25
ENDBRANCH  20  21
ENDBRANCH   1  20
TORSDOF 12
ENDMDL
MODEL 2
REMARK VINA RESULT:     -12.9      1.459      2.207
REMARK SMILES Cc1ccc(C(=O)NCCCCNC(=O)c2ccc(-c3c4nc(c(-c5c(F)c(F)c(F)c(F)c5F)c5ccc([nH]5)c(-c5c(F)c(F)c(F)c(F)c5F)c5nc(c(-c6c(F)c(F)c(F)c(F)c6F)c6ccc3[nH]6)C=C5)C=C4)cc2)cc1N1CC(C)C1
REMARK SMILES IDX 11 1 10 2 9 3 8 4 6 5 7 6 5 8 1 9 2 10 3 11 80 12 4 13 79 14
REMARK SMILES IDX 81 15 82 16 85 17 83 18 84 19 12 20 13 21 14 22 15 24 16 25
REMARK SMILES IDX 17 26 78 27 18 28 77 29 19 30 20 31 21 32 71 33 22 34 76 35
REMARK SMILES IDX 70 36 72 37 23 38 75 39 69 40 68 41 24 43 56 44 36 45 55 46
REMARK SMILES IDX 37 47 40 48 54 49 73 50 38 51 39 52 53 54 74 55 41 56 25 57
REMARK SMILES IDX 26 58 34 59 27 60 28 61 32 62 35 63 29 64 30 65 33 66 31 67
REMARK SMILES IDX 57 68 58 69 66 70 59 71 60 72 64 73 67 74 61 75 62 76 65 77
REMARK SMILES IDX 63 78 42 79 43 80 51 81 44 82 45 83 49 84 52 85 46 86 47 87
REMARK SMILES IDX 50 88 48 89
REMARK H PARENT 8 7 13 23 72 42 40 53
REMARK Flexibility Score: inf
ROOT
ATOM      1  C   UNL A   1      32.518  30.002  27.248  1.00  0.00     0.023 C 
ENDROOT
BRANCH   1   2
ATOM      2  C   UNL A   1      32.123  28.547  27.544  1.00  0.00     0.023 C 
BRANCH   2   3
ATOM      3  C   UNL A   1      31.820  27.703  26.296  1.00  0.00     0.116 C 
BRANCH   3   4
ATOM      4  N   UNL A   1      31.030  26.526  26.603  1.00  0.00    -0.352 N 
ATOM      5  C   UNL A   1      31.211  25.175  26.450  1.00  0.00     0.251 C 
ATOM      6  O   UNL A   1      30.296  24.466  26.875  1.00  0.00    -0.269 OA
ATOM      7  H   UNL A   1      30.164  26.748  27.015  1.00  0.00     0.163 HD
BRANCH   5   8
ATOM      8  C   UNL A   1      32.405  24.515  25.835  1.00  0.00     0.041 A 
ATOM      9  C   UNL A   1      36.070  22.960  24.097  1.00  0.00     0.046 C 
ATOM     10  C   UNL A   1      34.781  23.460  24.688  1.00  0.00    -0.028 A 
ATOM     11  C   UNL A   1      34.747  24.766  25.191  1.00  0.00     0.006 A 
ATOM     12  C   UNL A   1      33.619  22.675  24.756  1.00  0.00     0.040 A 
ATOM     13  C   UNL A   1      33.573  25.289  25.742  1.00  0.00     0.014 A 
ATOM     14  C   UNL A   1      32.461  23.206  25.358  1.00  0.00     0.040 A 
BRANCH  12  15
ATOM     15  N   UNL A   1      33.598  21.369  24.217  1.00  0.00    -0.371 N 
ATOM     16  C   UNL A   1      32.527  20.731  23.508  1.00  0.00     0.121 C 
ATOM     17  C   UNL A   1      33.965  20.183  24.941  1.00  0.00     0.121 C 
ATOM     18  C   UNL A   1      32.695  19.507  24.410  1.00  0.00     0.025 C 
ATOM     19  C   UNL A   1      32.867  18.176  23.708  1.00  0.00     0.011 C 
ENDBRANCH  12  15
ENDBRANCH   5   8
ENDBRANCH   3   4
ENDBRANCH   2   3
ENDBRANCH   1   2
BRANCH   1  20
ATOM     20  C   UNL A   1      33.992  30.181  26.907  1.00  0.00     0.116 C 
BRANCH  20  21
ATOM     21  N   UNL A   1      34.671  31.269  27.609  1.00  0.00    -0.352 N 
ATOM     22  C   UNL A   1      35.784  31.252  28.427  1.00  0.00     0.251 C 
ATOM     23  H   UNL A   1      34.270  32.159  27.478  1.00  0.00     0.163 HD
ATOM     24  O   UNL A   1      36.107  32.259  29.026  1.00  0.00    -0.269 OA
BRANCH  22  25
ATOM     25  C   UNL A   1      36.676  30.054  28.475  1.00  0.00     0.039 A 
ATOM     26  C   UNL A   1      36.752  29.333  29.678  1.00  0.00     0.014 A 
ATOM     27  C   UNL A   1      37.551  29.749  27.440  1.00  0.00     0.014 A 
ATOM     28  C   UNL A   1      37.851  28.513  29.924  1.00  0.00     0.010 A 
ATOM     29  C   UNL A   1      38.701  29.044  27.725  1.00  0.00     0.010 A 
ATOM     30  C   UNL A   1      38.882  28.482  28.994  1.00  0.00    -0.014 A 
BRANCH  30  31
ATOM     31  C   UNL A   1      40.224  27.981  29.261  1.00  0.00     0.031 A 
ATOM     32  C   UNL A   1      40.604  26.617  28.840  1.00  0.00     0.074 A 
ATOM     33  C   UNL A   1      41.163  28.862  29.679  1.00  0.00     0.049 A 
ATOM     34  N   UNL A   1      41.724  26.056  29.145  1.00  0.00    -0.248 NA
ATOM     35  C   UNL A   1      39.717  25.735  28.081  1.00  0.00     0.031 C 
ATOM     36  C   UNL A   1      42.616  28.737  29.569  1.00  0.00     0.029 A 
ATOM     37  N   UNL A   1      40.976  29.996  30.489  1.00  0.00    -0.354 N 
ATOM     38  C   UNL A   1      41.844  24.931  28.364  1.00  0.00     0.074 A 
ATOM     39  C   UNL A   1      40.522  24.695  27.844  1.00  0.00     0.031 C 
ATOM     40  C   UNL A   1      43.192  29.532  30.486  1.00  0.00     0.029 A 
ATOM     41  C   UNL A   1      42.122  30.042  31.323  1.00  0.00     0.049 A 
ATOM     42  H   UNL A   1      40.215  30.621  30.481  1.00  0.00     0.167 HD
ATOM     43  C   UNL A   1      43.088  24.438  28.126  1.00  0.00     0.037 A 
ATOM     44  C   UNL A   1      42.033  29.832  32.670  1.00  0.00     0.037 A 
ATOM     45  C   UNL A   1      44.055  24.992  29.073  1.00  0.00     0.049 A 
ATOM     46  C   UNL A   1      42.875  28.681  33.170  1.00  0.00     0.074 A 
ATOM     47  C   UNL A   1      45.092  25.901  28.964  1.00  0.00     0.029 A 
ATOM     48  N   UNL A   1      43.844  24.792  30.436  1.00  0.00    -0.354 N 
ATOM     49  N   UNL A   1      43.302  27.710  32.412  1.00  0.00    -0.248 NA
ATOM     50  C   UNL A   1      43.276  28.520  34.565  1.00  0.00     0.031 C 
ATOM     51  C   UNL A   1      45.418  26.339  30.278  1.00  0.00     0.029 A 
ATOM     52  C   UNL A   1      44.623  25.653  31.182  1.00  0.00     0.049 A 
ATOM     53  H   UNL A   1      43.224  24.129  30.815  1.00  0.00     0.167 HD
ATOM     54  C   UNL A   1      43.997  26.808  33.172  1.00  0.00     0.074 A 
ATOM     55  C   UNL A   1      43.967  27.367  34.511  1.00  0.00     0.031 C 
ATOM     56  C   UNL A   1      44.530  25.671  32.635  1.00  0.00     0.037 A 
BRANCH  43  57
ATOM     57  C   UNL A   1      43.484  23.612  26.919  1.00  0.00     0.064 A 
ATOM     58  C   UNL A   1      43.119  22.249  26.844  1.00  0.00     0.173 A 
ATOM     59  C   UNL A   1      44.339  24.046  25.882  1.00  0.00     0.173 A 
ATOM     60  F   UNL A   1      42.324  21.695  27.771  1.00  0.00    -0.203 F 
ATOM     61  C   UNL A   1      43.578  21.401  25.829  1.00  0.00     0.198 A 
ATOM     62  C   UNL A   1      44.751  23.213  24.838  1.00  0.00     0.198 A 
ATOM     63  F   UNL A   1      44.874  25.272  25.861  1.00  0.00    -0.203 F 
ATOM     64  F   UNL A   1      43.250  20.102  25.846  1.00  0.00    -0.200 F 
ATOM     65  C   UNL A   1      44.384  21.887  24.819  1.00  0.00     0.200 A 
ATOM     66  F   UNL A   1      45.539  23.706  23.871  1.00  0.00    -0.200 F 
ATOM     67  F   UNL A   1      44.823  21.078  23.845  1.00  0.00    -0.200 F 
ENDBRANCH  43  57
BRANCH  44  68
ATOM     68  C   UNL A   1      40.715  30.234  33.231  1.00  0.00     0.064 A 
ATOM     69  C   UNL A   1      40.440  31.610  33.358  1.00  0.00     0.173 A 
ATOM     70  C   UNL A   1      39.629  29.351  33.237  1.00  0.00     0.173 A 
ATOM     71  F   UNL A   1      41.449  32.497  33.359  1.00  0.00    -0.203 F 
ATOM     72  C   UNL A   1      39.133  32.090  33.347  1.00  0.00     0.198 A 
ATOM     73  C   UNL A   1      38.318  29.837  33.248  1.00  0.00     0.198 A 
ATOM     74  F   UNL A   1      39.824  28.032  33.106  1.00  0.00    -0.203 F 
ATOM     75  F   UNL A   1      38.907  33.412  33.333  1.00  0.00    -0.200 F 
ATOM     76  C   UNL A   1      38.074  31.204  33.260  1.00  0.00     0.200 A 
ATOM     77  F   UNL A   1      37.291  28.982  33.134  1.00  0.00    -0.200 F 
ATOM     78  F   UNL A   1      36.820  31.664  33.138  1.00  0.00    -0.200 F 
ENDBRANCH  44  68
BRANCH  56  79
ATOM     79  C   UNL A   1      45.080  24.505  33.422  1.00  0.00     0.064 A 
ATOM     80  C   UNL A   1      44.342  23.347  33.725  1.00  0.00     0.173 A 
ATOM     81  C   UNL A   1      46.450  24.462  33.772  1.00  0.00     0.173 A 
ATOM     82  F   UNL A   1      43.070  23.207  33.331  1.00  0.00    -0.203 F 
ATOM     83  C   UNL A   1      44.913  22.261  34.397  1.00  0.00     0.198 A 
ATOM     84  C   UNL A   1      47.030  23.354  34.390  1.00  0.00     0.198 A 
ATOM     85  F   UNL A   1      47.274  25.485  33.502  1.00  0.00    -0.203 F 
ATOM     86  F   UNL A   1      44.154  21.200  34.704  1.00  0.00    -0.200 F 
ATOM     87  C   UNL A   1      46.258  22.261  34.720  1.00  0.00     0.200 A 
ATOM     88  F   UNL A   1      48.346  23.346  34.646  1.00  0.00    -0.200 F 
ATOM     89  F   UNL A   1      46.809  21.200  35.326  1.00  0.00    -0.200 F 
ENDBRANCH  56  79
ENDBRANCH  30  31
ENDBRANCH  22  25
ENDBRANCH  20  21
ENDBRANCH   1  20
TORSDOF 12
ENDMDL
MODEL 3
REMARK VINA RESULT:     -12.7      3.863     10.188
REMARK SMILES Cc1ccc(C(=O)NCCCCNC(=O)c2ccc(-c3c4nc(c(-c5c(F)c(F)c(F)c(F)c5F)c5ccc([nH]5)c(-c5c(F)c(F)c(F)c(F)c5F)c5nc(c(-c6c(F)c(F)c(F)c(F)c6F)c6ccc3[nH]6)C=C5)C=C4)cc2)cc1N1CC(C)C1
REMARK SMILES IDX 11 1 10 2 9 3 8 4 6 5 7 6 5 8 1 9 2 10 3 11 80 12 4 13 79 14
REMARK SMILES IDX 81 15 82 16 85 17 83 18 84 19 12 20 13 21 14 22 15 24 16 25
REMARK SMILES IDX 17 26 78 27 18 28 77 29 19 30 20 31 21 32 71 33 22 34 76 35
REMARK SMILES IDX 70 36 72 37 23 38 75 39 69 40 68 41 24 43 56 44 36 45 55 46
REMARK SMILES IDX 37 47 40 48 54 49 73 50 38 51 39 52 53 54 74 55 41 56 25 57
REMARK SMILES IDX 26 58 34 59 27 60 28 61 32 62 35 63 29 64 30 65 33 66 31 67
REMARK SMILES IDX 57 68 58 69 66 70 59 71 60 72 64 73 67 74 61 75 62 76 65 77
REMARK SMILES IDX 63 78 42 79 43 80 51 81 44 82 45 83 49 84 52 85 46 86 47 87
REMARK SMILES IDX 50 88 48 89
REMARK H PARENT 8 7 13 23 72 42 40 53
REMARK Flexibility Score: inf
ROOT
ATOM      1  C   UNL A   1      36.772  22.114  25.739  1.00  0.00     0.023 C 
ENDROOT
BRANCH   1   2
ATOM      2  C   UNL A   1      35.645  23.024  26.254  1.00  0.00     0.023 C 
BRANCH   2   3
ATOM      3  C   UNL A   1      34.310  22.868  25.509  1.00  0.00     0.116 C 
BRANCH   3   4
ATOM      4  N   UNL A   1      34.360  23.408  24.165  1.00  0.00    -0.352 N 
ATOM      5  C   UNL A   1      34.001  24.601  23.591  1.00  0.00     0.251 C 
ATOM      6  O   UNL A   1      34.235  24.701  22.383  1.00  0.00    -0.269 OA
ATOM      7  H   UNL A   1      34.738  22.774  23.514  1.00  0.00     0.163 HD
BRANCH   5   8
ATOM      8  C   UNL A   1      33.376  25.762  24.299  1.00  0.00     0.041 A 
ATOM      9  C   UNL A   1      31.864  29.096  26.638  1.00  0.00     0.046 C 
ATOM     10  C   UNL A   1      32.351  27.945  25.802  1.00  0.00    -0.028 A 
ATOM     11  C   UNL A   1      33.534  27.301  26.188  1.00  0.00     0.006 A 
ATOM     12  C   UNL A   1      31.674  27.494  24.658  1.00  0.00     0.040 A 
ATOM     13  C   UNL A   1      34.028  26.218  25.455  1.00  0.00     0.014 A 
ATOM     14  C   UNL A   1      32.216  26.431  23.908  1.00  0.00     0.040 A 
BRANCH  12  15
ATOM     15  N   UNL A   1      30.453  28.085  24.263  1.00  0.00    -0.371 N 
ATOM     16  C   UNL A   1      29.399  27.489  23.493  1.00  0.00     0.121 C 
ATOM     17  C   UNL A   1      30.339  29.366  23.622  1.00  0.00     0.121 C 
ATOM     18  C   UNL A   1      29.382  28.733  22.603  1.00  0.00     0.025 C 
ATOM     19  C   UNL A   1      28.037  29.402  22.414  1.00  0.00     0.011 C 
ENDBRANCH  12  15
ENDBRANCH   5   8
ENDBRANCH   3   4
ENDBRANCH   2   3
ENDBRANCH   1   2
BRANCH   1  20
ATOM     20  C   UNL A   1      38.059  22.858  25.406  1.00  0.00     0.116 C 
BRANCH  20  21
ATOM     21  N   UNL A   1      39.199  22.560  26.270  1.00  0.00    -0.352 N 
ATOM     22  C   UNL A   1      40.035  23.403  26.976  1.00  0.00     0.251 C 
ATOM     23  H   UNL A   1      39.406  21.602  26.365  1.00  0.00     0.163 HD
ATOM     24  O   UNL A   1      41.017  22.952  27.532  1.00  0.00    -0.269 OA
BRANCH  22  25
ATOM     25  C   UNL A   1      39.670  24.838  27.184  1.00  0.00     0.039 A 
ATOM     26  C   UNL A   1      40.278  25.801  26.361  1.00  0.00     0.014 A 
ATOM     27  C   UNL A   1      38.902  25.251  28.265  1.00  0.00     0.014 A 
ATOM     28  C   UNL A   1      40.329  27.130  26.774  1.00  0.00     0.010 A 
ATOM     29  C   UNL A   1      39.059  26.535  28.742  1.00  0.00     0.010 A 
ATOM     30  C   UNL A   1      39.830  27.458  28.028  1.00  0.00    -0.014 A 
BRANCH  30  31
ATOM     31  C   UNL A   1      40.130  28.693  28.742  1.00  0.00     0.031 A 
ATOM     32  C   UNL A   1      39.136  29.785  28.786  1.00  0.00     0.074 A 
ATOM     33  C   UNL A   1      41.220  28.719  29.544  1.00  0.00     0.049 A 
ATOM     34  N   UNL A   1      39.368  30.950  29.287  1.00  0.00    -0.248 NA
ATOM     35  C   UNL A   1      37.797  29.673  28.207  1.00  0.00     0.031 C 
ATOM     36  C   UNL A   1      41.475  29.609  30.675  1.00  0.00     0.029 A 
ATOM     37  N   UNL A   1      42.439  28.042  29.358  1.00  0.00    -0.354 N 
ATOM     38  C   UNL A   1      38.158  31.590  29.408  1.00  0.00     0.074 A 
ATOM     39  C   UNL A   1      37.249  30.830  28.591  1.00  0.00     0.031 C 
ATOM     40  C   UNL A   1      42.799  29.660  30.901  1.00  0.00     0.029 A 
ATOM     41  C   UNL A   1      43.433  28.949  29.806  1.00  0.00     0.049 A 
ATOM     42  H   UNL A   1      42.574  27.136  28.995  1.00  0.00     0.167 HD
ATOM     43  C   UNL A   1      38.045  32.592  30.321  1.00  0.00     0.037 A 
ATOM     44  C   UNL A   1      44.327  29.512  28.940  1.00  0.00     0.037 A 
ATOM     45  C   UNL A   1      39.365  33.057  30.747  1.00  0.00     0.049 A 
ATOM     46  C   UNL A   1      44.294  31.023  28.917  1.00  0.00     0.074 A 
ATOM     47  C   UNL A   1      40.091  32.939  31.917  1.00  0.00     0.029 A 
ATOM     48  N   UNL A   1      40.243  33.547  29.782  1.00  0.00    -0.354 N 
ATOM     49  N   UNL A   1      43.276  31.734  29.316  1.00  0.00    -0.248 NA
ATOM     50  C   UNL A   1      45.392  31.847  28.420  1.00  0.00     0.031 C 
ATOM     51  C   UNL A   1      41.447  33.246  31.613  1.00  0.00     0.029 A 
ATOM     52  C   UNL A   1      41.529  33.607  30.278  1.00  0.00     0.049 A 
ATOM     53  H   UNL A   1      39.982  33.813  28.871  1.00  0.00     0.167 HD
ATOM     54  C   UNL A   1      43.546  33.063  29.128  1.00  0.00     0.074 A 
ATOM     55  C   UNL A   1      44.889  33.084  28.579  1.00  0.00     0.031 C 
ATOM     56  C   UNL A   1      42.634  34.033  29.431  1.00  0.00     0.037 A 
BRANCH  43  57
ATOM     57  C   UNL A   1      36.754  33.024  30.987  1.00  0.00     0.064 A 
ATOM     58  C   UNL A   1      35.824  33.817  30.278  1.00  0.00     0.173 A 
ATOM     59  C   UNL A   1      36.438  32.828  32.350  1.00  0.00     0.173 A 
ATOM     60  F   UNL A   1      36.004  34.101  28.981  1.00  0.00    -0.203 F 
ATOM     61  C   UNL A   1      34.688  34.368  30.885  1.00  0.00     0.198 A 
ATOM     62  C   UNL A   1      35.274  33.330  32.940  1.00  0.00     0.198 A 
ATOM     63  F   UNL A   1      37.265  32.202  33.194  1.00  0.00    -0.203 F 
ATOM     64  F   UNL A   1      33.875  35.164  30.178  1.00  0.00    -0.200 F 
ATOM     65  C   UNL A   1      34.407  34.114  32.213  1.00  0.00     0.200 A 
ATOM     66  F   UNL A   1      35.026  33.076  34.232  1.00  0.00    -0.200 F 
ATOM     67  F   UNL A   1      33.319  34.637  32.794  1.00  0.00    -0.200 F 
ENDBRANCH  43  57
BRANCH  44  68
ATOM     68  C   UNL A   1      44.617  28.646  27.765  1.00  0.00     0.064 A 
ATOM     69  C   UNL A   1      45.415  27.502  27.966  1.00  0.00     0.173 A 
ATOM     70  C   UNL A   1      43.815  28.686  26.618  1.00  0.00     0.173 A 
ATOM     71  F   UNL A   1      46.201  27.417  29.051  1.00  0.00    -0.203 F 
ATOM     72  C   UNL A   1      45.308  26.391  27.132  1.00  0.00     0.198 A 
ATOM     73  C   UNL A   1      43.727  27.577  25.773  1.00  0.00     0.198 A 
ATOM     74  F   UNL A   1      43.024  29.741  26.379  1.00  0.00    -0.203 F 
ATOM     75  F   UNL A   1      45.980  25.269  27.427  1.00  0.00    -0.200 F 
ATOM     76  C   UNL A   1      44.440  26.419  26.055  1.00  0.00     0.200 A 
ATOM     77  F   UNL A   1      42.866  27.590  24.746  1.00  0.00    -0.200 F 
ATOM     78  F   UNL A   1      44.252  25.316  25.315  1.00  0.00    -0.200 F 
ENDBRANCH  44  68
BRANCH  56  79
ATOM     79  C   UNL A   1      42.732  35.485  29.025  1.00  0.00     0.064 A 
ATOM     80  C   UNL A   1      42.074  36.033  27.910  1.00  0.00     0.173 A 
ATOM     81  C   UNL A   1      43.393  36.418  29.860  1.00  0.00     0.173 A 
ATOM     82  F   UNL A   1      41.305  35.279  27.113  1.00  0.00    -0.203 F 
ATOM     83  C   UNL A   1      42.136  37.397  27.610  1.00  0.00     0.198 A 
ATOM     84  C   UNL A   1      43.404  37.786  29.589  1.00  0.00     0.198 A 
ATOM     85  F   UNL A   1      44.025  36.032  30.977  1.00  0.00    -0.203 F 
ATOM     86  F   UNL A   1      41.530  37.862  26.509  1.00  0.00    -0.200 F 
ATOM     87  C   UNL A   1      42.793  38.274  28.455  1.00  0.00     0.200 A 
ATOM     88  F   UNL A   1      43.996  38.630  30.447  1.00  0.00    -0.200 F 
ATOM     89  F   UNL A   1      42.813  39.587  28.185  1.00  0.00    -0.200 F 
ENDBRANCH  56  79
ENDBRANCH  30  31
ENDBRANCH  22  25
ENDBRANCH  20  21
ENDBRANCH   1  20
TORSDOF 12
ENDMDL
