MODEL 1
REMARK VINA RESULT:     -12.3      0.000      0.000
REMARK SMILES Cc1cc(=O)n2nc(C[N@@H+](C)CC(=O)NCCCCNC(=O)c3ccc(-c4c5nc(c(-c6c(F)c(F)c(F)c(F)c6F)c6ccc([nH]6)c(-c6c(F)c(F)c(F)c(F)c6F)c6nc(c(-c7c(F)c(F)c(F)c(F)c7F)c7ccc4[nH]7)C=C6)C=C5)cc3)sc2n1
REMARK SMILES IDX 17 1 16 2 15 3 13 4 14 5 12 7 10 8 11 9 9 11 8 12 1 13 2 14
REMARK SMILES IDX 3 15 88 16 4 17 87 18 5 19 6 20 86 21 7 22 18 23 19 24 20 25
REMARK SMILES IDX 21 26 22 28 23 29 24 30 85 31 25 32 84 33 26 34 27 35 28 36
REMARK SMILES IDX 78 37 29 38 83 39 77 40 79 41 30 42 82 43 76 44 75 45 31 47
REMARK SMILES IDX 63 48 43 49 62 50 44 51 47 52 61 53 80 54 45 55 46 56 60 58
REMARK SMILES IDX 81 59 48 60 32 61 33 62 41 63 34 64 35 65 39 66 42 67 36 68
REMARK SMILES IDX 37 69 40 70 38 71 64 72 65 73 73 74 66 75 67 76 71 77 74 78
REMARK SMILES IDX 68 79 69 80 72 81 70 82 49 83 50 84 58 85 51 86 52 87 56 88
REMARK SMILES IDX 59 89 53 90 54 91 57 92 55 93
REMARK H PARENT 15 6 10 10 20 27 79 46 47 57
REMARK Flexibility Score: inf
ROOT
ATOM      1  C   UNL A   1      43.966  31.423  27.621  1.00  0.00     0.023 C 
ENDROOT
BRANCH   1   2
ATOM      2  C   UNL A   1      43.529  29.957  27.571  1.00  0.00     0.116 C 
BRANCH   2   3
ATOM      3  N   UNL A   1      43.038  29.590  26.263  1.00  0.00    -0.351 N 
ATOM      4  C   UNL A   1      42.583  28.385  25.817  1.00  0.00     0.275 C 
ATOM      5  O   UNL A   1      42.274  28.302  24.626  1.00  0.00    -0.269 OA
ATOM      6  H   UNL A   1      43.030  30.314  25.598  1.00  0.00     0.163 HD
BRANCH   4   7
ATOM      7  C   UNL A   1      42.435  27.186  26.758  1.00  0.00     0.363 C 
BRANCH   7   8
ATOM      8  N   UNL A   1      43.459  26.141  26.624  1.00  0.00    -0.324 N 
ATOM      9  C   UNL A   1      44.725  26.352  27.288  1.00  0.00     0.333 C 
ATOM     10  H   UNL A   1      43.032  25.438  27.226  1.00  0.00     0.348 HD
BRANCH   8  11
ATOM     11  C   UNL A   1      43.541  25.452  25.334  1.00  0.00     0.333 C 
BRANCH  11  12
ATOM     12  C   UNL A   1      43.136  24.010  25.516  1.00  0.00     0.172 A 
ATOM     13  C   UNL A   1      42.657  18.087  26.127  1.00  0.00     0.067 C 
ATOM     14  C   UNL A   1      42.376  19.561  26.156  1.00  0.00     0.046 A 
ATOM     15  C   UNL A   1      41.278  20.057  26.749  1.00  0.00     0.097 A 
ATOM     16  N   UNL A   1      43.328  20.338  25.536  1.00  0.00    -0.224 NA
ATOM     17  C   UNL A   1      41.051  21.522  26.768  1.00  0.00     0.275 A 
ATOM     18  C   UNL A   1      43.123  21.609  25.577  1.00  0.00     0.215 A 
ATOM     19  O   UNL A   1      40.033  21.968  27.289  1.00  0.00    -0.267 OA
ATOM     20  N   UNL A   1      42.059  22.240  26.162  1.00  0.00    -0.167 N 
ATOM     21  S   UNL A   1      44.193  22.768  24.870  1.00  0.00    -0.073 S 
ATOM     22  N   UNL A   1      42.064  23.617  26.129  1.00  0.00    -0.150 NA
ENDBRANCH  11  12
ENDBRANCH   8  11
ENDBRANCH   7   8
ENDBRANCH   4   7
ENDBRANCH   2   3
ENDBRANCH   1   2
BRANCH   1  23
ATOM     23  C   UNL A   1      44.780  31.943  26.433  1.00  0.00     0.023 C 
BRANCH  23  24
ATOM     24  C   UNL A   1      44.352  33.302  25.905  1.00  0.00     0.116 C 
BRANCH  24  25
ATOM     25  N   UNL A   1      45.355  34.344  26.117  1.00  0.00    -0.352 N 
ATOM     26  C   UNL A   1      45.264  35.425  26.966  1.00  0.00     0.251 C 
ATOM     27  H   UNL A   1      46.186  34.264  25.596  1.00  0.00     0.163 HD
ATOM     28  O   UNL A   1      45.942  36.435  26.783  1.00  0.00    -0.269 OA
BRANCH  26  29
ATOM     29  C   UNL A   1      44.329  35.354  28.101  1.00  0.00     0.039 A 
ATOM     30  C   UNL A   1      43.096  36.000  28.056  1.00  0.00     0.014 A 
ATOM     31  C   UNL A   1      44.683  34.564  29.196  1.00  0.00     0.014 A 
ATOM     32  C   UNL A   1      42.184  35.755  29.076  1.00  0.00     0.010 A 
ATOM     33  C   UNL A   1      43.734  34.216  30.132  1.00  0.00     0.010 A 
ATOM     34  C   UNL A   1      42.487  34.821  30.090  1.00  0.00    -0.014 A 
BRANCH  34  35
ATOM     35  C   UNL A   1      41.427  34.358  30.986  1.00  0.00     0.031 A 
ATOM     36  C   UNL A   1      41.867  34.290  32.403  1.00  0.00     0.074 A 
ATOM     37  C   UNL A   1      40.139  34.125  30.641  1.00  0.00     0.049 A 
ATOM     38  N   UNL A   1      42.228  33.221  33.029  1.00  0.00    -0.248 NA
ATOM     39  C   UNL A   1      42.123  35.528  33.155  1.00  0.00     0.031 C 
ATOM     40  C   UNL A   1      39.477  34.436  29.371  1.00  0.00     0.029 A 
ATOM     41  N   UNL A   1      39.116  33.607  31.390  1.00  0.00    -0.354 N 
ATOM     42  C   UNL A   1      42.484  33.616  34.337  1.00  0.00     0.074 A 
ATOM     43  C   UNL A   1      42.621  35.047  34.300  1.00  0.00     0.031 C 
ATOM     44  C   UNL A   1      38.136  34.317  29.509  1.00  0.00     0.029 A 
ATOM     45  C   UNL A   1      37.855  33.736  30.809  1.00  0.00     0.049 A 
ATOM     46  H   UNL A   1      39.259  33.181  32.265  1.00  0.00     0.167 HD
ATOM     47  C   UNL A   1      42.198  32.751  35.350  1.00  0.00     0.037 A 
ATOM     48  C   UNL A   1      36.666  33.356  31.341  1.00  0.00     0.037 A 
ATOM     49  C   UNL A   1      41.952  31.432  34.820  1.00  0.00     0.049 A 
ATOM     50  C   UNL A   1      36.951  32.288  32.321  1.00  0.00     0.074 A 
ATOM     51  C   UNL A   1      42.687  30.376  34.328  1.00  0.00     0.029 A 
ATOM     52  N   UNL A   1      40.668  31.270  34.380  1.00  0.00    -0.354 N 
ATOM     53  N   UNL A   1      37.365  31.101  31.983  1.00  0.00    -0.248 NA
ATOM     54  C   UNL A   1      37.076  32.630  33.734  1.00  0.00     0.031 C 
ATOM     55  C   UNL A   1      41.800  29.615  33.507  1.00  0.00     0.029 A 
ATOM     56  C   UNL A   1      40.536  30.194  33.553  1.00  0.00     0.049 A 
ATOM     57  H   UNL A   1      39.923  31.864  34.630  1.00  0.00     0.167 HD
ATOM     58  C   UNL A   1      38.190  30.736  33.022  1.00  0.00     0.074 A 
ATOM     59  C   UNL A   1      37.830  31.604  34.136  1.00  0.00     0.031 C 
ATOM     60  C   UNL A   1      39.331  30.033  32.780  1.00  0.00     0.037 A 
BRANCH  47  61
ATOM     61  C   UNL A   1      41.578  33.139  36.682  1.00  0.00     0.064 A 
ATOM     62  C   UNL A   1      42.175  32.647  37.865  1.00  0.00     0.173 A 
ATOM     63  C   UNL A   1      40.273  33.649  36.835  1.00  0.00     0.173 A 
ATOM     64  F   UNL A   1      43.409  32.118  37.841  1.00  0.00    -0.203 F 
ATOM     65  C   UNL A   1      41.484  32.591  39.080  1.00  0.00     0.198 A 
ATOM     66  C   UNL A   1      39.603  33.636  38.059  1.00  0.00     0.198 A 
ATOM     67  F   UNL A   1      39.542  34.071  35.799  1.00  0.00    -0.203 F 
ATOM     68  F   UNL A   1      42.046  31.997  40.141  1.00  0.00    -0.200 F 
ATOM     69  C   UNL A   1      40.195  33.080  39.173  1.00  0.00     0.200 A 
ATOM     70  F   UNL A   1      38.343  34.089  38.123  1.00  0.00    -0.200 F 
ATOM     71  F   UNL A   1      39.506  32.974  40.317  1.00  0.00    -0.200 F 
ENDBRANCH  47  61
BRANCH  48  72
ATOM     72  C   UNL A   1      35.299  33.913  31.213  1.00  0.00     0.064 A 
ATOM     73  C   UNL A   1      34.855  34.929  32.082  1.00  0.00     0.173 A 
ATOM     74  C   UNL A   1      34.554  33.729  30.035  1.00  0.00     0.173 A 
ATOM     75  F   UNL A   1      35.516  35.181  33.221  1.00  0.00    -0.203 F 
ATOM     76  C   UNL A   1      33.785  35.767  31.752  1.00  0.00     0.198 A 
ATOM     77  C   UNL A   1      33.481  34.564  29.708  1.00  0.00     0.198 A 
ATOM     78  F   UNL A   1      34.924  32.809  29.133  1.00  0.00    -0.203 F 
ATOM     79  F   UNL A   1      33.459  36.784  32.561  1.00  0.00    -0.200 F 
ATOM     80  C   UNL A   1      33.115  35.599  30.553  1.00  0.00     0.200 A 
ATOM     81  F   UNL A   1      32.856  34.414  28.533  1.00  0.00    -0.200 F 
ATOM     82  F   UNL A   1      32.152  36.457  30.192  1.00  0.00    -0.200 F 
ENDBRANCH  48  72
BRANCH  60  83
ATOM     83  C   UNL A   1      39.373  29.165  31.570  1.00  0.00     0.064 A 
ATOM     84  C   UNL A   1      38.895  27.848  31.506  1.00  0.00     0.173 A 
ATOM     85  C   UNL A   1      39.842  29.751  30.386  1.00  0.00     0.173 A 
ATOM     86  F   UNL A   1      38.386  27.244  32.588  1.00  0.00    -0.203 F 
ATOM     87  C   UNL A   1      38.897  27.149  30.299  1.00  0.00     0.198 A 
ATOM     88  C   UNL A   1      39.812  29.065  29.181  1.00  0.00     0.198 A 
ATOM     89  F   UNL A   1      40.289  31.017  30.398  1.00  0.00    -0.203 F 
ATOM     90  F   UNL A   1      38.439  25.889  30.250  1.00  0.00    -0.200 F 
ATOM     91  C   UNL A   1      39.342  27.762  29.137  1.00  0.00     0.200 A 
ATOM     92  F   UNL A   1      40.211  29.676  28.057  1.00  0.00    -0.200 F 
ATOM     93  F   UNL A   1      39.300  27.106  27.969  1.00  0.00    -0.200 F 
ENDBRANCH  60  83
ENDBRANCH  34  35
ENDBRANCH  26  29
ENDBRANCH  24  25
ENDBRANCH  23  24
ENDBRANCH   1  23
TORSDOF 14
ENDMDL
MODEL 2
REMARK VINA RESULT:     -12.3      5.205     10.262
REMARK SMILES Cc1cc(=O)n2nc(C[N@@H+](C)CC(=O)NCCCCNC(=O)c3ccc(-c4c5nc(c(-c6c(F)c(F)c(F)c(F)c6F)c6ccc([nH]6)c(-c6c(F)c(F)c(F)c(F)c6F)c6nc(c(-c7c(F)c(F)c(F)c(F)c7F)c7ccc4[nH]7)C=C6)C=C5)cc3)sc2n1
REMARK SMILES IDX 17 1 16 2 15 3 13 4 14 5 12 7 10 8 11 9 9 11 8 12 1 13 2 14
REMARK SMILES IDX 3 15 88 16 4 17 87 18 5 19 6 20 86 21 7 22 18 23 19 24 20 25
REMARK SMILES IDX 21 26 22 28 23 29 24 30 85 31 25 32 84 33 26 34 27 35 28 36
REMARK SMILES IDX 78 37 29 38 83 39 77 40 79 41 30 42 82 43 76 44 75 45 31 47
REMARK SMILES IDX 63 48 43 49 62 50 44 51 47 52 61 53 80 54 45 55 46 56 60 58
REMARK SMILES IDX 81 59 48 60 32 61 33 62 41 63 34 64 35 65 39 66 42 67 36 68
REMARK SMILES IDX 37 69 40 70 38 71 64 72 65 73 73 74 66 75 67 76 71 77 74 78
REMARK SMILES IDX 68 79 69 80 72 81 70 82 49 83 50 84 58 85 51 86 52 87 56 88
REMARK SMILES IDX 59 89 53 90 54 91 57 92 55 93
REMARK H PARENT 15 6 10 10 20 27 79 46 47 57
REMARK Flexibility Score: inf
ROOT
ATOM      1  C   UNL A   1      40.819  20.905  26.531  1.00  0.00     0.023 C 
ENDROOT
BRANCH   1   2
ATOM      2  C   UNL A   1      39.388  21.119  26.031  1.00  0.00     0.116 C 
BRANCH   2   3
ATOM      3  N   UNL A   1      38.856  22.391  26.459  1.00  0.00    -0.351 N 
ATOM      4  C   UNL A   1      37.851  23.135  25.917  1.00  0.00     0.275 C 
ATOM      5  O   UNL A   1      37.618  24.232  26.430  1.00  0.00    -0.269 OA
ATOM      6  H   UNL A   1      39.280  22.777  27.259  1.00  0.00     0.163 HD
BRANCH   4   7
ATOM      7  C   UNL A   1      37.024  22.623  24.734  1.00  0.00     0.363 C 
BRANCH   7   8
ATOM      8  N   UNL A   1      35.591  22.430  24.995  1.00  0.00    -0.324 N 
ATOM      9  C   UNL A   1      35.212  21.845  26.261  1.00  0.00     0.333 C 
ATOM     10  H   UNL A   1      35.335  23.406  25.141  1.00  0.00     0.348 HD
BRANCH   8  11
ATOM     11  C   UNL A   1      34.754  22.044  23.857  1.00  0.00     0.333 C 
BRANCH  11  12
ATOM     12  C   UNL A   1      33.765  23.146  23.573  1.00  0.00     0.172 A 
ATOM     13  C   UNL A   1      29.399  27.223  23.469  1.00  0.00     0.067 C 
ATOM     14  C   UNL A   1      30.662  26.463  23.183  1.00  0.00     0.046 A 
ATOM     15  C   UNL A   1      31.600  26.944  22.352  1.00  0.00     0.097 A 
ATOM     16  N   UNL A   1      30.766  25.258  23.841  1.00  0.00    -0.224 NA
ATOM     17  C   UNL A   1      32.840  26.166  22.114  1.00  0.00     0.275 A 
ATOM     18  C   UNL A   1      31.857  24.604  23.635  1.00  0.00     0.215 A 
ATOM     19  O   UNL A   1      33.683  26.599  21.334  1.00  0.00    -0.267 OA
ATOM     20  N   UNL A   1      32.894  24.990  22.830  1.00  0.00    -0.167 N 
ATOM     21  S   UNL A   1      32.200  23.075  24.363  1.00  0.00    -0.073 S 
ATOM     22  N   UNL A   1      33.989  24.156  22.793  1.00  0.00    -0.150 NA
ENDBRANCH  11  12
ENDBRANCH   8  11
ENDBRANCH   7   8
ENDBRANCH   4   7
ENDBRANCH   2   3
ENDBRANCH   1   2
BRANCH   1  23
ATOM     23  C   UNL A   1      41.498  19.589  26.144  1.00  0.00     0.023 C 
BRANCH  23  24
ATOM     24  C   UNL A   1      42.877  19.374  26.746  1.00  0.00     0.116 C 
BRANCH  24  25
ATOM     25  N   UNL A   1      43.900  19.072  25.748  1.00  0.00    -0.352 N 
ATOM     26  C   UNL A   1      44.484  19.954  24.863  1.00  0.00     0.251 C 
ATOM     27  H   UNL A   1      44.206  18.138  25.702  1.00  0.00     0.163 HD
ATOM     28  O   UNL A   1      45.006  19.557  23.823  1.00  0.00    -0.269 OA
BRANCH  26  29
ATOM     29  C   UNL A   1      44.466  21.390  25.185  1.00  0.00     0.039 A 
ATOM     30  C   UNL A   1      43.580  22.256  24.548  1.00  0.00     0.014 A 
ATOM     31  C   UNL A   1      45.314  21.849  26.194  1.00  0.00     0.014 A 
ATOM     32  C   UNL A   1      43.484  23.563  25.013  1.00  0.00     0.010 A 
ATOM     33  C   UNL A   1      45.123  23.098  26.741  1.00  0.00     0.010 A 
ATOM     34  C   UNL A   1      44.223  23.969  26.146  1.00  0.00    -0.014 A 
BRANCH  34  35
ATOM     35  C   UNL A   1      43.905  25.240  26.797  1.00  0.00     0.031 A 
ATOM     36  C   UNL A   1      44.856  26.321  26.433  1.00  0.00     0.074 A 
ATOM     37  C   UNL A   1      42.812  25.495  27.554  1.00  0.00     0.049 A 
ATOM     38  N   UNL A   1      45.846  26.728  27.153  1.00  0.00    -0.248 NA
ATOM     39  C   UNL A   1      44.848  26.881  25.072  1.00  0.00     0.031 C 
ATOM     40  C   UNL A   1      41.636  24.643  27.754  1.00  0.00     0.029 A 
ATOM     41  N   UNL A   1      42.490  26.618  28.268  1.00  0.00    -0.354 N 
ATOM     42  C   UNL A   1      46.410  27.790  26.457  1.00  0.00     0.074 A 
ATOM     43  C   UNL A   1      45.911  27.694  25.112  1.00  0.00     0.031 C 
ATOM     44  C   UNL A   1      40.645  25.355  28.338  1.00  0.00     0.029 A 
ATOM     45  C   UNL A   1      41.174  26.649  28.730  1.00  0.00     0.049 A 
ATOM     46  H   UNL A   1      43.132  27.343  28.441  1.00  0.00     0.167 HD
ATOM     47  C   UNL A   1      46.939  28.829  27.162  1.00  0.00     0.037 A 
ATOM     48  C   UNL A   1      40.572  27.649  29.421  1.00  0.00     0.037 A 
ATOM     49  C   UNL A   1      47.078  28.464  28.552  1.00  0.00     0.049 A 
ATOM     50  C   UNL A   1      41.640  28.408  30.104  1.00  0.00     0.074 A 
ATOM     51  C   UNL A   1      47.923  27.703  29.328  1.00  0.00     0.029 A 
ATOM     52  N   UNL A   1      45.921  28.632  29.259  1.00  0.00    -0.354 N 
ATOM     53  N   UNL A   1      42.339  27.926  31.091  1.00  0.00    -0.248 NA
ATOM     54  C   UNL A   1      42.161  29.622  29.485  1.00  0.00     0.031 C 
ATOM     55  C   UNL A   1      47.189  27.356  30.503  1.00  0.00     0.029 A 
ATOM     56  C   UNL A   1      45.933  27.950  30.440  1.00  0.00     0.049 A 
ATOM     57  H   UNL A   1      45.164  29.182  28.952  1.00  0.00     0.167 HD
ATOM     58  C   UNL A   1      43.578  28.500  30.922  1.00  0.00     0.074 A 
ATOM     59  C   UNL A   1      43.365  29.656  30.062  1.00  0.00     0.031 C 
ATOM     60  C   UNL A   1      44.707  27.783  31.180  1.00  0.00     0.037 A 
BRANCH  47  61
ATOM     61  C   UNL A   1      46.801  30.296  26.795  1.00  0.00     0.064 A 
ATOM     62  C   UNL A   1      47.939  31.127  26.916  1.00  0.00     0.173 A 
ATOM     63  C   UNL A   1      45.570  30.977  26.681  1.00  0.00     0.173 A 
ATOM     64  F   UNL A   1      49.164  30.593  27.051  1.00  0.00    -0.203 F 
ATOM     65  C   UNL A   1      47.838  32.518  27.005  1.00  0.00     0.198 A 
ATOM     66  C   UNL A   1      45.479  32.369  26.722  1.00  0.00     0.198 A 
ATOM     67  F   UNL A   1      44.399  30.336  26.645  1.00  0.00    -0.203 F 
ATOM     68  F   UNL A   1      48.932  33.252  27.251  1.00  0.00    -0.200 F 
ATOM     69  C   UNL A   1      46.607  33.137  26.914  1.00  0.00     0.200 A 
ATOM     70  F   UNL A   1      44.272  32.949  26.661  1.00  0.00    -0.200 F 
ATOM     71  F   UNL A   1      46.497  34.464  27.060  1.00  0.00    -0.200 F 
ENDBRANCH  47  61
BRANCH  48  72
ATOM     72  C   UNL A   1      39.171  28.132  29.449  1.00  0.00     0.064 A 
ATOM     73  C   UNL A   1      38.466  28.214  30.666  1.00  0.00     0.173 A 
ATOM     74  C   UNL A   1      38.635  28.850  28.366  1.00  0.00     0.173 A 
ATOM     75  F   UNL A   1      38.915  27.571  31.753  1.00  0.00    -0.203 F 
ATOM     76  C   UNL A   1      37.345  29.036  30.814  1.00  0.00     0.198 A 
ATOM     77  C   UNL A   1      37.511  29.668  28.515  1.00  0.00     0.198 A 
ATOM     78  F   UNL A   1      39.258  28.858  27.180  1.00  0.00    -0.203 F 
ATOM     79  F   UNL A   1      36.763  29.164  32.015  1.00  0.00    -0.200 F 
ATOM     80  C   UNL A   1      36.883  29.781  29.743  1.00  0.00     0.200 A 
ATOM     81  F   UNL A   1      37.087  30.408  27.481  1.00  0.00    -0.200 F 
ATOM     82  F   UNL A   1      35.867  30.640  29.906  1.00  0.00    -0.200 F 
ENDBRANCH  48  72
BRANCH  60  83
ATOM     83  C   UNL A   1      44.623  26.680  32.177  1.00  0.00     0.064 A 
ATOM     84  C   UNL A   1      44.581  26.853  33.568  1.00  0.00     0.173 A 
ATOM     85  C   UNL A   1      44.481  25.380  31.672  1.00  0.00     0.173 A 
ATOM     86  F   UNL A   1      44.659  28.073  34.116  1.00  0.00    -0.203 F 
ATOM     87  C   UNL A   1      44.409  25.757  34.415  1.00  0.00     0.198 A 
ATOM     88  C   UNL A   1      44.278  24.297  32.515  1.00  0.00     0.198 A 
ATOM     89  F   UNL A   1      44.496  25.172  30.346  1.00  0.00    -0.203 F 
ATOM     90  F   UNL A   1      44.371  25.935  35.744  1.00  0.00    -0.200 F 
ATOM     91  C   UNL A   1      44.244  24.485  33.888  1.00  0.00     0.200 A 
ATOM     92  F   UNL A   1      44.085  23.077  31.996  1.00  0.00    -0.200 F 
ATOM     93  F   UNL A   1      44.033  23.440  34.700  1.00  0.00    -0.200 F 
ENDBRANCH  60  83
ENDBRANCH  34  35
ENDBRANCH  26  29
ENDBRANCH  24  25
ENDBRANCH  23  24
ENDBRANCH   1  23
TORSDOF 14
ENDMDL
MODEL 3
REMARK VINA RESULT:     -12.0      4.819      8.688
REMARK SMILES Cc1cc(=O)n2nc(C[N@@H+](C)CC(=O)NCCCCNC(=O)c3ccc(-c4c5nc(c(-c6c(F)c(F)c(F)c(F)c6F)c6ccc([nH]6)c(-c6c(F)c(F)c(F)c(F)c6F)c6nc(c(-c7c(F)c(F)c(F)c(F)c7F)c7ccc4[nH]7)C=C6)C=C5)cc3)sc2n1
REMARK SMILES IDX 17 1 16 2 15 3 13 4 14 5 12 7 10 8 11 9 9 11 8 12 1 13 2 14
REMARK SMILES IDX 3 15 88 16 4 17 87 18 5 19 6 20 86 21 7 22 18 23 19 24 20 25
REMARK SMILES IDX 21 26 22 28 23 29 24 30 85 31 25 32 84 33 26 34 27 35 28 36
REMARK SMILES IDX 78 37 29 38 83 39 77 40 79 41 30 42 82 43 76 44 75 45 31 47
REMARK SMILES IDX 63 48 43 49 62 50 44 51 47 52 61 53 80 54 45 55 46 56 60 58
REMARK SMILES IDX 81 59 48 60 32 61 33 62 41 63 34 64 35 65 39 66 42 67 36 68
REMARK SMILES IDX 37 69 40 70 38 71 64 72 65 73 73 74 66 75 67 76 71 77 74 78
REMARK SMILES IDX 68 79 69 80 72 81 70 82 49 83 50 84 58 85 51 86 52 87 56 88
REMARK SMILES IDX 59 89 53 90 54 91 57 92 55 93
REMARK H PARENT 15 6 10 10 20 27 79 46 47 57
REMARK Flexibility Score: inf
ROOT
ATOM      1  C   UNL A   1      34.148  33.420  28.221  1.00  0.00     0.023 C 
ENDROOT
BRANCH   1   2
ATOM      2  C   UNL A   1      33.417  32.140  27.807  1.00  0.00     0.116 C 
BRANCH   2   3
ATOM      3  N   UNL A   1      34.211  30.962  28.069  1.00  0.00    -0.351 N 
ATOM      4  C   UNL A   1      34.387  29.849  27.303  1.00  0.00     0.275 C 
ATOM      5  O   UNL A   1      35.069  28.937  27.777  1.00  0.00    -0.269 OA
ATOM      6  H   UNL A   1      34.695  30.963  28.926  1.00  0.00     0.163 HD
BRANCH   4   7
ATOM      7  C   UNL A   1      33.784  29.739  25.899  1.00  0.00     0.363 C 
BRANCH   7   8
ATOM      8  N   UNL A   1      32.496  29.040  25.811  1.00  0.00    -0.324 N 
ATOM      9  C   UNL A   1      31.390  29.742  25.201  1.00  0.00     0.333 C 
ATOM     10  H   UNL A   1      32.740  28.374  25.079  1.00  0.00     0.348 HD
BRANCH   8  11
ATOM     11  C   UNL A   1      32.136  28.167  26.931  1.00  0.00     0.333 C 
BRANCH  11  12
ATOM     12  C   UNL A   1      31.997  26.750  26.431  1.00  0.00     0.172 A 
ATOM     13  C   UNL A   1      32.535  21.275  24.102  1.00  0.00     0.067 C 
ATOM     14  C   UNL A   1      32.058  22.461  24.890  1.00  0.00     0.046 A 
ATOM     15  C   UNL A   1      31.066  22.355  25.789  1.00  0.00     0.097 A 
ATOM     16  N   UNL A   1      32.719  23.636  24.614  1.00  0.00    -0.224 NA
ATOM     17  C   UNL A   1      30.640  23.550  26.557  1.00  0.00     0.275 A 
ATOM     18  C   UNL A   1      32.347  24.659  25.302  1.00  0.00     0.215 A 
ATOM     19  O   UNL A   1      29.716  23.452  27.359  1.00  0.00    -0.267 OA
ATOM     20  N   UNL A   1      31.366  24.681  26.256  1.00  0.00    -0.167 N 
ATOM     21  S   UNL A   1      33.045  26.230  25.124  1.00  0.00    -0.073 S 
ATOM     22  N   UNL A   1      31.164  25.879  26.906  1.00  0.00    -0.150 NA
ENDBRANCH  11  12
ENDBRANCH   8  11
ENDBRANCH   7   8
ENDBRANCH   4   7
ENDBRANCH   2   3
ENDBRANCH   1   2
BRANCH   1  23
ATOM     23  C   UNL A   1      33.279  34.599  28.665  1.00  0.00     0.023 C 
BRANCH  23  24
ATOM     24  C   UNL A   1      34.027  35.722  29.365  1.00  0.00     0.116 C 
BRANCH  24  25
ATOM     25  N   UNL A   1      33.395  36.144  30.613  1.00  0.00    -0.352 N 
ATOM     26  C   UNL A   1      33.432  35.490  31.826  1.00  0.00     0.251 C 
ATOM     27  H   UNL A   1      32.887  36.987  30.585  1.00  0.00     0.163 HD
ATOM     28  O   UNL A   1      32.568  35.685  32.679  1.00  0.00    -0.269 OA
BRANCH  26  29
ATOM     29  C   UNL A   1      34.529  34.543  32.083  1.00  0.00     0.039 A 
ATOM     30  C   UNL A   1      34.328  33.169  31.982  1.00  0.00     0.014 A 
ATOM     31  C   UNL A   1      35.795  35.061  32.363  1.00  0.00     0.014 A 
ATOM     32  C   UNL A   1      35.435  32.331  32.061  1.00  0.00     0.010 A 
ATOM     33  C   UNL A   1      36.903  34.247  32.305  1.00  0.00     0.010 A 
ATOM     34  C   UNL A   1      36.732  32.877  32.174  1.00  0.00    -0.014 A 
BRANCH  34  35
ATOM     35  C   UNL A   1      37.898  32.018  31.968  1.00  0.00     0.031 A 
ATOM     36  C   UNL A   1      38.573  31.658  33.241  1.00  0.00     0.074 A 
ATOM     37  C   UNL A   1      38.290  31.477  30.791  1.00  0.00     0.049 A 
ATOM     38  N   UNL A   1      39.639  32.210  33.711  1.00  0.00    -0.248 NA
ATOM     39  C   UNL A   1      37.917  30.742  34.188  1.00  0.00     0.031 C 
ATOM     40  C   UNL A   1      37.570  31.480  29.514  1.00  0.00     0.029 A 
ATOM     41  N   UNL A   1      39.410  30.745  30.498  1.00  0.00    -0.354 N 
ATOM     42  C   UNL A   1      39.947  31.514  34.874  1.00  0.00     0.074 A 
ATOM     43  C   UNL A   1      38.756  30.791  35.230  1.00  0.00     0.031 C 
ATOM     44  C   UNL A   1      38.147  30.604  28.658  1.00  0.00     0.029 A 
ATOM     45  C   UNL A   1      39.383  30.127  29.248  1.00  0.00     0.049 A 
ATOM     46  H   UNL A   1      40.169  30.661  31.118  1.00  0.00     0.167 HD
ATOM     47  C   UNL A   1      41.256  31.337  35.205  1.00  0.00     0.037 A 
ATOM     48  C   UNL A   1      40.329  29.311  28.718  1.00  0.00     0.037 A 
ATOM     49  C   UNL A   1      42.091  32.198  34.402  1.00  0.00     0.049 A 
ATOM     50  C   UNL A   1      41.608  29.641  29.381  1.00  0.00     0.074 A 
ATOM     51  C   UNL A   1      42.439  33.530  34.358  1.00  0.00     0.029 A 
ATOM     52  N   UNL A   1      42.375  31.665  33.176  1.00  0.00    -0.354 N 
ATOM     53  N   UNL A   1      42.239  30.765  29.195  1.00  0.00    -0.248 NA
ATOM     54  C   UNL A   1      42.053  28.840  30.516  1.00  0.00     0.031 C 
ATOM     55  C   UNL A   1      42.872  33.790  33.022  1.00  0.00     0.029 A 
ATOM     56  C   UNL A   1      42.825  32.604  32.295  1.00  0.00     0.049 A 
ATOM     57  H   UNL A   1      42.267  30.712  32.954  1.00  0.00     0.167 HD
ATOM     58  C   UNL A   1      42.829  31.012  30.413  1.00  0.00     0.074 A 
ATOM     59  C   UNL A   1      42.847  29.733  31.110  1.00  0.00     0.031 C 
ATOM     60  C   UNL A   1      42.907  32.284  30.893  1.00  0.00     0.037 A 
BRANCH  47  61
ATOM     61  C   UNL A   1      41.849  30.061  35.777  1.00  0.00     0.064 A 
ATOM     62  C   UNL A   1      42.884  30.174  36.734  1.00  0.00     0.173 A 
ATOM     63  C   UNL A   1      41.707  28.784  35.194  1.00  0.00     0.173 A 
ATOM     64  F   UNL A   1      43.127  31.346  37.343  1.00  0.00    -0.203 F 
ATOM     65  C   UNL A   1      43.759  29.119  37.012  1.00  0.00     0.198 A 
ATOM     66  C   UNL A   1      42.553  27.720  35.510  1.00  0.00     0.198 A 
ATOM     67  F   UNL A   1      40.834  28.538  34.213  1.00  0.00    -0.203 F 
ATOM     68  F   UNL A   1      44.803  29.316  37.828  1.00  0.00    -0.200 F 
ATOM     69  C   UNL A   1      43.596  27.895  36.394  1.00  0.00     0.200 A 
ATOM     70  F   UNL A   1      42.396  26.548  34.878  1.00  0.00    -0.200 F 
ATOM     71  F   UNL A   1      44.466  26.900  36.610  1.00  0.00    -0.200 F 
ENDBRANCH  47  61
BRANCH  48  72
ATOM     72  C   UNL A   1      40.238  28.155  27.795  1.00  0.00     0.064 A 
ATOM     73  C   UNL A   1      41.026  28.106  26.629  1.00  0.00     0.173 A 
ATOM     74  C   UNL A   1      39.666  26.942  28.215  1.00  0.00     0.173 A 
ATOM     75  F   UNL A   1      41.620  29.215  26.166  1.00  0.00    -0.203 F 
ATOM     76  C   UNL A   1      41.299  26.901  25.974  1.00  0.00     0.198 A 
ATOM     77  C   UNL A   1      39.937  25.738  27.557  1.00  0.00     0.198 A 
ATOM     78  F   UNL A   1      38.930  26.887  29.334  1.00  0.00    -0.203 F 
ATOM     79  F   UNL A   1      42.136  26.883  24.927  1.00  0.00    -0.200 F 
ATOM     80  C   UNL A   1      40.774  25.714  26.454  1.00  0.00     0.200 A 
ATOM     81  F   UNL A   1      39.447  24.589  28.045  1.00  0.00    -0.200 F 
ATOM     82  F   UNL A   1      41.109  24.548  25.886  1.00  0.00    -0.200 F 
ENDBRANCH  48  72
BRANCH  60  83
ATOM     83  C   UNL A   1      42.935  33.402  29.909  1.00  0.00     0.064 A 
ATOM     84  C   UNL A   1      44.035  33.743  29.108  1.00  0.00     0.173 A 
ATOM     85  C   UNL A   1      41.735  34.099  29.709  1.00  0.00     0.173 A 
ATOM     86  F   UNL A   1      45.196  33.084  29.211  1.00  0.00    -0.203 F 
ATOM     87  C   UNL A   1      43.930  34.752  28.150  1.00  0.00     0.198 A 
ATOM     88  C   UNL A   1      41.625  35.079  28.733  1.00  0.00     0.198 A 
ATOM     89  F   UNL A   1      40.652  33.791  30.440  1.00  0.00    -0.203 F 
ATOM     90  F   UNL A   1      44.989  35.070  27.391  1.00  0.00    -0.200 F 
ATOM     91  C   UNL A   1      42.724  35.408  27.955  1.00  0.00     0.200 A 
ATOM     92  F   UNL A   1      40.447  35.683  28.527  1.00  0.00    -0.200 F 
ATOM     93  F   UNL A   1      42.611  36.344  27.002  1.00  0.00    -0.200 F 
ENDBRANCH  60  83
ENDBRANCH  34  35
ENDBRANCH  26  29
ENDBRANCH  24  25
ENDBRANCH  23  24
ENDBRANCH   1  23
TORSDOF 14
ENDMDL
