MODEL 1
REMARK VINA RESULT:     -14.0      0.000      0.000
REMARK SMILES C[C@H](C(=O)Nc1ccc(C(F)(F)F)cc1)n1nc(C(=O)NCCCCNC(=O)c2ccc(-c3c4nc(c(-c5c(F)c(F)c(F)c(F)c5F)c5ccc([nH]5)c(-c5c(F)c(F)c(F)c(F)c5F)c5nc(c(-c6c(F)c(F)c(F)c(F)c6F)c6ccc3[nH]6)C=C5)C=C4)cc2)c2ccccc2c1=O
REMARK SMILES IDX 22 1 21 2 19 3 20 4 18 6 16 7 17 8 98 9 97 10 99 11 92 12
REMARK SMILES IDX 96 13 93 14 95 15 94 16 2 17 1 18 3 19 4 20 5 21 6 23 7 24
REMARK SMILES IDX 15 25 8 26 14 27 9 28 10 29 11 30 12 31 13 32 23 33 24 34
REMARK SMILES IDX 25 35 26 36 27 37 28 39 29 40 30 41 91 42 31 43 90 44 32 45
REMARK SMILES IDX 33 46 34 47 84 48 35 49 89 50 83 51 85 52 36 53 88 54 82 55
REMARK SMILES IDX 81 56 37 58 69 59 49 60 68 61 50 62 53 63 67 64 86 65 51 66
REMARK SMILES IDX 52 67 66 69 87 70 54 71 38 72 39 73 47 74 40 75 41 76 45 77
REMARK SMILES IDX 48 78 42 79 43 80 46 81 44 82 70 83 71 84 79 85 72 86 73 87
REMARK SMILES IDX 77 88 80 89 74 90 75 91 78 92 76 93 55 94 56 95 64 96 57 97
REMARK SMILES IDX 58 98 62 99 65 100 59 101 60 102 63 103 61 104
REMARK H PARENT 21 5 5 22 26 38 85 57 53 68
REMARK Flexibility Score: inf
ROOT
ATOM      1  C   UNL A   1      36.526  21.667  25.622  1.00  0.00     0.116 C 
ENDROOT
BRANCH   1   2
ATOM      2  N   UNL A   1      35.679  21.608  26.798  1.00  0.00    -0.351 N 
ATOM      3  C   UNL A   1      34.309  21.755  26.880  1.00  0.00     0.272 C 
ATOM      4  O   UNL A   1      33.788  21.914  27.972  1.00  0.00    -0.267 OA
ATOM      5  H   UNL A   1      36.142  21.442  27.651  1.00  0.00     0.163 HD
BRANCH   3   6
ATOM      6  C   UNL A   1      33.457  21.683  25.596  1.00  0.00     0.156 A 
ATOM      7  N   UNL A   1      32.529  22.850  23.808  1.00  0.00    -0.216 N 
ATOM      8  N   UNL A   1      33.123  22.815  25.051  1.00  0.00    -0.163 NA
ATOM      9  C   UNL A   1      32.258  21.705  23.069  1.00  0.00     0.275 A 
ATOM     10  C   UNL A   1      32.538  20.412  23.726  1.00  0.00     0.051 A 
ATOM     11  O   UNL A   1      31.832  21.701  21.920  1.00  0.00    -0.267 OA
ATOM     12  C   UNL A   1      33.090  20.381  25.004  1.00  0.00     0.020 A 
ATOM     13  C   UNL A   1      32.203  19.217  23.069  1.00  0.00     0.014 A 
ATOM     14  C   UNL A   1      33.242  19.146  25.650  1.00  0.00     0.011 A 
ATOM     15  C   UNL A   1      32.376  17.992  23.710  1.00  0.00     0.001 A 
ATOM     16  C   UNL A   1      32.877  17.959  25.008  1.00  0.00     0.001 A 
BRANCH   7  17
ATOM     17  C   UNL A   1      32.091  24.197  23.386  1.00  0.00     0.197 C 
ATOM     18  C   UNL A   1      30.594  24.194  23.058  1.00  0.00     0.044 C 
BRANCH  17  19
ATOM     19  C   UNL A   1      32.853  24.912  22.248  1.00  0.00     0.249 C 
ATOM     20  O   UNL A   1      33.262  24.296  21.256  1.00  0.00    -0.272 OA
ATOM     21  N   UNL A   1      32.975  26.275  22.217  1.00  0.00    -0.324 N 
ATOM     22  H   UNL A   1      33.311  26.626  21.361  1.00  0.00     0.170 HD
BRANCH  21  23
ATOM     23  C   UNL A   1      32.713  27.265  23.171  1.00  0.00     0.041 A 
ATOM     24  C   UNL A   1      33.724  27.545  24.095  1.00  0.00     0.027 A 
ATOM     25  C   UNL A   1      31.492  27.921  23.284  1.00  0.00     0.027 A 
ATOM     26  C   UNL A   1      33.542  28.527  25.075  1.00  0.00     0.015 A 
ATOM     27  C   UNL A   1      31.296  28.885  24.280  1.00  0.00     0.015 A 
ATOM     28  C   UNL A   1      32.326  29.216  25.171  1.00  0.00     0.056 A 
BRANCH  28  29
ATOM     29  C   UNL A   1      32.111  30.253  26.243  1.00  0.00     0.416 C 
ATOM     30  F   UNL A   1      31.557  29.737  27.373  1.00  0.00    -0.166 F 
ATOM     31  F   UNL A   1      33.260  30.871  26.633  1.00  0.00    -0.166 F 
ATOM     32  F   UNL A   1      31.279  31.258  25.843  1.00  0.00    -0.166 F 
ENDBRANCH  28  29
ENDBRANCH  21  23
ENDBRANCH  17  19
ENDBRANCH   7  17
ENDBRANCH   3   6
ENDBRANCH   1   2
BRANCH   1  33
ATOM     33  C   UNL A   1      36.709  20.269  25.017  1.00  0.00     0.023 C 
BRANCH  33  34
ATOM     34  C   UNL A   1      38.164  19.964  24.654  1.00  0.00     0.023 C 
BRANCH  34  35
ATOM     35  C   UNL A   1      39.129  20.167  25.816  1.00  0.00     0.116 C 
BRANCH  35  36
ATOM     36  N   UNL A   1      40.152  19.135  25.898  1.00  0.00    -0.352 N 
ATOM     37  C   UNL A   1      41.495  19.300  26.141  1.00  0.00     0.251 C 
ATOM     38  H   UNL A   1      39.846  18.210  25.761  1.00  0.00     0.163 HD
ATOM     39  O   UNL A   1      42.267  18.350  26.077  1.00  0.00    -0.269 OA
BRANCH  37  40
ATOM     40  C   UNL A   1      42.007  20.653  26.442  1.00  0.00     0.039 A 
ATOM     41  C   UNL A   1      42.257  21.534  25.388  1.00  0.00     0.014 A 
ATOM     42  C   UNL A   1      42.208  21.059  27.763  1.00  0.00     0.014 A 
ATOM     43  C   UNL A   1      42.652  22.844  25.664  1.00  0.00     0.010 A 
ATOM     44  C   UNL A   1      42.549  22.377  28.041  1.00  0.00     0.010 A 
ATOM     45  C   UNL A   1      42.774  23.280  26.994  1.00  0.00    -0.014 A 
BRANCH  45  46
ATOM     46  C   UNL A   1      43.145  24.679  27.311  1.00  0.00     0.031 A 
ATOM     47  C   UNL A   1      44.551  25.151  27.085  1.00  0.00     0.074 A 
ATOM     48  C   UNL A   1      42.231  25.494  27.869  1.00  0.00     0.049 A 
ATOM     49  N   UNL A   1      45.079  26.324  27.330  1.00  0.00    -0.248 NA
ATOM     50  C   UNL A   1      45.499  24.167  26.538  1.00  0.00     0.031 C 
ATOM     51  C   UNL A   1      40.857  25.121  28.208  1.00  0.00     0.029 A 
ATOM     52  N   UNL A   1      42.328  26.805  28.264  1.00  0.00    -0.354 N 
ATOM     53  C   UNL A   1      46.415  26.217  26.968  1.00  0.00     0.074 A 
ATOM     54  C   UNL A   1      46.633  24.853  26.543  1.00  0.00     0.031 C 
ATOM     55  C   UNL A   1      40.236  26.179  28.754  1.00  0.00     0.029 A 
ATOM     56  C   UNL A   1      41.170  27.300  28.809  1.00  0.00     0.049 A 
ATOM     57  H   UNL A   1      43.149  27.338  28.166  1.00  0.00     0.167 HD
ATOM     58  C   UNL A   1      47.367  27.181  26.964  1.00  0.00     0.037 A 
ATOM     59  C   UNL A   1      40.894  28.527  29.290  1.00  0.00     0.037 A 
ATOM     60  C   UNL A   1      47.144  28.540  27.379  1.00  0.00     0.049 A 
ATOM     61  C   UNL A   1      41.951  29.594  29.216  1.00  0.00     0.074 A 
ATOM     62  C   UNL A   1      48.036  29.598  27.404  1.00  0.00     0.029 A 
ATOM     63  N   UNL A   1      45.930  29.030  27.837  1.00  0.00    -0.354 N 
ATOM     64  N   UNL A   1      43.193  29.502  28.809  1.00  0.00    -0.248 NA
ATOM     65  C   UNL A   1      41.559  30.946  29.643  1.00  0.00     0.031 C 
ATOM     66  C   UNL A   1      47.364  30.726  27.889  1.00  0.00     0.029 A 
ATOM     67  C   UNL A   1      46.046  30.377  28.135  1.00  0.00     0.049 A 
ATOM     68  H   UNL A   1      45.107  28.498  27.936  1.00  0.00     0.167 HD
ATOM     69  C   UNL A   1      43.719  30.783  28.896  1.00  0.00     0.074 A 
ATOM     70  C   UNL A   1      42.659  31.638  29.385  1.00  0.00     0.031 C 
ATOM     71  C   UNL A   1      44.969  31.213  28.597  1.00  0.00     0.037 A 
BRANCH  58  72
ATOM     72  C   UNL A   1      48.730  26.798  26.470  1.00  0.00     0.064 A 
ATOM     73  C   UNL A   1      49.683  26.236  27.335  1.00  0.00     0.173 A 
ATOM     74  C   UNL A   1      49.083  26.967  25.124  1.00  0.00     0.173 A 
ATOM     75  F   UNL A   1      49.398  26.068  28.635  1.00  0.00    -0.203 F 
ATOM     76  C   UNL A   1      50.946  25.879  26.873  1.00  0.00     0.198 A 
ATOM     77  C   UNL A   1      50.340  26.585  24.660  1.00  0.00     0.198 A 
ATOM     78  F   UNL A   1      48.208  27.498  24.256  1.00  0.00    -0.203 F 
ATOM     79  F   UNL A   1      51.854  25.385  27.727  1.00  0.00    -0.200 F 
ATOM     80  C   UNL A   1      51.272  26.049  25.536  1.00  0.00     0.200 A 
ATOM     81  F   UNL A   1      50.651  26.740  23.366  1.00  0.00    -0.200 F 
ATOM     82  F   UNL A   1      52.488  25.700  25.092  1.00  0.00    -0.200 F 
ENDBRANCH  58  72
BRANCH  59  83
ATOM     83  C   UNL A   1      39.543  28.828  29.825  1.00  0.00     0.064 A 
ATOM     84  C   UNL A   1      38.546  29.364  28.999  1.00  0.00     0.173 A 
ATOM     85  C   UNL A   1      39.224  28.595  31.170  1.00  0.00     0.173 A 
ATOM     86  F   UNL A   1      38.811  29.619  27.710  1.00  0.00    -0.203 F 
ATOM     87  C   UNL A   1      37.287  29.681  29.504  1.00  0.00     0.198 A 
ATOM     88  C   UNL A   1      37.957  28.891  31.669  1.00  0.00     0.198 A 
ATOM     89  F   UNL A   1      40.141  28.074  31.997  1.00  0.00    -0.203 F 
ATOM     90  F   UNL A   1      36.367  30.235  28.703  1.00  0.00    -0.200 F 
ATOM     91  C   UNL A   1      36.992  29.441  30.838  1.00  0.00     0.200 A 
ATOM     92  F   UNL A   1      37.671  28.646  32.955  1.00  0.00    -0.200 F 
ATOM     93  F   UNL A   1      35.782  29.748  31.324  1.00  0.00    -0.200 F 
ENDBRANCH  59  83
BRANCH  71  94
ATOM     94  C   UNL A   1      45.238  32.680  28.742  1.00  0.00     0.064 A 
ATOM     95  C   UNL A   1      45.760  33.219  29.926  1.00  0.00     0.173 A 
ATOM     96  C   UNL A   1      44.987  33.553  27.672  1.00  0.00     0.173 A 
ATOM     97  F   UNL A   1      46.002  32.425  30.980  1.00  0.00    -0.203 F 
ATOM     98  C   UNL A   1      45.996  34.586  30.044  1.00  0.00     0.198 A 
ATOM     99  C   UNL A   1      45.246  34.915  27.786  1.00  0.00     0.198 A 
ATOM    100  F   UNL A   1      44.490  33.082  26.518  1.00  0.00    -0.203 F 
ATOM    101  F   UNL A   1      46.452  35.088  31.201  1.00  0.00    -0.200 F 
ATOM    102  C   UNL A   1      45.743  35.431  28.974  1.00  0.00     0.200 A 
ATOM    103  F   UNL A   1      45.009  35.729  26.750  1.00  0.00    -0.200 F 
ATOM    104  F   UNL A   1      45.969  36.747  29.090  1.00  0.00    -0.200 F 
ENDBRANCH  71  94
ENDBRANCH  45  46
ENDBRANCH  37  40
ENDBRANCH  35  36
ENDBRANCH  34  35
ENDBRANCH  33  34
ENDBRANCH   1  33
TORSDOF 15
ENDMDL
MODEL 2
REMARK VINA RESULT:     -13.9      5.212     10.908
REMARK SMILES C[C@H](C(=O)Nc1ccc(C(F)(F)F)cc1)n1nc(C(=O)NCCCCNC(=O)c2ccc(-c3c4nc(c(-c5c(F)c(F)c(F)c(F)c5F)c5ccc([nH]5)c(-c5c(F)c(F)c(F)c(F)c5F)c5nc(c(-c6c(F)c(F)c(F)c(F)c6F)c6ccc3[nH]6)C=C5)C=C4)cc2)c2ccccc2c1=O
REMARK SMILES IDX 22 1 21 2 19 3 20 4 18 6 16 7 17 8 98 9 97 10 99 11 92 12
REMARK SMILES IDX 96 13 93 14 95 15 94 16 2 17 1 18 3 19 4 20 5 21 6 23 7 24
REMARK SMILES IDX 15 25 8 26 14 27 9 28 10 29 11 30 12 31 13 32 23 33 24 34
REMARK SMILES IDX 25 35 26 36 27 37 28 39 29 40 30 41 91 42 31 43 90 44 32 45
REMARK SMILES IDX 33 46 34 47 84 48 35 49 89 50 83 51 85 52 36 53 88 54 82 55
REMARK SMILES IDX 81 56 37 58 69 59 49 60 68 61 50 62 53 63 67 64 86 65 51 66
REMARK SMILES IDX 52 67 66 69 87 70 54 71 38 72 39 73 47 74 40 75 41 76 45 77
REMARK SMILES IDX 48 78 42 79 43 80 46 81 44 82 70 83 71 84 79 85 72 86 73 87
REMARK SMILES IDX 77 88 80 89 74 90 75 91 78 92 76 93 55 94 56 95 64 96 57 97
REMARK SMILES IDX 58 98 62 99 65 100 59 101 60 102 63 103 61 104
REMARK H PARENT 21 5 5 22 26 38 85 57 53 68
REMARK Flexibility Score: inf
ROOT
ATOM      1  C   UNL A   1      32.773  29.601  26.249  1.00  0.00     0.116 C 
ENDROOT
BRANCH   1   2
ATOM      2  N   UNL A   1      33.290  29.834  24.914  1.00  0.00    -0.351 N 
ATOM      3  C   UNL A   1      32.997  29.155  23.748  1.00  0.00     0.272 C 
ATOM      4  O   UNL A   1      33.698  29.326  22.763  1.00  0.00    -0.267 OA
ATOM      5  H   UNL A   1      33.935  30.573  24.828  1.00  0.00     0.163 HD
BRANCH   3   6
ATOM      6  C   UNL A   1      31.773  28.219  23.698  1.00  0.00     0.156 A 
ATOM      7  N   UNL A   1      30.882  26.147  24.273  1.00  0.00    -0.216 N 
ATOM      8  N   UNL A   1      31.953  26.997  24.102  1.00  0.00    -0.163 NA
ATOM      9  C   UNL A   1      29.569  26.530  24.035  1.00  0.00     0.275 A 
ATOM     10  C   UNL A   1      29.365  27.882  23.474  1.00  0.00     0.051 A 
ATOM     11  O   UNL A   1      28.585  25.839  24.277  1.00  0.00    -0.267 OA
ATOM     12  C   UNL A   1      30.456  28.719  23.254  1.00  0.00     0.020 A 
ATOM     13  C   UNL A   1      28.070  28.297  23.127  1.00  0.00     0.014 A 
ATOM     14  C   UNL A   1      30.249  29.952  22.620  1.00  0.00     0.011 A 
ATOM     15  C   UNL A   1      27.871  29.532  22.514  1.00  0.00     0.001 A 
ATOM     16  C   UNL A   1      28.963  30.351  22.243  1.00  0.00     0.001 A 
BRANCH   7  17
ATOM     17  C   UNL A   1      31.262  24.757  24.608  1.00  0.00     0.197 C 
ATOM     18  C   UNL A   1      30.652  23.778  23.600  1.00  0.00     0.044 C 
BRANCH  17  19
ATOM     19  C   UNL A   1      31.003  24.233  26.038  1.00  0.00     0.249 C 
ATOM     20  O   UNL A   1      30.014  24.589  26.689  1.00  0.00    -0.272 OA
ATOM     21  N   UNL A   1      31.772  23.240  26.584  1.00  0.00    -0.324 N 
ATOM     22  H   UNL A   1      31.403  22.860  27.413  1.00  0.00     0.170 HD
BRANCH  21  23
ATOM     23  C   UNL A   1      32.983  22.662  26.187  1.00  0.00     0.041 A 
ATOM     24  C   UNL A   1      34.157  23.340  26.529  1.00  0.00     0.027 A 
ATOM     25  C   UNL A   1      33.070  21.503  25.422  1.00  0.00     0.027 A 
ATOM     26  C   UNL A   1      35.408  22.823  26.176  1.00  0.00     0.015 A 
ATOM     27  C   UNL A   1      34.319  20.997  25.043  1.00  0.00     0.015 A 
ATOM     28  C   UNL A   1      35.502  21.638  25.436  1.00  0.00     0.056 A 
BRANCH  28  29
ATOM     29  C   UNL A   1      36.845  21.090  25.025  1.00  0.00     0.416 C 
ATOM     30  F   UNL A   1      37.221  21.494  23.782  1.00  0.00    -0.166 F 
ATOM     31  F   UNL A   1      37.855  21.454  25.863  1.00  0.00    -0.166 F 
ATOM     32  F   UNL A   1      36.871  19.726  24.999  1.00  0.00    -0.166 F 
ENDBRANCH  28  29
ENDBRANCH  21  23
ENDBRANCH  17  19
ENDBRANCH   7  17
ENDBRANCH   3   6
ENDBRANCH   1   2
BRANCH   1  33
ATOM     33  C   UNL A   1      31.439  30.331  26.446  1.00  0.00     0.023 C 
BRANCH  33  34
ATOM     34  C   UNL A   1      31.571  31.852  26.339  1.00  0.00     0.023 C 
BRANCH  34  35
ATOM     35  C   UNL A   1      32.641  32.429  27.259  1.00  0.00     0.116 C 
BRANCH  35  36
ATOM     36  N   UNL A   1      32.421  33.830  27.584  1.00  0.00    -0.352 N 
ATOM     37  C   UNL A   1      33.103  34.599  28.498  1.00  0.00     0.251 C 
ATOM     38  H   UNL A   1      31.697  34.281  27.093  1.00  0.00     0.163 HD
ATOM     39  O   UNL A   1      32.743  35.742  28.751  1.00  0.00    -0.269 OA
BRANCH  37  40
ATOM     40  C   UNL A   1      34.258  34.010  29.207  1.00  0.00     0.039 A 
ATOM     41  C   UNL A   1      34.027  33.148  30.281  1.00  0.00     0.014 A 
ATOM     42  C   UNL A   1      35.562  34.285  28.791  1.00  0.00     0.014 A 
ATOM     43  C   UNL A   1      35.107  32.513  30.899  1.00  0.00     0.010 A 
ATOM     44  C   UNL A   1      36.633  33.614  29.369  1.00  0.00     0.010 A 
ATOM     45  C   UNL A   1      36.413  32.723  30.428  1.00  0.00    -0.014 A 
BRANCH  45  46
ATOM     46  C   UNL A   1      37.569  32.024  31.037  1.00  0.00     0.031 A 
ATOM     47  C   UNL A   1      38.043  32.412  32.407  1.00  0.00     0.074 A 
ATOM     48  C   UNL A   1      38.230  31.094  30.323  1.00  0.00     0.049 A 
ATOM     49  N   UNL A   1      39.053  31.944  33.096  1.00  0.00    -0.248 NA
ATOM     50  C   UNL A   1      37.301  33.490  33.082  1.00  0.00     0.031 C 
ATOM     51  C   UNL A   1      37.909  30.692  28.952  1.00  0.00     0.029 A 
ATOM     52  N   UNL A   1      39.321  30.329  30.648  1.00  0.00    -0.354 N 
ATOM     53  C   UNL A   1      39.067  32.668  34.280  1.00  0.00     0.074 A 
ATOM     54  C   UNL A   1      38.004  33.645  34.195  1.00  0.00     0.031 C 
ATOM     55  C   UNL A   1      38.779  29.750  28.556  1.00  0.00     0.029 A 
ATOM     56  C   UNL A   1      39.721  29.488  29.640  1.00  0.00     0.049 A 
ATOM     57  H   UNL A   1      39.774  30.378  31.521  1.00  0.00     0.167 HD
ATOM     58  C   UNL A   1      39.877  32.511  35.355  1.00  0.00     0.037 A 
ATOM     59  C   UNL A   1      40.731  28.598  29.604  1.00  0.00     0.037 A 
ATOM     60  C   UNL A   1      40.927  31.531  35.440  1.00  0.00     0.049 A 
ATOM     61  C   UNL A   1      41.575  28.401  30.832  1.00  0.00     0.074 A 
ATOM     62  C   UNL A   1      41.798  31.281  36.486  1.00  0.00     0.029 A 
ATOM     63  N   UNL A   1      41.242  30.631  34.433  1.00  0.00    -0.354 N 
ATOM     64  N   UNL A   1      41.537  29.044  31.973  1.00  0.00    -0.248 NA
ATOM     65  C   UNL A   1      42.585  27.334  30.778  1.00  0.00     0.031 C 
ATOM     66  C   UNL A   1      42.649  30.236  36.107  1.00  0.00     0.029 A 
ATOM     67  C   UNL A   1      42.285  29.815  34.837  1.00  0.00     0.049 A 
ATOM     68  H   UNL A   1      40.790  30.580  33.560  1.00  0.00     0.167 HD
ATOM     69  C   UNL A   1      42.488  28.440  32.783  1.00  0.00     0.074 A 
ATOM     70  C   UNL A   1      43.080  27.371  32.006  1.00  0.00     0.031 C 
ATOM     71  C   UNL A   1      42.841  28.742  34.056  1.00  0.00     0.037 A 
BRANCH  58  72
ATOM     72  C   UNL A   1      39.636  33.407  36.533  1.00  0.00     0.064 A 
ATOM     73  C   UNL A   1      40.251  34.665  36.625  1.00  0.00     0.173 A 
ATOM     74  C   UNL A   1      38.769  33.022  37.566  1.00  0.00     0.173 A 
ATOM     75  F   UNL A   1      41.101  35.072  35.669  1.00  0.00    -0.203 F 
ATOM     76  C   UNL A   1      40.024  35.495  37.718  1.00  0.00     0.198 A 
ATOM     77  C   UNL A   1      38.524  33.866  38.646  1.00  0.00     0.198 A 
ATOM     78  F   UNL A   1      38.155  31.830  37.525  1.00  0.00    -0.203 F 
ATOM     79  F   UNL A   1      40.656  36.674  37.805  1.00  0.00    -0.200 F 
ATOM     80  C   UNL A   1      39.157  35.098  38.725  1.00  0.00     0.200 A 
ATOM     81  F   UNL A   1      37.679  33.486  39.614  1.00  0.00    -0.200 F 
ATOM     82  F   UNL A   1      38.935  35.901  39.775  1.00  0.00    -0.200 F 
ENDBRANCH  58  72
BRANCH  59  83
ATOM     83  C   UNL A   1      40.960  27.784  28.383  1.00  0.00     0.064 A 
ATOM     84  C   UNL A   1      41.834  28.225  27.380  1.00  0.00     0.173 A 
ATOM     85  C   UNL A   1      40.307  26.559  28.192  1.00  0.00     0.173 A 
ATOM     86  F   UNL A   1      42.468  29.398  27.512  1.00  0.00    -0.203 F 
ATOM     87  C   UNL A   1      42.026  27.482  26.217  1.00  0.00     0.198 A 
ATOM     88  C   UNL A   1      40.517  25.806  27.038  1.00  0.00     0.198 A 
ATOM     89  F   UNL A   1      39.469  26.091  29.127  1.00  0.00    -0.203 F 
ATOM     90  F   UNL A   1      42.832  27.948  25.253  1.00  0.00    -0.200 F 
ATOM     91  C   UNL A   1      41.370  26.272  26.048  1.00  0.00     0.200 A 
ATOM     92  F   UNL A   1      39.891  24.631  26.884  1.00  0.00    -0.200 F 
ATOM     93  F   UNL A   1      41.553  25.559  24.929  1.00  0.00    -0.200 F 
ENDBRANCH  59  83
BRANCH  71  94
ATOM     94  C   UNL A   1      43.876  27.873  34.702  1.00  0.00     0.064 A 
ATOM     95  C   UNL A   1      45.237  28.208  34.678  1.00  0.00     0.173 A 
ATOM     96  C   UNL A   1      43.496  26.699  35.370  1.00  0.00     0.173 A 
ATOM     97  F   UNL A   1      45.649  29.312  34.038  1.00  0.00    -0.203 F 
ATOM     98  C   UNL A   1      46.185  27.383  35.277  1.00  0.00     0.198 A 
ATOM     99  C   UNL A   1      44.444  25.890  35.988  1.00  0.00     0.198 A 
ATOM    100  F   UNL A   1      42.204  26.340  35.423  1.00  0.00    -0.203 F 
ATOM    101  F   UNL A   1      47.486  27.697  35.202  1.00  0.00    -0.200 F 
ATOM    102  C   UNL A   1      45.788  26.228  35.934  1.00  0.00     0.200 A 
ATOM    103  F   UNL A   1      44.058  24.779  36.630  1.00  0.00    -0.200 F 
ATOM    104  F   UNL A   1      46.702  25.435  36.509  1.00  0.00    -0.200 F 
ENDBRANCH  71  94
ENDBRANCH  45  46
ENDBRANCH  37  40
ENDBRANCH  35  36
ENDBRANCH  34  35
ENDBRANCH  33  34
ENDBRANCH   1  33
TORSDOF 15
ENDMDL
MODEL 3
REMARK VINA RESULT:     -13.8      5.137     10.779
REMARK SMILES C[C@H](C(=O)Nc1ccc(C(F)(F)F)cc1)n1nc(C(=O)NCCCCNC(=O)c2ccc(-c3c4nc(c(-c5c(F)c(F)c(F)c(F)c5F)c5ccc([nH]5)c(-c5c(F)c(F)c(F)c(F)c5F)c5nc(c(-c6c(F)c(F)c(F)c(F)c6F)c6ccc3[nH]6)C=C5)C=C4)cc2)c2ccccc2c1=O
REMARK SMILES IDX 22 1 21 2 19 3 20 4 18 6 16 7 17 8 98 9 97 10 99 11 92 12
REMARK SMILES IDX 96 13 93 14 95 15 94 16 2 17 1 18 3 19 4 20 5 21 6 23 7 24
REMARK SMILES IDX 15 25 8 26 14 27 9 28 10 29 11 30 12 31 13 32 23 33 24 34
REMARK SMILES IDX 25 35 26 36 27 37 28 39 29 40 30 41 91 42 31 43 90 44 32 45
REMARK SMILES IDX 33 46 34 47 84 48 35 49 89 50 83 51 85 52 36 53 88 54 82 55
REMARK SMILES IDX 81 56 37 58 69 59 49 60 68 61 50 62 53 63 67 64 86 65 51 66
REMARK SMILES IDX 52 67 66 69 87 70 54 71 38 72 39 73 47 74 40 75 41 76 45 77
REMARK SMILES IDX 48 78 42 79 43 80 46 81 44 82 70 83 71 84 79 85 72 86 73 87
REMARK SMILES IDX 77 88 80 89 74 90 75 91 78 92 76 93 55 94 56 95 64 96 57 97
REMARK SMILES IDX 58 98 62 99 65 100 59 101 60 102 63 103 61 104
REMARK H PARENT 21 5 5 22 26 38 85 57 53 68
REMARK Flexibility Score: inf
ROOT
ATOM      1  C   UNL A   1      32.690  29.866  25.965  1.00  0.00     0.116 C 
ENDROOT
BRANCH   1   2
ATOM      2  N   UNL A   1      33.339  29.892  24.669  1.00  0.00    -0.351 N 
ATOM      3  C   UNL A   1      33.135  29.057  23.588  1.00  0.00     0.272 C 
ATOM      4  O   UNL A   1      33.932  29.070  22.663  1.00  0.00    -0.267 OA
ATOM      5  H   UNL A   1      34.014  30.598  24.542  1.00  0.00     0.163 HD
BRANCH   3   6
ATOM      6  C   UNL A   1      31.890  28.149  23.551  1.00  0.00     0.156 A 
ATOM      7  N   UNL A   1      30.943  26.118  24.181  1.00  0.00    -0.216 N 
ATOM      8  N   UNL A   1      32.036  26.937  23.998  1.00  0.00    -0.163 NA
ATOM      9  C   UNL A   1      29.642  26.524  23.911  1.00  0.00     0.275 A 
ATOM     10  C   UNL A   1      29.478  27.861  23.305  1.00  0.00     0.051 A 
ATOM     11  O   UNL A   1      28.639  25.865  24.162  1.00  0.00    -0.267 OA
ATOM     12  C   UNL A   1      30.591  28.665  23.073  1.00  0.00     0.020 A 
ATOM     13  C   UNL A   1      28.198  28.295  22.926  1.00  0.00     0.014 A 
ATOM     14  C   UNL A   1      30.422  29.881  22.396  1.00  0.00     0.011 A 
ATOM     15  C   UNL A   1      28.037  29.514  22.270  1.00  0.00     0.001 A 
ATOM     16  C   UNL A   1      29.152  30.297  21.988  1.00  0.00     0.001 A 
BRANCH   7  17
ATOM     17  C   UNL A   1      31.285  24.733  24.566  1.00  0.00     0.197 C 
ATOM     18  C   UNL A   1      30.627  23.733  23.609  1.00  0.00     0.044 C 
BRANCH  17  19
ATOM     19  C   UNL A   1      31.035  24.274  26.020  1.00  0.00     0.249 C 
ATOM     20  O   UNL A   1      30.042  24.651  26.656  1.00  0.00    -0.272 OA
ATOM     21  N   UNL A   1      31.816  23.318  26.611  1.00  0.00    -0.324 N 
ATOM     22  H   UNL A   1      31.453  22.974  27.459  1.00  0.00     0.170 HD
BRANCH  21  23
ATOM     23  C   UNL A   1      33.033  22.736  26.240  1.00  0.00     0.041 A 
ATOM     24  C   UNL A   1      34.173  23.542  26.301  1.00  0.00     0.027 A 
ATOM     25  C   UNL A   1      33.149  21.437  25.755  1.00  0.00     0.027 A 
ATOM     26  C   UNL A   1      35.428  23.031  25.954  1.00  0.00     0.015 A 
ATOM     27  C   UNL A   1      34.399  20.930  25.380  1.00  0.00     0.015 A 
ATOM     28  C   UNL A   1      35.555  21.713  25.498  1.00  0.00     0.056 A 
BRANCH  28  29
ATOM     29  C   UNL A   1      36.899  21.164  25.093  1.00  0.00     0.416 C 
ATOM     30  F   UNL A   1      37.879  21.452  25.991  1.00  0.00    -0.166 F 
ATOM     31  F   UNL A   1      36.906  19.810  24.945  1.00  0.00    -0.166 F 
ATOM     32  F   UNL A   1      37.330  21.659  23.896  1.00  0.00    -0.166 F 
ENDBRANCH  28  29
ENDBRANCH  21  23
ENDBRANCH  17  19
ENDBRANCH   7  17
ENDBRANCH   3   6
ENDBRANCH   1   2
BRANCH   1  33
ATOM     33  C   UNL A   1      31.309  30.530  25.891  1.00  0.00     0.023 C 
BRANCH  33  34
ATOM     34  C   UNL A   1      31.346  32.021  26.234  1.00  0.00     0.023 C 
BRANCH  34  35
ATOM     35  C   UNL A   1      32.524  32.405  27.122  1.00  0.00     0.116 C 
BRANCH  35  36
ATOM     36  N   UNL A   1      32.483  33.793  27.558  1.00  0.00    -0.352 N 
ATOM     37  C   UNL A   1      33.341  34.428  28.424  1.00  0.00     0.251 C 
ATOM     38  H   UNL A   1      31.754  34.342  27.188  1.00  0.00     0.163 HD
ATOM     39  O   UNL A   1      33.128  35.578  28.790  1.00  0.00    -0.269 OA
BRANCH  37  40
ATOM     40  C   UNL A   1      34.508  33.687  28.948  1.00  0.00     0.039 A 
ATOM     41  C   UNL A   1      35.792  34.141  28.642  1.00  0.00     0.014 A 
ATOM     42  C   UNL A   1      34.330  32.568  29.764  1.00  0.00     0.014 A 
ATOM     43  C   UNL A   1      36.900  33.505  29.207  1.00  0.00     0.010 A 
ATOM     44  C   UNL A   1      35.428  31.967  30.369  1.00  0.00     0.010 A 
ATOM     45  C   UNL A   1      36.721  32.431  30.094  1.00  0.00    -0.014 A 
BRANCH  45  46
ATOM     46  C   UNL A   1      37.879  31.772  30.743  1.00  0.00     0.031 A 
ATOM     47  C   UNL A   1      38.305  32.190  32.120  1.00  0.00     0.074 A 
ATOM     48  C   UNL A   1      38.585  30.853  30.059  1.00  0.00     0.049 A 
ATOM     49  N   UNL A   1      39.309  31.760  32.842  1.00  0.00    -0.248 NA
ATOM     50  C   UNL A   1      37.516  33.255  32.760  1.00  0.00     0.031 C 
ATOM     51  C   UNL A   1      38.312  30.424  28.686  1.00  0.00     0.029 A 
ATOM     52  N   UNL A   1      39.688  30.122  30.423  1.00  0.00    -0.354 N 
ATOM     53  C   UNL A   1      39.270  32.499  34.016  1.00  0.00     0.074 A 
ATOM     54  C   UNL A   1      38.184  33.444  33.890  1.00  0.00     0.031 C 
ATOM     55  C   UNL A   1      39.219  29.502  28.326  1.00  0.00     0.029 A 
ATOM     56  C   UNL A   1      40.139  29.280  29.437  1.00  0.00     0.049 A 
ATOM     57  H   UNL A   1      40.115  30.196  31.307  1.00  0.00     0.167 HD
ATOM     58  C   UNL A   1      40.055  32.378  35.114  1.00  0.00     0.037 A 
ATOM     59  C   UNL A   1      41.174  28.419  29.440  1.00  0.00     0.037 A 
ATOM     60  C   UNL A   1      41.130  31.429  35.240  1.00  0.00     0.049 A 
ATOM     61  C   UNL A   1      41.990  28.262  30.693  1.00  0.00     0.074 A 
ATOM     62  C   UNL A   1      41.978  31.217  36.313  1.00  0.00     0.029 A 
ATOM     63  N   UNL A   1      41.496  30.526  34.254  1.00  0.00    -0.354 N 
ATOM     64  N   UNL A   1      41.903  28.917  31.824  1.00  0.00    -0.248 NA
ATOM     65  C   UNL A   1      43.030  27.223  30.680  1.00  0.00     0.031 C 
ATOM     66  C   UNL A   1      42.868  30.192  35.970  1.00  0.00     0.029 A 
ATOM     67  C   UNL A   1      42.551  29.746  34.697  1.00  0.00     0.049 A 
ATOM     68  H   UNL A   1      41.070  30.451  33.370  1.00  0.00     0.167 HD
ATOM     69  C   UNL A   1      42.848  28.350  32.667  1.00  0.00     0.074 A 
ATOM     70  C   UNL A   1      43.490  27.289  31.921  1.00  0.00     0.031 C 
ATOM     71  C   UNL A   1      43.157  28.678  33.945  1.00  0.00     0.037 A 
BRANCH  58  72
ATOM     72  C   UNL A   1      39.757  33.281  36.274  1.00  0.00     0.064 A 
ATOM     73  C   UNL A   1      40.348  34.551  36.374  1.00  0.00     0.173 A 
ATOM     74  C   UNL A   1      38.860  32.892  37.278  1.00  0.00     0.173 A 
ATOM     75  F   UNL A   1      41.225  34.962  35.445  1.00  0.00    -0.203 F 
ATOM     76  C   UNL A   1      40.068  35.388  37.450  1.00  0.00     0.198 A 
ATOM     77  C   UNL A   1      38.563  33.743  38.340  1.00  0.00     0.198 A 
ATOM     78  F   UNL A   1      38.267  31.690  37.229  1.00  0.00    -0.203 F 
ATOM     79  F   UNL A   1      40.678  36.577  37.546  1.00  0.00    -0.200 F 
ATOM     80  C   UNL A   1      39.172  34.986  38.429  1.00  0.00     0.200 A 
ATOM     81  F   UNL A   1      37.690  33.359  39.281  1.00  0.00    -0.200 F 
ATOM     82  F   UNL A   1      38.900  35.796  39.462  1.00  0.00    -0.200 F 
ENDBRANCH  58  72
BRANCH  59  83
ATOM     83  C   UNL A   1      41.458  27.597  28.237  1.00  0.00     0.064 A 
ATOM     84  C   UNL A   1      40.849  26.347  28.061  1.00  0.00     0.173 A 
ATOM     85  C   UNL A   1      42.345  28.039  27.247  1.00  0.00     0.173 A 
ATOM     86  F   UNL A   1      40.006  25.877  28.991  1.00  0.00    -0.203 F 
ATOM     87  C   UNL A   1      41.138  25.556  26.952  1.00  0.00     0.198 A 
ATOM     88  C   UNL A   1      42.617  27.256  26.125  1.00  0.00     0.198 A 
ATOM     89  F   UNL A   1      42.945  29.232  27.364  1.00  0.00    -0.203 F 
ATOM     90  F   UNL A   1      40.577  24.345  26.831  1.00  0.00    -0.200 F 
ATOM     91  C   UNL A   1      42.019  26.012  25.983  1.00  0.00     0.200 A 
ATOM     92  F   UNL A   1      43.459  27.706  25.185  1.00  0.00    -0.200 F 
ATOM     93  F   UNL A   1      42.299  25.251  24.917  1.00  0.00    -0.200 F 
ENDBRANCH  59  83
BRANCH  71  94
ATOM     94  C   UNL A   1      44.198  27.847  34.630  1.00  0.00     0.064 A 
ATOM     95  C   UNL A   1      43.864  26.681  35.332  1.00  0.00     0.173 A 
ATOM     96  C   UNL A   1      45.551  28.214  34.565  1.00  0.00     0.173 A 
ATOM     97  F   UNL A   1      42.582  26.299  35.434  1.00  0.00    -0.203 F 
ATOM     98  C   UNL A   1      44.845  25.925  35.968  1.00  0.00     0.198 A 
ATOM     99  C   UNL A   1      46.531  27.444  35.182  1.00  0.00     0.198 A 
ATOM    100  F   UNL A   1      45.920  29.320  33.902  1.00  0.00    -0.203 F 
ATOM    101  F   UNL A   1      44.498  24.838  36.673  1.00  0.00    -0.200 F 
ATOM    102  C   UNL A   1      46.176  26.304  35.890  1.00  0.00     0.200 A 
ATOM    103  F   UNL A   1      47.817  27.807  35.099  1.00  0.00    -0.200 F 
ATOM    104  F   UNL A   1      47.118  25.576  36.504  1.00  0.00    -0.200 F 
ENDBRANCH  71  94
ENDBRANCH  45  46
ENDBRANCH  37  40
ENDBRANCH  35  36
ENDBRANCH  34  35
ENDBRANCH  33  34
ENDBRANCH   1  33
TORSDOF 15
ENDMDL
