MODEL 1
REMARK VINA RESULT:     -12.2      0.000      0.000
REMARK SMILES COc1cc(C[N@@H+]2CCO[C@@H](CC(=O)NCCCCNC(=O)c3ccc(-c4c5nc(c(-c6c(F)c(F)c(F)c(F)c6F)c6ccc([nH]6)c(-c6c(F)c(F)c(F)c(F)c6F)c6nc(c(-c7c(F)c(F)c(F)c(F)c7F)c7ccc4[nH]7)C=C6)C=C5)cc3)C2)ccc1O
REMARK SMILES IDX 16 1 15 2 13 3 14 4 12 6 11 7 7 8 8 9 86 10 9 12 10 13 6 14
REMARK SMILES IDX 5 15 3 16 4 17 89 18 88 19 87 20 2 21 1 22 90 23 17 25 18 26
REMARK SMILES IDX 19 27 20 28 21 29 22 31 23 32 24 33 85 34 25 35 84 36 26 37
REMARK SMILES IDX 27 38 28 39 78 40 29 41 83 42 77 43 79 44 30 45 82 46 76 47
REMARK SMILES IDX 75 48 31 50 63 51 43 52 62 53 44 54 47 55 61 56 80 57 45 58
REMARK SMILES IDX 46 59 60 61 81 62 48 63 32 64 33 65 41 66 34 67 35 68 39 69
REMARK SMILES IDX 42 70 36 71 37 72 40 73 38 74 64 75 65 76 73 77 66 78 67 79
REMARK SMILES IDX 71 80 74 81 68 82 69 83 72 84 70 85 49 86 50 87 58 88 51 89
REMARK SMILES IDX 52 90 56 91 59 92 53 93 54 94 57 95 55 96
REMARK H PARENT 15 5 7 11 90 24 20 30 79 49 47 60
REMARK Flexibility Score: inf
ROOT
ATOM      1  C   UNL A   1      33.514  30.150  26.648  1.00  0.00     0.116 C 
ENDROOT
BRANCH   1   2
ATOM      2  N   UNL A   1      33.722  29.473  25.380  1.00  0.00    -0.356 N 
ATOM      3  C   UNL A   1      33.742  28.137  25.092  1.00  0.00     0.222 C 
ATOM      4  O   UNL A   1      34.024  27.797  23.942  1.00  0.00    -0.275 OA
ATOM      5  H   UNL A   1      33.871  30.068  24.610  1.00  0.00     0.163 HD
BRANCH   3   6
ATOM      6  C   UNL A   1      33.459  27.107  26.169  1.00  0.00     0.138 C 
BRANCH   6   7
ATOM      7  C   UNL A   1      32.435  26.051  25.737  1.00  0.00     0.182 C 
ATOM      8  N   UNL A   1      31.922  23.540  25.944  1.00  0.00    -0.327 N 
ATOM      9  C   UNL A   1      30.566  23.946  26.313  1.00  0.00     0.291 C 
ATOM     10  C   UNL A   1      32.869  24.635  26.152  1.00  0.00     0.295 C 
ATOM     11  H   UNL A   1      32.151  22.796  26.602  1.00  0.00     0.348 HD
ATOM     12  C   UNL A   1      30.180  25.397  25.962  1.00  0.00     0.222 C 
ATOM     13  O   UNL A   1      31.175  26.351  26.367  1.00  0.00    -0.366 OA
BRANCH   8  14
ATOM     14  C   UNL A   1      32.100  22.795  24.696  1.00  0.00     0.299 C 
BRANCH  14  15
ATOM     15  C   UNL A   1      32.923  21.535  24.805  1.00  0.00     0.010 A 
ATOM     16  C   UNL A   1      33.124  19.153  24.491  1.00  0.00     0.160 A 
ATOM     17  C   UNL A   1      32.326  20.287  24.591  1.00  0.00     0.060 A 
ATOM     18  C   UNL A   1      34.503  19.238  24.688  1.00  0.00     0.157 A 
ATOM     19  C   UNL A   1      35.104  20.459  24.949  1.00  0.00     0.051 A 
ATOM     20  C   UNL A   1      34.315  21.606  25.018  1.00  0.00     0.013 A 
BRANCH  16  21
ATOM     21  O   UNL A   1      32.535  17.953  24.203  1.00  0.00    -0.493 OA
ATOM     22  C   UNL A   1      32.302  17.827  22.796  1.00  0.00     0.278 C 
ENDBRANCH  16  21
BRANCH  18  23
ATOM     23  O   UNL A   1      35.291  18.125  24.621  1.00  0.00    -0.504 OA
ATOM     24  H   UNL A   1      34.939  17.322  24.292  1.00  0.00     0.293 HD
ENDBRANCH  18  23
ENDBRANCH  14  15
ENDBRANCH   8  14
ENDBRANCH   6   7
ENDBRANCH   3   6
ENDBRANCH   1   2
BRANCH   1  25
ATOM     25  C   UNL A   1      32.039  30.514  26.863  1.00  0.00     0.023 C 
BRANCH  25  26
ATOM     26  C   UNL A   1      31.718  31.995  26.861  1.00  0.00     0.023 C 
BRANCH  26  27
ATOM     27  C   UNL A   1      32.871  32.873  27.292  1.00  0.00     0.116 C 
BRANCH  27  28
ATOM     28  N   UNL A   1      32.474  34.224  27.674  1.00  0.00    -0.352 N 
ATOM     29  C   UNL A   1      33.014  35.016  28.660  1.00  0.00     0.251 C 
ATOM     30  H   UNL A   1      31.728  34.615  27.165  1.00  0.00     0.163 HD
ATOM     31  O   UNL A   1      32.530  36.109  28.934  1.00  0.00    -0.269 OA
BRANCH  29  32
ATOM     32  C   UNL A   1      34.164  34.491  29.418  1.00  0.00     0.039 A 
ATOM     33  C   UNL A   1      33.929  33.746  30.574  1.00  0.00     0.014 A 
ATOM     34  C   UNL A   1      35.453  34.632  28.903  1.00  0.00     0.014 A 
ATOM     35  C   UNL A   1      34.991  33.067  31.170  1.00  0.00     0.010 A 
ATOM     36  C   UNL A   1      36.480  33.865  29.427  1.00  0.00     0.010 A 
ATOM     37  C   UNL A   1      36.263  33.086  30.574  1.00  0.00    -0.014 A 
BRANCH  37  38
ATOM     38  C   UNL A   1      37.399  32.329  31.146  1.00  0.00     0.031 A 
ATOM     39  C   UNL A   1      37.891  32.675  32.523  1.00  0.00     0.074 A 
ATOM     40  C   UNL A   1      38.036  31.404  30.403  1.00  0.00     0.049 A 
ATOM     41  N   UNL A   1      38.932  32.218  33.172  1.00  0.00    -0.248 NA
ATOM     42  C   UNL A   1      37.138  33.709  33.253  1.00  0.00     0.031 C 
ATOM     43  C   UNL A   1      37.692  31.034  29.029  1.00  0.00     0.029 A 
ATOM     44  N   UNL A   1      39.116  30.612  30.699  1.00  0.00    -0.354 N 
ATOM     45  C   UNL A   1      38.970  32.930  34.363  1.00  0.00     0.074 A 
ATOM     46  C   UNL A   1      37.894  33.894  34.322  1.00  0.00     0.031 C 
ATOM     47  C   UNL A   1      38.525  30.066  28.612  1.00  0.00     0.029 A 
ATOM     48  C   UNL A   1      39.480  29.771  29.676  1.00  0.00     0.049 A 
ATOM     49  H   UNL A   1      39.586  30.643  31.563  1.00  0.00     0.167 HD
ATOM     50  C   UNL A   1      39.809  32.770  35.413  1.00  0.00     0.037 A 
ATOM     51  C   UNL A   1      40.474  28.866  29.610  1.00  0.00     0.037 A 
ATOM     52  C   UNL A   1      40.840  31.771  35.469  1.00  0.00     0.049 A 
ATOM     53  C   UNL A   1      41.366  28.677  30.807  1.00  0.00     0.074 A 
ATOM     54  C   UNL A   1      41.694  31.468  36.513  1.00  0.00     0.029 A 
ATOM     55  N   UNL A   1      41.148  30.903  34.431  1.00  0.00    -0.354 N 
ATOM     56  N   UNL A   1      41.350  29.306  31.958  1.00  0.00    -0.248 NA
ATOM     57  C   UNL A   1      42.410  27.649  30.699  1.00  0.00     0.031 C 
ATOM     58  C   UNL A   1      42.541  30.437  36.095  1.00  0.00     0.029 A 
ATOM     59  C   UNL A   1      42.187  30.070  34.806  1.00  0.00     0.049 A 
ATOM     60  H   UNL A   1      40.693  30.881  33.558  1.00  0.00     0.167 HD
ATOM     61  C   UNL A   1      42.360  28.733  32.719  1.00  0.00     0.074 A 
ATOM     62  C   UNL A   1      42.959  27.696  31.905  1.00  0.00     0.031 C 
ATOM     63  C   UNL A   1      42.756  29.038  33.980  1.00  0.00     0.037 A 
BRANCH  50  64
ATOM     64  C   UNL A   1      39.627  33.686  36.587  1.00  0.00     0.064 A 
ATOM     65  C   UNL A   1      38.813  33.333  37.676  1.00  0.00     0.173 A 
ATOM     66  C   UNL A   1      40.280  34.926  36.631  1.00  0.00     0.173 A 
ATOM     67  F   UNL A   1      38.152  32.166  37.674  1.00  0.00    -0.203 F 
ATOM     68  C   UNL A   1      38.634  34.203  38.748  1.00  0.00     0.198 A 
ATOM     69  C   UNL A   1      40.124  35.780  37.720  1.00  0.00     0.198 A 
ATOM     70  F   UNL A   1      41.069  35.312  35.617  1.00  0.00    -0.203 F 
ATOM     71  F   UNL A   1      37.805  33.869  39.746  1.00  0.00    -0.200 F 
ATOM     72  C   UNL A   1      39.294  35.421  38.773  1.00  0.00     0.200 A 
ATOM     73  F   UNL A   1      40.769  36.954  37.748  1.00  0.00    -0.200 F 
ATOM     74  F   UNL A   1      39.122  36.257  39.807  1.00  0.00    -0.200 F 
ENDBRANCH  50  64
BRANCH  51  75
ATOM     75  C   UNL A   1      40.650  28.040  28.388  1.00  0.00     0.064 A 
ATOM     76  C   UNL A   1      40.039  26.783  28.279  1.00  0.00     0.173 A 
ATOM     77  C   UNL A   1      41.425  28.484  27.307  1.00  0.00     0.173 A 
ATOM     78  F   UNL A   1      39.302  26.308  29.295  1.00  0.00    -0.203 F 
ATOM     79  C   UNL A   1      40.213  25.992  27.146  1.00  0.00     0.198 A 
ATOM     80  C   UNL A   1      41.578  27.703  26.163  1.00  0.00     0.198 A 
ATOM     81  F   UNL A   1      42.025  29.682  27.358  1.00  0.00    -0.203 F 
ATOM     82  F   UNL A   1      39.651  24.777  27.086  1.00  0.00    -0.200 F 
ATOM     83  C   UNL A   1      40.979  26.455  26.086  1.00  0.00     0.200 A 
ATOM     84  F   UNL A   1      42.308  28.159  25.136  1.00  0.00    -0.200 F 
ATOM     85  F   UNL A   1      41.144  25.695  24.995  1.00  0.00    -0.200 F 
ENDBRANCH  51  75
BRANCH  63  86
ATOM     86  C   UNL A   1      43.867  28.218  34.565  1.00  0.00     0.064 A 
ATOM     87  C   UNL A   1      45.208  28.607  34.442  1.00  0.00     0.173 A 
ATOM     88  C   UNL A   1      43.579  27.058  35.300  1.00  0.00     0.173 A 
ATOM     89  F   UNL A   1      45.532  29.700  33.737  1.00  0.00    -0.203 F 
ATOM     90  C   UNL A   1      46.225  27.851  35.016  1.00  0.00     0.198 A 
ATOM     91  C   UNL A   1      44.596  26.320  35.896  1.00  0.00     0.198 A 
ATOM     92  F   UNL A   1      42.309  26.650  35.450  1.00  0.00    -0.203 F 
ATOM     93  F   UNL A   1      47.504  28.216  34.853  1.00  0.00    -0.200 F 
ATOM     94  C   UNL A   1      45.918  26.712  35.749  1.00  0.00     0.200 A 
ATOM     95  F   UNL A   1      44.297  25.228  36.614  1.00  0.00    -0.200 F 
ATOM     96  F   UNL A   1      46.898  25.990  36.309  1.00  0.00    -0.200 F 
ENDBRANCH  63  86
ENDBRANCH  37  38
ENDBRANCH  29  32
ENDBRANCH  27  28
ENDBRANCH  26  27
ENDBRANCH  25  26
ENDBRANCH   1  25
TORSDOF 16
ENDMDL
MODEL 2
REMARK VINA RESULT:     -12.2      0.739      7.456
REMARK SMILES COc1cc(C[N@@H+]2CCO[C@@H](CC(=O)NCCCCNC(=O)c3ccc(-c4c5nc(c(-c6c(F)c(F)c(F)c(F)c6F)c6ccc([nH]6)c(-c6c(F)c(F)c(F)c(F)c6F)c6nc(c(-c7c(F)c(F)c(F)c(F)c7F)c7ccc4[nH]7)C=C6)C=C5)cc3)C2)ccc1O
REMARK SMILES IDX 16 1 15 2 13 3 14 4 12 6 11 7 7 8 8 9 86 10 9 12 10 13 6 14
REMARK SMILES IDX 5 15 3 16 4 17 89 18 88 19 87 20 2 21 1 22 90 23 17 25 18 26
REMARK SMILES IDX 19 27 20 28 21 29 22 31 23 32 24 33 85 34 25 35 84 36 26 37
REMARK SMILES IDX 27 38 28 39 78 40 29 41 83 42 77 43 79 44 30 45 82 46 76 47
REMARK SMILES IDX 75 48 31 50 63 51 43 52 62 53 44 54 47 55 61 56 80 57 45 58
REMARK SMILES IDX 46 59 60 61 81 62 48 63 32 64 33 65 41 66 34 67 35 68 39 69
REMARK SMILES IDX 42 70 36 71 37 72 40 73 38 74 64 75 65 76 73 77 66 78 67 79
REMARK SMILES IDX 71 80 74 81 68 82 69 83 72 84 70 85 49 86 50 87 58 88 51 89
REMARK SMILES IDX 52 90 56 91 59 92 53 93 54 94 57 95 55 96
REMARK H PARENT 15 5 7 11 90 24 20 30 79 49 47 60
REMARK Flexibility Score: inf
ROOT
ATOM      1  C   UNL A   1      33.654  29.952  26.616  1.00  0.00     0.116 C 
ENDROOT
BRANCH   1   2
ATOM      2  N   UNL A   1      33.764  29.267  25.339  1.00  0.00    -0.356 N 
ATOM      3  C   UNL A   1      33.715  27.932  25.053  1.00  0.00     0.222 C 
ATOM      4  O   UNL A   1      33.919  27.582  23.890  1.00  0.00    -0.275 OA
ATOM      5  H   UNL A   1      33.894  29.856  24.561  1.00  0.00     0.163 HD
BRANCH   3   6
ATOM      6  C   UNL A   1      33.453  26.913  26.146  1.00  0.00     0.138 C 
BRANCH   6   7
ATOM      7  C   UNL A   1      32.421  25.853  25.744  1.00  0.00     0.182 C 
ATOM      8  N   UNL A   1      32.000  23.318  25.831  1.00  0.00    -0.327 N 
ATOM      9  C   UNL A   1      30.676  23.654  26.355  1.00  0.00     0.291 C 
ATOM     10  C   UNL A   1      32.932  24.429  26.020  1.00  0.00     0.295 C 
ATOM     11  H   UNL A   1      32.313  22.542  26.414  1.00  0.00     0.348 HD
ATOM     12  C   UNL A   1      30.218  25.109  26.140  1.00  0.00     0.222 C 
ATOM     13  O   UNL A   1      31.221  26.069  26.511  1.00  0.00    -0.366 OA
BRANCH   8  14
ATOM     14  C   UNL A   1      32.075  22.660  24.526  1.00  0.00     0.299 C 
BRANCH  14  15
ATOM     15  C   UNL A   1      32.913  21.407  24.478  1.00  0.00     0.010 A 
ATOM     16  C   UNL A   1      35.043  20.320  24.792  1.00  0.00     0.160 A 
ATOM     17  C   UNL A   1      34.302  21.486  24.634  1.00  0.00     0.060 A 
ATOM     18  C   UNL A   1      34.424  19.072  24.713  1.00  0.00     0.157 A 
ATOM     19  C   UNL A   1      33.056  18.974  24.511  1.00  0.00     0.051 A 
ATOM     20  C   UNL A   1      32.302  20.140  24.384  1.00  0.00     0.013 A 
BRANCH  16  21
ATOM     21  O   UNL A   1      36.388  20.417  25.023  1.00  0.00    -0.493 OA
ATOM     22  C   UNL A   1      36.708  21.665  25.647  1.00  0.00     0.278 C 
ENDBRANCH  16  21
BRANCH  18  23
ATOM     23  O   UNL A   1      35.148  17.921  24.838  1.00  0.00    -0.504 OA
ATOM     24  H   UNL A   1      35.934  17.806  24.343  1.00  0.00     0.293 HD
ENDBRANCH  18  23
ENDBRANCH  14  15
ENDBRANCH   8  14
ENDBRANCH   6   7
ENDBRANCH   3   6
ENDBRANCH   1   2
BRANCH   1  25
ATOM     25  C   UNL A   1      32.206  30.350  26.924  1.00  0.00     0.023 C 
BRANCH  25  26
ATOM     26  C   UNL A   1      31.898  31.832  26.846  1.00  0.00     0.023 C 
BRANCH  26  27
ATOM     27  C   UNL A   1      32.931  32.709  27.517  1.00  0.00     0.116 C 
BRANCH  27  28
ATOM     28  N   UNL A   1      32.495  34.087  27.716  1.00  0.00    -0.352 N 
ATOM     29  C   UNL A   1      33.005  35.016  28.592  1.00  0.00     0.251 C 
ATOM     30  H   UNL A   1      31.744  34.388  27.155  1.00  0.00     0.163 HD
ATOM     31  O   UNL A   1      32.490  36.121  28.717  1.00  0.00    -0.269 OA
BRANCH  29  32
ATOM     32  C   UNL A   1      34.161  34.626  29.419  1.00  0.00     0.039 A 
ATOM     33  C   UNL A   1      33.938  34.126  30.703  1.00  0.00     0.014 A 
ATOM     34  C   UNL A   1      35.442  34.636  28.864  1.00  0.00     0.014 A 
ATOM     35  C   UNL A   1      35.000  33.556  31.403  1.00  0.00     0.010 A 
ATOM     36  C   UNL A   1      36.466  33.965  29.512  1.00  0.00     0.010 A 
ATOM     37  C   UNL A   1      36.259  33.431  30.793  1.00  0.00    -0.014 A 
BRANCH  37  38
ATOM     38  C   UNL A   1      37.394  32.777  31.483  1.00  0.00     0.031 A 
ATOM     39  C   UNL A   1      38.099  31.632  30.812  1.00  0.00     0.074 A 
ATOM     40  C   UNL A   1      37.730  33.151  32.732  1.00  0.00     0.049 A 
ATOM     41  N   UNL A   1      39.040  30.850  31.276  1.00  0.00    -0.248 NA
ATOM     42  C   UNL A   1      37.651  31.288  29.451  1.00  0.00     0.031 C 
ATOM     43  C   UNL A   1      37.073  34.202  33.510  1.00  0.00     0.029 A 
ATOM     44  N   UNL A   1      38.706  32.679  33.572  1.00  0.00    -0.354 N 
ATOM     45  C   UNL A   1      39.270  29.912  30.279  1.00  0.00     0.074 A 
ATOM     46  C   UNL A   1      38.328  30.176  29.215  1.00  0.00     0.031 C 
ATOM     47  C   UNL A   1      37.683  34.316  34.701  1.00  0.00     0.029 A 
ATOM     48  C   UNL A   1      38.752  33.325  34.783  1.00  0.00     0.049 A 
ATOM     49  H   UNL A   1      39.316  31.946  33.330  1.00  0.00     0.167 HD
ATOM     50  C   UNL A   1      40.208  28.938  30.240  1.00  0.00     0.037 A 
ATOM     51  C   UNL A   1      39.568  33.135  35.837  1.00  0.00     0.037 A 
ATOM     52  C   UNL A   1      41.178  28.719  31.276  1.00  0.00     0.049 A 
ATOM     53  C   UNL A   1      40.630  32.073  35.752  1.00  0.00     0.074 A 
ATOM     54  C   UNL A   1      42.223  27.813  31.305  1.00  0.00     0.029 A 
ATOM     55  N   UNL A   1      41.225  29.427  32.469  1.00  0.00    -0.354 N 
ATOM     56  N   UNL A   1      40.887  31.237  34.775  1.00  0.00    -0.248 NA
ATOM     57  C   UNL A   1      41.520  31.933  36.912  1.00  0.00     0.031 C 
ATOM     58  C   UNL A   1      42.883  27.951  32.530  1.00  0.00     0.029 A 
ATOM     59  C   UNL A   1      42.275  28.970  33.247  1.00  0.00     0.049 A 
ATOM     60  H   UNL A   1      40.605  30.147  32.723  1.00  0.00     0.167 HD
ATOM     61  C   UNL A   1      41.983  30.491  35.189  1.00  0.00     0.074 A 
ATOM     62  C   UNL A   1      42.350  30.984  36.501  1.00  0.00     0.031 C 
ATOM     63  C   UNL A   1      42.626  29.488  34.543  1.00  0.00     0.037 A 
BRANCH  50  64
ATOM     64  C   UNL A   1      40.235  28.054  29.028  1.00  0.00     0.064 A 
ATOM     65  C   UNL A   1      39.529  26.841  28.986  1.00  0.00     0.173 A 
ATOM     66  C   UNL A   1      40.966  28.427  27.891  1.00  0.00     0.173 A 
ATOM     67  F   UNL A   1      38.830  26.429  30.054  1.00  0.00    -0.203 F 
ATOM     68  C   UNL A   1      39.583  26.019  27.864  1.00  0.00     0.198 A 
ATOM     69  C   UNL A   1      40.991  27.617  26.758  1.00  0.00     0.198 A 
ATOM     70  F   UNL A   1      41.658  29.576  27.877  1.00  0.00    -0.203 F 
ATOM     71  F   UNL A   1      38.950  24.838  27.871  1.00  0.00    -0.200 F 
ATOM     72  C   UNL A   1      40.307  26.410  26.749  1.00  0.00     0.200 A 
ATOM     73  F   UNL A   1      41.684  28.001  25.677  1.00  0.00    -0.200 F 
ATOM     74  F   UNL A   1      40.356  25.619  25.668  1.00  0.00    -0.200 F 
ENDBRANCH  50  64
BRANCH  51  75
ATOM     75  C   UNL A   1      39.442  33.996  37.041  1.00  0.00     0.064 A 
ATOM     76  C   UNL A   1      40.046  35.259  37.084  1.00  0.00     0.173 A 
ATOM     77  C   UNL A   1      38.719  33.579  38.168  1.00  0.00     0.173 A 
ATOM     78  F   UNL A   1      40.764  35.693  36.037  1.00  0.00    -0.203 F 
ATOM     79  C   UNL A   1      39.951  36.066  38.216  1.00  0.00     0.198 A 
ATOM     80  C   UNL A   1      38.602  34.398  39.290  1.00  0.00     0.198 A 
ATOM     81  F   UNL A   1      38.115  32.382  38.175  1.00  0.00    -0.203 F 
ATOM     82  F   UNL A   1      40.574  37.252  38.246  1.00  0.00    -0.200 F 
ATOM     83  C   UNL A   1      39.225  35.637  39.317  1.00  0.00     0.200 A 
ATOM     84  F   UNL A   1      37.889  33.985  40.347  1.00  0.00    -0.200 F 
ATOM     85  F   UNL A   1      39.131  36.414  40.404  1.00  0.00    -0.200 F 
ENDBRANCH  51  75
BRANCH  63  86
ATOM     86  C   UNL A   1      43.812  28.881  35.231  1.00  0.00     0.064 A 
ATOM     87  C   UNL A   1      43.679  27.781  36.090  1.00  0.00     0.173 A 
ATOM     88  C   UNL A   1      45.102  29.377  34.986  1.00  0.00     0.173 A 
ATOM     89  F   UNL A   1      42.465  27.282  36.363  1.00  0.00    -0.203 F 
ATOM     90  C   UNL A   1      44.794  27.211  36.696  1.00  0.00     0.198 A 
ATOM     91  C   UNL A   1      46.217  28.787  35.574  1.00  0.00     0.198 A 
ATOM     92  F   UNL A   1      45.280  30.425  34.167  1.00  0.00    -0.203 F 
ATOM     93  F   UNL A   1      44.642  26.186  37.546  1.00  0.00    -0.200 F 
ATOM     94  C   UNL A   1      46.063  27.710  36.432  1.00  0.00     0.200 A 
ATOM     95  F   UNL A   1      47.442  29.261  35.307  1.00  0.00    -0.200 F 
ATOM     96  F   UNL A   1      47.135  27.154  37.011  1.00  0.00    -0.200 F 
ENDBRANCH  63  86
ENDBRANCH  37  38
ENDBRANCH  29  32
ENDBRANCH  27  28
ENDBRANCH  26  27
ENDBRANCH  25  26
ENDBRANCH   1  25
TORSDOF 16
ENDMDL
MODEL 3
REMARK VINA RESULT:     -12.1      3.241      5.119
REMARK SMILES COc1cc(C[N@@H+]2CCO[C@@H](CC(=O)NCCCCNC(=O)c3ccc(-c4c5nc(c(-c6c(F)c(F)c(F)c(F)c6F)c6ccc([nH]6)c(-c6c(F)c(F)c(F)c(F)c6F)c6nc(c(-c7c(F)c(F)c(F)c(F)c7F)c7ccc4[nH]7)C=C6)C=C5)cc3)C2)ccc1O
REMARK SMILES IDX 16 1 15 2 13 3 14 4 12 6 11 7 7 8 8 9 86 10 9 12 10 13 6 14
REMARK SMILES IDX 5 15 3 16 4 17 89 18 88 19 87 20 2 21 1 22 90 23 17 25 18 26
REMARK SMILES IDX 19 27 20 28 21 29 22 31 23 32 24 33 85 34 25 35 84 36 26 37
REMARK SMILES IDX 27 38 28 39 78 40 29 41 83 42 77 43 79 44 30 45 82 46 76 47
REMARK SMILES IDX 75 48 31 50 63 51 43 52 62 53 44 54 47 55 61 56 80 57 45 58
REMARK SMILES IDX 46 59 60 61 81 62 48 63 32 64 33 65 41 66 34 67 35 68 39 69
REMARK SMILES IDX 42 70 36 71 37 72 40 73 38 74 64 75 65 76 73 77 66 78 67 79
REMARK SMILES IDX 71 80 74 81 68 82 69 83 72 84 70 85 49 86 50 87 58 88 51 89
REMARK SMILES IDX 52 90 56 91 59 92 53 93 54 94 57 95 55 96
REMARK H PARENT 15 5 7 11 90 24 20 30 79 49 47 60
REMARK Flexibility Score: inf
ROOT
ATOM      1  C   UNL A   1      33.344  32.017  27.622  1.00  0.00     0.116 C 
ENDROOT
BRANCH   1   2
ATOM      2  N   UNL A   1      34.374  31.024  27.373  1.00  0.00    -0.356 N 
ATOM      3  C   UNL A   1      34.276  29.666  27.262  1.00  0.00     0.222 C 
ATOM      4  O   UNL A   1      35.315  29.018  27.131  1.00  0.00    -0.275 OA
ATOM      5  H   UNL A   1      35.284  31.385  27.268  1.00  0.00     0.163 HD
BRANCH   3   6
ATOM      6  C   UNL A   1      32.925  28.978  27.336  1.00  0.00     0.138 C 
BRANCH   6   7
ATOM      7  C   UNL A   1      32.387  28.561  25.962  1.00  0.00     0.182 C 
ATOM      8  N   UNL A   1      31.397  29.546  23.804  1.00  0.00    -0.327 N 
ATOM      9  C   UNL A   1      32.370  28.716  23.094  1.00  0.00     0.291 C 
ATOM     10  C   UNL A   1      31.808  29.758  25.191  1.00  0.00     0.295 C 
ATOM     11  H   UNL A   1      31.433  30.445  23.323  1.00  0.00     0.348 HD
ATOM     12  C   UNL A   1      33.000  27.571  23.911  1.00  0.00     0.222 C 
ATOM     13  O   UNL A   1      33.473  28.001  25.198  1.00  0.00    -0.366 OA
BRANCH   8  14
ATOM     14  C   UNL A   1      29.976  29.251  23.616  1.00  0.00     0.299 C 
BRANCH  14  15
ATOM     15  C   UNL A   1      29.188  30.302  22.874  1.00  0.00     0.010 A 
ATOM     16  C   UNL A   1      28.574  32.616  22.582  1.00  0.00     0.160 A 
ATOM     17  C   UNL A   1      29.126  31.611  23.368  1.00  0.00     0.060 A 
ATOM     18  C   UNL A   1      28.005  32.315  21.344  1.00  0.00     0.157 A 
ATOM     19  C   UNL A   1      28.015  31.016  20.861  1.00  0.00     0.051 A 
ATOM     20  C   UNL A   1      28.596  30.008  21.629  1.00  0.00     0.013 A 
BRANCH  16  21
ATOM     21  O   UNL A   1      28.593  33.903  23.045  1.00  0.00    -0.493 OA
ATOM     22  C   UNL A   1      29.885  34.237  23.564  1.00  0.00     0.278 C 
ENDBRANCH  16  21
BRANCH  18  23
ATOM     23  O   UNL A   1      27.435  33.290  20.579  1.00  0.00    -0.504 OA
ATOM     24  H   UNL A   1      27.026  33.068  19.766  1.00  0.00     0.293 HD
ENDBRANCH  18  23
ENDBRANCH  14  15
ENDBRANCH   8  14
ENDBRANCH   6   7
ENDBRANCH   3   6
ENDBRANCH   1   2
BRANCH   1  25
ATOM     25  C   UNL A   1      33.945  33.384  27.974  1.00  0.00     0.023 C 
BRANCH  25  26
ATOM     26  C   UNL A   1      33.675  33.881  29.380  1.00  0.00     0.023 C 
BRANCH  26  27
ATOM     27  C   UNL A   1      33.662  35.388  29.506  1.00  0.00     0.116 C 
BRANCH  27  28
ATOM     28  N   UNL A   1      32.690  35.891  30.470  1.00  0.00    -0.352 N 
ATOM     29  C   UNL A   1      32.713  35.761  31.838  1.00  0.00     0.251 C 
ATOM     30  H   UNL A   1      31.924  36.383  30.095  1.00  0.00     0.163 HD
ATOM     31  O   UNL A   1      31.785  36.164  32.531  1.00  0.00    -0.269 OA
BRANCH  29  32
ATOM     32  C   UNL A   1      33.865  35.073  32.450  1.00  0.00     0.039 A 
ATOM     33  C   UNL A   1      33.707  33.764  32.906  1.00  0.00     0.014 A 
ATOM     34  C   UNL A   1      35.119  35.686  32.442  1.00  0.00     0.014 A 
ATOM     35  C   UNL A   1      34.836  33.037  33.282  1.00  0.00     0.010 A 
ATOM     36  C   UNL A   1      36.246  34.926  32.703  1.00  0.00     0.010 A 
ATOM     37  C   UNL A   1      36.116  33.598  33.139  1.00  0.00    -0.014 A 
BRANCH  37  38
ATOM     38  C   UNL A   1      37.340  32.834  33.471  1.00  0.00     0.031 A 
ATOM     39  C   UNL A   1      38.056  33.123  34.760  1.00  0.00     0.074 A 
ATOM     40  C   UNL A   1      37.848  31.956  32.586  1.00  0.00     0.049 A 
ATOM     41  N   UNL A   1      39.196  32.654  35.199  1.00  0.00    -0.248 NA
ATOM     42  C   UNL A   1      37.429  34.109  35.657  1.00  0.00     0.031 C 
ATOM     43  C   UNL A   1      37.278  31.646  31.274  1.00  0.00     0.029 A 
ATOM     44  N   UNL A   1      38.970  31.170  32.654  1.00  0.00    -0.354 N 
ATOM     45  C   UNL A   1      39.431  33.310  36.400  1.00  0.00     0.074 A 
ATOM     46  C   UNL A   1      38.355  34.256  36.590  1.00  0.00     0.031 C 
ATOM     47  C   UNL A   1      38.036  30.713  30.674  1.00  0.00     0.029 A 
ATOM     48  C   UNL A   1      39.161  30.385  31.544  1.00  0.00     0.049 A 
ATOM     49  H   UNL A   1      39.580  31.168  33.427  1.00  0.00     0.167 HD
ATOM     50  C   UNL A   1      40.438  33.115  37.283  1.00  0.00     0.037 A 
ATOM     51  C   UNL A   1      40.138  29.500  31.266  1.00  0.00     0.037 A 
ATOM     52  C   UNL A   1      41.471  32.132  37.113  1.00  0.00     0.049 A 
ATOM     53  C   UNL A   1      41.223  29.271  32.283  1.00  0.00     0.074 A 
ATOM     54  C   UNL A   1      42.494  31.795  37.981  1.00  0.00     0.029 A 
ATOM     55  N   UNL A   1      41.606  31.319  35.997  1.00  0.00    -0.354 N 
ATOM     56  N   UNL A   1      41.397  29.844  33.450  1.00  0.00    -0.248 NA
ATOM     57  C   UNL A   1      42.241  28.267  31.949  1.00  0.00     0.031 C 
ATOM     58  C   UNL A   1      43.266  30.799  37.375  1.00  0.00     0.029 A 
ATOM     59  C   UNL A   1      42.701  30.487  36.149  1.00  0.00     0.049 A 
ATOM     60  H   UNL A   1      41.009  31.331  35.214  1.00  0.00     0.167 HD
ATOM     61  C   UNL A   1      42.527  29.253  33.999  1.00  0.00     0.074 A 
ATOM     62  C   UNL A   1      42.988  28.266  33.044  1.00  0.00     0.031 C 
ATOM     63  C   UNL A   1      43.130  29.505  35.188  1.00  0.00     0.037 A 
BRANCH  50  64
ATOM     64  C   UNL A   1      40.450  33.971  38.514  1.00  0.00     0.064 A 
ATOM     65  C   UNL A   1      39.752  33.600  39.675  1.00  0.00     0.173 A 
ATOM     66  C   UNL A   1      41.176  35.171  38.541  1.00  0.00     0.173 A 
ATOM     67  F   UNL A   1      39.027  32.471  39.696  1.00  0.00    -0.203 F 
ATOM     68  C   UNL A   1      39.753  34.416  40.803  1.00  0.00     0.198 A 
ATOM     69  C   UNL A   1      41.201  35.968  39.682  1.00  0.00     0.198 A 
ATOM     70  F   UNL A   1      41.861  35.572  37.459  1.00  0.00    -0.203 F 
ATOM     71  F   UNL A   1      39.030  34.071  41.877  1.00  0.00    -0.200 F 
ATOM     72  C   UNL A   1      40.482  35.595  40.809  1.00  0.00     0.200 A 
ATOM     73  F   UNL A   1      41.913  37.103  39.690  1.00  0.00    -0.200 F 
ATOM     74  F   UNL A   1      40.484  36.379  41.896  1.00  0.00    -0.200 F 
ENDBRANCH  50  64
BRANCH  51  75
ATOM     75  C   UNL A   1      40.110  28.736  29.992  1.00  0.00     0.064 A 
ATOM     76  C   UNL A   1      39.495  27.479  29.926  1.00  0.00     0.173 A 
ATOM     77  C   UNL A   1      40.691  29.241  28.820  1.00  0.00     0.173 A 
ATOM     78  F   UNL A   1      38.941  26.946  31.026  1.00  0.00    -0.203 F 
ATOM     79  C   UNL A   1      39.480  26.745  28.741  1.00  0.00     0.198 A 
ATOM     80  C   UNL A   1      40.653  28.518  27.630  1.00  0.00     0.198 A 
ATOM     81  F   UNL A   1      41.285  30.444  28.830  1.00  0.00    -0.203 F 
ATOM     82  F   UNL A   1      38.922  25.527  28.717  1.00  0.00    -0.200 F 
ATOM     83  C   UNL A   1      40.055  27.267  27.593  1.00  0.00     0.200 A 
ATOM     84  F   UNL A   1      41.198  29.032  26.519  1.00  0.00    -0.200 F 
ATOM     85  F   UNL A   1      40.038  26.563  26.453  1.00  0.00    -0.200 F 
ENDBRANCH  51  75
BRANCH  63  86
ATOM     86  C   UNL A   1      44.332  28.678  35.534  1.00  0.00     0.064 A 
ATOM     87  C   UNL A   1      45.627  29.084  35.185  1.00  0.00     0.173 A 
ATOM     88  C   UNL A   1      44.185  27.491  36.268  1.00  0.00     0.173 A 
ATOM     89  F   UNL A   1      45.814  30.204  34.472  1.00  0.00    -0.203 F 
ATOM     90  C   UNL A   1      46.733  28.319  35.541  1.00  0.00     0.198 A 
ATOM     91  C   UNL A   1      45.296  26.744  36.645  1.00  0.00     0.198 A 
ATOM     92  F   UNL A   1      42.965  27.065  36.630  1.00  0.00    -0.203 F 
ATOM     93  F   UNL A   1      47.961  28.703  35.162  1.00  0.00    -0.200 F 
ATOM     94  C   UNL A   1      46.568  27.154  36.277  1.00  0.00     0.200 A 
ATOM     95  F   UNL A   1      45.136  25.626  37.368  1.00  0.00    -0.200 F 
ATOM     96  F   UNL A   1      47.637  26.424  36.626  1.00  0.00    -0.200 F 
ENDBRANCH  63  86
ENDBRANCH  37  38
ENDBRANCH  29  32
ENDBRANCH  27  28
ENDBRANCH  26  27
ENDBRANCH  25  26
ENDBRANCH   1  25
TORSDOF 16
ENDMDL
