MODEL 1
REMARK VINA RESULT:     -12.7      0.000      0.000
REMARK SMILES O=C(NCCCCNC(=O)[C@@H]1CCN(C(=O)c2c(F)cc(Br)cc2F)C1)c1ccc(-c2c3nc(c(-c4c(F)c(F)c(F)c(F)c4F)c4ccc([nH]4)c(-c4c(F)c(F)c(F)c(F)c4F)c4nc(c(-c5c(F)c(F)c(F)c(F)c5F)c5ccc2[nH]5)C=C4)C=C3)cc1
REMARK SMILES IDX 5 1 4 2 3 3 1 4 2 5 27 7 28 8 89 9 29 10 88 11 30 12 31 13
REMARK SMILES IDX 32 14 82 15 33 16 87 17 81 18 83 19 34 20 86 21 80 22 79 23
REMARK SMILES IDX 35 25 67 26 47 27 66 28 48 29 51 30 65 31 84 32 49 33 50 34
REMARK SMILES IDX 64 36 85 37 52 38 36 39 37 40 45 41 38 42 39 43 43 44 46 45
REMARK SMILES IDX 40 46 41 47 44 48 42 49 68 50 69 51 77 52 70 53 71 54 75 55
REMARK SMILES IDX 78 56 72 57 73 58 76 59 74 60 53 61 54 62 62 63 55 64 56 65
REMARK SMILES IDX 60 66 63 67 57 68 58 69 61 70 59 71 6 72 7 73 8 74 9 75
REMARK SMILES IDX 10 77 11 78 12 79 26 80 13 81 14 82 15 83 16 84 17 85 18 86
REMARK SMILES IDX 24 87 19 88 20 89 23 90 25 91 21 92 22 93
REMARK H PARENT 3 6 83 24 51 35 8 76
REMARK Flexibility Score: inf
ROOT
ATOM      1  C   UNL A   1      31.532  31.782  26.501  1.00  0.00     0.023 C 
ENDROOT
BRANCH   1   2
ATOM      2  C   UNL A   1      32.660  32.458  27.266  1.00  0.00     0.116 C 
BRANCH   2   3
ATOM      3  N   UNL A   1      32.374  33.847  27.598  1.00  0.00    -0.352 N 
ATOM      4  O   UNL A   1      32.528  35.781  28.751  1.00  0.00    -0.269 OA
ATOM      5  C   UNL A   1      32.985  34.667  28.517  1.00  0.00     0.251 C 
ATOM      6  H   UNL A   1      31.638  34.259  27.090  1.00  0.00     0.163 HD
BRANCH   5   7
ATOM      7  C   UNL A   1      34.173  34.184  29.253  1.00  0.00     0.039 A 
ATOM      8  C   UNL A   1      35.459  34.468  28.794  1.00  0.00     0.014 A 
ATOM      9  C   UNL A   1      33.993  33.406  30.402  1.00  0.00     0.014 A 
ATOM     10  C   UNL A   1      36.549  33.827  29.365  1.00  0.00     0.010 A 
ATOM     11  C   UNL A   1      35.102  32.840  31.036  1.00  0.00     0.010 A 
ATOM     12  C   UNL A   1      36.385  33.004  30.492  1.00  0.00    -0.014 A 
BRANCH  12  13
ATOM     13  C   UNL A   1      37.578  32.342  31.079  1.00  0.00     0.031 A 
ATOM     14  C   UNL A   1      38.031  32.654  32.480  1.00  0.00     0.074 A 
ATOM     15  C   UNL A   1      38.221  31.406  30.355  1.00  0.00     0.049 A 
ATOM     16  N   UNL A   1      39.010  32.122  33.168  1.00  0.00    -0.248 NA
ATOM     17  C   UNL A   1      37.296  33.704  33.202  1.00  0.00     0.031 C 
ATOM     18  C   UNL A   1      37.884  31.027  28.982  1.00  0.00     0.029 A 
ATOM     19  N   UNL A   1      39.268  30.581  30.680  1.00  0.00    -0.354 N 
ATOM     20  C   UNL A   1      39.029  32.788  34.386  1.00  0.00     0.074 A 
ATOM     21  C   UNL A   1      37.975  33.780  34.339  1.00  0.00     0.031 C 
ATOM     22  C   UNL A   1      38.662  30.003  28.604  1.00  0.00     0.029 A 
ATOM     23  C   UNL A   1      39.590  29.691  29.686  1.00  0.00     0.049 A 
ATOM     24  H   UNL A   1      39.741  30.622  31.543  1.00  0.00     0.167 HD
ATOM     25  C   UNL A   1      39.846  32.586  35.448  1.00  0.00     0.037 A 
ATOM     26  C   UNL A   1      40.530  28.730  29.647  1.00  0.00     0.037 A 
ATOM     27  C   UNL A   1      40.869  31.574  35.506  1.00  0.00     0.049 A 
ATOM     28  C   UNL A   1      41.410  28.518  30.845  1.00  0.00     0.074 A 
ATOM     29  C   UNL A   1      41.718  31.263  36.555  1.00  0.00     0.029 A 
ATOM     30  N   UNL A   1      41.181  30.707  34.470  1.00  0.00    -0.354 N 
ATOM     31  N   UNL A   1      41.394  29.134  32.001  1.00  0.00    -0.248 NA
ATOM     32  C   UNL A   1      42.440  27.478  30.730  1.00  0.00     0.031 C 
ATOM     33  C   UNL A   1      42.569  30.232  36.140  1.00  0.00     0.029 A 
ATOM     34  C   UNL A   1      42.220  29.871  34.848  1.00  0.00     0.049 A 
ATOM     35  H   UNL A   1      40.731  30.687  33.595  1.00  0.00     0.167 HD
ATOM     36  C   UNL A   1      42.395  28.546  32.758  1.00  0.00     0.074 A 
ATOM     37  C   UNL A   1      42.987  27.510  31.937  1.00  0.00     0.031 C 
ATOM     38  C   UNL A   1      42.792  28.842  34.020  1.00  0.00     0.037 A 
BRANCH  25  39
ATOM     39  C   UNL A   1      39.680  33.487  36.637  1.00  0.00     0.064 A 
ATOM     40  C   UNL A   1      40.332  34.726  36.724  1.00  0.00     0.173 A 
ATOM     41  C   UNL A   1      38.817  33.125  37.684  1.00  0.00     0.173 A 
ATOM     42  F   UNL A   1      41.177  35.113  35.758  1.00  0.00    -0.203 F 
ATOM     43  C   UNL A   1      40.143  35.559  37.826  1.00  0.00     0.198 A 
ATOM     44  C   UNL A   1      38.611  33.972  38.770  1.00  0.00     0.198 A 
ATOM     45  F   UNL A   1      38.164  31.954  37.647  1.00  0.00    -0.203 F 
ATOM     46  F   UNL A   1      40.807  36.721  37.906  1.00  0.00    -0.200 F 
ATOM     47  C   UNL A   1      39.278  35.185  38.842  1.00  0.00     0.200 A 
ATOM     48  F   UNL A   1      37.766  33.614  39.747  1.00  0.00    -0.200 F 
ATOM     49  F   UNL A   1      39.092  35.992  39.897  1.00  0.00    -0.200 F 
ENDBRANCH  25  39
BRANCH  26  50
ATOM     50  C   UNL A   1      40.668  27.884  28.434  1.00  0.00     0.064 A 
ATOM     51  C   UNL A   1      40.007  26.653  28.338  1.00  0.00     0.173 A 
ATOM     52  C   UNL A   1      41.446  28.298  27.343  1.00  0.00     0.173 A 
ATOM     53  F   UNL A   1      39.265  26.208  29.364  1.00  0.00    -0.203 F 
ATOM     54  C   UNL A   1      40.129  25.859  27.200  1.00  0.00     0.198 A 
ATOM     55  C   UNL A   1      41.545  27.517  26.195  1.00  0.00     0.198 A 
ATOM     56  F   UNL A   1      42.092  29.471  27.386  1.00  0.00    -0.203 F 
ATOM     57  F   UNL A   1      39.516  24.669  27.147  1.00  0.00    -0.200 F 
ATOM     58  C   UNL A   1      40.891  26.295  26.126  1.00  0.00     0.200 A 
ATOM     59  F   UNL A   1      42.269  27.950  25.154  1.00  0.00    -0.200 F 
ATOM     60  F   UNL A   1      41.002  25.537  25.027  1.00  0.00    -0.200 F 
ENDBRANCH  26  50
BRANCH  38  61
ATOM     61  C   UNL A   1      43.898  28.008  34.597  1.00  0.00     0.064 A 
ATOM     62  C   UNL A   1      43.636  26.803  35.266  1.00  0.00     0.173 A 
ATOM     63  C   UNL A   1      45.234  28.414  34.467  1.00  0.00     0.173 A 
ATOM     64  F   UNL A   1      42.373  26.383  35.431  1.00  0.00    -0.203 F 
ATOM     65  C   UNL A   1      44.673  26.048  35.808  1.00  0.00     0.198 A 
ATOM     66  C   UNL A   1      46.270  27.643  34.986  1.00  0.00     0.198 A 
ATOM     67  F   UNL A   1      45.535  29.556  33.832  1.00  0.00    -0.203 F 
ATOM     68  F   UNL A   1      44.398  24.926  36.486  1.00  0.00    -0.200 F 
ATOM     69  C   UNL A   1      45.988  26.466  35.663  1.00  0.00     0.200 A 
ATOM     70  F   UNL A   1      47.540  28.043  34.838  1.00  0.00    -0.200 F 
ATOM     71  F   UNL A   1      46.984  25.738  36.186  1.00  0.00    -0.200 F 
ENDBRANCH  38  61
ENDBRANCH  12  13
ENDBRANCH   5   7
ENDBRANCH   2   3
ENDBRANCH   1   2
BRANCH   1  72
ATOM     72  C   UNL A   1      31.845  30.372  26.006  1.00  0.00     0.023 C 
BRANCH  72  73
ATOM     73  C   UNL A   1      32.408  29.423  27.066  1.00  0.00     0.116 C 
BRANCH  73  74
ATOM     74  N   UNL A   1      31.649  28.187  27.175  1.00  0.00    -0.356 N 
ATOM     75  C   UNL A   1      31.890  26.966  26.604  1.00  0.00     0.224 C 
ATOM     76  H   UNL A   1      30.847  28.235  27.742  1.00  0.00     0.163 HD
ATOM     77  O   UNL A   1      31.130  26.040  26.876  1.00  0.00    -0.275 OA
BRANCH  75  78
ATOM     78  C   UNL A   1      33.071  26.827  25.658  1.00  0.00     0.099 C 
ATOM     79  C   UNL A   1      32.646  27.146  24.218  1.00  0.00     0.037 C 
ATOM     80  C   UNL A   1      33.647  25.405  25.570  1.00  0.00     0.133 C 
ATOM     81  C   UNL A   1      32.334  25.786  23.629  1.00  0.00     0.120 C 
ATOM     82  N   UNL A   1      33.369  24.963  24.209  1.00  0.00    -0.338 N 
BRANCH  82  83
ATOM     83  C   UNL A   1      34.086  23.939  23.623  1.00  0.00     0.259 C 
ATOM     84  O   UNL A   1      34.931  24.115  22.751  1.00  0.00    -0.269 OA
BRANCH  83  85
ATOM     85  C   UNL A   1      33.799  22.561  24.036  1.00  0.00     0.111 A 
ATOM     86  C   UNL A   1      32.665  21.898  23.567  1.00  0.00     0.140 A 
ATOM     87  C   UNL A   1      34.686  21.889  24.868  1.00  0.00     0.140 A 
ATOM     88  F   UNL A   1      31.799  22.514  22.750  1.00  0.00    -0.206 F 
ATOM     89  C   UNL A   1      32.387  20.593  23.965  1.00  0.00     0.056 A 
ATOM     90  C   UNL A   1      34.429  20.578  25.266  1.00  0.00     0.056 A 
ATOM     91  F   UNL A   1      35.788  22.494  25.333  1.00  0.00    -0.206 F 
ATOM     92  C   UNL A   1      33.275  19.938  24.817  1.00  0.00     0.023 A 
ATOM     93  Br  UNL A   1      32.903  18.172  25.374  1.00  0.00    -0.051 Br
ENDBRANCH  83  85
ENDBRANCH  82  83
ENDBRANCH  75  78
ENDBRANCH  73  74
ENDBRANCH  72  73
ENDBRANCH   1  72
TORSDOF 13
ENDMDL
MODEL 2
REMARK VINA RESULT:     -12.7      0.308      1.835
REMARK SMILES O=C(NCCCCNC(=O)[C@@H]1CCN(C(=O)c2c(F)cc(Br)cc2F)C1)c1ccc(-c2c3nc(c(-c4c(F)c(F)c(F)c(F)c4F)c4ccc([nH]4)c(-c4c(F)c(F)c(F)c(F)c4F)c4nc(c(-c5c(F)c(F)c(F)c(F)c5F)c5ccc2[nH]5)C=C4)C=C3)cc1
REMARK SMILES IDX 5 1 4 2 3 3 1 4 2 5 27 7 28 8 89 9 29 10 88 11 30 12 31 13
REMARK SMILES IDX 32 14 82 15 33 16 87 17 81 18 83 19 34 20 86 21 80 22 79 23
REMARK SMILES IDX 35 25 67 26 47 27 66 28 48 29 51 30 65 31 84 32 49 33 50 34
REMARK SMILES IDX 64 36 85 37 52 38 36 39 37 40 45 41 38 42 39 43 43 44 46 45
REMARK SMILES IDX 40 46 41 47 44 48 42 49 68 50 69 51 77 52 70 53 71 54 75 55
REMARK SMILES IDX 78 56 72 57 73 58 76 59 74 60 53 61 54 62 62 63 55 64 56 65
REMARK SMILES IDX 60 66 63 67 57 68 58 69 61 70 59 71 6 72 7 73 8 74 9 75
REMARK SMILES IDX 10 77 11 78 12 79 26 80 13 81 14 82 15 83 16 84 17 85 18 86
REMARK SMILES IDX 24 87 19 88 20 89 23 90 25 91 21 92 22 93
REMARK H PARENT 3 6 83 24 51 35 8 76
REMARK Flexibility Score: inf
ROOT
ATOM      1  C   UNL A   1      31.475  31.893  26.681  1.00  0.00     0.023 C 
ENDROOT
BRANCH   1   2
ATOM      2  C   UNL A   1      32.654  32.642  27.284  1.00  0.00     0.116 C 
BRANCH   2   3
ATOM      3  N   UNL A   1      32.341  34.023  27.622  1.00  0.00    -0.352 N 
ATOM      4  O   UNL A   1      32.458  35.954  28.786  1.00  0.00    -0.269 OA
ATOM      5  C   UNL A   1      32.936  34.850  28.547  1.00  0.00     0.251 C 
ATOM      6  H   UNL A   1      31.598  34.423  27.117  1.00  0.00     0.163 HD
BRANCH   5   7
ATOM      7  C   UNL A   1      34.132  34.385  29.282  1.00  0.00     0.039 A 
ATOM      8  C   UNL A   1      35.410  34.593  28.763  1.00  0.00     0.014 A 
ATOM      9  C   UNL A   1      33.966  33.702  30.490  1.00  0.00     0.014 A 
ATOM     10  C   UNL A   1      36.500  33.962  29.349  1.00  0.00     0.010 A 
ATOM     11  C   UNL A   1      35.078  33.150  31.132  1.00  0.00     0.010 A 
ATOM     12  C   UNL A   1      36.347  33.231  30.539  1.00  0.00    -0.014 A 
BRANCH  12  13
ATOM     13  C   UNL A   1      37.539  32.577  31.138  1.00  0.00     0.031 A 
ATOM     14  C   UNL A   1      37.996  32.920  32.530  1.00  0.00     0.074 A 
ATOM     15  C   UNL A   1      38.175  31.621  30.435  1.00  0.00     0.049 A 
ATOM     16  N   UNL A   1      38.975  32.399  33.229  1.00  0.00    -0.248 NA
ATOM     17  C   UNL A   1      37.269  33.990  33.230  1.00  0.00     0.031 C 
ATOM     18  C   UNL A   1      37.833  31.212  29.072  1.00  0.00     0.029 A 
ATOM     19  N   UNL A   1      39.219  30.799  30.777  1.00  0.00    -0.354 N 
ATOM     20  C   UNL A   1      39.000  33.094  34.431  1.00  0.00     0.074 A 
ATOM     21  C   UNL A   1      37.951  34.090  34.363  1.00  0.00     0.031 C 
ATOM     22  C   UNL A   1      38.605  30.176  28.717  1.00  0.00     0.029 A 
ATOM     23  C   UNL A   1      39.534  29.885  29.803  1.00  0.00     0.049 A 
ATOM     24  H   UNL A   1      39.694  30.858  31.637  1.00  0.00     0.167 HD
ATOM     25  C   UNL A   1      39.819  32.913  35.495  1.00  0.00     0.037 A 
ATOM     26  C   UNL A   1      40.469  28.918  29.784  1.00  0.00     0.037 A 
ATOM     27  C   UNL A   1      40.838  31.897  35.574  1.00  0.00     0.049 A 
ATOM     28  C   UNL A   1      41.351  28.730  30.985  1.00  0.00     0.074 A 
ATOM     29  C   UNL A   1      41.688  31.606  36.628  1.00  0.00     0.029 A 
ATOM     30  N   UNL A   1      41.142  31.004  34.558  1.00  0.00    -0.354 N 
ATOM     31  N   UNL A   1      41.341  29.373  32.126  1.00  0.00    -0.248 NA
ATOM     32  C   UNL A   1      42.376  27.682  30.892  1.00  0.00     0.031 C 
ATOM     33  C   UNL A   1      42.532  30.561  36.235  1.00  0.00     0.029 A 
ATOM     34  C   UNL A   1      42.179  30.172  34.953  1.00  0.00     0.049 A 
ATOM     35  H   UNL A   1      40.690  30.966  33.685  1.00  0.00     0.167 HD
ATOM     36  C   UNL A   1      42.341  28.798  32.895  1.00  0.00     0.074 A 
ATOM     37  C   UNL A   1      42.926  27.740  32.096  1.00  0.00     0.031 C 
ATOM     38  C   UNL A   1      42.744  29.121  34.148  1.00  0.00     0.037 A 
BRANCH  25  39
ATOM     39  C   UNL A   1      39.661  33.842  36.663  1.00  0.00     0.064 A 
ATOM     40  C   UNL A   1      38.869  33.510  37.772  1.00  0.00     0.173 A 
ATOM     41  C   UNL A   1      40.351  35.065  36.693  1.00  0.00     0.173 A 
ATOM     42  F   UNL A   1      38.179  32.361  37.788  1.00  0.00    -0.203 F 
ATOM     43  C   UNL A   1      38.758  34.376  38.859  1.00  0.00     0.198 A 
ATOM     44  C   UNL A   1      40.258  35.915  37.792  1.00  0.00     0.198 A 
ATOM     45  F   UNL A   1      41.127  35.428  35.661  1.00  0.00    -0.203 F 
ATOM     46  F   UNL A   1      37.964  34.055  39.890  1.00  0.00    -0.200 F 
ATOM     47  C   UNL A   1      39.457  35.573  38.870  1.00  0.00     0.200 A 
ATOM     48  F   UNL A   1      40.943  37.067  37.805  1.00  0.00    -0.200 F 
ATOM     49  F   UNL A   1      39.354  36.401  39.920  1.00  0.00    -0.200 F 
ENDBRANCH  25  39
BRANCH  26  50
ATOM     50  C   UNL A   1      40.600  28.043  28.592  1.00  0.00     0.064 A 
ATOM     51  C   UNL A   1      39.934  26.813  28.526  1.00  0.00     0.173 A 
ATOM     52  C   UNL A   1      41.376  28.428  27.489  1.00  0.00     0.173 A 
ATOM     53  F   UNL A   1      39.193  26.396  29.565  1.00  0.00    -0.203 F 
ATOM     54  C   UNL A   1      40.048  25.992  27.407  1.00  0.00     0.198 A 
ATOM     55  C   UNL A   1      41.468  27.620  26.358  1.00  0.00     0.198 A 
ATOM     56  F   UNL A   1      42.026  29.600  27.501  1.00  0.00    -0.203 F 
ATOM     57  F   UNL A   1      39.431  24.804  27.384  1.00  0.00    -0.200 F 
ATOM     58  C   UNL A   1      40.809  26.400  26.321  1.00  0.00     0.200 A 
ATOM     59  F   UNL A   1      42.190  28.025  25.306  1.00  0.00    -0.200 F 
ATOM     60  F   UNL A   1      40.913  25.615  25.240  1.00  0.00    -0.200 F 
ENDBRANCH  26  50
BRANCH  38  61
ATOM     61  C   UNL A   1      43.846  28.296  34.742  1.00  0.00     0.064 A 
ATOM     62  C   UNL A   1      45.193  28.669  34.613  1.00  0.00     0.173 A 
ATOM     63  C   UNL A   1      43.551  27.127  35.459  1.00  0.00     0.173 A 
ATOM     64  F   UNL A   1      45.525  29.768  33.920  1.00  0.00    -0.203 F 
ATOM     65  C   UNL A   1      46.205  27.884  35.157  1.00  0.00     0.198 A 
ATOM     66  C   UNL A   1      44.565  26.360  36.025  1.00  0.00     0.198 A 
ATOM     67  F   UNL A   1      42.279  26.732  35.614  1.00  0.00    -0.203 F 
ATOM     68  F   UNL A   1      47.487  28.231  34.979  1.00  0.00    -0.200 F 
ATOM     69  C   UNL A   1      45.891  26.735  35.867  1.00  0.00     0.200 A 
ATOM     70  F   UNL A   1      44.259  25.256  36.718  1.00  0.00    -0.200 F 
ATOM     71  F   UNL A   1      46.867  25.981  36.390  1.00  0.00    -0.200 F 
ENDBRANCH  38  61
ENDBRANCH  12  13
ENDBRANCH   5   7
ENDBRANCH   2   3
ENDBRANCH   1   2
BRANCH   1  72
ATOM     72  C   UNL A   1      31.810  30.517  26.111  1.00  0.00     0.023 C 
BRANCH  72  73
ATOM     73  C   UNL A   1      32.431  29.536  27.107  1.00  0.00     0.116 C 
BRANCH  73  74
ATOM     74  N   UNL A   1      31.658  28.312  27.249  1.00  0.00    -0.356 N 
ATOM     75  C   UNL A   1      31.841  27.094  26.649  1.00  0.00     0.224 C 
ATOM     76  H   UNL A   1      30.894  28.367  27.866  1.00  0.00     0.163 HD
ATOM     77  O   UNL A   1      31.082  26.178  26.957  1.00  0.00    -0.275 OA
BRANCH  75  78
ATOM     78  C   UNL A   1      32.958  26.947  25.629  1.00  0.00     0.099 C 
ATOM     79  C   UNL A   1      32.405  27.087  24.204  1.00  0.00     0.037 C 
ATOM     80  C   UNL A   1      33.638  25.569  25.631  1.00  0.00     0.133 C 
ATOM     81  C   UNL A   1      32.162  25.656  23.773  1.00  0.00     0.120 C 
ATOM     82  N   UNL A   1      33.299  24.973  24.345  1.00  0.00    -0.338 N 
BRANCH  82  83
ATOM     83  C   UNL A   1      34.051  23.951  23.803  1.00  0.00     0.259 C 
ATOM     84  O   UNL A   1      34.956  24.129  22.993  1.00  0.00    -0.269 OA
BRANCH  83  85
ATOM     85  C   UNL A   1      33.732  22.571  24.186  1.00  0.00     0.111 A 
ATOM     86  C   UNL A   1      34.344  21.978  25.290  1.00  0.00     0.140 A 
ATOM     87  C   UNL A   1      32.780  21.856  23.470  1.00  0.00     0.140 A 
ATOM     88  F   UNL A   1      35.256  22.647  26.011  1.00  0.00    -0.206 F 
ATOM     89  C   UNL A   1      34.049  20.666  25.649  1.00  0.00     0.056 A 
ATOM     90  C   UNL A   1      32.463  20.546  23.823  1.00  0.00     0.056 A 
ATOM     91  F   UNL A   1      32.168  22.397  22.406  1.00  0.00    -0.206 F 
ATOM     92  C   UNL A   1      33.107  19.954  24.908  1.00  0.00     0.023 A 
ATOM     93  Br  UNL A   1      32.706  18.168  25.377  1.00  0.00    -0.051 Br
ENDBRANCH  83  85
ENDBRANCH  82  83
ENDBRANCH  75  78
ENDBRANCH  73  74
ENDBRANCH  72  73
ENDBRANCH   1  72
TORSDOF 13
ENDMDL
MODEL 3
REMARK VINA RESULT:     -12.7      0.216      1.607
REMARK SMILES O=C(NCCCCNC(=O)[C@@H]1CCN(C(=O)c2c(F)cc(Br)cc2F)C1)c1ccc(-c2c3nc(c(-c4c(F)c(F)c(F)c(F)c4F)c4ccc([nH]4)c(-c4c(F)c(F)c(F)c(F)c4F)c4nc(c(-c5c(F)c(F)c(F)c(F)c5F)c5ccc2[nH]5)C=C4)C=C3)cc1
REMARK SMILES IDX 5 1 4 2 3 3 1 4 2 5 27 7 28 8 89 9 29 10 88 11 30 12 31 13
REMARK SMILES IDX 32 14 82 15 33 16 87 17 81 18 83 19 34 20 86 21 80 22 79 23
REMARK SMILES IDX 35 25 67 26 47 27 66 28 48 29 51 30 65 31 84 32 49 33 50 34
REMARK SMILES IDX 64 36 85 37 52 38 36 39 37 40 45 41 38 42 39 43 43 44 46 45
REMARK SMILES IDX 40 46 41 47 44 48 42 49 68 50 69 51 77 52 70 53 71 54 75 55
REMARK SMILES IDX 78 56 72 57 73 58 76 59 74 60 53 61 54 62 62 63 55 64 56 65
REMARK SMILES IDX 60 66 63 67 57 68 58 69 61 70 59 71 6 72 7 73 8 74 9 75
REMARK SMILES IDX 10 77 11 78 12 79 26 80 13 81 14 82 15 83 16 84 17 85 18 86
REMARK SMILES IDX 24 87 19 88 20 89 23 90 25 91 21 92 22 93
REMARK H PARENT 3 6 83 24 51 35 8 76
REMARK Flexibility Score: inf
ROOT
ATOM      1  C   UNL A   1      31.488  31.825  26.788  1.00  0.00     0.023 C 
ENDROOT
BRANCH   1   2
ATOM      2  C   UNL A   1      32.697  32.615  27.267  1.00  0.00     0.116 C 
BRANCH   2   3
ATOM      3  N   UNL A   1      32.376  33.988  27.628  1.00  0.00    -0.352 N 
ATOM      4  O   UNL A   1      32.481  35.900  28.824  1.00  0.00    -0.269 OA
ATOM      5  C   UNL A   1      32.967  34.803  28.566  1.00  0.00     0.251 C 
ATOM      6  H   UNL A   1      31.630  34.392  27.130  1.00  0.00     0.163 HD
BRANCH   5   7
ATOM      7  C   UNL A   1      34.166  34.334  29.292  1.00  0.00     0.039 A 
ATOM      8  C   UNL A   1      35.443  34.576  28.787  1.00  0.00     0.014 A 
ATOM      9  C   UNL A   1      34.004  33.613  30.479  1.00  0.00     0.014 A 
ATOM     10  C   UNL A   1      36.539  33.943  29.358  1.00  0.00     0.010 A 
ATOM     11  C   UNL A   1      35.122  33.057  31.110  1.00  0.00     0.010 A 
ATOM     12  C   UNL A   1      36.392  33.175  30.526  1.00  0.00    -0.014 A 
BRANCH  12  13
ATOM     13  C   UNL A   1      37.590  32.520  31.111  1.00  0.00     0.031 A 
ATOM     14  C   UNL A   1      38.058  32.855  32.501  1.00  0.00     0.074 A 
ATOM     15  C   UNL A   1      38.224  31.571  30.396  1.00  0.00     0.049 A 
ATOM     16  N   UNL A   1      39.043  32.333  33.188  1.00  0.00    -0.248 NA
ATOM     17  C   UNL A   1      37.333  33.919  33.214  1.00  0.00     0.031 C 
ATOM     18  C   UNL A   1      37.871  31.170  29.033  1.00  0.00     0.029 A 
ATOM     19  N   UNL A   1      39.272  30.750  30.724  1.00  0.00    -0.354 N 
ATOM     20  C   UNL A   1      39.077  33.020  34.394  1.00  0.00     0.074 A 
ATOM     21  C   UNL A   1      38.024  34.013  34.342  1.00  0.00     0.031 C 
ATOM     22  C   UNL A   1      38.643  30.139  28.665  1.00  0.00     0.029 A 
ATOM     23  C   UNL A   1      39.582  29.843  29.742  1.00  0.00     0.049 A 
ATOM     24  H   UNL A   1      39.754  30.805  31.581  1.00  0.00     0.167 HD
ATOM     25  C   UNL A   1      39.904  32.834  35.451  1.00  0.00     0.037 A 
ATOM     26  C   UNL A   1      40.520  28.879  29.709  1.00  0.00     0.037 A 
ATOM     27  C   UNL A   1      40.927  31.821  35.515  1.00  0.00     0.049 A 
ATOM     28  C   UNL A   1      41.412  28.686  30.901  1.00  0.00     0.074 A 
ATOM     29  C   UNL A   1      41.786  31.526  36.560  1.00  0.00     0.029 A 
ATOM     30  N   UNL A   1      41.226  30.936  34.491  1.00  0.00    -0.354 N 
ATOM     31  N   UNL A   1      41.409  29.321  32.047  1.00  0.00    -0.248 NA
ATOM     32  C   UNL A   1      42.439  27.642  30.792  1.00  0.00     0.031 C 
ATOM     33  C   UNL A   1      42.630  30.486  36.153  1.00  0.00     0.029 A 
ATOM     34  C   UNL A   1      42.268  30.104  34.872  1.00  0.00     0.049 A 
ATOM     35  H   UNL A   1      40.766  30.902  33.621  1.00  0.00     0.167 HD
ATOM     36  C   UNL A   1      42.418  28.744  32.803  1.00  0.00     0.074 A 
ATOM     37  C   UNL A   1      42.999  27.693  31.993  1.00  0.00     0.031 C 
ATOM     38  C   UNL A   1      42.829  29.060  34.055  1.00  0.00     0.037 A 
BRANCH  25  39
ATOM     39  C   UNL A   1      39.753  33.755  36.627  1.00  0.00     0.064 A 
ATOM     40  C   UNL A   1      40.391  35.003  36.676  1.00  0.00     0.173 A 
ATOM     41  C   UNL A   1      38.917  33.402  37.699  1.00  0.00     0.173 A 
ATOM     42  F   UNL A   1      41.210  35.382  35.685  1.00  0.00    -0.203 F 
ATOM     43  C   UNL A   1      40.215  35.855  37.766  1.00  0.00     0.198 A 
ATOM     44  C   UNL A   1      38.724  34.267  38.772  1.00  0.00     0.198 A 
ATOM     45  F   UNL A   1      38.279  32.223  37.698  1.00  0.00    -0.203 F 
ATOM     46  F   UNL A   1      40.866  37.026  37.810  1.00  0.00    -0.200 F 
ATOM     47  C   UNL A   1      39.377  35.490  38.808  1.00  0.00     0.200 A 
ATOM     48  F   UNL A   1      37.905  33.917  39.774  1.00  0.00    -0.200 F 
ATOM     49  F   UNL A   1      39.203  36.314  39.851  1.00  0.00    -0.200 F 
ENDBRANCH  25  39
BRANCH  26  50
ATOM     50  C   UNL A   1      40.643  28.013  28.509  1.00  0.00     0.064 A 
ATOM     51  C   UNL A   1      41.420  28.408  27.414  1.00  0.00     0.173 A 
ATOM     52  C   UNL A   1      40.002  26.767  28.443  1.00  0.00     0.173 A 
ATOM     53  F   UNL A   1      42.038  29.599  27.425  1.00  0.00    -0.203 F 
ATOM     54  C   UNL A   1      41.543  27.595  26.289  1.00  0.00     0.198 A 
ATOM     55  C   UNL A   1      40.147  25.943  27.330  1.00  0.00     0.198 A 
ATOM     56  F   UNL A   1      39.253  26.342  29.470  1.00  0.00    -0.203 F 
ATOM     57  F   UNL A   1      42.263  28.013  25.239  1.00  0.00    -0.200 F 
ATOM     58  C   UNL A   1      40.913  26.360  26.251  1.00  0.00     0.200 A 
ATOM     59  F   UNL A   1      39.551  24.744  27.305  1.00  0.00    -0.200 F 
ATOM     60  F   UNL A   1      41.038  25.574  25.174  1.00  0.00    -0.200 F 
ENDBRANCH  26  50
BRANCH  38  61
ATOM     61  C   UNL A   1      43.939  28.234  34.634  1.00  0.00     0.064 A 
ATOM     62  C   UNL A   1      45.283  28.616  34.505  1.00  0.00     0.173 A 
ATOM     63  C   UNL A   1      43.653  27.055  35.338  1.00  0.00     0.173 A 
ATOM     64  F   UNL A   1      45.606  29.727  33.825  1.00  0.00    -0.203 F 
ATOM     65  C   UNL A   1      46.302  27.831  35.036  1.00  0.00     0.198 A 
ATOM     66  C   UNL A   1      44.674  26.287  35.891  1.00  0.00     0.198 A 
ATOM     67  F   UNL A   1      42.384  26.650  35.492  1.00  0.00    -0.203 F 
ATOM     68  F   UNL A   1      47.581  28.188  34.858  1.00  0.00    -0.200 F 
ATOM     69  C   UNL A   1      45.997  26.671  35.733  1.00  0.00     0.200 A 
ATOM     70  F   UNL A   1      44.377  25.172  36.571  1.00  0.00    -0.200 F 
ATOM     71  F   UNL A   1      46.980  25.916  36.242  1.00  0.00    -0.200 F 
ENDBRANCH  38  61
ENDBRANCH  12  13
ENDBRANCH   5   7
ENDBRANCH   2   3
ENDBRANCH   1   2
BRANCH   1  72
ATOM     72  C   UNL A   1      31.812  30.472  26.160  1.00  0.00     0.023 C 
BRANCH  72  73
ATOM     73  C   UNL A   1      32.448  29.452  27.106  1.00  0.00     0.116 C 
BRANCH  73  74
ATOM     74  N   UNL A   1      31.668  28.231  27.228  1.00  0.00    -0.356 N 
ATOM     75  C   UNL A   1      31.832  27.028  26.594  1.00  0.00     0.224 C 
ATOM     76  H   UNL A   1      30.913  28.276  27.857  1.00  0.00     0.163 HD
ATOM     77  O   UNL A   1      31.070  26.110  26.889  1.00  0.00    -0.275 OA
BRANCH  75  78
ATOM     78  C   UNL A   1      32.933  26.899  25.555  1.00  0.00     0.099 C 
ATOM     79  C   UNL A   1      32.354  27.027  24.140  1.00  0.00     0.037 C 
ATOM     80  C   UNL A   1      33.638  25.533  25.548  1.00  0.00     0.133 C 
ATOM     81  C   UNL A   1      32.128  25.591  23.715  1.00  0.00     0.120 C 
ATOM     82  N   UNL A   1      33.287  24.929  24.268  1.00  0.00    -0.338 N 
BRANCH  82  83
ATOM     83  C   UNL A   1      34.047  23.919  23.715  1.00  0.00     0.259 C 
ATOM     84  O   UNL A   1      34.952  24.113  22.908  1.00  0.00    -0.269 OA
BRANCH  83  85
ATOM     85  C   UNL A   1      33.738  22.532  24.080  1.00  0.00     0.111 A 
ATOM     86  C   UNL A   1      32.711  21.839  23.440  1.00  0.00     0.140 A 
ATOM     87  C   UNL A   1      34.501  21.883  25.043  1.00  0.00     0.140 A 
ATOM     88  F   UNL A   1      31.967  22.432  22.496  1.00  0.00    -0.206 F 
ATOM     89  C   UNL A   1      32.411  20.526  23.793  1.00  0.00     0.056 A 
ATOM     90  C   UNL A   1      34.223  20.564  25.398  1.00  0.00     0.056 A 
ATOM     91  F   UNL A   1      35.500  22.517  25.674  1.00  0.00    -0.206 F 
ATOM     92  C   UNL A   1      33.171  19.894  24.775  1.00  0.00     0.023 A 
ATOM     93  Br  UNL A   1      32.766  18.117  25.270  1.00  0.00    -0.051 Br
ENDBRANCH  83  85
ENDBRANCH  82  83
ENDBRANCH  75  78
ENDBRANCH  73  74
ENDBRANCH  72  73
ENDBRANCH   1  72
TORSDOF 13
ENDMDL
