MODEL 1
REMARK VINA RESULT:     -13.8      0.000      0.000
REMARK SMILES Cc1cccc(S(=O)(=O)Nc2cc(C(=O)NCCCCNC(=O)c3ccc(-c4c5nc(c(-c6c(F)c(F)c(F)c(F)c6F)c6ccc([nH]6)c(-c6c(F)c(F)c(F)c(F)c6F)c6nc(c(-c7c(F)c(F)c(F)c(F)c7F)c7ccc4[nH]7)C=C6)C=C5)cc3)cnc2N2CCC[C@H](C)C2)c1
REMARK SMILES IDX 18 1 17 2 16 3 14 4 15 5 13 7 11 8 12 9 89 10 88 11 87 12
REMARK SMILES IDX 10 13 7 15 8 16 9 17 6 18 1 19 2 20 3 21 97 22 4 23 5 24
REMARK SMILES IDX 90 25 91 26 96 27 92 28 94 29 93 30 95 31 19 32 20 33 21 34
REMARK SMILES IDX 22 35 23 37 24 38 25 39 86 40 26 41 85 42 27 43 28 44 29 45
REMARK SMILES IDX 79 46 30 47 84 48 78 49 80 50 31 51 83 52 77 53 76 54 32 56
REMARK SMILES IDX 64 57 44 58 63 59 45 60 48 61 62 62 81 63 46 64 47 65 61 67
REMARK SMILES IDX 82 68 49 69 33 70 34 71 42 72 35 73 36 74 40 75 43 76 37 77
REMARK SMILES IDX 38 78 41 79 39 80 65 81 66 82 74 83 67 84 68 85 72 86 75 87
REMARK SMILES IDX 69 88 70 89 73 90 71 91 50 92 51 93 59 94 52 95 53 96 57 97
REMARK SMILES IDX 60 98 54 99 55 100 58 101 56 102
REMARK H PARENT 16 6 10 14 21 36 80 55 48 66
REMARK Flexibility Score: inf
ROOT
ATOM      1  C   UNL A   1      32.783  30.058  25.759  1.00  0.00     0.023 C 
ENDROOT
BRANCH   1   2
ATOM      2  C   UNL A   1      31.338  29.585  25.535  1.00  0.00     0.116 C 
BRANCH   2   3
ATOM      3  N   UNL A   1      31.108  29.143  24.165  1.00  0.00    -0.352 N 
ATOM      4  C   UNL A   1      31.551  28.065  23.435  1.00  0.00     0.252 C 
ATOM      5  O   UNL A   1      31.101  27.922  22.298  1.00  0.00    -0.269 OA
ATOM      6  H   UNL A   1      30.511  29.738  23.658  1.00  0.00     0.163 HD
BRANCH   4   7
ATOM      7  C   UNL A   1      32.490  27.044  23.955  1.00  0.00     0.060 A 
ATOM      8  C   UNL A   1      33.168  25.324  25.477  1.00  0.00     0.092 A 
ATOM      9  C   UNL A   1      32.364  26.414  25.179  1.00  0.00     0.046 A 
ATOM     10  C   UNL A   1      34.236  24.972  24.632  1.00  0.00     0.153 A 
ATOM     11  N   UNL A   1      34.440  25.644  23.481  1.00  0.00    -0.236 NA
ATOM     12  C   UNL A   1      33.554  26.633  23.154  1.00  0.00     0.127 A 
BRANCH   8  13
ATOM     13  N   UNL A   1      32.840  24.561  26.639  1.00  0.00    -0.276 N 
ATOM     14  H   UNL A   1      33.332  24.712  27.478  1.00  0.00     0.180 HD
BRANCH  13  15
ATOM     15  S   UNL A   1      31.610  23.393  26.577  1.00  0.00     0.262 S 
ATOM     16  O   UNL A   1      30.400  24.165  26.351  1.00  0.00    -0.201 OA
ATOM     17  O   UNL A   1      31.734  22.584  27.767  1.00  0.00    -0.201 OA
BRANCH  15  18
ATOM     18  C   UNL A   1      31.760  22.280  25.190  1.00  0.00     0.088 A 
ATOM     19  C   UNL A   1      32.997  18.820  24.149  1.00  0.00     0.044 C 
ATOM     20  C   UNL A   1      32.392  20.193  24.101  1.00  0.00    -0.050 A 
ATOM     21  C   UNL A   1      32.157  20.777  22.858  1.00  0.00     0.003 A 
ATOM     22  C   UNL A   1      32.106  20.926  25.270  1.00  0.00     0.025 A 
ATOM     23  C   UNL A   1      31.683  22.079  22.789  1.00  0.00     0.002 A 
ATOM     24  C   UNL A   1      31.518  22.843  23.936  1.00  0.00     0.022 A 
ENDBRANCH  15  18
ENDBRANCH  13  15
ENDBRANCH   8  13
BRANCH  10  25
ATOM     25  N   UNL A   1      35.143  24.016  25.035  1.00  0.00    -0.355 N 
ATOM     26  C   UNL A   1      35.985  24.154  26.213  1.00  0.00     0.118 C 
ATOM     27  C   UNL A   1      34.963  22.657  24.547  1.00  0.00     0.121 C 
ATOM     28  C   UNL A   1      37.401  23.703  25.832  1.00  0.00     0.022 C 
ATOM     29  C   UNL A   1      36.334  22.156  24.057  1.00  0.00     0.005 C 
ATOM     30  C   UNL A   1      37.407  22.325  25.155  1.00  0.00     0.007 C 
ATOM     31  C   UNL A   1      36.733  22.852  22.750  1.00  0.00     0.009 C 
ENDBRANCH  10  25
ENDBRANCH   4   7
ENDBRANCH   2   3
ENDBRANCH   1   2
BRANCH   1  32
ATOM     32  C   UNL A   1      32.971  30.858  27.046  1.00  0.00     0.023 C 
BRANCH  32  33
ATOM     33  C   UNL A   1      34.115  30.342  27.909  1.00  0.00     0.116 C 
BRANCH  33  34
ATOM     34  N   UNL A   1      34.962  31.387  28.467  1.00  0.00    -0.352 N 
ATOM     35  C   UNL A   1      36.239  31.301  29.004  1.00  0.00     0.251 C 
ATOM     36  H   UNL A   1      34.569  32.290  28.464  1.00  0.00     0.163 HD
ATOM     37  O   UNL A   1      36.766  32.277  29.494  1.00  0.00    -0.269 OA
BRANCH  35  38
ATOM     38  C   UNL A   1      37.010  30.040  28.845  1.00  0.00     0.039 A 
ATOM     39  C   UNL A   1      37.103  29.191  29.957  1.00  0.00     0.014 A 
ATOM     40  C   UNL A   1      37.791  29.803  27.718  1.00  0.00     0.014 A 
ATOM     41  C   UNL A   1      38.152  28.280  30.035  1.00  0.00     0.010 A 
ATOM     42  C   UNL A   1      38.891  28.980  27.835  1.00  0.00     0.010 A 
ATOM     43  C   UNL A   1      39.111  28.279  29.025  1.00  0.00    -0.014 A 
BRANCH  43  44
ATOM     44  C   UNL A   1      40.446  27.722  29.189  1.00  0.00     0.031 A 
ATOM     45  C   UNL A   1      40.776  26.364  28.724  1.00  0.00     0.074 A 
ATOM     46  C   UNL A   1      41.427  28.538  29.632  1.00  0.00     0.049 A 
ATOM     47  N   UNL A   1      41.840  25.719  29.063  1.00  0.00    -0.248 NA
ATOM     48  C   UNL A   1      39.890  25.595  27.866  1.00  0.00     0.031 C 
ATOM     49  C   UNL A   1      42.867  28.326  29.537  1.00  0.00     0.029 A 
ATOM     50  N   UNL A   1      41.286  29.647  30.477  1.00  0.00    -0.354 N 
ATOM     51  C   UNL A   1      41.937  24.606  28.261  1.00  0.00     0.074 A 
ATOM     52  C   UNL A   1      40.652  24.529  27.604  1.00  0.00     0.031 C 
ATOM     53  C   UNL A   1      43.470  29.038  30.498  1.00  0.00     0.029 A 
ATOM     54  C   UNL A   1      42.421  29.631  31.311  1.00  0.00     0.049 A 
ATOM     55  H   UNL A   1      40.549  30.301  30.486  1.00  0.00     0.167 HD
ATOM     56  C   UNL A   1      43.148  23.982  28.157  1.00  0.00     0.037 A 
ATOM     57  C   UNL A   1      42.337  29.546  32.667  1.00  0.00     0.037 A 
ATOM     58  C   UNL A   1      44.108  24.540  29.121  1.00  0.00     0.049 A 
ATOM     59  C   UNL A   1      43.114  28.375  33.198  1.00  0.00     0.074 A 
ATOM     60  C   UNL A   1      45.168  25.424  28.996  1.00  0.00     0.029 A 
ATOM     61  N   UNL A   1      43.856  24.430  30.490  1.00  0.00    -0.354 N 
ATOM     62  N   UNL A   1      43.375  27.316  32.482  1.00  0.00    -0.248 NA
ATOM     63  C   UNL A   1      43.690  28.314  34.534  1.00  0.00     0.031 C 
ATOM     64  C   UNL A   1      45.520  25.882  30.292  1.00  0.00     0.029 A 
ATOM     65  C   UNL A   1      44.691  25.260  31.212  1.00  0.00     0.049 A 
ATOM     66  H   UNL A   1      43.174  23.840  30.887  1.00  0.00     0.167 HD
ATOM     67  C   UNL A   1      44.173  26.472  33.201  1.00  0.00     0.074 A 
ATOM     68  C   UNL A   1      44.330  27.130  34.486  1.00  0.00     0.031 C 
ATOM     69  C   UNL A   1      44.654  25.311  32.669  1.00  0.00     0.037 A 
BRANCH  56  70
ATOM     70  C   UNL A   1      43.556  23.087  26.991  1.00  0.00     0.064 A 
ATOM     71  C   UNL A   1      43.028  21.780  26.860  1.00  0.00     0.173 A 
ATOM     72  C   UNL A   1      44.514  23.412  26.012  1.00  0.00     0.173 A 
ATOM     73  F   UNL A   1      42.026  21.347  27.635  1.00  0.00    -0.203 F 
ATOM     74  C   UNL A   1      43.508  20.856  25.922  1.00  0.00     0.198 A 
ATOM     75  C   UNL A   1      45.029  22.477  25.105  1.00  0.00     0.198 A 
ATOM     76  F   UNL A   1      44.945  24.662  25.837  1.00  0.00    -0.203 F 
ATOM     77  F   UNL A   1      42.972  19.628  25.864  1.00  0.00    -0.200 F 
ATOM     78  C   UNL A   1      44.535  21.193  25.069  1.00  0.00     0.200 A 
ATOM     79  F   UNL A   1      46.006  22.841  24.262  1.00  0.00    -0.200 F 
ATOM     80  F   UNL A   1      45.022  20.301  24.195  1.00  0.00    -0.200 F 
ENDBRANCH  56  70
BRANCH  57  81
ATOM     81  C   UNL A   1      41.085  30.121  33.214  1.00  0.00     0.064 A 
ATOM     82  C   UNL A   1      40.974  31.526  33.242  1.00  0.00     0.173 A 
ATOM     83  C   UNL A   1      39.902  29.380  33.284  1.00  0.00     0.173 A 
ATOM     84  F   UNL A   1      42.083  32.279  33.175  1.00  0.00    -0.203 F 
ATOM     85  C   UNL A   1      39.735  32.159  33.201  1.00  0.00     0.198 A 
ATOM     86  C   UNL A   1      38.658  30.019  33.264  1.00  0.00     0.198 A 
ATOM     87  F   UNL A   1      39.938  28.041  33.240  1.00  0.00    -0.203 F 
ATOM     88  F   UNL A   1      39.669  33.494  33.087  1.00  0.00    -0.200 F 
ATOM     89  C   UNL A   1      38.576  31.403  33.182  1.00  0.00     0.200 A 
ATOM     90  F   UNL A   1      37.534  29.289  33.213  1.00  0.00    -0.200 F 
ATOM     91  F   UNL A   1      37.386  32.001  33.035  1.00  0.00    -0.200 F 
ENDBRANCH  57  81
BRANCH  69  92
ATOM     92  C   UNL A   1      45.248  24.173  33.461  1.00  0.00     0.064 A 
ATOM     93  C   UNL A   1      44.547  22.995  33.770  1.00  0.00     0.173 A 
ATOM     94  C   UNL A   1      46.624  24.165  33.791  1.00  0.00     0.173 A 
ATOM     95  F   UNL A   1      43.270  22.823  33.402  1.00  0.00    -0.203 F 
ATOM     96  C   UNL A   1      45.157  21.917  34.416  1.00  0.00     0.198 A 
ATOM     97  C   UNL A   1      47.244  23.066  34.381  1.00  0.00     0.198 A 
ATOM     98  F   UNL A   1      47.419  25.211  33.518  1.00  0.00    -0.203 F 
ATOM     99  F   UNL A   1      44.432  20.832  34.722  1.00  0.00    -0.200 F 
ATOM    100  C   UNL A   1      46.506  21.947  34.708  1.00  0.00     0.200 A 
ATOM    101  F   UNL A   1      48.565  23.088  34.608  1.00  0.00    -0.200 F 
ATOM    102  F   UNL A   1      47.100  20.890  35.278  1.00  0.00    -0.200 F 
ENDBRANCH  69  92
ENDBRANCH  43  44
ENDBRANCH  35  38
ENDBRANCH  33  34
ENDBRANCH  32  33
ENDBRANCH   1  32
TORSDOF 15
ENDMDL
MODEL 2
REMARK VINA RESULT:     -13.3      4.344      9.660
REMARK SMILES Cc1cccc(S(=O)(=O)Nc2cc(C(=O)NCCCCNC(=O)c3ccc(-c4c5nc(c(-c6c(F)c(F)c(F)c(F)c6F)c6ccc([nH]6)c(-c6c(F)c(F)c(F)c(F)c6F)c6nc(c(-c7c(F)c(F)c(F)c(F)c7F)c7ccc4[nH]7)C=C6)C=C5)cc3)cnc2N2CCC[C@H](C)C2)c1
REMARK SMILES IDX 18 1 17 2 16 3 14 4 15 5 13 7 11 8 12 9 89 10 88 11 87 12
REMARK SMILES IDX 10 13 7 15 8 16 9 17 6 18 1 19 2 20 3 21 97 22 4 23 5 24
REMARK SMILES IDX 90 25 91 26 96 27 92 28 94 29 93 30 95 31 19 32 20 33 21 34
REMARK SMILES IDX 22 35 23 37 24 38 25 39 86 40 26 41 85 42 27 43 28 44 29 45
REMARK SMILES IDX 79 46 30 47 84 48 78 49 80 50 31 51 83 52 77 53 76 54 32 56
REMARK SMILES IDX 64 57 44 58 63 59 45 60 48 61 62 62 81 63 46 64 47 65 61 67
REMARK SMILES IDX 82 68 49 69 33 70 34 71 42 72 35 73 36 74 40 75 43 76 37 77
REMARK SMILES IDX 38 78 41 79 39 80 65 81 66 82 74 83 67 84 68 85 72 86 75 87
REMARK SMILES IDX 69 88 70 89 73 90 71 91 50 92 51 93 59 94 52 95 53 96 57 97
REMARK SMILES IDX 60 98 54 99 55 100 58 101 56 102
REMARK H PARENT 16 6 10 14 21 36 80 55 48 66
REMARK Flexibility Score: inf
ROOT
ATOM      1  C   UNL A   1      41.241  22.696  27.495  1.00  0.00     0.023 C 
ENDROOT
BRANCH   1   2
ATOM      2  C   UNL A   1      39.852  22.729  26.838  1.00  0.00     0.116 C 
BRANCH   2   3
ATOM      3  N   UNL A   1      39.516  21.466  26.192  1.00  0.00    -0.352 N 
ATOM      4  C   UNL A   1      38.419  21.030  25.487  1.00  0.00     0.252 C 
ATOM      5  O   UNL A   1      38.473  19.908  24.985  1.00  0.00    -0.269 OA
ATOM      6  H   UNL A   1      40.221  20.785  26.278  1.00  0.00     0.163 HD
BRANCH   4   7
ATOM      7  C   UNL A   1      37.208  21.850  25.251  1.00  0.00     0.060 A 
ATOM      8  C   UNL A   1      34.900  22.167  24.698  1.00  0.00     0.092 A 
ATOM      9  C   UNL A   1      36.043  21.380  24.676  1.00  0.00     0.046 A 
ATOM     10  C   UNL A   1      34.961  23.505  25.126  1.00  0.00     0.153 A 
ATOM     11  N   UNL A   1      36.119  24.015  25.594  1.00  0.00    -0.236 NA
ATOM     12  C   UNL A   1      37.197  23.178  25.676  1.00  0.00     0.127 A 
BRANCH   8  13
ATOM     13  N   UNL A   1      33.669  21.552  24.316  1.00  0.00    -0.276 N 
ATOM     14  H   UNL A   1      33.276  21.750  23.435  1.00  0.00     0.180 HD
BRANCH  13  15
ATOM     15  S   UNL A   1      32.880  20.485  25.373  1.00  0.00     0.262 S 
ATOM     16  O   UNL A   1      31.476  20.841  25.254  1.00  0.00    -0.201 OA
ATOM     17  O   UNL A   1      33.541  20.590  26.653  1.00  0.00    -0.201 OA
BRANCH  15  18
ATOM     18  C   UNL A   1      33.005  18.775  24.877  1.00  0.00     0.088 A 
ATOM     19  C   UNL A   1      32.386  15.188  26.036  1.00  0.00     0.044 C 
ATOM     20  C   UNL A   1      32.770  16.369  25.192  1.00  0.00    -0.050 A 
ATOM     21  C   UNL A   1      33.522  16.151  24.040  1.00  0.00     0.003 A 
ATOM     22  C   UNL A   1      32.440  17.689  25.557  1.00  0.00     0.025 A 
ATOM     23  C   UNL A   1      33.966  17.233  23.293  1.00  0.00     0.002 A 
ATOM     24  C   UNL A   1      33.745  18.535  23.719  1.00  0.00     0.022 A 
ENDBRANCH  15  18
ENDBRANCH  13  15
ENDBRANCH   8  13
BRANCH  10  25
ATOM     25  N   UNL A   1      33.870  24.329  24.960  1.00  0.00    -0.355 N 
ATOM     26  C   UNL A   1      32.768  24.404  25.906  1.00  0.00     0.118 C 
ATOM     27  C   UNL A   1      34.005  25.466  24.061  1.00  0.00     0.121 C 
ATOM     28  C   UNL A   1      31.460  24.405  25.104  1.00  0.00     0.022 C 
ATOM     29  C   UNL A   1      32.764  25.487  23.151  1.00  0.00     0.005 C 
ATOM     30  C   UNL A   1      31.466  25.460  23.988  1.00  0.00     0.007 C 
ATOM     31  C   UNL A   1      32.815  24.342  22.132  1.00  0.00     0.009 C 
ENDBRANCH  10  25
ENDBRANCH   4   7
ENDBRANCH   2   3
ENDBRANCH   1   2
BRANCH   1  32
ATOM     32  C   UNL A   1      42.183  21.664  26.878  1.00  0.00     0.023 C 
BRANCH  32  33
ATOM     33  C   UNL A   1      42.703  22.075  25.507  1.00  0.00     0.116 C 
BRANCH  33  34
ATOM     34  N   UNL A   1      43.813  21.267  25.022  1.00  0.00    -0.352 N 
ATOM     35  C   UNL A   1      45.172  21.551  24.998  1.00  0.00     0.251 C 
ATOM     36  H   UNL A   1      43.563  20.389  24.655  1.00  0.00     0.163 HD
ATOM     37  O   UNL A   1      45.952  20.777  24.484  1.00  0.00    -0.269 OA
BRANCH  35  38
ATOM     38  C   UNL A   1      45.679  22.738  25.736  1.00  0.00     0.039 A 
ATOM     39  C   UNL A   1      45.722  22.664  27.135  1.00  0.00     0.014 A 
ATOM     40  C   UNL A   1      45.900  23.952  25.093  1.00  0.00     0.014 A 
ATOM     41  C   UNL A   1      45.722  23.839  27.881  1.00  0.00     0.010 A 
ATOM     42  C   UNL A   1      45.793  25.117  25.823  1.00  0.00     0.010 A 
ATOM     43  C   UNL A   1      45.627  25.056  27.210  1.00  0.00    -0.014 A 
BRANCH  43  44
ATOM     44  C   UNL A   1      45.182  26.288  27.845  1.00  0.00     0.031 A 
ATOM     45  C   UNL A   1      43.796  26.768  27.708  1.00  0.00     0.074 A 
ATOM     46  C   UNL A   1      46.025  26.904  28.701  1.00  0.00     0.049 A 
ATOM     47  N   UNL A   1      43.406  27.958  28.016  1.00  0.00    -0.248 NA
ATOM     48  C   UNL A   1      42.735  25.943  27.155  1.00  0.00     0.031 C 
ATOM     49  C   UNL A   1      45.693  27.911  29.702  1.00  0.00     0.029 A 
ATOM     50  N   UNL A   1      47.427  26.885  28.666  1.00  0.00    -0.354 N 
ATOM     51  C   UNL A   1      42.031  27.974  27.993  1.00  0.00     0.074 A 
ATOM     52  C   UNL A   1      41.671  26.726  27.361  1.00  0.00     0.031 C 
ATOM     53  C   UNL A   1      46.791  28.629  29.970  1.00  0.00     0.029 A 
ATOM     54  C   UNL A   1      47.829  28.178  29.057  1.00  0.00     0.049 A 
ATOM     55  H   UNL A   1      48.007  26.128  28.422  1.00  0.00     0.167 HD
ATOM     56  C   UNL A   1      41.381  28.984  28.646  1.00  0.00     0.037 A 
ATOM     57  C   UNL A   1      48.579  28.987  28.261  1.00  0.00     0.037 A 
ATOM     58  C   UNL A   1      42.332  30.008  29.102  1.00  0.00     0.049 A 
ATOM     59  C   UNL A   1      47.906  30.308  28.022  1.00  0.00     0.074 A 
ATOM     60  C   UNL A   1      42.884  30.302  30.339  1.00  0.00     0.029 A 
ATOM     61  N   UNL A   1      43.083  30.721  28.165  1.00  0.00    -0.354 N 
ATOM     62  N   UNL A   1      46.613  30.468  28.099  1.00  0.00    -0.248 NA
ATOM     63  C   UNL A   1      48.614  31.547  27.726  1.00  0.00     0.031 C 
ATOM     64  C   UNL A   1      43.999  31.156  30.136  1.00  0.00     0.029 A 
ATOM     65  C   UNL A   1      44.116  31.403  28.778  1.00  0.00     0.049 A 
ATOM     66  H   UNL A   1      42.901  30.735  27.197  1.00  0.00     0.167 HD
ATOM     67  C   UNL A   1      46.312  31.790  27.928  1.00  0.00     0.074 A 
ATOM     68  C   UNL A   1      47.594  32.424  27.680  1.00  0.00     0.031 C 
ATOM     69  C   UNL A   1      45.032  32.253  28.025  1.00  0.00     0.037 A 
BRANCH  56  70
ATOM     70  C   UNL A   1      39.939  28.902  29.136  1.00  0.00     0.064 A 
ATOM     71  C   UNL A   1      38.865  29.286  28.298  1.00  0.00     0.173 A 
ATOM     72  C   UNL A   1      39.541  28.533  30.436  1.00  0.00     0.173 A 
ATOM     73  F   UNL A   1      39.049  29.557  27.000  1.00  0.00    -0.203 F 
ATOM     74  C   UNL A   1      37.547  29.408  28.759  1.00  0.00     0.198 A 
ATOM     75  C   UNL A   1      38.235  28.699  30.912  1.00  0.00     0.198 A 
ATOM     76  F   UNL A   1      40.377  27.929  31.282  1.00  0.00    -0.203 F 
ATOM     77  F   UNL A   1      36.580  29.793  27.913  1.00  0.00    -0.200 F 
ATOM     78  C   UNL A   1      37.238  29.150  30.076  1.00  0.00     0.200 A 
ATOM     79  F   UNL A   1      37.954  28.409  32.190  1.00  0.00    -0.200 F 
ATOM     80  F   UNL A   1      35.987  29.301  30.530  1.00  0.00    -0.200 F 
ENDBRANCH  56  70
BRANCH  57  81
ATOM     81  C   UNL A   1      49.458  28.241  27.328  1.00  0.00     0.064 A 
ATOM     82  C   UNL A   1      50.715  27.828  27.813  1.00  0.00     0.173 A 
ATOM     83  C   UNL A   1      48.950  27.580  26.206  1.00  0.00     0.173 A 
ATOM     84  F   UNL A   1      51.241  28.431  28.890  1.00  0.00    -0.203 F 
ATOM     85  C   UNL A   1      51.368  26.715  27.287  1.00  0.00     0.198 A 
ATOM     86  C   UNL A   1      49.619  26.476  25.666  1.00  0.00     0.198 A 
ATOM     87  F   UNL A   1      47.751  27.912  25.710  1.00  0.00    -0.203 F 
ATOM     88  F   UNL A   1      52.493  26.266  27.862  1.00  0.00    -0.200 F 
ATOM     89  C   UNL A   1      50.804  26.022  26.231  1.00  0.00     0.200 A 
ATOM     90  F   UNL A   1      49.060  25.783  24.664  1.00  0.00    -0.200 F 
ATOM     91  F   UNL A   1      51.371  24.891  25.790  1.00  0.00    -0.200 F 
ENDBRANCH  57  81
BRANCH  69  92
ATOM     92  C   UNL A   1      44.554  33.596  27.535  1.00  0.00     0.064 A 
ATOM     93  C   UNL A   1      43.894  33.784  26.308  1.00  0.00     0.173 A 
ATOM     94  C   UNL A   1      44.597  34.730  28.381  1.00  0.00     0.173 A 
ATOM     95  F   UNL A   1      43.676  32.764  25.467  1.00  0.00    -0.203 F 
ATOM     96  C   UNL A   1      43.374  35.023  25.929  1.00  0.00     0.198 A 
ATOM     97  C   UNL A   1      44.024  35.949  28.025  1.00  0.00     0.198 A 
ATOM     98  F   UNL A   1      45.165  34.680  29.595  1.00  0.00    -0.203 F 
ATOM     99  F   UNL A   1      42.788  35.157  24.730  1.00  0.00    -0.200 F 
ATOM    100  C   UNL A   1      43.426  36.100  26.791  1.00  0.00     0.200 A 
ATOM    101  F   UNL A   1      44.034  36.969  28.895  1.00  0.00    -0.200 F 
ATOM    102  F   UNL A   1      42.877  37.273  26.446  1.00  0.00    -0.200 F 
ENDBRANCH  69  92
ENDBRANCH  43  44
ENDBRANCH  35  38
ENDBRANCH  33  34
ENDBRANCH  32  33
ENDBRANCH   1  32
TORSDOF 15
ENDMDL
MODEL 3
REMARK VINA RESULT:     -13.2      2.438      4.292
REMARK SMILES Cc1cccc(S(=O)(=O)Nc2cc(C(=O)NCCCCNC(=O)c3ccc(-c4c5nc(c(-c6c(F)c(F)c(F)c(F)c6F)c6ccc([nH]6)c(-c6c(F)c(F)c(F)c(F)c6F)c6nc(c(-c7c(F)c(F)c(F)c(F)c7F)c7ccc4[nH]7)C=C6)C=C5)cc3)cnc2N2CCC[C@H](C)C2)c1
REMARK SMILES IDX 18 1 17 2 16 3 14 4 15 5 13 7 11 8 12 9 89 10 88 11 87 12
REMARK SMILES IDX 10 13 7 15 8 16 9 17 6 18 1 19 2 20 3 21 97 22 4 23 5 24
REMARK SMILES IDX 90 25 91 26 96 27 92 28 94 29 93 30 95 31 19 32 20 33 21 34
REMARK SMILES IDX 22 35 23 37 24 38 25 39 86 40 26 41 85 42 27 43 28 44 29 45
REMARK SMILES IDX 79 46 30 47 84 48 78 49 80 50 31 51 83 52 77 53 76 54 32 56
REMARK SMILES IDX 64 57 44 58 63 59 45 60 48 61 62 62 81 63 46 64 47 65 61 67
REMARK SMILES IDX 82 68 49 69 33 70 34 71 42 72 35 73 36 74 40 75 43 76 37 77
REMARK SMILES IDX 38 78 41 79 39 80 65 81 66 82 74 83 67 84 68 85 72 86 75 87
REMARK SMILES IDX 69 88 70 89 73 90 71 91 50 92 51 93 59 94 52 95 53 96 57 97
REMARK SMILES IDX 60 98 54 99 55 100 58 101 56 102
REMARK H PARENT 16 6 10 14 21 36 80 55 48 66
REMARK Flexibility Score: inf
ROOT
ATOM      1  C   UNL A   1      32.566  28.299  27.111  1.00  0.00     0.023 C 
ENDROOT
BRANCH   1   2
ATOM      2  C   UNL A   1      32.185  27.022  26.346  1.00  0.00     0.116 C 
BRANCH   2   3
ATOM      3  N   UNL A   1      30.828  26.581  26.647  1.00  0.00    -0.352 N 
ATOM      4  C   UNL A   1      30.141  25.414  26.408  1.00  0.00     0.252 C 
ATOM      5  O   UNL A   1      29.004  25.317  26.870  1.00  0.00    -0.269 OA
ATOM      6  H   UNL A   1      30.294  27.259  27.118  1.00  0.00     0.163 HD
BRANCH   4   7
ATOM      7  C   UNL A   1      30.707  24.255  25.681  1.00  0.00     0.060 A 
ATOM      8  C   UNL A   1      31.673  23.177  23.772  1.00  0.00     0.092 A 
ATOM      9  C   UNL A   1      30.943  24.223  24.319  1.00  0.00     0.046 A 
ATOM     10  C   UNL A   1      32.011  22.056  24.553  1.00  0.00     0.153 A 
ATOM     11  N   UNL A   1      31.695  22.023  25.864  1.00  0.00    -0.236 NA
ATOM     12  C   UNL A   1      31.087  23.124  26.401  1.00  0.00     0.127 A 
BRANCH   8  13
ATOM     13  N   UNL A   1      32.097  23.308  22.415  1.00  0.00    -0.276 N 
ATOM     14  H   UNL A   1      31.716  22.720  21.724  1.00  0.00     0.180 HD
BRANCH  13  15
ATOM     15  S   UNL A   1      33.258  24.471  21.989  1.00  0.00     0.262 S 
ATOM     16  O   UNL A   1      33.280  24.434  20.537  1.00  0.00    -0.201 OA
ATOM     17  O   UNL A   1      34.457  24.166  22.735  1.00  0.00    -0.201 OA
BRANCH  15  18
ATOM     18  C   UNL A   1      32.791  26.134  22.440  1.00  0.00     0.088 A 
ATOM     19  C   UNL A   1      29.907  28.637  22.376  1.00  0.00     0.044 C 
ATOM     20  C   UNL A   1      31.254  28.018  22.613  1.00  0.00    -0.050 A 
ATOM     21  C   UNL A   1      32.317  28.845  22.968  1.00  0.00     0.003 A 
ATOM     22  C   UNL A   1      31.485  26.640  22.435  1.00  0.00     0.025 A 
ATOM     23  C   UNL A   1      33.590  28.308  23.103  1.00  0.00     0.002 A 
ATOM     24  C   UNL A   1      33.840  26.976  22.809  1.00  0.00     0.022 A 
ENDBRANCH  15  18
ENDBRANCH  13  15
ENDBRANCH   8  13
BRANCH  10  25
ATOM     25  N   UNL A   1      32.560  20.944  23.954  1.00  0.00    -0.355 N 
ATOM     26  C   UNL A   1      32.166  20.462  22.640  1.00  0.00     0.118 C 
ATOM     27  C   UNL A   1      33.856  20.485  24.429  1.00  0.00     0.121 C 
ATOM     28  C   UNL A   1      32.015  18.938  22.725  1.00  0.00     0.022 C 
ATOM     29  C   UNL A   1      33.764  18.961  24.628  1.00  0.00     0.005 C 
ATOM     30  C   UNL A   1      33.248  18.268  23.349  1.00  0.00     0.007 C 
ATOM     31  C   UNL A   1      32.903  18.623  25.853  1.00  0.00     0.009 C 
ENDBRANCH  10  25
ENDBRANCH   4   7
ENDBRANCH   2   3
ENDBRANCH   1   2
BRANCH   1  32
ATOM     32  C   UNL A   1      33.877  28.924  26.640  1.00  0.00     0.023 C 
BRANCH  32  33
ATOM     33  C   UNL A   1      34.475  29.892  27.654  1.00  0.00     0.116 C 
BRANCH  33  34
ATOM     34  N   UNL A   1      33.780  31.168  27.745  1.00  0.00    -0.352 N 
ATOM     35  C   UNL A   1      34.099  32.300  28.481  1.00  0.00     0.251 C 
ATOM     36  H   UNL A   1      32.960  31.237  27.204  1.00  0.00     0.163 HD
ATOM     37  O   UNL A   1      33.353  33.257  28.490  1.00  0.00    -0.269 OA
BRANCH  35  38
ATOM     38  C   UNL A   1      35.428  32.387  29.142  1.00  0.00     0.039 A 
ATOM     39  C   UNL A   1      36.477  32.966  28.415  1.00  0.00     0.014 A 
ATOM     40  C   UNL A   1      35.687  31.732  30.341  1.00  0.00     0.014 A 
ATOM     41  C   UNL A   1      37.793  32.662  28.753  1.00  0.00     0.010 A 
ATOM     42  C   UNL A   1      36.981  31.341  30.617  1.00  0.00     0.010 A 
ATOM     43  C   UNL A   1      38.022  31.744  29.776  1.00  0.00    -0.014 A 
BRANCH  43  44
ATOM     44  C   UNL A   1      39.275  31.018  29.933  1.00  0.00     0.031 A 
ATOM     45  C   UNL A   1      39.444  29.652  29.410  1.00  0.00     0.074 A 
ATOM     46  C   UNL A   1      40.339  31.684  30.430  1.00  0.00     0.049 A 
ATOM     47  N   UNL A   1      40.412  28.865  29.735  1.00  0.00    -0.248 NA
ATOM     48  C   UNL A   1      38.487  29.039  28.503  1.00  0.00     0.031 C 
ATOM     49  C   UNL A   1      41.743  31.299  30.347  1.00  0.00     0.029 A 
ATOM     50  N   UNL A   1      40.319  32.764  31.324  1.00  0.00    -0.354 N 
ATOM     51  C   UNL A   1      40.387  27.785  28.882  1.00  0.00     0.074 A 
ATOM     52  C   UNL A   1      39.117  27.899  28.203  1.00  0.00     0.031 C 
ATOM     53  C   UNL A   1      42.410  31.887  31.349  1.00  0.00     0.029 A 
ATOM     54  C   UNL A   1      41.425  32.569  32.173  1.00  0.00     0.049 A 
ATOM     55  H   UNL A   1      39.668  33.503  31.352  1.00  0.00     0.167 HD
ATOM     56  C   UNL A   1      41.514  27.021  28.768  1.00  0.00     0.037 A 
ATOM     57  C   UNL A   1      41.304  32.434  33.522  1.00  0.00     0.037 A 
ATOM     58  C   UNL A   1      42.515  27.411  29.771  1.00  0.00     0.049 A 
ATOM     59  C   UNL A   1      41.918  31.153  34.009  1.00  0.00     0.074 A 
ATOM     60  C   UNL A   1      43.679  28.161  29.704  1.00  0.00     0.029 A 
ATOM     61  N   UNL A   1      42.222  27.271  31.130  1.00  0.00    -0.354 N 
ATOM     62  N   UNL A   1      42.061  30.102  33.248  1.00  0.00    -0.248 NA
ATOM     63  C   UNL A   1      42.454  30.960  35.350  1.00  0.00     0.031 C 
ATOM     64  C   UNL A   1      44.057  28.512  31.025  1.00  0.00     0.029 A 
ATOM     65  C   UNL A   1      43.139  27.958  31.903  1.00  0.00     0.049 A 
ATOM     66  H   UNL A   1      41.465  26.754  31.488  1.00  0.00     0.167 HD
ATOM     67  C   UNL A   1      42.733  29.134  33.939  1.00  0.00     0.074 A 
ATOM     68  C   UNL A   1      42.943  29.709  35.256  1.00  0.00     0.031 C 
ATOM     69  C   UNL A   1      43.077  27.947  33.360  1.00  0.00     0.037 A 
BRANCH  56  70
ATOM     70  C   UNL A   1      41.832  26.135  27.567  1.00  0.00     0.064 A 
ATOM     71  C   UNL A   1      41.245  24.854  27.434  1.00  0.00     0.173 A 
ATOM     72  C   UNL A   1      42.760  26.442  26.552  1.00  0.00     0.173 A 
ATOM     73  F   UNL A   1      40.261  24.446  28.244  1.00  0.00    -0.203 F 
ATOM     74  C   UNL A   1      41.644  23.932  26.457  1.00  0.00     0.198 A 
ATOM     75  C   UNL A   1      43.194  25.507  25.605  1.00  0.00     0.198 A 
ATOM     76  F   UNL A   1      43.234  27.677  26.383  1.00  0.00    -0.203 F 
ATOM     77  F   UNL A   1      41.055  22.729  26.399  1.00  0.00    -0.200 F 
ATOM     78  C   UNL A   1      42.646  24.245  25.565  1.00  0.00     0.200 A 
ATOM     79  F   UNL A   1      44.148  25.849  24.727  1.00  0.00    -0.200 F 
ATOM     80  F   UNL A   1      43.056  23.353  24.653  1.00  0.00    -0.200 F 
ENDBRANCH  56  70
BRANCH  57  81
ATOM     81  C   UNL A   1      40.120  33.135  34.077  1.00  0.00     0.064 A 
ATOM     82  C   UNL A   1      38.966  32.363  34.322  1.00  0.00     0.173 A 
ATOM     83  C   UNL A   1      40.233  34.357  34.745  1.00  0.00     0.173 A 
ATOM     84  F   UNL A   1      38.816  31.181  33.704  1.00  0.00    -0.203 F 
ATOM     85  C   UNL A   1      38.038  32.731  35.293  1.00  0.00     0.198 A 
ATOM     86  C   UNL A   1      39.288  34.734  35.706  1.00  0.00     0.198 A 
ATOM     87  F   UNL A   1      41.316  35.127  34.572  1.00  0.00    -0.203 F 
ATOM     88  F   UNL A   1      37.027  31.904  35.598  1.00  0.00    -0.200 F 
ATOM     89  C   UNL A   1      38.216  33.903  36.006  1.00  0.00     0.200 A 
ATOM     90  F   UNL A   1      39.473  35.852  36.421  1.00  0.00    -0.200 F 
ATOM     91  F   UNL A   1      37.387  34.208  37.014  1.00  0.00    -0.200 F 
ENDBRANCH  57  81
BRANCH  69  92
ATOM     92  C   UNL A   1      43.510  26.710  34.106  1.00  0.00     0.064 A 
ATOM     93  C   UNL A   1      42.611  25.835  34.741  1.00  0.00     0.173 A 
ATOM     94  C   UNL A   1      44.854  26.270  34.055  1.00  0.00     0.173 A 
ATOM     95  F   UNL A   1      41.293  26.072  34.752  1.00  0.00    -0.203 F 
ATOM     96  C   UNL A   1      43.034  24.644  35.336  1.00  0.00     0.198 A 
ATOM     97  C   UNL A   1      45.261  25.053  34.597  1.00  0.00     0.198 A 
ATOM     98  F   UNL A   1      45.807  26.990  33.447  1.00  0.00    -0.203 F 
ATOM     99  F   UNL A   1      42.141  23.865  35.964  1.00  0.00    -0.200 F 
ATOM    100  C   UNL A   1      44.353  24.247  35.252  1.00  0.00     0.200 A 
ATOM    101  F   UNL A   1      46.534  24.655  34.459  1.00  0.00    -0.200 F 
ATOM    102  F   UNL A   1      44.744  23.077  35.776  1.00  0.00    -0.200 F 
ENDBRANCH  69  92
ENDBRANCH  43  44
ENDBRANCH  35  38
ENDBRANCH  33  34
ENDBRANCH  32  33
ENDBRANCH   1  32
TORSDOF 15
ENDMDL
