MODEL 1
REMARK VINA RESULT:     -13.0      0.000      0.000
REMARK SMILES Cc1c(CC(=O)N[C@H](CO)C(=O)NCCCCNC(=O)c2ccc(-c3c4nc(c(-c5c(F)c(F)c(F)c(F)c5F)c5ccc([nH]5)c(-c5c(F)c(F)c(F)c(F)c5F)c5nc(c(-c6c(F)c(F)c(F)c(F)c6F)c6ccc3[nH]6)C=C5)C=C4)cc2)cc(-c2ccc(S(C)(=O)=O)cc2)n1-c1ccc(F)cc1
REMARK SMILES IDX 14 1 13 2 11 3 12 4 8 6 7 7 5 8 6 9 4 11 3 12 1 13 2 14
REMARK SMILES IDX 96 15 84 16 85 17 97 18 98 19 103 20 99 21 102 22 100 23
REMARK SMILES IDX 101 24 86 25 87 26 95 27 88 28 94 29 89 30 90 31 91 32 92 33
REMARK SMILES IDX 93 34 9 35 10 36 15 38 16 39 17 40 18 41 19 42 20 44 21 45
REMARK SMILES IDX 22 46 83 47 23 48 82 49 24 50 25 51 26 52 76 53 27 54 81 55
REMARK SMILES IDX 75 56 77 57 28 58 80 59 74 60 73 61 29 63 61 64 41 65 60 66
REMARK SMILES IDX 42 67 45 68 59 69 78 70 43 71 44 72 58 74 79 75 46 76 30 77
REMARK SMILES IDX 31 78 39 79 32 80 33 81 37 82 40 83 34 84 35 85 38 86 36 87
REMARK SMILES IDX 62 88 63 89 71 90 64 91 65 92 69 93 72 94 66 95 67 96 70 97
REMARK SMILES IDX 68 98 47 99 48 100 56 101 49 102 50 103 54 104 57 105 51 106
REMARK SMILES IDX 52 107 55 108 53 109
REMARK H PARENT 13 5 7 10 10 37 18 43 77 62 45 73
REMARK Flexibility Score: inf
ROOT
ATOM      1  C   UNL A   1      46.728  23.593  25.175  1.00  0.00     0.116 C 
ENDROOT
BRANCH   1   2
ATOM      2  N   UNL A   1      45.401  23.169  24.639  1.00  0.00    -0.354 N 
ATOM      3  C   UNL A   1      44.506  22.160  24.448  1.00  0.00     0.244 C 
ATOM      4  O   UNL A   1      43.405  22.663  24.129  1.00  0.00    -0.273 OA
ATOM      5  H   UNL A   1      44.990  23.977  24.254  1.00  0.00     0.163 HD
BRANCH   3   6
ATOM      6  C   UNL A   1      44.556  20.541  24.391  1.00  0.00     0.197 C 
BRANCH   6   7
ATOM      7  N   UNL A   1      43.464  19.573  24.586  1.00  0.00    -0.342 N 
ATOM      8  C   UNL A   1      43.099  19.050  25.802  1.00  0.00     0.225 C 
ATOM      9  O   UNL A   1      42.726  17.885  25.899  1.00  0.00    -0.275 OA
ATOM     10  H   UNL A   1      42.963  19.280  23.791  1.00  0.00     0.164 HD
BRANCH   8  11
ATOM     11  C   UNL A   1      43.011  20.046  26.911  1.00  0.00     0.137 C 
BRANCH  11  12
ATOM     12  C   UNL A   1      41.872  21.015  26.937  1.00  0.00    -0.017 A 
ATOM     13  C   UNL A   1      43.194  22.980  27.933  1.00  0.00     0.065 C 
ATOM     14  C   UNL A   1      42.004  22.340  27.299  1.00  0.00     0.024 A 
ATOM     15  N   UNL A   1      40.821  23.000  27.004  1.00  0.00    -0.314 N 
ATOM     16  C   UNL A   1      40.464  20.833  26.762  1.00  0.00     0.033 A 
ATOM     17  C   UNL A   1      39.849  22.067  26.654  1.00  0.00     0.053 A 
BRANCH  15  18
ATOM     18  C   UNL A   1      40.664  24.400  26.955  1.00  0.00     0.046 A 
ATOM     19  C   UNL A   1      41.217  25.133  25.901  1.00  0.00     0.029 A 
ATOM     20  C   UNL A   1      40.023  25.033  28.027  1.00  0.00     0.029 A 
ATOM     21  C   UNL A   1      41.123  26.519  25.924  1.00  0.00     0.041 A 
ATOM     22  C   UNL A   1      39.943  26.418  28.046  1.00  0.00     0.041 A 
ATOM     23  C   UNL A   1      40.492  27.146  26.996  1.00  0.00     0.123 A 
ATOM     24  F   UNL A   1      40.423  28.483  27.024  1.00  0.00    -0.207 F 
ENDBRANCH  15  18
BRANCH  17  25
ATOM     25  C   UNL A   1      38.546  22.377  26.030  1.00  0.00    -0.001 A 
ATOM     26  C   UNL A   1      37.974  21.446  25.144  1.00  0.00     0.011 A 
ATOM     27  C   UNL A   1      37.843  23.560  26.300  1.00  0.00     0.011 A 
ATOM     28  C   UNL A   1      36.780  21.719  24.472  1.00  0.00     0.021 A 
ATOM     29  C   UNL A   1      36.639  23.842  25.628  1.00  0.00     0.021 A 
ATOM     30  C   UNL A   1      36.132  22.932  24.695  1.00  0.00     0.067 A 
BRANCH  30  31
ATOM     31  S   UNL A   1      34.634  23.276  23.794  1.00  0.00     0.175 S 
ATOM     32  C   UNL A   1      33.628  21.833  24.040  1.00  0.00     0.163 C 
ATOM     33  O   UNL A   1      33.992  24.393  24.451  1.00  0.00    -0.224 OA
ATOM     34  O   UNL A   1      34.974  23.330  22.380  1.00  0.00    -0.224 OA
ENDBRANCH  30  31
ENDBRANCH  17  25
ENDBRANCH  11  12
ENDBRANCH   8  11
ENDBRANCH   6   7
BRANCH   6  35
ATOM     35  C   UNL A   1      45.848  19.864  24.991  1.00  0.00     0.191 C 
BRANCH  35  36
ATOM     36  O   UNL A   1      47.069  20.188  24.357  1.00  0.00    -0.394 OA
ATOM     37  H   UNL A   1      46.983  20.053  23.400  1.00  0.00     0.210 HD
ENDBRANCH  35  36
ENDBRANCH   6  35
ENDBRANCH   3   6
ENDBRANCH   1   2
BRANCH   1  38
ATOM     38  C   UNL A   1      47.358  24.831  24.482  1.00  0.00     0.023 C 
BRANCH  38  39
ATOM     39  C   UNL A   1      46.965  26.271  24.930  1.00  0.00     0.023 C 
BRANCH  39  40
ATOM     40  C   UNL A   1      45.804  26.492  25.937  1.00  0.00     0.116 C 
BRANCH  40  41
ATOM     41  N   UNL A   1      46.201  26.440  27.344  1.00  0.00    -0.352 N 
ATOM     42  C   UNL A   1      45.639  26.907  28.524  1.00  0.00     0.251 C 
ATOM     43  H   UNL A   1      47.054  25.969  27.485  1.00  0.00     0.163 HD
ATOM     44  O   UNL A   1      46.227  26.602  29.568  1.00  0.00    -0.269 OA
BRANCH  42  45
ATOM     45  C   UNL A   1      44.386  27.751  28.655  1.00  0.00     0.039 A 
ATOM     46  C   UNL A   1      44.199  28.877  27.839  1.00  0.00     0.014 A 
ATOM     47  C   UNL A   1      43.457  27.632  29.672  1.00  0.00     0.014 A 
ATOM     48  C   UNL A   1      43.142  29.860  28.052  1.00  0.00     0.010 A 
ATOM     49  C   UNL A   1      42.391  28.620  29.860  1.00  0.00     0.010 A 
ATOM     50  C   UNL A   1      42.227  29.853  29.139  1.00  0.00    -0.014 A 
BRANCH  50  51
ATOM     51  C   UNL A   1      41.588  31.370  29.653  1.00  0.00     0.031 A 
ATOM     52  C   UNL A   1      42.639  31.952  30.584  1.00  0.00     0.074 A 
ATOM     53  C   UNL A   1      40.440  32.144  29.996  1.00  0.00     0.049 A 
ATOM     54  N   UNL A   1      42.345  31.880  31.848  1.00  0.00    -0.248 NA
ATOM     55  C   UNL A   1      44.080  31.960  30.345  1.00  0.00     0.031 C 
ATOM     56  C   UNL A   1      40.510  33.579  30.523  1.00  0.00     0.029 A 
ATOM     57  N   UNL A   1      39.040  31.970  30.106  1.00  0.00    -0.354 N 
ATOM     58  C   UNL A   1      43.333  31.080  32.321  1.00  0.00     0.074 A 
ATOM     59  C   UNL A   1      44.481  31.319  31.454  1.00  0.00     0.031 C 
ATOM     60  C   UNL A   1      39.298  34.108  30.820  1.00  0.00     0.029 A 
ATOM     61  C   UNL A   1      38.277  33.104  30.609  1.00  0.00     0.049 A 
ATOM     62  H   UNL A   1      38.604  31.123  29.854  1.00  0.00     0.167 HD
ATOM     63  C   UNL A   1      43.004  30.056  33.149  1.00  0.00     0.037 A 
ATOM     64  C   UNL A   1      36.961  33.191  31.026  1.00  0.00     0.037 A 
ATOM     65  C   UNL A   1      41.574  29.702  33.150  1.00  0.00     0.049 A 
ATOM     66  C   UNL A   1      36.892  32.076  32.012  1.00  0.00     0.074 A 
ATOM     67  C   UNL A   1      40.637  29.427  32.179  1.00  0.00     0.029 A 
ATOM     68  N   UNL A   1      40.779  29.776  34.279  1.00  0.00    -0.354 N 
ATOM     69  N   UNL A   1      37.142  32.172  33.291  1.00  0.00    -0.248 NA
ATOM     70  C   UNL A   1      36.521  30.756  31.522  1.00  0.00     0.031 C 
ATOM     71  C   UNL A   1      39.465  28.914  32.743  1.00  0.00     0.029 A 
ATOM     72  C   UNL A   1      39.432  29.663  33.897  1.00  0.00     0.049 A 
ATOM     73  H   UNL A   1      41.105  29.891  35.202  1.00  0.00     0.167 HD
ATOM     74  C   UNL A   1      37.347  30.854  33.666  1.00  0.00     0.074 A 
ATOM     75  C   UNL A   1      36.742  30.046  32.622  1.00  0.00     0.031 C 
ATOM     76  C   UNL A   1      38.430  30.550  34.437  1.00  0.00     0.037 A 
BRANCH  63  77
ATOM     77  C   UNL A   1      44.016  29.293  33.935  1.00  0.00     0.064 A 
ATOM     78  C   UNL A   1      44.779  29.858  34.976  1.00  0.00     0.173 A 
ATOM     79  C   UNL A   1      44.052  27.891  33.830  1.00  0.00     0.173 A 
ATOM     80  F   UNL A   1      44.810  31.174  35.211  1.00  0.00    -0.203 F 
ATOM     81  C   UNL A   1      45.468  29.071  35.889  1.00  0.00     0.198 A 
ATOM     82  C   UNL A   1      44.675  27.107  34.794  1.00  0.00     0.198 A 
ATOM     83  F   UNL A   1      43.420  27.244  32.840  1.00  0.00    -0.203 F 
ATOM     84  F   UNL A   1      46.158  29.659  36.877  1.00  0.00    -0.200 F 
ATOM     85  C   UNL A   1      45.373  27.697  35.829  1.00  0.00     0.200 A 
ATOM     86  F   UNL A   1      44.539  25.776  34.745  1.00  0.00    -0.200 F 
ATOM     87  F   UNL A   1      45.920  26.942  36.789  1.00  0.00    -0.200 F 
ENDBRANCH  63  77
BRANCH  64  88
ATOM     88  C   UNL A   1      35.760  34.131  31.248  1.00  0.00     0.064 A 
ATOM     89  C   UNL A   1      35.410  35.009  32.286  1.00  0.00     0.173 A 
ATOM     90  C   UNL A   1      34.807  34.112  30.180  1.00  0.00     0.173 A 
ATOM     91  F   UNL A   1      36.176  35.120  33.381  1.00  0.00    -0.203 F 
ATOM     92  C   UNL A   1      34.226  35.810  32.231  1.00  0.00     0.198 A 
ATOM     93  C   UNL A   1      33.639  34.881  30.132  1.00  0.00     0.198 A 
ATOM     94  F   UNL A   1      35.021  33.344  29.102  1.00  0.00    -0.203 F 
ATOM     95  F   UNL A   1      33.931  36.657  33.230  1.00  0.00    -0.200 F 
ATOM     96  C   UNL A   1      33.352  35.750  31.153  1.00  0.00     0.200 A 
ATOM     97  F   UNL A   1      32.818  34.780  29.074  1.00  0.00    -0.200 F 
ATOM     98  F   UNL A   1      32.258  36.526  31.088  1.00  0.00    -0.200 F 
ENDBRANCH  64  88
BRANCH  76  99
ATOM     99  C   UNL A   1      38.729  31.476  35.551  1.00  0.00     0.064 A 
ATOM    100  C   UNL A   1      39.433  32.642  35.246  1.00  0.00     0.173 A 
ATOM    101  C   UNL A   1      38.196  31.330  36.840  1.00  0.00     0.173 A 
ATOM    102  F   UNL A   1      39.962  32.812  34.023  1.00  0.00    -0.203 F 
ATOM    103  C   UNL A   1      39.522  33.672  36.171  1.00  0.00     0.198 A 
ATOM    104  C   UNL A   1      38.250  32.378  37.746  1.00  0.00     0.198 A 
ATOM    105  F   UNL A   1      37.522  30.225  37.185  1.00  0.00    -0.203 F 
ATOM    106  F   UNL A   1      40.155  34.805  35.843  1.00  0.00    -0.200 F 
ATOM    107  C   UNL A   1      38.903  33.552  37.407  1.00  0.00     0.200 A 
ATOM    108  F   UNL A   1      37.603  32.281  38.916  1.00  0.00    -0.200 F 
ATOM    109  F   UNL A   1      38.903  34.585  38.259  1.00  0.00    -0.200 F 
ENDBRANCH  76  99
ENDBRANCH  50  51
ENDBRANCH  42  45
ENDBRANCH  40  41
ENDBRANCH  39  40
ENDBRANCH  38  39
ENDBRANCH   1  38
TORSDOF 19
ENDMDL
MODEL 2
REMARK VINA RESULT:     -12.0      3.085      7.987
REMARK SMILES Cc1c(CC(=O)N[C@H](CO)C(=O)NCCCCNC(=O)c2ccc(-c3c4nc(c(-c5c(F)c(F)c(F)c(F)c5F)c5ccc([nH]5)c(-c5c(F)c(F)c(F)c(F)c5F)c5nc(c(-c6c(F)c(F)c(F)c(F)c6F)c6ccc3[nH]6)C=C5)C=C4)cc2)cc(-c2ccc(S(C)(=O)=O)cc2)n1-c1ccc(F)cc1
REMARK SMILES IDX 14 1 13 2 11 3 12 4 8 6 7 7 5 8 6 9 4 11 3 12 1 13 2 14
REMARK SMILES IDX 96 15 84 16 85 17 97 18 98 19 103 20 99 21 102 22 100 23
REMARK SMILES IDX 101 24 86 25 87 26 95 27 88 28 94 29 89 30 90 31 91 32 92 33
REMARK SMILES IDX 93 34 9 35 10 36 15 38 16 39 17 40 18 41 19 42 20 44 21 45
REMARK SMILES IDX 22 46 83 47 23 48 82 49 24 50 25 51 26 52 76 53 27 54 81 55
REMARK SMILES IDX 75 56 77 57 28 58 80 59 74 60 73 61 29 63 61 64 41 65 60 66
REMARK SMILES IDX 42 67 45 68 59 69 78 70 43 71 44 72 58 74 79 75 46 76 30 77
REMARK SMILES IDX 31 78 39 79 32 80 33 81 37 82 40 83 34 84 35 85 38 86 36 87
REMARK SMILES IDX 62 88 63 89 71 90 64 91 65 92 69 93 72 94 66 95 67 96 70 97
REMARK SMILES IDX 68 98 47 99 48 100 56 101 49 102 50 103 54 104 57 105 51 106
REMARK SMILES IDX 52 107 55 108 53 109
REMARK H PARENT 13 5 7 10 10 37 18 43 77 62 45 73
REMARK Flexibility Score: inf
ROOT
ATOM      1  C   UNL A   1      43.172  24.547  26.697  1.00  0.00     0.116 C 
ENDROOT
BRANCH   1   2
ATOM      2  N   UNL A   1      43.086  23.162  26.145  1.00  0.00    -0.354 N 
ATOM      3  C   UNL A   1      42.296  22.105  25.807  1.00  0.00     0.244 C 
ATOM      4  O   UNL A   1      42.968  21.321  25.100  1.00  0.00    -0.273 OA
ATOM      5  H   UNL A   1      44.009  22.895  25.931  1.00  0.00     0.163 HD
BRANCH   3   6
ATOM      6  C   UNL A   1      40.818  21.571  26.200  1.00  0.00     0.197 C 
BRANCH   6   7
ATOM      7  N   UNL A   1      39.766  22.244  26.979  1.00  0.00    -0.342 N 
ATOM      8  C   UNL A   1      38.779  23.027  26.434  1.00  0.00     0.225 C 
ATOM      9  O   UNL A   1      38.374  24.027  27.020  1.00  0.00    -0.275 OA
ATOM     10  H   UNL A   1      39.770  22.125  27.956  1.00  0.00     0.164 HD
BRANCH   8  11
ATOM     11  C   UNL A   1      38.132  22.462  25.212  1.00  0.00     0.137 C 
BRANCH  11  12
ATOM     12  C   UNL A   1      36.739  22.878  24.862  1.00  0.00    -0.017 A 
ATOM     13  C   UNL A   1      35.572  20.803  25.829  1.00  0.00     0.065 C 
ATOM     14  C   UNL A   1      35.613  22.173  25.237  1.00  0.00     0.024 A 
ATOM     15  N   UNL A   1      34.494  22.938  24.947  1.00  0.00    -0.314 N 
ATOM     16  C   UNL A   1      36.241  23.915  24.012  1.00  0.00     0.033 A 
ATOM     17  C   UNL A   1      34.876  24.041  24.188  1.00  0.00     0.053 A 
BRANCH  15  18
ATOM     18  C   UNL A   1      33.196  22.696  25.441  1.00  0.00     0.046 A 
ATOM     19  C   UNL A   1      32.255  22.032  24.651  1.00  0.00     0.029 A 
ATOM     20  C   UNL A   1      32.859  23.216  26.697  1.00  0.00     0.029 A 
ATOM     21  C   UNL A   1      30.958  21.886  25.130  1.00  0.00     0.041 A 
ATOM     22  C   UNL A   1      31.559  23.074  27.162  1.00  0.00     0.041 A 
ATOM     23  C   UNL A   1      30.624  22.411  26.376  1.00  0.00     0.123 A 
ATOM     24  F   UNL A   1      29.368  22.286  26.822  1.00  0.00    -0.207 F 
ENDBRANCH  15  18
BRANCH  17  25
ATOM     25  C   UNL A   1      34.030  25.218  23.899  1.00  0.00    -0.001 A 
ATOM     26  C   UNL A   1      33.983  26.271  24.830  1.00  0.00     0.011 A 
ATOM     27  C   UNL A   1      33.280  25.337  22.719  1.00  0.00     0.011 A 
ATOM     28  C   UNL A   1      33.147  27.373  24.641  1.00  0.00     0.021 A 
ATOM     29  C   UNL A   1      32.436  26.445  22.521  1.00  0.00     0.021 A 
ATOM     30  C   UNL A   1      32.352  27.441  23.498  1.00  0.00     0.067 A 
BRANCH  30  31
ATOM     31  S   UNL A   1      31.261  28.836  23.300  1.00  0.00     0.175 S 
ATOM     32  C   UNL A   1      29.679  28.113  22.941  1.00  0.00     0.163 C 
ATOM     33  O   UNL A   1      31.178  29.493  24.585  1.00  0.00    -0.224 OA
ATOM     34  O   UNL A   1      31.685  29.560  22.111  1.00  0.00    -0.224 OA
ENDBRANCH  30  31
ENDBRANCH  17  25
ENDBRANCH  11  12
ENDBRANCH   8  11
ENDBRANCH   6   7
BRANCH   6  35
ATOM     35  C   UNL A   1      40.704  20.038  26.552  1.00  0.00     0.191 C 
BRANCH  35  36
ATOM     36  O   UNL A   1      39.823  19.280  25.747  1.00  0.00    -0.394 OA
ATOM     37  H   UNL A   1      40.129  18.360  25.709  1.00  0.00     0.210 HD
ENDBRANCH  35  36
ENDBRANCH   6  35
ENDBRANCH   3   6
ENDBRANCH   1   2
BRANCH   1  38
ATOM     38  C   UNL A   1      44.611  25.101  26.877  1.00  0.00     0.023 C 
BRANCH  38  39
ATOM     39  C   UNL A   1      44.840  26.520  27.481  1.00  0.00     0.023 C 
BRANCH  39  40
ATOM     40  C   UNL A   1      45.063  27.743  26.552  1.00  0.00     0.116 C 
BRANCH  40  41
ATOM     41  N   UNL A   1      43.948  28.032  25.649  1.00  0.00    -0.352 N 
ATOM     42  C   UNL A   1      42.627  28.411  25.836  1.00  0.00     0.251 C 
ATOM     43  H   UNL A   1      44.189  27.938  24.699  1.00  0.00     0.163 HD
ATOM     44  O   UNL A   1      41.977  28.655  24.814  1.00  0.00    -0.269 OA
BRANCH  42  45
ATOM     45  C   UNL A   1      41.908  28.553  27.164  1.00  0.00     0.039 A 
ATOM     46  C   UNL A   1      42.222  29.611  28.032  1.00  0.00     0.014 A 
ATOM     47  C   UNL A   1      41.075  27.599  27.718  1.00  0.00     0.014 A 
ATOM     48  C   UNL A   1      41.744  29.692  29.408  1.00  0.00     0.010 A 
ATOM     49  C   UNL A   1      40.591  27.706  29.097  1.00  0.00     0.010 A 
ATOM     50  C   UNL A   1      40.979  28.693  30.068  1.00  0.00    -0.014 A 
BRANCH  50  51
ATOM     51  C   UNL A   1      41.132  28.573  31.782  1.00  0.00     0.031 A 
ATOM     52  C   UNL A   1      39.707  28.494  32.306  1.00  0.00     0.074 A 
ATOM     53  C   UNL A   1      41.852  28.934  32.959  1.00  0.00     0.049 A 
ATOM     54  N   UNL A   1      39.266  29.591  32.848  1.00  0.00    -0.248 NA
ATOM     55  C   UNL A   1      38.634  27.679  31.742  1.00  0.00     0.031 C 
ATOM     56  C   UNL A   1      41.411  28.553  34.374  1.00  0.00     0.029 A 
ATOM     57  N   UNL A   1      42.972  29.722  33.315  1.00  0.00    -0.354 N 
ATOM     58  C   UNL A   1      38.235  29.914  32.027  1.00  0.00     0.074 A 
ATOM     59  C   UNL A   1      37.736  28.647  31.506  1.00  0.00     0.031 C 
ATOM     60  C   UNL A   1      42.226  29.034  35.344  1.00  0.00     0.029 A 
ATOM     61  C   UNL A   1      43.259  29.846  34.738  1.00  0.00     0.049 A 
ATOM     62  H   UNL A   1      43.529  30.164  32.633  1.00  0.00     0.167 HD
ATOM     63  C   UNL A   1      38.125  31.194  31.591  1.00  0.00     0.037 A 
ATOM     64  C   UNL A   1      44.124  30.688  35.412  1.00  0.00     0.037 A 
ATOM     65  C   UNL A   1      39.340  32.009  31.760  1.00  0.00     0.049 A 
ATOM     66  C   UNL A   1      43.716  32.018  34.876  1.00  0.00     0.074 A 
ATOM     67  C   UNL A   1      40.671  31.849  31.445  1.00  0.00     0.029 A 
ATOM     68  N   UNL A   1      39.382  33.151  32.537  1.00  0.00    -0.354 N 
ATOM     69  N   UNL A   1      42.801  32.798  35.387  1.00  0.00    -0.248 NA
ATOM     70  C   UNL A   1      44.379  32.500  33.673  1.00  0.00     0.031 C 
ATOM     71  C   UNL A   1      41.374  33.045  31.617  1.00  0.00     0.029 A 
ATOM     72  C   UNL A   1      40.722  33.523  32.731  1.00  0.00     0.049 A 
ATOM     73  H   UNL A   1      38.598  33.627  32.897  1.00  0.00     0.167 HD
ATOM     74  C   UNL A   1      42.511  33.662  34.343  1.00  0.00     0.074 A 
ATOM     75  C   UNL A   1      43.639  33.576  33.434  1.00  0.00     0.031 C 
ATOM     76  C   UNL A   1      41.206  33.907  34.035  1.00  0.00     0.037 A 
BRANCH  63  77
ATOM     77  C   UNL A   1      36.899  31.718  30.920  1.00  0.00     0.064 A 
ATOM     78  C   UNL A   1      35.837  32.332  31.611  1.00  0.00     0.173 A 
ATOM     79  C   UNL A   1      36.887  31.849  29.520  1.00  0.00     0.173 A 
ATOM     80  F   UNL A   1      35.742  32.315  32.946  1.00  0.00    -0.203 F 
ATOM     81  C   UNL A   1      34.873  33.085  30.953  1.00  0.00     0.198 A 
ATOM     82  C   UNL A   1      35.968  32.670  28.876  1.00  0.00     0.198 A 
ATOM     83  F   UNL A   1      37.809  31.252  28.750  1.00  0.00    -0.203 F 
ATOM     84  F   UNL A   1      33.898  33.670  31.662  1.00  0.00    -0.200 F 
ATOM     85  C   UNL A   1      34.969  33.297  29.594  1.00  0.00     0.200 A 
ATOM     86  F   UNL A   1      36.100  32.899  27.564  1.00  0.00    -0.200 F 
ATOM     87  F   UNL A   1      34.124  34.134  28.983  1.00  0.00    -0.200 F 
ENDBRANCH  63  77
BRANCH  64  88
ATOM     88  C   UNL A   1      44.944  30.898  36.699  1.00  0.00     0.064 A 
ATOM     89  C   UNL A   1      44.584  31.138  38.036  1.00  0.00     0.173 A 
ATOM     90  C   UNL A   1      46.359  30.833  36.501  1.00  0.00     0.173 A 
ATOM     91  F   UNL A   1      43.297  31.264  38.390  1.00  0.00    -0.203 F 
ATOM     92  C   UNL A   1      45.564  31.267  39.070  1.00  0.00     0.198 A 
ATOM     93  C   UNL A   1      47.321  30.978  37.507  1.00  0.00     0.198 A 
ATOM     94  F   UNL A   1      46.855  30.580  35.280  1.00  0.00    -0.203 F 
ATOM     95  F   UNL A   1      45.186  31.472  40.342  1.00  0.00    -0.200 F 
ATOM     96  C   UNL A   1      46.924  31.178  38.804  1.00  0.00     0.200 A 
ATOM     97  F   UNL A   1      48.625  30.896  37.200  1.00  0.00    -0.200 F 
ATOM     98  F   UNL A   1      47.841  31.267  39.781  1.00  0.00    -0.200 F 
ENDBRANCH  64  88
BRANCH  76  99
ATOM     99  C   UNL A   1      40.286  34.118  35.174  1.00  0.00     0.064 A 
ATOM    100  C   UNL A   1      39.714  32.985  35.757  1.00  0.00     0.173 A 
ATOM    101  C   UNL A   1      40.104  35.359  35.800  1.00  0.00     0.173 A 
ATOM    102  F   UNL A   1      39.863  31.781  35.182  1.00  0.00    -0.203 F 
ATOM    103  C   UNL A   1      39.059  33.076  36.976  1.00  0.00     0.198 A 
ATOM    104  C   UNL A   1      39.487  35.440  37.039  1.00  0.00     0.198 A 
ATOM    105  F   UNL A   1      40.624  36.477  35.274  1.00  0.00    -0.203 F 
ATOM    106  F   UNL A   1      38.564  31.971  37.547  1.00  0.00    -0.200 F 
ATOM    107  C   UNL A   1      38.975  34.297  37.631  1.00  0.00     0.200 A 
ATOM    108  F   UNL A   1      39.457  36.609  37.693  1.00  0.00    -0.200 F 
ATOM    109  F   UNL A   1      38.433  34.366  38.854  1.00  0.00    -0.200 F 
ENDBRANCH  76  99
ENDBRANCH  50  51
ENDBRANCH  42  45
ENDBRANCH  40  41
ENDBRANCH  39  40
ENDBRANCH  38  39
ENDBRANCH   1  38
TORSDOF 19
ENDMDL
MODEL 3
REMARK VINA RESULT:     -11.9      1.218      2.136
REMARK SMILES Cc1c(CC(=O)N[C@H](CO)C(=O)NCCCCNC(=O)c2ccc(-c3c4nc(c(-c5c(F)c(F)c(F)c(F)c5F)c5ccc([nH]5)c(-c5c(F)c(F)c(F)c(F)c5F)c5nc(c(-c6c(F)c(F)c(F)c(F)c6F)c6ccc3[nH]6)C=C5)C=C4)cc2)cc(-c2ccc(S(C)(=O)=O)cc2)n1-c1ccc(F)cc1
REMARK SMILES IDX 14 1 13 2 11 3 12 4 8 6 7 7 5 8 6 9 4 11 3 12 1 13 2 14
REMARK SMILES IDX 96 15 84 16 85 17 97 18 98 19 103 20 99 21 102 22 100 23
REMARK SMILES IDX 101 24 86 25 87 26 95 27 88 28 94 29 89 30 90 31 91 32 92 33
REMARK SMILES IDX 93 34 9 35 10 36 15 38 16 39 17 40 18 41 19 42 20 44 21 45
REMARK SMILES IDX 22 46 83 47 23 48 82 49 24 50 25 51 26 52 76 53 27 54 81 55
REMARK SMILES IDX 75 56 77 57 28 58 80 59 74 60 73 61 29 63 61 64 41 65 60 66
REMARK SMILES IDX 42 67 45 68 59 69 78 70 43 71 44 72 58 74 79 75 46 76 30 77
REMARK SMILES IDX 31 78 39 79 32 80 33 81 37 82 40 83 34 84 35 85 38 86 36 87
REMARK SMILES IDX 62 88 63 89 71 90 64 91 65 92 69 93 72 94 66 95 67 96 70 97
REMARK SMILES IDX 68 98 47 99 48 100 56 101 49 102 50 103 54 104 57 105 51 106
REMARK SMILES IDX 52 107 55 108 53 109
REMARK H PARENT 13 5 7 10 10 37 18 43 77 62 45 73
REMARK Flexibility Score: inf
ROOT
ATOM      1  C   UNL A   1      46.413  23.447  26.063  1.00  0.00     0.116 C 
ENDROOT
BRANCH   1   2
ATOM      2  N   UNL A   1      45.236  23.079  25.222  1.00  0.00    -0.354 N 
ATOM      3  C   UNL A   1      44.400  22.098  24.778  1.00  0.00     0.244 C 
ATOM      4  O   UNL A   1      43.401  22.640  24.253  1.00  0.00    -0.273 OA
ATOM      5  H   UNL A   1      44.927  23.914  24.803  1.00  0.00     0.163 HD
BRANCH   3   6
ATOM      6  C   UNL A   1      44.452  20.485  24.638  1.00  0.00     0.197 C 
BRANCH   6   7
ATOM      7  N   UNL A   1      43.347  19.514  24.691  1.00  0.00    -0.342 N 
ATOM      8  C   UNL A   1      42.876  18.937  25.845  1.00  0.00     0.225 C 
ATOM      9  O   UNL A   1      42.494  17.771  25.854  1.00  0.00    -0.275 OA
ATOM     10  H   UNL A   1      42.916  19.261  23.843  1.00  0.00     0.164 HD
BRANCH   8  11
ATOM     11  C   UNL A   1      42.693  19.880  26.988  1.00  0.00     0.137 C 
BRANCH  11  12
ATOM     12  C   UNL A   1      41.562  20.858  26.956  1.00  0.00    -0.017 A 
ATOM     13  C   UNL A   1      42.774  22.735  28.225  1.00  0.00     0.065 C 
ATOM     14  C   UNL A   1      41.658  22.154  27.422  1.00  0.00     0.024 A 
ATOM     15  N   UNL A   1      40.517  22.846  27.045  1.00  0.00    -0.314 N 
ATOM     16  C   UNL A   1      40.181  20.705  26.617  1.00  0.00     0.033 A 
ATOM     17  C   UNL A   1      39.586  21.950  26.527  1.00  0.00     0.053 A 
BRANCH  15  18
ATOM     18  C   UNL A   1      40.372  24.248  27.076  1.00  0.00     0.046 A 
ATOM     19  C   UNL A   1      40.966  25.038  26.087  1.00  0.00     0.029 A 
ATOM     20  C   UNL A   1      39.702  24.821  28.163  1.00  0.00     0.029 A 
ATOM     21  C   UNL A   1      40.881  26.421  26.192  1.00  0.00     0.041 A 
ATOM     22  C   UNL A   1      39.631  26.203  28.264  1.00  0.00     0.041 A 
ATOM     23  C   UNL A   1      40.220  26.988  27.279  1.00  0.00     0.123 A 
ATOM     24  F   UNL A   1      40.160  28.321  27.385  1.00  0.00    -0.207 F 
ENDBRANCH  15  18
BRANCH  17  25
ATOM     25  C   UNL A   1      38.360  22.318  25.788  1.00  0.00    -0.001 A 
ATOM     26  C   UNL A   1      37.805  23.596  25.979  1.00  0.00     0.011 A 
ATOM     27  C   UNL A   1      37.734  21.447  24.885  1.00  0.00     0.011 A 
ATOM     28  C   UNL A   1      36.610  23.970  25.360  1.00  0.00     0.021 A 
ATOM     29  C   UNL A   1      36.530  21.816  24.258  1.00  0.00     0.021 A 
ATOM     30  C   UNL A   1      35.960  23.064  24.524  1.00  0.00     0.067 A 
BRANCH  30  31
ATOM     31  S   UNL A   1      34.414  23.548  23.781  1.00  0.00     0.175 S 
ATOM     32  C   UNL A   1      33.256  22.316  24.325  1.00  0.00     0.163 C 
ATOM     33  O   UNL A   1      34.040  24.814  24.371  1.00  0.00    -0.224 OA
ATOM     34  O   UNL A   1      34.555  23.403  22.340  1.00  0.00    -0.224 OA
ENDBRANCH  30  31
ENDBRANCH  17  25
ENDBRANCH  11  12
ENDBRANCH   8  11
ENDBRANCH   6   7
BRANCH   6  35
ATOM     35  C   UNL A   1      45.690  19.769  25.304  1.00  0.00     0.191 C 
BRANCH  35  36
ATOM     36  O   UNL A   1      46.207  18.651  24.610  1.00  0.00    -0.394 OA
ATOM     37  H   UNL A   1      47.175  18.711  24.575  1.00  0.00     0.210 HD
ENDBRANCH  35  36
ENDBRANCH   6  35
ENDBRANCH   3   6
ENDBRANCH   1   2
BRANCH   1  38
ATOM     38  C   UNL A   1      46.783  24.954  26.061  1.00  0.00     0.023 C 
BRANCH  38  39
ATOM     39  C   UNL A   1      47.453  25.603  27.311  1.00  0.00     0.023 C 
BRANCH  39  40
ATOM     40  C   UNL A   1      46.621  26.483  28.281  1.00  0.00     0.116 C 
BRANCH  40  41
ATOM     41  N   UNL A   1      45.246  26.027  28.488  1.00  0.00    -0.352 N 
ATOM     42  C   UNL A   1      44.108  26.606  29.032  1.00  0.00     0.251 C 
ATOM     43  H   UNL A   1      45.094  25.107  28.171  1.00  0.00     0.163 HD
ATOM     44  O   UNL A   1      43.070  25.938  28.968  1.00  0.00    -0.269 OA
BRANCH  42  45
ATOM     45  C   UNL A   1      44.016  27.967  29.694  1.00  0.00     0.039 A 
ATOM     46  C   UNL A   1      43.107  28.188  30.741  1.00  0.00     0.014 A 
ATOM     47  C   UNL A   1      44.625  29.117  29.225  1.00  0.00     0.014 A 
ATOM     48  C   UNL A   1      42.799  29.510  31.275  1.00  0.00     0.010 A 
ATOM     49  C   UNL A   1      44.316  30.435  29.786  1.00  0.00     0.010 A 
ATOM     50  C   UNL A   1      43.306  30.736  30.765  1.00  0.00    -0.014 A 
BRANCH  50  51
ATOM     51  C   UNL A   1      42.338  32.148  30.972  1.00  0.00     0.031 A 
ATOM     52  C   UNL A   1      43.047  32.967  32.037  1.00  0.00     0.074 A 
ATOM     53  C   UNL A   1      41.035  32.729  30.983  1.00  0.00     0.049 A 
ATOM     54  N   UNL A   1      42.491  32.930  33.212  1.00  0.00    -0.248 NA
ATOM     55  C   UNL A   1      44.485  33.212  32.108  1.00  0.00     0.031 C 
ATOM     56  C   UNL A   1      40.758  34.185  31.360  1.00  0.00     0.029 A 
ATOM     57  N   UNL A   1      39.692  32.318  30.813  1.00  0.00    -0.354 N 
ATOM     58  C   UNL A   1      43.461  32.349  33.963  1.00  0.00     0.074 A 
ATOM     59  C   UNL A   1      44.721  32.728  33.338  1.00  0.00     0.031 C 
ATOM     60  C   UNL A   1      39.442  34.511  31.338  1.00  0.00     0.029 A 
ATOM     61  C   UNL A   1      38.666  33.331  31.023  1.00  0.00     0.049 A 
ATOM     62  H   UNL A   1      39.462  31.393  30.564  1.00  0.00     0.167 HD
ATOM     63  C   UNL A   1      43.118  31.341  34.805  1.00  0.00     0.037 A 
ATOM     64  C   UNL A   1      37.293  33.212  31.141  1.00  0.00     0.037 A 
ATOM     65  C   UNL A   1      41.798  30.742  34.542  1.00  0.00     0.049 A 
ATOM     66  C   UNL A   1      37.180  32.171  32.202  1.00  0.00     0.074 A 
ATOM     67  C   UNL A   1      41.159  30.242  33.430  1.00  0.00     0.029 A 
ATOM     68  N   UNL A   1      40.768  30.750  35.464  1.00  0.00    -0.354 N 
ATOM     69  N   UNL A   1      37.117  32.395  33.487  1.00  0.00    -0.248 NA
ATOM     70  C   UNL A   1      37.141  30.776  31.785  1.00  0.00     0.031 C 
ATOM     71  C   UNL A   1      39.987  29.569  33.785  1.00  0.00     0.029 A 
ATOM     72  C   UNL A   1      39.577  30.376  34.820  1.00  0.00     0.049 A 
ATOM     73  H   UNL A   1      40.855  30.982  36.417  1.00  0.00     0.167 HD
ATOM     74  C   UNL A   1      37.437  31.163  34.033  1.00  0.00     0.074 A 
ATOM     75  C   UNL A   1      37.217  30.193  32.975  1.00  0.00     0.031 C 
ATOM     76  C   UNL A   1      38.352  31.106  35.042  1.00  0.00     0.037 A 
BRANCH  63  77
ATOM     77  C   UNL A   1      44.034  30.824  35.862  1.00  0.00     0.064 A 
ATOM     78  C   UNL A   1      44.302  31.509  37.064  1.00  0.00     0.173 A 
ATOM     79  C   UNL A   1      44.464  29.485  35.803  1.00  0.00     0.173 A 
ATOM     80  F   UNL A   1      43.920  32.775  37.269  1.00  0.00    -0.203 F 
ATOM     81  C   UNL A   1      44.890  30.878  38.152  1.00  0.00     0.198 A 
ATOM     82  C   UNL A   1      44.977  28.838  36.920  1.00  0.00     0.198 A 
ATOM     83  F   UNL A   1      44.325  28.752  34.688  1.00  0.00    -0.203 F 
ATOM     84  F   UNL A   1      45.098  31.570  39.280  1.00  0.00    -0.200 F 
ATOM     85  C   UNL A   1      45.178  29.531  38.098  1.00  0.00     0.200 A 
ATOM     86  F   UNL A   1      45.213  27.521  36.865  1.00  0.00    -0.200 F 
ATOM     87  F   UNL A   1      45.615  28.892  39.189  1.00  0.00    -0.200 F 
ENDBRANCH  63  77
BRANCH  64  88
ATOM     88  C   UNL A   1      35.941  33.938  31.006  1.00  0.00     0.064 A 
ATOM     89  C   UNL A   1      34.904  33.863  30.061  1.00  0.00     0.173 A 
ATOM     90  C   UNL A   1      35.681  34.877  32.054  1.00  0.00     0.173 A 
ATOM     91  F   UNL A   1      35.003  33.059  28.994  1.00  0.00    -0.203 F 
ATOM     92  C   UNL A   1      33.710  34.642  30.187  1.00  0.00     0.198 A 
ATOM     93  C   UNL A   1      34.523  35.654  32.170  1.00  0.00     0.198 A 
ATOM     94  F   UNL A   1      36.568  35.037  33.048  1.00  0.00    -0.203 F 
ATOM     95  F   UNL A   1      32.727  34.530  29.279  1.00  0.00    -0.200 F 
ATOM     96  C   UNL A   1      33.521  35.525  31.242  1.00  0.00     0.200 A 
ATOM     97  F   UNL A   1      34.389  36.503  33.201  1.00  0.00    -0.200 F 
ATOM     98  F   UNL A   1      32.387  36.231  31.376  1.00  0.00    -0.200 F 
ENDBRANCH  64  88
BRANCH  76  99
ATOM     99  C   UNL A   1      38.243  32.143  36.091  1.00  0.00     0.064 A 
ATOM    100  C   UNL A   1      37.781  31.743  37.346  1.00  0.00     0.173 A 
ATOM    101  C   UNL A   1      38.742  33.445  35.943  1.00  0.00     0.173 A 
ATOM    102  F   UNL A   1      37.291  30.505  37.522  1.00  0.00    -0.203 F 
ATOM    103  C   UNL A   1      37.898  32.586  38.441  1.00  0.00     0.198 A 
ATOM    104  C   UNL A   1      38.897  34.270  37.047  1.00  0.00     0.198 A 
ATOM    105  F   UNL A   1      39.187  33.881  34.757  1.00  0.00    -0.203 F 
ATOM    106  F   UNL A   1      37.499  32.166  39.648  1.00  0.00    -0.200 F 
ATOM    107  C   UNL A   1      38.486  33.835  38.297  1.00  0.00     0.200 A 
ATOM    108  F   UNL A   1      39.516  35.452  36.915  1.00  0.00    -0.200 F 
ATOM    109  F   UNL A   1      38.691  34.607  39.372  1.00  0.00    -0.200 F 
ENDBRANCH  76  99
ENDBRANCH  50  51
ENDBRANCH  42  45
ENDBRANCH  40  41
ENDBRANCH  39  40
ENDBRANCH  38  39
ENDBRANCH   1  38
TORSDOF 19
ENDMDL
