MODEL 1
REMARK VINA RESULT:     -12.4      0.000      0.000
REMARK SMILES O=C(NCCCCNC(=O)[C@]1([NH2+]C2CC2)CCC[C@@H](n2cc(Br)cn2)C1)c1ccc(-c2c3nc(c(-c4c(F)c(F)c(F)c(F)c4F)c4ccc([nH]4)c(-c4c(F)c(F)c(F)c(F)c4F)c4nc(c(-c5c(F)c(F)c(F)c(F)c5F)c5ccc2[nH]5)C=C4)C=C3)cc1
REMARK SMILES IDX 5 1 4 2 3 3 1 4 2 5 27 7 28 8 89 9 29 10 88 11 30 12 31 13
REMARK SMILES IDX 32 14 82 15 33 16 87 17 81 18 83 19 34 20 86 21 80 22 79 23
REMARK SMILES IDX 35 25 67 26 47 27 66 28 48 29 51 30 65 31 84 32 49 33 50 34
REMARK SMILES IDX 64 36 85 37 52 38 36 39 37 40 45 41 38 42 39 43 43 44 46 45
REMARK SMILES IDX 40 46 41 47 44 48 42 49 68 50 69 51 77 52 70 53 71 54 75 55
REMARK SMILES IDX 78 56 72 57 73 58 76 59 74 60 53 61 54 62 62 63 55 64 56 65
REMARK SMILES IDX 60 66 63 67 57 68 58 69 61 70 59 71 6 72 7 73 8 74 9 75
REMARK SMILES IDX 10 77 11 78 16 79 26 80 17 81 19 82 18 83 12 84 13 87 14 88
REMARK SMILES IDX 15 89 20 90 21 91 25 92 22 93 24 94 23 95
REMARK H PARENT 3 6 83 24 51 35 8 76 12 85 12 86
REMARK Flexibility Score: inf
ROOT
ATOM      1  C   UNL A   1      37.035  21.810  24.344  1.00  0.00     0.023 C 
ENDROOT
BRANCH   1   2
ATOM      2  C   UNL A   1      37.471  22.262  25.735  1.00  0.00     0.116 C 
BRANCH   2   3
ATOM      3  N   UNL A   1      38.794  21.809  26.111  1.00  0.00    -0.352 N 
ATOM      4  O   UNL A   1      40.832  21.607  26.917  1.00  0.00    -0.269 OA
ATOM      5  C   UNL A   1      39.890  22.366  26.718  1.00  0.00     0.251 C 
ATOM      6  H   UNL A   1      38.943  20.865  25.872  1.00  0.00     0.163 HD
BRANCH   5   7
ATOM      7  C   UNL A   1      40.034  23.798  27.120  1.00  0.00     0.039 A 
ATOM      8  C   UNL A   1      39.157  24.834  26.804  1.00  0.00     0.014 A 
ATOM      9  C   UNL A   1      41.156  24.099  27.922  1.00  0.00     0.014 A 
ATOM     10  C   UNL A   1      39.406  26.134  27.256  1.00  0.00     0.010 A 
ATOM     11  C   UNL A   1      41.408  25.392  28.379  1.00  0.00     0.010 A 
ATOM     12  C   UNL A   1      40.532  26.417  28.040  1.00  0.00    -0.014 A 
BRANCH  12  13
ATOM     13  C   UNL A   1      40.635  27.750  28.644  1.00  0.00     0.031 A 
ATOM     14  C   UNL A   1      41.741  28.594  28.102  1.00  0.00     0.074 A 
ATOM     15  C   UNL A   1      39.756  28.299  29.507  1.00  0.00     0.049 A 
ATOM     16  N   UNL A   1      42.751  29.093  28.739  1.00  0.00    -0.248 NA
ATOM     17  C   UNL A   1      41.759  28.856  26.655  1.00  0.00     0.031 C 
ATOM     18  C   UNL A   1      38.449  27.783  29.910  1.00  0.00     0.029 A 
ATOM     19  N   UNL A   1      39.824  29.507  30.147  1.00  0.00    -0.354 N 
ATOM     20  C   UNL A   1      43.458  29.859  27.812  1.00  0.00     0.074 A 
ATOM     21  C   UNL A   1      42.870  29.583  26.527  1.00  0.00     0.031 C 
ATOM     22  C   UNL A   1      37.768  28.753  30.564  1.00  0.00     0.029 A 
ATOM     23  C   UNL A   1      38.633  29.909  30.740  1.00  0.00     0.049 A 
ATOM     24  H   UNL A   1      40.647  30.046  30.184  1.00  0.00     0.167 HD
ATOM     25  C   UNL A   1      44.349  30.811  28.209  1.00  0.00     0.037 A 
ATOM     26  C   UNL A   1      38.361  31.118  31.293  1.00  0.00     0.037 A 
ATOM     27  C   UNL A   1      44.772  30.594  29.568  1.00  0.00     0.049 A 
ATOM     28  C   UNL A   1      39.648  31.782  31.603  1.00  0.00     0.074 A 
ATOM     29  C   UNL A   1      45.408  29.572  30.245  1.00  0.00     0.029 A 
ATOM     30  N   UNL A   1      44.269  31.419  30.540  1.00  0.00    -0.354 N 
ATOM     31  N   UNL A   1      40.452  31.423  32.563  1.00  0.00    -0.248 NA
ATOM     32  C   UNL A   1      40.222  32.671  30.606  1.00  0.00     0.031 C 
ATOM     33  C   UNL A   1      44.839  29.581  31.553  1.00  0.00     0.029 A 
ATOM     34  C   UNL A   1      43.926  30.633  31.605  1.00  0.00     0.049 A 
ATOM     35  H   UNL A   1      44.172  32.397  30.482  1.00  0.00     0.167 HD
ATOM     36  C   UNL A   1      41.718  31.661  32.057  1.00  0.00     0.074 A 
ATOM     37  C   UNL A   1      41.513  32.549  30.919  1.00  0.00     0.031 C 
ATOM     38  C   UNL A   1      42.774  30.886  32.435  1.00  0.00     0.037 A 
BRANCH  25  39
ATOM     39  C   UNL A   1      44.556  32.143  27.515  1.00  0.00     0.064 A 
ATOM     40  C   UNL A   1      45.735  32.342  26.761  1.00  0.00     0.173 A 
ATOM     41  C   UNL A   1      43.836  33.315  27.826  1.00  0.00     0.173 A 
ATOM     42  F   UNL A   1      46.502  31.302  26.400  1.00  0.00    -0.203 F 
ATOM     43  C   UNL A   1      46.216  33.619  26.459  1.00  0.00     0.198 A 
ATOM     44  C   UNL A   1      44.293  34.586  27.475  1.00  0.00     0.198 A 
ATOM     45  F   UNL A   1      42.728  33.298  28.574  1.00  0.00    -0.203 F 
ATOM     46  F   UNL A   1      47.417  33.756  25.880  1.00  0.00    -0.200 F 
ATOM     47  C   UNL A   1      45.501  34.741  26.828  1.00  0.00     0.200 A 
ATOM     48  F   UNL A   1      43.590  35.665  27.849  1.00  0.00    -0.200 F 
ATOM     49  F   UNL A   1      45.995  35.966  26.610  1.00  0.00    -0.200 F 
ENDBRANCH  25  39
BRANCH  26  50
ATOM     50  C   UNL A   1      37.078  31.855  31.387  1.00  0.00     0.064 A 
ATOM     51  C   UNL A   1      36.408  31.994  32.616  1.00  0.00     0.173 A 
ATOM     52  C   UNL A   1      36.641  32.687  30.340  1.00  0.00     0.173 A 
ATOM     53  F   UNL A   1      36.786  31.269  33.679  1.00  0.00    -0.203 F 
ATOM     54  C   UNL A   1      35.389  32.934  32.796  1.00  0.00     0.198 A 
ATOM     55  C   UNL A   1      35.617  33.618  30.518  1.00  0.00     0.198 A 
ATOM     56  F   UNL A   1      37.265  32.683  29.154  1.00  0.00    -0.203 F 
ATOM     57  F   UNL A   1      34.824  33.087  34.003  1.00  0.00    -0.200 F 
ATOM     58  C   UNL A   1      35.002  33.754  31.749  1.00  0.00     0.200 A 
ATOM     59  F   UNL A   1      35.276  34.431  29.508  1.00  0.00    -0.200 F 
ATOM     60  F   UNL A   1      34.074  34.702  31.939  1.00  0.00    -0.200 F 
ENDBRANCH  26  50
BRANCH  38  61
ATOM     61  C   UNL A   1      42.624  30.047  33.671  1.00  0.00     0.064 A 
ATOM     62  C   UNL A   1      42.904  30.493  34.974  1.00  0.00     0.173 A 
ATOM     63  C   UNL A   1      42.062  28.771  33.529  1.00  0.00     0.173 A 
ATOM     64  F   UNL A   1      43.342  31.738  35.203  1.00  0.00    -0.203 F 
ATOM     65  C   UNL A   1      42.686  29.668  36.077  1.00  0.00     0.198 A 
ATOM     66  C   UNL A   1      41.803  27.968  34.636  1.00  0.00     0.198 A 
ATOM     67  F   UNL A   1      41.724  28.314  32.312  1.00  0.00    -0.203 F 
ATOM     68  F   UNL A   1      42.985  30.103  37.310  1.00  0.00    -0.200 F 
ATOM     69  C   UNL A   1      42.129  28.411  35.907  1.00  0.00     0.200 A 
ATOM     70  F   UNL A   1      41.219  26.774  34.470  1.00  0.00    -0.200 F 
ATOM     71  F   UNL A   1      41.882  27.634  36.971  1.00  0.00    -0.200 F 
ENDBRANCH  38  61
ENDBRANCH  12  13
ENDBRANCH   5   7
ENDBRANCH   2   3
ENDBRANCH   1   2
BRANCH   1  72
ATOM     72  C   UNL A   1      36.612  22.945  23.401  1.00  0.00     0.023 C 
BRANCH  72  73
ATOM     73  C   UNL A   1      35.617  23.962  23.967  1.00  0.00     0.116 C 
BRANCH  73  74
ATOM     74  N   UNL A   1      34.464  24.194  23.110  1.00  0.00    -0.351 N 
ATOM     75  C   UNL A   1      33.123  24.238  23.369  1.00  0.00     0.281 C 
ATOM     76  H   UNL A   1      34.694  24.350  22.165  1.00  0.00     0.163 HD
ATOM     77  O   UNL A   1      32.397  24.464  22.393  1.00  0.00    -0.268 OA
BRANCH  75  78
ATOM     78  C   UNL A   1      32.527  24.090  24.813  1.00  0.00     0.177 C 
ATOM     79  C   UNL A   1      30.973  24.006  24.783  1.00  0.00     0.079 C 
ATOM     80  C   UNL A   1      32.937  25.310  25.683  1.00  0.00     0.106 C 
ATOM     81  C   UNL A   1      30.256  25.310  24.438  1.00  0.00     0.009 C 
ATOM     82  C   UNL A   1      32.251  26.622  25.247  1.00  0.00     0.114 C 
ATOM     83  C   UNL A   1      30.726  26.466  25.302  1.00  0.00     0.028 C 
BRANCH  78  84
ATOM     84  N   UNL A   1      33.085  22.846  25.434  1.00  0.00    -0.331 N 
ATOM     85  H   UNL A   1      33.841  22.510  24.837  1.00  0.00     0.347 HD
ATOM     86  H   UNL A   1      32.302  22.198  25.514  1.00  0.00     0.347 HD
BRANCH  84  87
ATOM     87  C   UNL A   1      33.621  23.002  26.800  1.00  0.00     0.183 C 
ATOM     88  C   UNL A   1      32.902  22.467  28.002  1.00  0.00     0.071 C 
ATOM     89  C   UNL A   1      34.131  21.772  27.497  1.00  0.00     0.071 C 
ENDBRANCH  84  87
ENDBRANCH  78  84
BRANCH  82  90
ATOM     90  N   UNL A   1      32.735  27.760  26.036  1.00  0.00    -0.268 N 
ATOM     91  C   UNL A   1      34.024  27.960  26.458  1.00  0.00     0.124 A 
ATOM     92  N   UNL A   1      31.906  28.771  26.384  1.00  0.00    -0.180 NA
ATOM     93  C   UNL A   1      34.016  29.170  27.101  1.00  0.00     0.055 A 
ATOM     94  C   UNL A   1      32.701  29.638  27.018  1.00  0.00     0.150 A 
ATOM     95  Br  UNL A   1      35.437  30.053  27.923  1.00  0.00    -0.047 Br
ENDBRANCH  82  90
ENDBRANCH  75  78
ENDBRANCH  73  74
ENDBRANCH  72  73
ENDBRANCH   1  72
TORSDOF 14
ENDMDL
MODEL 2
REMARK VINA RESULT:     -12.3      1.922      3.022
REMARK SMILES O=C(NCCCCNC(=O)[C@]1([NH2+]C2CC2)CCC[C@@H](n2cc(Br)cn2)C1)c1ccc(-c2c3nc(c(-c4c(F)c(F)c(F)c(F)c4F)c4ccc([nH]4)c(-c4c(F)c(F)c(F)c(F)c4F)c4nc(c(-c5c(F)c(F)c(F)c(F)c5F)c5ccc2[nH]5)C=C4)C=C3)cc1
REMARK SMILES IDX 5 1 4 2 3 3 1 4 2 5 27 7 28 8 89 9 29 10 88 11 30 12 31 13
REMARK SMILES IDX 32 14 82 15 33 16 87 17 81 18 83 19 34 20 86 21 80 22 79 23
REMARK SMILES IDX 35 25 67 26 47 27 66 28 48 29 51 30 65 31 84 32 49 33 50 34
REMARK SMILES IDX 64 36 85 37 52 38 36 39 37 40 45 41 38 42 39 43 43 44 46 45
REMARK SMILES IDX 40 46 41 47 44 48 42 49 68 50 69 51 77 52 70 53 71 54 75 55
REMARK SMILES IDX 78 56 72 57 73 58 76 59 74 60 53 61 54 62 62 63 55 64 56 65
REMARK SMILES IDX 60 66 63 67 57 68 58 69 61 70 59 71 6 72 7 73 8 74 9 75
REMARK SMILES IDX 10 77 11 78 16 79 26 80 17 81 19 82 18 83 12 84 13 87 14 88
REMARK SMILES IDX 15 89 20 90 21 91 25 92 22 93 24 94 23 95
REMARK H PARENT 3 6 83 24 51 35 8 76 12 85 12 86
REMARK Flexibility Score: inf
ROOT
ATOM      1  C   UNL A   1      36.790  23.031  24.021  1.00  0.00     0.023 C 
ENDROOT
BRANCH   1   2
ATOM      2  C   UNL A   1      37.014  22.415  25.400  1.00  0.00     0.116 C 
BRANCH   2   3
ATOM      3  N   UNL A   1      38.281  21.727  25.536  1.00  0.00    -0.352 N 
ATOM      4  O   UNL A   1      40.310  21.080  26.093  1.00  0.00    -0.269 OA
ATOM      5  C   UNL A   1      39.469  21.968  26.177  1.00  0.00     0.251 C 
ATOM      6  H   UNL A   1      38.292  20.873  25.046  1.00  0.00     0.163 HD
BRANCH   5   7
ATOM      7  C   UNL A   1      39.820  23.211  26.928  1.00  0.00     0.039 A 
ATOM      8  C   UNL A   1      40.936  23.393  27.743  1.00  0.00     0.014 A 
ATOM      9  C   UNL A   1      38.941  24.302  26.752  1.00  0.00     0.014 A 
ATOM     10  C   UNL A   1      41.152  24.618  28.383  1.00  0.00     0.010 A 
ATOM     11  C   UNL A   1      39.154  25.527  27.384  1.00  0.00     0.010 A 
ATOM     12  C   UNL A   1      40.262  25.685  28.209  1.00  0.00    -0.014 A 
BRANCH  12  13
ATOM     13  C   UNL A   1      40.643  26.996  28.744  1.00  0.00     0.031 A 
ATOM     14  C   UNL A   1      41.881  27.577  28.144  1.00  0.00     0.074 A 
ATOM     15  C   UNL A   1      39.913  27.749  29.593  1.00  0.00     0.049 A 
ATOM     16  N   UNL A   1      42.986  27.891  28.740  1.00  0.00    -0.248 NA
ATOM     17  C   UNL A   1      41.915  27.763  26.686  1.00  0.00     0.031 C 
ATOM     18  C   UNL A   1      38.540  27.524  30.040  1.00  0.00     0.029 A 
ATOM     19  N   UNL A   1      40.237  28.947  30.171  1.00  0.00    -0.354 N 
ATOM     20  C   UNL A   1      43.808  28.458  27.765  1.00  0.00     0.074 A 
ATOM     21  C   UNL A   1      43.145  28.247  26.504  1.00  0.00     0.031 C 
ATOM     22  C   UNL A   1      38.082  28.639  30.656  1.00  0.00     0.029 A 
ATOM     23  C   UNL A   1      39.165  29.605  30.761  1.00  0.00     0.049 A 
ATOM     24  H   UNL A   1      41.151  29.312  30.168  1.00  0.00     0.167 HD
ATOM     25  C   UNL A   1      44.880  29.229  28.100  1.00  0.00     0.037 A 
ATOM     26  C   UNL A   1      39.153  30.868  31.258  1.00  0.00     0.037 A 
ATOM     27  C   UNL A   1      45.286  28.993  29.462  1.00  0.00     0.049 A 
ATOM     28  C   UNL A   1      40.554  31.275  31.514  1.00  0.00     0.074 A 
ATOM     29  C   UNL A   1      45.723  27.897  30.179  1.00  0.00     0.029 A 
ATOM     30  N   UNL A   1      44.981  29.946  30.399  1.00  0.00    -0.354 N 
ATOM     31  N   UNL A   1      41.294  30.807  32.478  1.00  0.00    -0.248 NA
ATOM     32  C   UNL A   1      41.268  31.985  30.465  1.00  0.00     0.031 C 
ATOM     33  C   UNL A   1      45.199  28.079  31.494  1.00  0.00     0.029 A 
ATOM     34  C   UNL A   1      44.515  29.294  31.507  1.00  0.00     0.049 A 
ATOM     35  H   UNL A   1      45.079  30.920  30.294  1.00  0.00     0.167 HD
ATOM     36  C   UNL A   1      42.569  30.763  31.941  1.00  0.00     0.074 A 
ATOM     37  C   UNL A   1      42.517  31.621  30.764  1.00  0.00     0.031 C 
ATOM     38  C   UNL A   1      43.458  29.810  32.342  1.00  0.00     0.037 A 
BRANCH  25  39
ATOM     39  C   UNL A   1      45.331  30.459  27.338  1.00  0.00     0.064 A 
ATOM     40  C   UNL A   1      46.705  30.613  27.045  1.00  0.00     0.173 A 
ATOM     41  C   UNL A   1      44.550  31.624  27.186  1.00  0.00     0.173 A 
ATOM     42  F   UNL A   1      47.549  29.575  27.148  1.00  0.00    -0.203 F 
ATOM     43  C   UNL A   1      47.266  31.858  26.751  1.00  0.00     0.198 A 
ATOM     44  C   UNL A   1      45.107  32.856  26.839  1.00  0.00     0.198 A 
ATOM     45  F   UNL A   1      43.245  31.652  27.472  1.00  0.00    -0.203 F 
ATOM     46  F   UNL A   1      48.597  31.977  26.635  1.00  0.00    -0.200 F 
ATOM     47  C   UNL A   1      46.468  32.982  26.661  1.00  0.00     0.200 A 
ATOM     48  F   UNL A   1      44.318  33.937  26.764  1.00  0.00    -0.200 F 
ATOM     49  F   UNL A   1      47.011  34.189  26.457  1.00  0.00    -0.200 F 
ENDBRANCH  25  39
BRANCH  26  50
ATOM     50  C   UNL A   1      38.046  31.851  31.335  1.00  0.00     0.064 A 
ATOM     51  C   UNL A   1      37.612  32.549  30.192  1.00  0.00     0.173 A 
ATOM     52  C   UNL A   1      37.199  31.904  32.457  1.00  0.00     0.173 A 
ATOM     53  F   UNL A   1      38.337  32.519  29.065  1.00  0.00    -0.203 F 
ATOM     54  C   UNL A   1      36.389  33.225  30.164  1.00  0.00     0.198 A 
ATOM     55  C   UNL A   1      35.982  32.588  32.430  1.00  0.00     0.198 A 
ATOM     56  F   UNL A   1      37.487  31.211  33.568  1.00  0.00    -0.203 F 
ATOM     57  F   UNL A   1      35.977  33.816  29.033  1.00  0.00    -0.200 F 
ATOM     58  C   UNL A   1      35.569  33.234  31.280  1.00  0.00     0.200 A 
ATOM     59  F   UNL A   1      35.182  32.560  33.505  1.00  0.00    -0.200 F 
ATOM     60  F   UNL A   1      34.366  33.823  31.232  1.00  0.00    -0.200 F 
ENDBRANCH  26  50
BRANCH  38  61
ATOM     61  C   UNL A   1      43.175  29.076  33.619  1.00  0.00     0.064 A 
ATOM     62  C   UNL A   1      42.292  27.988  33.734  1.00  0.00     0.173 A 
ATOM     63  C   UNL A   1      43.925  29.424  34.752  1.00  0.00     0.173 A 
ATOM     64  F   UNL A   1      41.619  27.525  32.672  1.00  0.00    -0.203 F 
ATOM     65  C   UNL A   1      42.126  27.324  34.949  1.00  0.00     0.198 A 
ATOM     66  C   UNL A   1      43.790  28.729  35.949  1.00  0.00     0.198 A 
ATOM     67  F   UNL A   1      44.824  30.419  34.685  1.00  0.00    -0.203 F 
ATOM     68  F   UNL A   1      41.258  26.305  35.044  1.00  0.00    -0.200 F 
ATOM     69  C   UNL A   1      42.880  27.690  36.051  1.00  0.00     0.200 A 
ATOM     70  F   UNL A   1      44.558  29.055  36.998  1.00  0.00    -0.200 F 
ATOM     71  F   UNL A   1      42.750  27.024  37.208  1.00  0.00    -0.200 F 
ENDBRANCH  38  61
ENDBRANCH  12  13
ENDBRANCH   5   7
ENDBRANCH   2   3
ENDBRANCH   1   2
BRANCH   1  72
ATOM     72  C   UNL A   1      35.350  22.938  23.500  1.00  0.00     0.023 C 
BRANCH  72  73
ATOM     73  C   UNL A   1      34.379  24.015  23.994  1.00  0.00     0.116 C 
BRANCH  73  74
ATOM     74  N   UNL A   1      33.966  24.952  22.960  1.00  0.00    -0.351 N 
ATOM     75  C   UNL A   1      33.205  26.087  23.001  1.00  0.00     0.281 C 
ATOM     76  H   UNL A   1      34.299  24.726  22.061  1.00  0.00     0.163 HD
ATOM     77  O   UNL A   1      33.044  26.661  21.919  1.00  0.00    -0.268 OA
BRANCH  75  78
ATOM     78  C   UNL A   1      32.628  26.679  24.335  1.00  0.00     0.177 C 
ATOM     79  C   UNL A   1      31.904  25.589  25.177  1.00  0.00     0.079 C 
ATOM     80  C   UNL A   1      31.612  27.810  24.015  1.00  0.00     0.106 C 
ATOM     81  C   UNL A   1      30.567  25.110  24.613  1.00  0.00     0.009 C 
ATOM     82  C   UNL A   1      30.310  27.290  23.372  1.00  0.00     0.114 C 
ATOM     83  C   UNL A   1      29.636  26.265  24.294  1.00  0.00     0.028 C 
BRANCH  78  84
ATOM     84  N   UNL A   1      33.759  27.258  25.129  1.00  0.00    -0.331 N 
ATOM     85  H   UNL A   1      34.515  27.483  24.480  1.00  0.00     0.347 HD
ATOM     86  H   UNL A   1      34.006  26.551  25.820  1.00  0.00     0.347 HD
BRANCH  84  87
ATOM     87  C   UNL A   1      33.441  28.477  25.895  1.00  0.00     0.183 C 
ATOM     88  C   UNL A   1      32.955  28.422  27.313  1.00  0.00     0.071 C 
ATOM     89  C   UNL A   1      34.361  28.858  27.022  1.00  0.00     0.071 C 
ENDBRANCH  84  87
ENDBRANCH  78  84
BRANCH  82  90
ATOM     90  N   UNL A   1      29.420  28.398  23.006  1.00  0.00    -0.268 N 
ATOM     91  C   UNL A   1      29.810  29.619  22.520  1.00  0.00     0.124 A 
ATOM     92  N   UNL A   1      28.076  28.269  23.086  1.00  0.00    -0.180 NA
ATOM     93  C   UNL A   1      28.648  30.300  22.267  1.00  0.00     0.055 A 
ATOM     94  C   UNL A   1      27.611  29.429  22.614  1.00  0.00     0.150 A 
ATOM     95  Br  UNL A   1      28.442  32.026  21.593  1.00  0.00    -0.047 Br
ENDBRANCH  82  90
ENDBRANCH  75  78
ENDBRANCH  73  74
ENDBRANCH  72  73
ENDBRANCH   1  72
TORSDOF 14
ENDMDL
MODEL 3
REMARK VINA RESULT:     -12.3      3.243      8.842
REMARK SMILES O=C(NCCCCNC(=O)[C@]1([NH2+]C2CC2)CCC[C@@H](n2cc(Br)cn2)C1)c1ccc(-c2c3nc(c(-c4c(F)c(F)c(F)c(F)c4F)c4ccc([nH]4)c(-c4c(F)c(F)c(F)c(F)c4F)c4nc(c(-c5c(F)c(F)c(F)c(F)c5F)c5ccc2[nH]5)C=C4)C=C3)cc1
REMARK SMILES IDX 5 1 4 2 3 3 1 4 2 5 27 7 28 8 89 9 29 10 88 11 30 12 31 13
REMARK SMILES IDX 32 14 82 15 33 16 87 17 81 18 83 19 34 20 86 21 80 22 79 23
REMARK SMILES IDX 35 25 67 26 47 27 66 28 48 29 51 30 65 31 84 32 49 33 50 34
REMARK SMILES IDX 64 36 85 37 52 38 36 39 37 40 45 41 38 42 39 43 43 44 46 45
REMARK SMILES IDX 40 46 41 47 44 48 42 49 68 50 69 51 77 52 70 53 71 54 75 55
REMARK SMILES IDX 78 56 72 57 73 58 76 59 74 60 53 61 54 62 62 63 55 64 56 65
REMARK SMILES IDX 60 66 63 67 57 68 58 69 61 70 59 71 6 72 7 73 8 74 9 75
REMARK SMILES IDX 10 77 11 78 16 79 26 80 17 81 19 82 18 83 12 84 13 87 14 88
REMARK SMILES IDX 15 89 20 90 21 91 25 92 22 93 24 94 23 95
REMARK H PARENT 3 6 83 24 51 35 8 76 12 85 12 86
REMARK Flexibility Score: inf
ROOT
ATOM      1  C   UNL A   1      32.159  30.308  26.711  1.00  0.00     0.023 C 
ENDROOT
BRANCH   1   2
ATOM      2  C   UNL A   1      33.608  30.715  26.966  1.00  0.00     0.116 C 
BRANCH   2   3
ATOM      3  N   UNL A   1      33.781  31.583  28.112  1.00  0.00    -0.352 N 
ATOM      4  O   UNL A   1      34.557  32.736  29.819  1.00  0.00    -0.269 OA
ATOM      5  C   UNL A   1      34.796  31.865  28.989  1.00  0.00     0.251 C 
ATOM      6  H   UNL A   1      32.966  32.099  28.310  1.00  0.00     0.163 HD
BRANCH   5   7
ATOM      7  C   UNL A   1      36.129  31.192  29.030  1.00  0.00     0.039 A 
ATOM      8  C   UNL A   1      37.351  31.801  29.308  1.00  0.00     0.014 A 
ATOM      9  C   UNL A   1      36.119  29.800  28.793  1.00  0.00     0.014 A 
ATOM     10  C   UNL A   1      38.529  31.047  29.325  1.00  0.00     0.010 A 
ATOM     11  C   UNL A   1      37.290  29.043  28.812  1.00  0.00     0.010 A 
ATOM     12  C   UNL A   1      38.503  29.669  29.074  1.00  0.00    -0.014 A 
BRANCH  12  13
ATOM     13  C   UNL A   1      39.734  28.904  29.298  1.00  0.00     0.031 A 
ATOM     14  C   UNL A   1      40.109  28.734  30.733  1.00  0.00     0.074 A 
ATOM     15  C   UNL A   1      40.440  28.246  28.355  1.00  0.00     0.049 A 
ATOM     16  N   UNL A   1      41.187  29.134  31.329  1.00  0.00    -0.248 NA
ATOM     17  C   UNL A   1      39.130  28.104  31.629  1.00  0.00     0.031 C 
ATOM     18  C   UNL A   1      40.075  28.008  26.959  1.00  0.00     0.029 A 
ATOM     19  N   UNL A   1      41.621  27.566  28.488  1.00  0.00    -0.354 N 
ATOM     20  C   UNL A   1      41.098  28.676  32.644  1.00  0.00     0.074 A 
ATOM     21  C   UNL A   1      39.765  28.153  32.801  1.00  0.00     0.031 C 
ATOM     22  C   UNL A   1      40.908  27.081  26.431  1.00  0.00     0.029 A 
ATOM     23  C   UNL A   1      41.941  26.757  27.404  1.00  0.00     0.049 A 
ATOM     24  H   UNL A   1      42.195  27.643  29.283  1.00  0.00     0.167 HD
ATOM     25  C   UNL A   1      42.198  28.590  33.442  1.00  0.00     0.037 A 
ATOM     26  C   UNL A   1      42.950  25.854  27.326  1.00  0.00     0.037 A 
ATOM     27  C   UNL A   1      43.269  29.415  32.945  1.00  0.00     0.049 A 
ATOM     28  C   UNL A   1      43.947  26.187  28.370  1.00  0.00     0.074 A 
ATOM     29  C   UNL A   1      43.432  30.763  32.694  1.00  0.00     0.029 A 
ATOM     30  N   UNL A   1      44.325  28.797  32.326  1.00  0.00    -0.354 N 
ATOM     31  N   UNL A   1      44.744  27.216  28.329  1.00  0.00    -0.248 NA
ATOM     32  C   UNL A   1      43.829  25.538  29.666  1.00  0.00     0.031 C 
ATOM     33  C   UNL A   1      44.284  30.829  31.552  1.00  0.00     0.029 A 
ATOM     34  C   UNL A   1      44.622  29.522  31.205  1.00  0.00     0.049 A 
ATOM     35  H   UNL A   1      44.784  27.983  32.633  1.00  0.00     0.167 HD
ATOM     36  C   UNL A   1      44.865  27.610  29.650  1.00  0.00     0.074 A 
ATOM     37  C   UNL A   1      44.400  26.470  30.431  1.00  0.00     0.031 C 
ATOM     38  C   UNL A   1      45.057  28.921  29.968  1.00  0.00     0.037 A 
BRANCH  25  39
ATOM     39  C   UNL A   1      42.449  27.487  34.452  1.00  0.00     0.064 A 
ATOM     40  C   UNL A   1      42.963  26.252  33.998  1.00  0.00     0.173 A 
ATOM     41  C   UNL A   1      41.903  27.469  35.753  1.00  0.00     0.173 A 
ATOM     42  F   UNL A   1      43.513  26.145  32.778  1.00  0.00    -0.203 F 
ATOM     43  C   UNL A   1      42.824  25.073  34.735  1.00  0.00     0.198 A 
ATOM     44  C   UNL A   1      41.815  26.299  36.508  1.00  0.00     0.198 A 
ATOM     45  F   UNL A   1      41.333  28.544  36.305  1.00  0.00    -0.203 F 
ATOM     46  F   UNL A   1      43.188  23.903  34.192  1.00  0.00    -0.200 F 
ATOM     47  C   UNL A   1      42.238  25.095  35.985  1.00  0.00     0.200 A 
ATOM     48  F   UNL A   1      41.235  26.337  37.716  1.00  0.00    -0.200 F 
ATOM     49  F   UNL A   1      42.031  23.958  36.661  1.00  0.00    -0.200 F 
ENDBRANCH  25  39
BRANCH  26  50
ATOM     50  C   UNL A   1      43.036  24.585  26.564  1.00  0.00     0.064 A 
ATOM     51  C   UNL A   1      43.873  24.468  25.438  1.00  0.00     0.173 A 
ATOM     52  C   UNL A   1      42.535  23.383  27.096  1.00  0.00     0.173 A 
ATOM     53  F   UNL A   1      44.427  25.559  24.891  1.00  0.00    -0.203 F 
ATOM     54  C   UNL A   1      44.215  23.223  24.904  1.00  0.00     0.198 A 
ATOM     55  C   UNL A   1      42.870  22.141  26.555  1.00  0.00     0.198 A 
ATOM     56  F   UNL A   1      41.791  23.384  28.211  1.00  0.00    -0.203 F 
ATOM     57  F   UNL A   1      45.074  23.149  23.876  1.00  0.00    -0.200 F 
ATOM     58  C   UNL A   1      43.723  22.059  25.470  1.00  0.00     0.200 A 
ATOM     59  F   UNL A   1      42.416  21.021  27.134  1.00  0.00    -0.200 F 
ATOM     60  F   UNL A   1      44.106  20.863  25.002  1.00  0.00    -0.200 F 
ENDBRANCH  26  50
BRANCH  38  61
ATOM     61  C   UNL A   1      45.517  29.849  28.882  1.00  0.00     0.064 A 
ATOM     62  C   UNL A   1      44.663  30.490  27.968  1.00  0.00     0.173 A 
ATOM     63  C   UNL A   1      46.877  30.188  28.846  1.00  0.00     0.173 A 
ATOM     64  F   UNL A   1      43.337  30.302  28.007  1.00  0.00    -0.203 F 
ATOM     65  C   UNL A   1      45.165  31.382  27.021  1.00  0.00     0.198 A 
ATOM     66  C   UNL A   1      47.366  31.113  27.930  1.00  0.00     0.198 A 
ATOM     67  F   UNL A   1      47.730  29.649  29.732  1.00  0.00    -0.203 F 
ATOM     68  F   UNL A   1      44.336  31.962  26.140  1.00  0.00    -0.200 F 
ATOM     69  C   UNL A   1      46.513  31.698  27.009  1.00  0.00     0.200 A 
ATOM     70  F   UNL A   1      48.663  31.453  27.955  1.00  0.00    -0.200 F 
ATOM     71  F   UNL A   1      46.989  32.587  26.125  1.00  0.00    -0.200 F 
ENDBRANCH  38  61
ENDBRANCH  12  13
ENDBRANCH   5   7
ENDBRANCH   2   3
ENDBRANCH   1   2
BRANCH   1  72
ATOM     72  C   UNL A   1      31.767  28.935  27.271  1.00  0.00     0.023 C 
BRANCH  72  73
ATOM     73  C   UNL A   1      32.443  27.720  26.628  1.00  0.00     0.116 C 
BRANCH  73  74
ATOM     74  N   UNL A   1      31.596  26.539  26.572  1.00  0.00    -0.351 N 
ATOM     75  C   UNL A   1      31.317  25.658  25.564  1.00  0.00     0.281 C 
ATOM     76  H   UNL A   1      31.138  26.335  27.419  1.00  0.00     0.163 HD
ATOM     77  O   UNL A   1      30.539  24.742  25.856  1.00  0.00    -0.268 OA
BRANCH  75  78
ATOM     78  C   UNL A   1      31.986  25.741  24.148  1.00  0.00     0.177 C 
ATOM     79  C   UNL A   1      31.300  24.778  23.135  1.00  0.00     0.079 C 
ATOM     80  C   UNL A   1      33.489  25.359  24.249  1.00  0.00     0.106 C 
ATOM     81  C   UNL A   1      31.572  23.291  23.363  1.00  0.00     0.009 C 
ATOM     82  C   UNL A   1      33.715  23.866  24.561  1.00  0.00     0.114 C 
ATOM     83  C   UNL A   1      33.055  22.993  23.485  1.00  0.00     0.028 C 
BRANCH  78  84
ATOM     84  N   UNL A   1      31.879  27.150  23.651  1.00  0.00    -0.331 N 
ATOM     85  H   UNL A   1      32.315  27.192  22.729  1.00  0.00     0.347 HD
ATOM     86  H   UNL A   1      32.340  27.729  24.353  1.00  0.00     0.347 HD
BRANCH  84  87
ATOM     87  C   UNL A   1      30.507  27.680  23.528  1.00  0.00     0.183 C 
ATOM     88  C   UNL A   1      30.186  29.122  23.782  1.00  0.00     0.071 C 
ATOM     89  C   UNL A   1      30.211  28.599  22.376  1.00  0.00     0.071 C 
ENDBRANCH  84  87
ENDBRANCH  78  84
BRANCH  82  90
ATOM     90  N   UNL A   1      35.141  23.571  24.736  1.00  0.00    -0.268 N 
ATOM     91  C   UNL A   1      35.955  24.075  25.717  1.00  0.00     0.124 A 
ATOM     92  N   UNL A   1      35.778  22.697  23.923  1.00  0.00    -0.180 NA
ATOM     93  C   UNL A   1      37.174  23.481  25.523  1.00  0.00     0.055 A 
ATOM     94  C   UNL A   1      37.016  22.633  24.423  1.00  0.00     0.150 A 
ATOM     95  Br  UNL A   1      38.745  23.716  26.500  1.00  0.00    -0.047 Br
ENDBRANCH  82  90
ENDBRANCH  75  78
ENDBRANCH  73  74
ENDBRANCH  72  73
ENDBRANCH   1  72
TORSDOF 14
ENDMDL
