MODEL 1
REMARK VINA RESULT:     -12.1      0.000      0.000
REMARK SMILES CCCc1cc(OCC(=O)NCCCCNC(=O)c2ccc(-c3c4nc(c(-c5c(F)c(F)c(F)c(F)c5F)c5ccc([nH]5)c(-c5c(F)c(F)c(F)c(F)c5F)c5nc(c(-c6c(F)c(F)c(F)c(F)c6F)c6ccc3[nH]6)C=C5)C=C4)cc2)nc(Nc2ccc(C#N)cc2)n1
REMARK SMILES IDX 12 1 11 2 9 3 10 4 8 6 7 7 6 8 4 9 5 10 93 11 83 12 82 13
REMARK SMILES IDX 3 14 2 15 1 16 84 17 85 19 86 20 92 21 87 22 91 23 88 24
REMARK SMILES IDX 89 25 90 26 13 27 14 28 15 29 16 30 17 31 18 33 19 34 20 35
REMARK SMILES IDX 81 36 21 37 80 38 22 39 23 40 24 41 74 42 25 43 79 44 73 45
REMARK SMILES IDX 75 46 26 47 78 48 72 49 71 50 27 52 59 53 39 54 58 55 40 56
REMARK SMILES IDX 43 57 57 58 76 59 41 60 42 61 56 63 77 64 44 65 28 66 29 67
REMARK SMILES IDX 37 68 30 69 31 70 35 71 38 72 32 73 33 74 36 75 34 76 60 77
REMARK SMILES IDX 61 78 69 79 62 80 63 81 67 82 70 83 64 84 65 85 68 86 66 87
REMARK SMILES IDX 45 88 46 89 54 90 47 91 48 92 52 93 55 94 49 95 50 96 53 97
REMARK SMILES IDX 51 98
REMARK H PARENT 11 5 84 18 16 32 75 51 43 62
REMARK Flexibility Score: inf
ROOT
ATOM      1  C   UNL A   1      36.928  22.667  25.657  1.00  0.00     0.116 C 
ENDROOT
BRANCH   1   2
ATOM      2  N   UNL A   1      35.856  22.322  26.569  1.00  0.00    -0.353 N 
ATOM      3  C   UNL A   1      34.573  22.782  26.569  1.00  0.00     0.258 C 
ATOM      4  O   UNL A   1      33.789  22.354  27.420  1.00  0.00    -0.271 OA
ATOM      5  H   UNL A   1      36.083  21.676  27.277  1.00  0.00     0.163 HD
BRANCH   3   6
ATOM      6  C   UNL A   1      34.126  23.800  25.509  1.00  0.00     0.331 C 
BRANCH   6   7
ATOM      7  O   UNL A   1      32.747  23.842  25.179  1.00  0.00    -0.467 OA
BRANCH   7   8
ATOM      8  C   UNL A   1      32.077  25.016  25.393  1.00  0.00     0.218 A 
ATOM      9  C   UNL A   1      31.625  27.043  26.457  1.00  0.00     0.050 A 
ATOM     10  C   UNL A   1      32.255  25.824  26.491  1.00  0.00     0.092 A 
ATOM     11  N   UNL A   1      30.805  27.389  25.454  1.00  0.00    -0.218 NA
ATOM     12  C   UNL A   1      30.594  26.501  24.470  1.00  0.00     0.230 A 
ATOM     13  N   UNL A   1      31.225  25.322  24.396  1.00  0.00    -0.177 NA
BRANCH   9  14
ATOM     14  C   UNL A   1      31.868  28.073  27.529  1.00  0.00     0.056 C 
BRANCH  14  15
ATOM     15  C   UNL A   1      32.949  29.093  27.158  1.00  0.00     0.003 C 
ATOM     16  C   UNL A   1      32.390  30.356  26.514  1.00  0.00     0.004 C 
ENDBRANCH  14  15
ENDBRANCH   9  14
BRANCH  12  17
ATOM     17  N   UNL A   1      29.612  26.764  23.516  1.00  0.00    -0.324 N 
ATOM     18  H   UNL A   1      29.123  25.982  23.172  1.00  0.00     0.170 HD
BRANCH  17  19
ATOM     19  C   UNL A   1      29.239  28.004  22.990  1.00  0.00     0.041 A 
ATOM     20  C   UNL A   1      27.937  28.485  23.183  1.00  0.00     0.027 A 
ATOM     21  C   UNL A   1      30.176  28.850  22.381  1.00  0.00     0.027 A 
ATOM     22  C   UNL A   1      27.589  29.784  22.791  1.00  0.00     0.021 A 
ATOM     23  C   UNL A   1      29.830  30.138  21.966  1.00  0.00     0.021 A 
ATOM     24  C   UNL A   1      28.536  30.614  22.183  1.00  0.00     0.052 A 
BRANCH  24  25
ATOM     25  C   UNL A   1      28.192  31.952  21.803  1.00  0.00     0.099 C 
ATOM     26  N   UNL A   1      27.906  33.035  21.494  1.00  0.00    -0.192 NA
ENDBRANCH  24  25
ENDBRANCH  17  19
ENDBRANCH  12  17
ENDBRANCH   7   8
ENDBRANCH   6   7
ENDBRANCH   3   6
ENDBRANCH   1   2
BRANCH   1  27
ATOM     27  C   UNL A   1      37.093  21.634  24.546  1.00  0.00     0.023 C 
BRANCH  27  28
ATOM     28  C   UNL A   1      37.844  20.363  24.951  1.00  0.00     0.023 C 
BRANCH  28  29
ATOM     29  C   UNL A   1      39.109  20.584  25.777  1.00  0.00     0.116 C 
BRANCH  29  30
ATOM     30  N   UNL A   1      39.967  19.410  25.829  1.00  0.00    -0.352 N 
ATOM     31  C   UNL A   1      41.320  19.323  26.061  1.00  0.00     0.251 C 
ATOM     32  H   UNL A   1      39.512  18.549  25.676  1.00  0.00     0.163 HD
ATOM     33  O   UNL A   1      41.905  18.253  25.928  1.00  0.00    -0.269 OA
BRANCH  31  34
ATOM     34  C   UNL A   1      42.079  20.537  26.431  1.00  0.00     0.039 A 
ATOM     35  C   UNL A   1      42.595  21.343  25.413  1.00  0.00     0.014 A 
ATOM     36  C   UNL A   1      42.244  20.901  27.769  1.00  0.00     0.014 A 
ATOM     37  C   UNL A   1      43.181  22.569  25.734  1.00  0.00     0.010 A 
ATOM     38  C   UNL A   1      42.760  22.156  28.083  1.00  0.00     0.010 A 
ATOM     39  C   UNL A   1      43.208  23.013  27.066  1.00  0.00    -0.014 A 
BRANCH  39  40
ATOM     40  C   UNL A   1      43.627  24.398  27.407  1.00  0.00     0.031 A 
ATOM     41  C   UNL A   1      42.623  25.410  27.875  1.00  0.00     0.074 A 
ATOM     42  C   UNL A   1      44.910  24.764  27.207  1.00  0.00     0.049 A 
ATOM     43  N   UNL A   1      42.787  26.686  28.120  1.00  0.00    -0.248 NA
ATOM     44  C   UNL A   1      41.248  24.931  28.076  1.00  0.00     0.031 C 
ATOM     45  C   UNL A   1      45.974  23.882  26.722  1.00  0.00     0.029 A 
ATOM     46  N   UNL A   1      45.536  25.976  27.368  1.00  0.00    -0.354 N 
ATOM     47  C   UNL A   1      41.540  27.162  28.499  1.00  0.00     0.074 A 
ATOM     48  C   UNL A   1      40.617  26.051  28.403  1.00  0.00     0.031 C 
ATOM     49  C   UNL A   1      47.119  24.574  26.644  1.00  0.00     0.029 A 
ATOM     50  C   UNL A   1      46.863  25.963  27.014  1.00  0.00     0.049 A 
ATOM     51  H   UNL A   1      45.077  26.778  27.707  1.00  0.00     0.167 HD
ATOM     52  C   UNL A   1      41.201  28.409  28.907  1.00  0.00     0.037 A 
ATOM     53  C   UNL A   1      47.768  26.959  26.965  1.00  0.00     0.037 A 
ATOM     54  C   UNL A   1      42.126  29.511  29.000  1.00  0.00     0.049 A 
ATOM     55  C   UNL A   1      47.348  28.350  27.360  1.00  0.00     0.074 A 
ATOM     56  C   UNL A   1      41.890  30.796  29.453  1.00  0.00     0.029 A 
ATOM     57  N   UNL A   1      43.459  29.462  28.617  1.00  0.00    -0.354 N 
ATOM     58  N   UNL A   1      46.184  28.772  27.793  1.00  0.00    -0.248 NA
ATOM     59  C   UNL A   1      48.365  29.406  27.255  1.00  0.00     0.031 C 
ATOM     60  C   UNL A   1      43.057  31.546  29.273  1.00  0.00     0.029 A 
ATOM     61  C   UNL A   1      44.043  30.710  28.777  1.00  0.00     0.049 A 
ATOM     62  H   UNL A   1      43.922  28.661  28.282  1.00  0.00     0.167 HD
ATOM     63  C   UNL A   1      46.334  30.131  28.031  1.00  0.00     0.074 A 
ATOM     64  C   UNL A   1      47.710  30.460  27.720  1.00  0.00     0.031 C 
ATOM     65  C   UNL A   1      45.413  31.027  28.462  1.00  0.00     0.037 A 
BRANCH  52  66
ATOM     66  C   UNL A   1      39.764  28.661  29.269  1.00  0.00     0.064 A 
ATOM     67  C   UNL A   1      39.290  28.481  30.578  1.00  0.00     0.173 A 
ATOM     68  C   UNL A   1      38.862  29.139  28.307  1.00  0.00     0.173 A 
ATOM     69  F   UNL A   1      40.109  28.021  31.537  1.00  0.00    -0.203 F 
ATOM     70  C   UNL A   1      37.960  28.737  30.901  1.00  0.00     0.198 A 
ATOM     71  C   UNL A   1      37.542  29.429  28.642  1.00  0.00     0.198 A 
ATOM     72  F   UNL A   1      39.263  29.339  27.042  1.00  0.00    -0.203 F 
ATOM     73  F   UNL A   1      37.518  28.507  32.144  1.00  0.00    -0.200 F 
ATOM     74  C   UNL A   1      37.089  29.220  29.934  1.00  0.00     0.200 A 
ATOM     75  F   UNL A   1      36.708  29.915  27.712  1.00  0.00    -0.200 F 
ATOM     76  F   UNL A   1      35.812  29.478  30.250  1.00  0.00    -0.200 F 
ENDBRANCH  52  66
BRANCH  53  77
ATOM     77  C   UNL A   1      49.158  26.684  26.509  1.00  0.00     0.064 A 
ATOM     78  C   UNL A   1      50.143  26.264  27.413  1.00  0.00     0.173 A 
ATOM     79  C   UNL A   1      49.534  26.852  25.168  1.00  0.00     0.173 A 
ATOM     80  F   UNL A   1      49.840  26.110  28.710  1.00  0.00    -0.203 F 
ATOM     81  C   UNL A   1      51.456  26.047  26.999  1.00  0.00     0.198 A 
ATOM     82  C   UNL A   1      50.838  26.599  24.748  1.00  0.00     0.198 A 
ATOM     83  F   UNL A   1      48.631  27.250  24.260  1.00  0.00    -0.203 F 
ATOM     84  F   UNL A   1      52.390  25.702  27.895  1.00  0.00    -0.200 F 
ATOM     85  C   UNL A   1      51.801  26.208  25.665  1.00  0.00     0.200 A 
ATOM     86  F   UNL A   1      51.161  26.736  23.454  1.00  0.00    -0.200 F 
ATOM     87  F   UNL A   1      53.062  25.995  25.267  1.00  0.00    -0.200 F 
ENDBRANCH  53  77
BRANCH  65  88
ATOM     88  C   UNL A   1      45.860  32.451  28.636  1.00  0.00     0.064 A 
ATOM     89  C   UNL A   1      46.397  32.909  29.849  1.00  0.00     0.173 A 
ATOM     90  C   UNL A   1      45.807  33.353  27.562  1.00  0.00     0.173 A 
ATOM     91  F   UNL A   1      46.455  32.094  30.912  1.00  0.00    -0.203 F 
ATOM     92  C   UNL A   1      46.846  34.221  29.984  1.00  0.00     0.198 A 
ATOM     93  C   UNL A   1      46.291  34.653  27.690  1.00  0.00     0.198 A 
ATOM     94  F   UNL A   1      45.310  32.966  26.378  1.00  0.00    -0.203 F 
ATOM     95  F   UNL A   1      47.311  34.649  31.167  1.00  0.00    -0.200 F 
ATOM     96  C   UNL A   1      46.802  35.087  28.903  1.00  0.00     0.200 A 
ATOM     97  F   UNL A   1      46.266  35.482  26.637  1.00  0.00    -0.200 F 
ATOM     98  F   UNL A   1      47.251  36.343  29.030  1.00  0.00    -0.200 F 
ENDBRANCH  65  88
ENDBRANCH  39  40
ENDBRANCH  31  34
ENDBRANCH  29  30
ENDBRANCH  28  29
ENDBRANCH  27  28
ENDBRANCH   1  27
TORSDOF 18
ENDMDL
MODEL 2
REMARK VINA RESULT:     -11.8      3.248      8.370
REMARK SMILES CCCc1cc(OCC(=O)NCCCCNC(=O)c2ccc(-c3c4nc(c(-c5c(F)c(F)c(F)c(F)c5F)c5ccc([nH]5)c(-c5c(F)c(F)c(F)c(F)c5F)c5nc(c(-c6c(F)c(F)c(F)c(F)c6F)c6ccc3[nH]6)C=C5)C=C4)cc2)nc(Nc2ccc(C#N)cc2)n1
REMARK SMILES IDX 12 1 11 2 9 3 10 4 8 6 7 7 6 8 4 9 5 10 93 11 83 12 82 13
REMARK SMILES IDX 3 14 2 15 1 16 84 17 85 19 86 20 92 21 87 22 91 23 88 24
REMARK SMILES IDX 89 25 90 26 13 27 14 28 15 29 16 30 17 31 18 33 19 34 20 35
REMARK SMILES IDX 81 36 21 37 80 38 22 39 23 40 24 41 74 42 25 43 79 44 73 45
REMARK SMILES IDX 75 46 26 47 78 48 72 49 71 50 27 52 59 53 39 54 58 55 40 56
REMARK SMILES IDX 43 57 57 58 76 59 41 60 42 61 56 63 77 64 44 65 28 66 29 67
REMARK SMILES IDX 37 68 30 69 31 70 35 71 38 72 32 73 33 74 36 75 34 76 60 77
REMARK SMILES IDX 61 78 69 79 62 80 63 81 67 82 70 83 64 84 65 85 68 86 66 87
REMARK SMILES IDX 45 88 46 89 54 90 47 91 48 92 52 93 55 94 49 95 50 96 53 97
REMARK SMILES IDX 51 98
REMARK H PARENT 11 5 84 18 16 32 75 51 43 62
REMARK Flexibility Score: inf
ROOT
ATOM      1  C   UNL A   1      33.695  21.968  27.575  1.00  0.00     0.116 C 
ENDROOT
BRANCH   1   2
ATOM      2  N   UNL A   1      33.284  20.968  26.610  1.00  0.00    -0.353 N 
ATOM      3  C   UNL A   1      32.295  21.056  25.677  1.00  0.00     0.258 C 
ATOM      4  O   UNL A   1      32.104  20.100  24.922  1.00  0.00    -0.271 OA
ATOM      5  H   UNL A   1      33.782  20.117  26.632  1.00  0.00     0.163 HD
BRANCH   3   6
ATOM      6  C   UNL A   1      31.457  22.340  25.572  1.00  0.00     0.331 C 
BRANCH   6   7
ATOM      7  O   UNL A   1      32.018  23.432  24.860  1.00  0.00    -0.467 OA
BRANCH   7   8
ATOM      8  C   UNL A   1      31.561  24.688  25.159  1.00  0.00     0.218 A 
ATOM      9  C   UNL A   1      31.583  26.758  26.236  1.00  0.00     0.050 A 
ATOM     10  C   UNL A   1      32.041  25.464  26.187  1.00  0.00     0.092 A 
ATOM     11  N   UNL A   1      30.650  27.212  25.386  1.00  0.00    -0.218 NA
ATOM     12  C   UNL A   1      30.149  26.360  24.479  1.00  0.00     0.230 A 
ATOM     13  N   UNL A   1      30.592  25.106  24.324  1.00  0.00    -0.177 NA
BRANCH   9  14
ATOM     14  C   UNL A   1      32.152  27.746  27.221  1.00  0.00     0.056 C 
BRANCH  14  15
ATOM     15  C   UNL A   1      33.575  28.197  26.877  1.00  0.00     0.003 C 
ATOM     16  C   UNL A   1      33.690  29.698  26.640  1.00  0.00     0.004 C 
ENDBRANCH  14  15
ENDBRANCH   9  14
BRANCH  12  17
ATOM     17  N   UNL A   1      29.055  26.753  23.709  1.00  0.00    -0.324 N 
ATOM     18  H   UNL A   1      28.363  26.069  23.559  1.00  0.00     0.170 HD
BRANCH  17  19
ATOM     19  C   UNL A   1      28.823  28.003  23.125  1.00  0.00     0.041 A 
ATOM     20  C   UNL A   1      27.558  28.597  23.220  1.00  0.00     0.027 A 
ATOM     21  C   UNL A   1      29.866  28.746  22.556  1.00  0.00     0.027 A 
ATOM     22  C   UNL A   1      27.347  29.907  22.770  1.00  0.00     0.021 A 
ATOM     23  C   UNL A   1      29.658  30.044  22.084  1.00  0.00     0.021 A 
ATOM     24  C   UNL A   1      28.398  30.634  22.203  1.00  0.00     0.052 A 
BRANCH  24  25
ATOM     25  C   UNL A   1      28.195  31.983  21.764  1.00  0.00     0.099 C 
ATOM     26  N   UNL A   1      28.028  33.078  21.415  1.00  0.00    -0.192 NA
ENDBRANCH  24  25
ENDBRANCH  17  19
ENDBRANCH  12  17
ENDBRANCH   7   8
ENDBRANCH   6   7
ENDBRANCH   3   6
ENDBRANCH   1   2
BRANCH   1  27
ATOM     27  C   UNL A   1      34.728  22.933  27.000  1.00  0.00     0.023 C 
BRANCH  27  28
ATOM     28  C   UNL A   1      35.704  22.312  25.998  1.00  0.00     0.023 C 
BRANCH  28  29
ATOM     29  C   UNL A   1      36.961  23.130  25.714  1.00  0.00     0.116 C 
BRANCH  29  30
ATOM     30  N   UNL A   1      38.190  22.386  25.951  1.00  0.00    -0.352 N 
ATOM     31  C   UNL A   1      39.398  22.825  26.441  1.00  0.00     0.251 C 
ATOM     32  H   UNL A   1      38.151  21.428  25.728  1.00  0.00     0.163 HD
ATOM     33  O   UNL A   1      40.374  22.081  26.441  1.00  0.00    -0.269 OA
BRANCH  31  34
ATOM     34  C   UNL A   1      39.531  24.214  26.928  1.00  0.00     0.039 A 
ATOM     35  C   UNL A   1      39.116  24.513  28.228  1.00  0.00     0.014 A 
ATOM     36  C   UNL A   1      40.103  25.205  26.126  1.00  0.00     0.014 A 
ATOM     37  C   UNL A   1      39.372  25.778  28.761  1.00  0.00     0.010 A 
ATOM     38  C   UNL A   1      40.425  26.441  26.682  1.00  0.00     0.010 A 
ATOM     39  C   UNL A   1      40.087  26.729  28.013  1.00  0.00    -0.014 A 
BRANCH  39  40
ATOM     40  C   UNL A   1      40.559  27.997  28.631  1.00  0.00     0.031 A 
ATOM     41  C   UNL A   1      41.980  28.145  29.088  1.00  0.00     0.074 A 
ATOM     42  C   UNL A   1      39.671  28.986  28.857  1.00  0.00     0.049 A 
ATOM     43  N   UNL A   1      42.542  29.135  29.736  1.00  0.00    -0.248 NA
ATOM     44  C   UNL A   1      42.887  27.025  28.797  1.00  0.00     0.031 C 
ATOM     45  C   UNL A   1      38.254  28.950  28.491  1.00  0.00     0.029 A 
ATOM     46  N   UNL A   1      39.822  30.209  29.465  1.00  0.00    -0.354 N 
ATOM     47  C   UNL A   1      43.863  28.757  29.933  1.00  0.00     0.074 A 
ATOM     48  C   UNL A   1      44.007  27.426  29.383  1.00  0.00     0.031 C 
ATOM     49  C   UNL A   1      37.672  30.100  28.862  1.00  0.00     0.029 A 
ATOM     50  C   UNL A   1      38.657  30.932  29.547  1.00  0.00     0.049 A 
ATOM     51  H   UNL A   1      40.685  30.537  29.808  1.00  0.00     0.167 HD
ATOM     52  C   UNL A   1      44.866  29.465  30.507  1.00  0.00     0.037 A 
ATOM     53  C   UNL A   1      38.399  32.118  30.131  1.00  0.00     0.037 A 
ATOM     54  C   UNL A   1      44.713  30.790  31.053  1.00  0.00     0.049 A 
ATOM     55  C   UNL A   1      39.518  32.854  30.819  1.00  0.00     0.074 A 
ATOM     56  C   UNL A   1      45.682  31.609  31.605  1.00  0.00     0.029 A 
ATOM     57  N   UNL A   1      43.513  31.483  31.132  1.00  0.00    -0.354 N 
ATOM     58  N   UNL A   1      40.782  32.521  30.930  1.00  0.00    -0.248 NA
ATOM     59  C   UNL A   1      39.175  34.126  31.469  1.00  0.00     0.031 C 
ATOM     60  C   UNL A   1      45.056  32.763  32.087  1.00  0.00     0.029 A 
ATOM     61  C   UNL A   1      43.709  32.698  31.770  1.00  0.00     0.049 A 
ATOM     62  H   UNL A   1      42.650  31.159  30.786  1.00  0.00     0.167 HD
ATOM     63  C   UNL A   1      41.387  33.550  31.640  1.00  0.00     0.074 A 
ATOM     64  C   UNL A   1      40.357  34.532  31.911  1.00  0.00     0.031 C 
ATOM     65  C   UNL A   1      42.677  33.667  32.038  1.00  0.00     0.037 A 
BRANCH  52  66
ATOM     66  C   UNL A   1      46.220  28.818  30.591  1.00  0.00     0.064 A 
ATOM     67  C   UNL A   1      46.603  28.046  31.700  1.00  0.00     0.173 A 
ATOM     68  C   UNL A   1      47.126  28.927  29.526  1.00  0.00     0.173 A 
ATOM     69  F   UNL A   1      45.776  27.912  32.748  1.00  0.00    -0.203 F 
ATOM     70  C   UNL A   1      47.854  27.438  31.752  1.00  0.00     0.198 A 
ATOM     71  C   UNL A   1      48.362  28.287  29.567  1.00  0.00     0.198 A 
ATOM     72  F   UNL A   1      46.810  29.644  28.437  1.00  0.00    -0.203 F 
ATOM     73  F   UNL A   1      48.217  26.750  32.844  1.00  0.00    -0.200 F 
ATOM     74  C   UNL A   1      48.729  27.551  30.682  1.00  0.00     0.200 A 
ATOM     75  F   UNL A   1      49.199  28.380  28.523  1.00  0.00    -0.200 F 
ATOM     76  F   UNL A   1      49.929  26.954  30.730  1.00  0.00    -0.200 F 
ENDBRANCH  52  66
BRANCH  53  77
ATOM     77  C   UNL A   1      37.021  32.680  30.105  1.00  0.00     0.064 A 
ATOM     78  C   UNL A   1      36.580  33.459  29.027  1.00  0.00     0.173 A 
ATOM     79  C   UNL A   1      36.125  32.466  31.162  1.00  0.00     0.173 A 
ATOM     80  F   UNL A   1      37.406  33.712  28.001  1.00  0.00    -0.203 F 
ATOM     81  C   UNL A   1      35.305  34.022  29.018  1.00  0.00     0.198 A 
ATOM     82  C   UNL A   1      34.838  32.998  31.136  1.00  0.00     0.198 A 
ATOM     83  F   UNL A   1      36.494  31.726  32.219  1.00  0.00    -0.203 F 
ATOM     84  F   UNL A   1      34.931  34.811  28.001  1.00  0.00    -0.200 F 
ATOM     85  C   UNL A   1      34.433  33.786  30.070  1.00  0.00     0.200 A 
ATOM     86  F   UNL A   1      33.992  32.750  32.145  1.00  0.00    -0.200 F 
ATOM     87  F   UNL A   1      33.206  34.325  30.059  1.00  0.00    -0.200 F 
ENDBRANCH  53  77
BRANCH  65  88
ATOM     88  C   UNL A   1      43.059  34.905  32.799  1.00  0.00     0.064 A 
ATOM     89  C   UNL A   1      43.469  36.074  32.143  1.00  0.00     0.173 A 
ATOM     90  C   UNL A   1      42.955  34.942  34.198  1.00  0.00     0.173 A 
ATOM     91  F   UNL A   1      43.600  36.089  30.808  1.00  0.00    -0.203 F 
ATOM     92  C   UNL A   1      43.780  37.228  32.859  1.00  0.00     0.198 A 
ATOM     93  C   UNL A   1      43.231  36.107  34.909  1.00  0.00     0.198 A 
ATOM     94  F   UNL A   1      42.561  33.853  34.877  1.00  0.00    -0.203 F 
ATOM     95  F   UNL A   1      44.215  38.319  32.213  1.00  0.00    -0.200 F 
ATOM     96  C   UNL A   1      43.651  37.246  34.239  1.00  0.00     0.200 A 
ATOM     97  F   UNL A   1      43.087  36.128  36.242  1.00  0.00    -0.200 F 
ATOM     98  F   UNL A   1      43.933  38.362  34.926  1.00  0.00    -0.200 F 
ENDBRANCH  65  88
ENDBRANCH  39  40
ENDBRANCH  31  34
ENDBRANCH  29  30
ENDBRANCH  28  29
ENDBRANCH  27  28
ENDBRANCH   1  27
TORSDOF 18
ENDMDL
MODEL 3
REMARK VINA RESULT:     -11.7      5.601     11.415
REMARK SMILES CCCc1cc(OCC(=O)NCCCCNC(=O)c2ccc(-c3c4nc(c(-c5c(F)c(F)c(F)c(F)c5F)c5ccc([nH]5)c(-c5c(F)c(F)c(F)c(F)c5F)c5nc(c(-c6c(F)c(F)c(F)c(F)c6F)c6ccc3[nH]6)C=C5)C=C4)cc2)nc(Nc2ccc(C#N)cc2)n1
REMARK SMILES IDX 12 1 11 2 9 3 10 4 8 6 7 7 6 8 4 9 5 10 93 11 83 12 82 13
REMARK SMILES IDX 3 14 2 15 1 16 84 17 85 19 86 20 92 21 87 22 91 23 88 24
REMARK SMILES IDX 89 25 90 26 13 27 14 28 15 29 16 30 17 31 18 33 19 34 20 35
REMARK SMILES IDX 81 36 21 37 80 38 22 39 23 40 24 41 74 42 25 43 79 44 73 45
REMARK SMILES IDX 75 46 26 47 78 48 72 49 71 50 27 52 59 53 39 54 58 55 40 56
REMARK SMILES IDX 43 57 57 58 76 59 41 60 42 61 56 63 77 64 44 65 28 66 29 67
REMARK SMILES IDX 37 68 30 69 31 70 35 71 38 72 32 73 33 74 36 75 34 76 60 77
REMARK SMILES IDX 61 78 69 79 62 80 63 81 67 82 70 83 64 84 65 85 68 86 66 87
REMARK SMILES IDX 45 88 46 89 54 90 47 91 48 92 52 93 55 94 49 95 50 96 53 97
REMARK SMILES IDX 51 98
REMARK H PARENT 11 5 84 18 16 32 75 51 43 62
REMARK Flexibility Score: inf
ROOT
ATOM      1  C   UNL A   1      31.514  28.835  25.489  1.00  0.00     0.116 C 
ENDROOT
BRANCH   1   2
ATOM      2  N   UNL A   1      30.875  28.870  24.189  1.00  0.00    -0.353 N 
ATOM      3  C   UNL A   1      31.039  28.005  23.149  1.00  0.00     0.258 C 
ATOM      4  O   UNL A   1      30.387  28.186  22.118  1.00  0.00    -0.271 OA
ATOM      5  H   UNL A   1      30.243  29.611  24.038  1.00  0.00     0.163 HD
BRANCH   3   6
ATOM      6  C   UNL A   1      32.009  26.821  23.285  1.00  0.00     0.331 C 
BRANCH   6   7
ATOM      7  O   UNL A   1      31.489  25.519  23.072  1.00  0.00    -0.467 OA
BRANCH   7   8
ATOM      8  C   UNL A   1      32.372  24.473  23.079  1.00  0.00     0.218 A 
ATOM      9  C   UNL A   1      34.446  23.442  23.364  1.00  0.00     0.050 A 
ATOM     10  C   UNL A   1      33.733  24.606  23.210  1.00  0.00     0.092 A 
ATOM     11  N   UNL A   1      33.859  22.238  23.296  1.00  0.00    -0.218 NA
ATOM     12  C   UNL A   1      32.540  22.187  23.054  1.00  0.00     0.230 A 
ATOM     13  N   UNL A   1      31.767  23.276  22.962  1.00  0.00    -0.177 NA
BRANCH   9  14
ATOM     14  C   UNL A   1      35.921  23.469  23.670  1.00  0.00     0.056 C 
BRANCH  14  15
ATOM     15  C   UNL A   1      36.230  23.655  25.160  1.00  0.00     0.003 C 
ATOM     16  C   UNL A   1      37.596  23.115  25.564  1.00  0.00     0.004 C 
ENDBRANCH  14  15
ENDBRANCH   9  14
BRANCH  12  17
ATOM     17  N   UNL A   1      31.944  20.953  22.799  1.00  0.00    -0.324 N 
ATOM     18  H   UNL A   1      31.191  20.959  22.164  1.00  0.00     0.170 HD
BRANCH  17  19
ATOM     19  C   UNL A   1      32.286  19.708  23.336  1.00  0.00     0.041 A 
ATOM     20  C   UNL A   1      32.526  18.620  22.488  1.00  0.00     0.027 A 
ATOM     21  C   UNL A   1      32.528  19.548  24.707  1.00  0.00     0.027 A 
ATOM     22  C   UNL A   1      33.010  17.408  22.998  1.00  0.00     0.021 A 
ATOM     23  C   UNL A   1      32.989  18.335  25.227  1.00  0.00     0.021 A 
ATOM     24  C   UNL A   1      33.245  17.264  24.369  1.00  0.00     0.052 A 
BRANCH  24  25
ATOM     25  C   UNL A   1      33.764  16.036  24.893  1.00  0.00     0.099 C 
ATOM     26  N   UNL A   1      34.182  15.036  25.311  1.00  0.00    -0.192 NA
ENDBRANCH  24  25
ENDBRANCH  17  19
ENDBRANCH  12  17
ENDBRANCH   7   8
ENDBRANCH   6   7
ENDBRANCH   3   6
ENDBRANCH   1   2
BRANCH   1  27
ATOM     27  C   UNL A   1      32.457  30.016  25.699  1.00  0.00     0.023 C 
BRANCH  27  28
ATOM     28  C   UNL A   1      31.899  31.141  26.573  1.00  0.00     0.023 C 
BRANCH  28  29
ATOM     29  C   UNL A   1      32.943  31.993  27.290  1.00  0.00     0.116 C 
BRANCH  29  30
ATOM     30  N   UNL A   1      32.532  33.380  27.454  1.00  0.00    -0.352 N 
ATOM     31  C   UNL A   1      33.014  34.342  28.310  1.00  0.00     0.251 C 
ATOM     32  H   UNL A   1      31.800  33.674  26.863  1.00  0.00     0.163 HD
ATOM     33  O   UNL A   1      32.447  35.425  28.409  1.00  0.00    -0.269 OA
BRANCH  31  34
ATOM     34  C   UNL A   1      34.196  34.050  29.150  1.00  0.00     0.039 A 
ATOM     35  C   UNL A   1      34.012  33.367  30.354  1.00  0.00     0.014 A 
ATOM     36  C   UNL A   1      35.480  34.406  28.730  1.00  0.00     0.014 A 
ATOM     37  C   UNL A   1      35.125  32.948  31.086  1.00  0.00     0.010 A 
ATOM     38  C   UNL A   1      36.589  33.924  29.421  1.00  0.00     0.010 A 
ATOM     39  C   UNL A   1      36.421  33.166  30.590  1.00  0.00    -0.014 A 
BRANCH  39  40
ATOM     40  C   UNL A   1      37.607  32.544  31.236  1.00  0.00     0.031 A 
ATOM     41  C   UNL A   1      38.298  31.371  30.605  1.00  0.00     0.074 A 
ATOM     42  C   UNL A   1      38.006  32.991  32.445  1.00  0.00     0.049 A 
ATOM     43  N   UNL A   1      39.279  30.640  31.071  1.00  0.00    -0.248 NA
ATOM     44  C   UNL A   1      37.809  30.950  29.284  1.00  0.00     0.031 C 
ATOM     45  C   UNL A   1      37.395  34.101  33.179  1.00  0.00     0.029 A 
ATOM     46  N   UNL A   1      39.007  32.556  33.279  1.00  0.00    -0.354 N 
ATOM     47  C   UNL A   1      39.523  29.673  30.106  1.00  0.00     0.074 A 
ATOM     48  C   UNL A   1      38.552  29.877  29.051  1.00  0.00     0.031 C 
ATOM     49  C   UNL A   1      38.044  34.272  34.340  1.00  0.00     0.029 A 
ATOM     50  C   UNL A   1      39.077  33.249  34.464  1.00  0.00     0.049 A 
ATOM     51  H   UNL A   1      39.618  31.819  33.049  1.00  0.00     0.167 HD
ATOM     52  C   UNL A   1      40.479  28.713  30.095  1.00  0.00     0.037 A 
ATOM     53  C   UNL A   1      39.863  33.065  35.542  1.00  0.00     0.037 A 
ATOM     54  C   UNL A   1      41.441  28.516  31.150  1.00  0.00     0.049 A 
ATOM     55  C   UNL A   1      40.874  31.950  35.531  1.00  0.00     0.074 A 
ATOM     56  C   UNL A   1      42.483  27.607  31.205  1.00  0.00     0.029 A 
ATOM     57  N   UNL A   1      41.470  29.227  32.341  1.00  0.00    -0.354 N 
ATOM     58  N   UNL A   1      41.147  31.091  34.578  1.00  0.00    -0.248 NA
ATOM     59  C   UNL A   1      41.681  31.773  36.745  1.00  0.00     0.031 C 
ATOM     60  C   UNL A   1      43.092  27.716  32.459  1.00  0.00     0.029 A 
ATOM     61  C   UNL A   1      42.479  28.742  33.158  1.00  0.00     0.049 A 
ATOM     62  H   UNL A   1      40.863  29.967  32.572  1.00  0.00     0.167 HD
ATOM     63  C   UNL A   1      42.169  30.289  35.069  1.00  0.00     0.074 A 
ATOM     64  C   UNL A   1      42.486  30.780  36.394  1.00  0.00     0.031 C 
ATOM     65  C   UNL A   1      42.785  29.236  34.477  1.00  0.00     0.037 A 
BRANCH  52  66
ATOM     66  C   UNL A   1      40.528  27.787  28.912  1.00  0.00     0.064 A 
ATOM     67  C   UNL A   1      41.346  28.048  27.802  1.00  0.00     0.173 A 
ATOM     68  C   UNL A   1      39.786  26.596  28.913  1.00  0.00     0.173 A 
ATOM     69  F   UNL A   1      42.072  29.174  27.747  1.00  0.00    -0.203 F 
ATOM     70  C   UNL A   1      41.393  27.168  26.723  1.00  0.00     0.198 A 
ATOM     71  C   UNL A   1      39.865  25.701  27.849  1.00  0.00     0.198 A 
ATOM     72  F   UNL A   1      38.995  26.290  29.952  1.00  0.00    -0.203 F 
ATOM     73  F   UNL A   1      42.141  27.465  25.652  1.00  0.00    -0.200 F 
ATOM     74  C   UNL A   1      40.660  25.991  26.751  1.00  0.00     0.200 A 
ATOM     75  F   UNL A   1      39.171  24.554  27.887  1.00  0.00    -0.200 F 
ATOM     76  F   UNL A   1      40.716  25.140  25.717  1.00  0.00    -0.200 F 
ENDBRANCH  52  66
BRANCH  53  77
ATOM     77  C   UNL A   1      39.717  33.949  36.731  1.00  0.00     0.064 A 
ATOM     78  C   UNL A   1      38.904  33.577  37.811  1.00  0.00     0.173 A 
ATOM     79  C   UNL A   1      40.371  35.187  36.806  1.00  0.00     0.173 A 
ATOM     80  F   UNL A   1      38.240  32.413  37.779  1.00  0.00    -0.203 F 
ATOM     81  C   UNL A   1      38.732  34.420  38.907  1.00  0.00     0.198 A 
ATOM     82  C   UNL A   1      40.228  36.013  37.919  1.00  0.00     0.198 A 
ATOM     83  F   UNL A   1      41.164  35.592  35.802  1.00  0.00    -0.203 F 
ATOM     84  F   UNL A   1      37.903  34.064  39.899  1.00  0.00    -0.200 F 
ATOM     85  C   UNL A   1      39.399  35.634  38.963  1.00  0.00     0.200 A 
ATOM     86  F   UNL A   1      40.891  37.176  37.977  1.00  0.00    -0.200 F 
ATOM     87  F   UNL A   1      39.235  36.442  40.020  1.00  0.00    -0.200 F 
ENDBRANCH  53  77
BRANCH  65  88
ATOM     88  C   UNL A   1      43.874  28.546  35.249  1.00  0.00     0.064 A 
ATOM     89  C   UNL A   1      45.220  28.912  35.105  1.00  0.00     0.173 A 
ATOM     90  C   UNL A   1      43.562  27.550  36.187  1.00  0.00     0.173 A 
ATOM     91  F   UNL A   1      45.575  29.846  34.212  1.00  0.00    -0.203 F 
ATOM     92  C   UNL A   1      46.216  28.292  35.858  1.00  0.00     0.198 A 
ATOM     93  C   UNL A   1      44.555  26.958  36.964  1.00  0.00     0.198 A 
ATOM     94  F   UNL A   1      42.289  27.167  36.370  1.00  0.00    -0.203 F 
ATOM     95  F   UNL A   1      47.501  28.625  35.669  1.00  0.00    -0.200 F 
ATOM     96  C   UNL A   1      45.881  27.325  36.793  1.00  0.00     0.200 A 
ATOM     97  F   UNL A   1      44.227  26.038  37.881  1.00  0.00    -0.200 F 
ATOM     98  F   UNL A   1      46.838  26.743  37.529  1.00  0.00    -0.200 F 
ENDBRANCH  65  88
ENDBRANCH  39  40
ENDBRANCH  31  34
ENDBRANCH  29  30
ENDBRANCH  28  29
ENDBRANCH  27  28
ENDBRANCH   1  27
TORSDOF 18
ENDMDL
