MODEL 1
REMARK VINA RESULT:     -13.3      0.000      0.000
REMARK SMILES O=C(NCCCCNC(=O)[C@@H]1CCCC[C@@H]1C(=O)Nc1cc(C(F)(F)F)cc(C(F)(F)F)c1)c1ccc(-c2c3nc(c(-c4c(F)c(F)c(F)c(F)c4F)c4ccc([nH]4)c(-c4c(F)c(F)c(F)c(F)c4F)c4nc(c(-c5c(F)c(F)c(F)c(F)c5F)c5ccc2[nH]5)C=C4)C=C3)cc1
REMARK SMILES IDX 6 1 5 2 4 3 3 4 1 5 2 6 34 8 35 9 96 10 36 11 95 12 37 13
REMARK SMILES IDX 38 14 39 15 89 16 40 17 94 18 88 19 90 20 41 21 93 22 87 23
REMARK SMILES IDX 86 24 42 26 74 27 54 28 73 29 55 30 58 31 72 32 91 33 56 34
REMARK SMILES IDX 57 35 71 37 92 38 59 39 43 40 44 41 52 42 45 43 46 44 50 45
REMARK SMILES IDX 53 46 47 47 48 48 51 49 49 50 75 51 76 52 84 53 77 54 78 55
REMARK SMILES IDX 82 56 85 57 79 58 80 59 83 60 81 61 60 62 61 63 69 64 62 65
REMARK SMILES IDX 63 66 67 67 70 68 64 69 65 70 68 71 66 72 7 73 8 74 9 75
REMARK SMILES IDX 10 77 11 78 12 79 16 80 13 81 15 82 14 83 17 84 18 85 19 86
REMARK SMILES IDX 20 88 21 89 33 90 22 91 28 92 27 93 23 94 24 95 25 96 26 97
REMARK SMILES IDX 29 98 30 99 31 100 32 101
REMARK H PARENT 3 7 90 25 58 36 8 76 19 87
REMARK Flexibility Score: inf
ROOT
ATOM      1  C   UNL A   1      37.412  21.253  24.784  1.00  0.00     0.023 C 
ENDROOT
BRANCH   1   2
ATOM      2  C   UNL A   1      38.257  19.993  24.980  1.00  0.00     0.023 C 
BRANCH   2   3
ATOM      3  C   UNL A   1      39.331  20.108  26.048  1.00  0.00     0.116 C 
BRANCH   3   4
ATOM      4  N   UNL A   1      40.386  19.116  25.906  1.00  0.00    -0.352 N 
ATOM      5  O   UNL A   1      42.519  18.380  25.792  1.00  0.00    -0.269 OA
ATOM      6  C   UNL A   1      41.741  19.292  26.038  1.00  0.00     0.251 C 
ATOM      7  H   UNL A   1      40.090  18.203  25.688  1.00  0.00     0.163 HD
BRANCH   6   8
ATOM      8  C   UNL A   1      42.247  20.616  26.442  1.00  0.00     0.039 A 
ATOM      9  C   UNL A   1      42.318  20.963  27.793  1.00  0.00     0.014 A 
ATOM     10  C   UNL A   1      42.609  21.529  25.449  1.00  0.00     0.014 A 
ATOM     11  C   UNL A   1      42.626  22.270  28.148  1.00  0.00     0.010 A 
ATOM     12  C   UNL A   1      42.990  22.820  25.812  1.00  0.00     0.010 A 
ATOM     13  C   UNL A   1      42.968  23.208  27.161  1.00  0.00    -0.014 A 
BRANCH  13  14
ATOM     14  C   UNL A   1      43.338  24.582  27.567  1.00  0.00     0.031 A 
ATOM     15  C   UNL A   1      44.770  25.028  27.564  1.00  0.00     0.074 A 
ATOM     16  C   UNL A   1      42.356  25.435  27.914  1.00  0.00     0.049 A 
ATOM     17  N   UNL A   1      45.270  26.198  27.875  1.00  0.00    -0.248 NA
ATOM     18  C   UNL A   1      45.776  24.031  27.170  1.00  0.00     0.031 C 
ATOM     19  C   UNL A   1      40.931  25.102  27.954  1.00  0.00     0.029 A 
ATOM     20  N   UNL A   1      42.402  26.755  28.275  1.00  0.00    -0.354 N 
ATOM     21  C   UNL A   1      46.646  26.070  27.740  1.00  0.00     0.074 A 
ATOM     22  C   UNL A   1      46.906  24.704  27.337  1.00  0.00     0.031 C 
ATOM     23  C   UNL A   1      40.234  26.201  28.272  1.00  0.00     0.029 A 
ATOM     24  C   UNL A   1      41.165  27.299  28.511  1.00  0.00     0.049 A 
ATOM     25  H   UNL A   1      43.241  27.264  28.359  1.00  0.00     0.167 HD
ATOM     26  C   UNL A   1      47.601  27.012  27.934  1.00  0.00     0.037 A 
ATOM     27  C   UNL A   1      40.820  28.544  28.884  1.00  0.00     0.037 A 
ATOM     28  C   UNL A   1      47.328  28.375  28.312  1.00  0.00     0.049 A 
ATOM     29  C   UNL A   1      41.898  29.565  29.095  1.00  0.00     0.074 A 
ATOM     30  C   UNL A   1      48.221  29.418  28.493  1.00  0.00     0.029 A 
ATOM     31  N   UNL A   1      46.063  28.885  28.569  1.00  0.00    -0.354 N 
ATOM     32  N   UNL A   1      43.194  29.441  28.941  1.00  0.00    -0.248 NA
ATOM     33  C   UNL A   1      41.466  30.897  29.536  1.00  0.00     0.031 C 
ATOM     34  C   UNL A   1      47.499  30.547  28.896  1.00  0.00     0.029 A 
ATOM     35  C   UNL A   1      46.153  30.221  28.925  1.00  0.00     0.049 A 
ATOM     36  H   UNL A   1      45.224  28.373  28.506  1.00  0.00     0.167 HD
ATOM     37  C   UNL A   1      43.733  30.681  29.248  1.00  0.00     0.074 A 
ATOM     38  C   UNL A   1      42.621  31.547  29.583  1.00  0.00     0.031 C 
ATOM     39  C   UNL A   1      45.032  31.066  29.255  1.00  0.00     0.037 A 
BRANCH  26  40
ATOM     40  C   UNL A   1      49.032  26.593  27.767  1.00  0.00     0.064 A 
ATOM     41  C   UNL A   1      49.843  26.274  28.866  1.00  0.00     0.173 A 
ATOM     42  C   UNL A   1      49.592  26.484  26.485  1.00  0.00     0.173 A 
ATOM     43  F   UNL A   1      49.360  26.375  30.113  1.00  0.00    -0.203 F 
ATOM     44  C   UNL A   1      51.169  25.886  28.688  1.00  0.00     0.198 A 
ATOM     45  C   UNL A   1      50.910  26.071  26.310  1.00  0.00     0.198 A 
ATOM     46  F   UNL A   1      48.859  26.774  25.400  1.00  0.00    -0.203 F 
ATOM     47  F   UNL A   1      51.938  25.629  29.755  1.00  0.00    -0.200 F 
ATOM     48  C   UNL A   1      51.699  25.780  27.411  1.00  0.00     0.200 A 
ATOM     49  F   UNL A   1      51.419  25.960  25.074  1.00  0.00    -0.200 F 
ATOM     50  F   UNL A   1      52.976  25.403  27.243  1.00  0.00    -0.200 F 
ENDBRANCH  26  40
BRANCH  27  51
ATOM     51  C   UNL A   1      39.386  28.883  29.054  1.00  0.00     0.064 A 
ATOM     52  C   UNL A   1      38.766  28.769  30.303  1.00  0.00     0.173 A 
ATOM     53  C   UNL A   1      38.620  29.368  27.983  1.00  0.00     0.173 A 
ATOM     54  F   UNL A   1      39.455  28.295  31.353  1.00  0.00    -0.203 F 
ATOM     55  C   UNL A   1      37.431  29.126  30.478  1.00  0.00     0.198 A 
ATOM     56  C   UNL A   1      37.293  29.748  28.164  1.00  0.00     0.198 A 
ATOM     57  F   UNL A   1      39.173  29.502  26.768  1.00  0.00    -0.203 F 
ATOM     58  F   UNL A   1      36.853  28.985  31.679  1.00  0.00    -0.200 F 
ATOM     59  C   UNL A   1      36.699  29.623  29.410  1.00  0.00     0.200 A 
ATOM     60  F   UNL A   1      36.594  30.244  27.134  1.00  0.00    -0.200 F 
ATOM     61  F   UNL A   1      35.418  29.980  29.583  1.00  0.00    -0.200 F 
ENDBRANCH  27  51
BRANCH  39  62
ATOM     62  C   UNL A   1      45.313  32.495  29.610  1.00  0.00     0.064 A 
ATOM     63  C   UNL A   1      45.313  33.506  28.638  1.00  0.00     0.173 A 
ATOM     64  C   UNL A   1      45.563  32.858  30.942  1.00  0.00     0.173 A 
ATOM     65  F   UNL A   1      45.096  33.202  27.349  1.00  0.00    -0.203 F 
ATOM     66  C   UNL A   1      45.580  34.828  28.983  1.00  0.00     0.198 A 
ATOM     67  C   UNL A   1      45.805  34.184  31.286  1.00  0.00     0.198 A 
ATOM     68  F   UNL A   1      45.570  31.927  31.907  1.00  0.00    -0.203 F 
ATOM     69  F   UNL A   1      45.623  35.770  28.032  1.00  0.00    -0.200 F 
ATOM     70  C   UNL A   1      45.821  35.166  30.306  1.00  0.00     0.200 A 
ATOM     71  F   UNL A   1      46.029  34.512  32.566  1.00  0.00    -0.200 F 
ATOM     72  F   UNL A   1      46.077  36.439  30.637  1.00  0.00    -0.200 F 
ENDBRANCH  39  62
ENDBRANCH  13  14
ENDBRANCH   6   8
ENDBRANCH   3   4
ENDBRANCH   2   3
ENDBRANCH   1   2
BRANCH   1  73
ATOM     73  C   UNL A   1      36.318  21.455  25.834  1.00  0.00     0.116 C 
BRANCH  73  74
ATOM     74  N   UNL A   1      36.010  22.856  25.977  1.00  0.00    -0.356 N 
ATOM     75  C   UNL A   1      34.955  23.586  25.541  1.00  0.00     0.223 C 
ATOM     76  H   UNL A   1      36.682  23.371  26.479  1.00  0.00     0.163 HD
ATOM     77  O   UNL A   1      35.052  24.801  25.743  1.00  0.00    -0.275 OA
BRANCH  75  78
ATOM     78  C   UNL A   1      33.663  22.956  24.984  1.00  0.00     0.091 C 
ATOM     79  C   UNL A   1      33.816  21.710  24.099  1.00  0.00     0.014 C 
ATOM     80  C   UNL A   1      32.818  24.055  24.275  1.00  0.00     0.091 C 
ATOM     81  C   UNL A   1      32.483  21.196  23.567  1.00  0.00     0.001 C 
ATOM     82  C   UNL A   1      31.527  23.510  23.636  1.00  0.00     0.014 C 
ATOM     83  C   UNL A   1      31.743  22.264  22.785  1.00  0.00     0.001 C 
BRANCH  80  84
ATOM     84  C   UNL A   1      33.615  24.808  23.199  1.00  0.00     0.228 C 
ATOM     85  O   UNL A   1      34.398  24.207  22.456  1.00  0.00    -0.274 OA
ATOM     86  N   UNL A   1      33.358  26.116  22.899  1.00  0.00    -0.326 N 
ATOM     87  H   UNL A   1      33.642  26.371  21.992  1.00  0.00     0.169 HD
BRANCH  86  88
ATOM     88  C   UNL A   1      32.775  27.173  23.617  1.00  0.00     0.042 A 
ATOM     89  C   UNL A   1      31.658  27.788  23.042  1.00  0.00     0.039 A 
ATOM     90  C   UNL A   1      33.289  27.701  24.800  1.00  0.00     0.039 A 
ATOM     91  C   UNL A   1      31.017  28.871  23.670  1.00  0.00     0.058 A 
ATOM     92  C   UNL A   1      32.675  28.783  25.451  1.00  0.00     0.058 A 
ATOM     93  C   UNL A   1      31.529  29.354  24.882  1.00  0.00     0.026 A 
BRANCH  91  94
ATOM     94  C   UNL A   1      29.799  29.491  23.029  1.00  0.00     0.416 C 
ATOM     95  F   UNL A   1      29.304  30.529  23.756  1.00  0.00    -0.166 F 
ATOM     96  F   UNL A   1      30.064  29.990  21.792  1.00  0.00    -0.166 F 
ATOM     97  F   UNL A   1      28.767  28.617  22.869  1.00  0.00    -0.166 F 
ENDBRANCH  91  94
BRANCH  92  98
ATOM     98  C   UNL A   1      33.246  29.331  26.739  1.00  0.00     0.416 C 
ATOM     99  F   UNL A   1      32.295  29.510  27.695  1.00  0.00    -0.166 F 
ATOM    100  F   UNL A   1      34.173  28.494  27.285  1.00  0.00    -0.166 F 
ATOM    101  F   UNL A   1      33.871  30.532  26.600  1.00  0.00    -0.166 F 
ENDBRANCH  92  98
ENDBRANCH  86  88
ENDBRANCH  80  84
ENDBRANCH  75  78
ENDBRANCH  73  74
ENDBRANCH   1  73
TORSDOF 15
ENDMDL
MODEL 2
REMARK VINA RESULT:     -13.3      5.388     10.621
REMARK SMILES O=C(NCCCCNC(=O)[C@@H]1CCCC[C@@H]1C(=O)Nc1cc(C(F)(F)F)cc(C(F)(F)F)c1)c1ccc(-c2c3nc(c(-c4c(F)c(F)c(F)c(F)c4F)c4ccc([nH]4)c(-c4c(F)c(F)c(F)c(F)c4F)c4nc(c(-c5c(F)c(F)c(F)c(F)c5F)c5ccc2[nH]5)C=C4)C=C3)cc1
REMARK SMILES IDX 6 1 5 2 4 3 3 4 1 5 2 6 34 8 35 9 96 10 36 11 95 12 37 13
REMARK SMILES IDX 38 14 39 15 89 16 40 17 94 18 88 19 90 20 41 21 93 22 87 23
REMARK SMILES IDX 86 24 42 26 74 27 54 28 73 29 55 30 58 31 72 32 91 33 56 34
REMARK SMILES IDX 57 35 71 37 92 38 59 39 43 40 44 41 52 42 45 43 46 44 50 45
REMARK SMILES IDX 53 46 47 47 48 48 51 49 49 50 75 51 76 52 84 53 77 54 78 55
REMARK SMILES IDX 82 56 85 57 79 58 80 59 83 60 81 61 60 62 61 63 69 64 62 65
REMARK SMILES IDX 63 66 67 67 70 68 64 69 65 70 68 71 66 72 7 73 8 74 9 75
REMARK SMILES IDX 10 77 11 78 12 79 16 80 13 81 15 82 14 83 17 84 18 85 19 86
REMARK SMILES IDX 20 88 21 89 33 90 22 91 28 92 27 93 23 94 24 95 25 96 26 97
REMARK SMILES IDX 29 98 30 99 31 100 32 101
REMARK H PARENT 3 7 90 25 58 36 8 76 19 87
REMARK Flexibility Score: inf
ROOT
ATOM      1  C   UNL A   1      31.811  30.507  26.798  1.00  0.00     0.023 C 
ENDROOT
BRANCH   1   2
ATOM      2  C   UNL A   1      31.542  32.012  26.859  1.00  0.00     0.023 C 
BRANCH   2   3
ATOM      3  C   UNL A   1      32.763  32.864  27.163  1.00  0.00     0.116 C 
BRANCH   3   4
ATOM      4  N   UNL A   1      32.425  34.203  27.619  1.00  0.00    -0.352 N 
ATOM      5  O   UNL A   1      32.557  36.017  28.960  1.00  0.00    -0.269 OA
ATOM      6  C   UNL A   1      33.015  34.935  28.620  1.00  0.00     0.251 C 
ATOM      7  H   UNL A   1      31.678  34.641  27.151  1.00  0.00     0.163 HD
BRANCH   6   8
ATOM      8  C   UNL A   1      34.191  34.371  29.309  1.00  0.00     0.039 A 
ATOM      9  C   UNL A   1      35.476  34.596  28.811  1.00  0.00     0.014 A 
ATOM     10  C   UNL A   1      33.989  33.574  30.438  1.00  0.00     0.014 A 
ATOM     11  C   UNL A   1      36.551  33.915  29.366  1.00  0.00     0.010 A 
ATOM     12  C   UNL A   1      35.081  32.950  31.039  1.00  0.00     0.010 A 
ATOM     13  C   UNL A   1      36.364  33.089  30.486  1.00  0.00    -0.014 A 
BRANCH  13  14
ATOM     14  C   UNL A   1      37.534  32.410  31.088  1.00  0.00     0.031 A 
ATOM     15  C   UNL A   1      37.997  32.755  32.472  1.00  0.00     0.074 A 
ATOM     16  C   UNL A   1      38.158  31.455  30.375  1.00  0.00     0.049 A 
ATOM     17  N   UNL A   1      38.992  32.251  33.159  1.00  0.00    -0.248 NA
ATOM     18  C   UNL A   1      37.255  33.811  33.178  1.00  0.00     0.031 C 
ATOM     19  C   UNL A   1      37.790  31.045  29.019  1.00  0.00     0.029 A 
ATOM     20  N   UNL A   1      39.212  30.643  30.696  1.00  0.00    -0.354 N 
ATOM     21  C   UNL A   1      39.012  32.941  34.362  1.00  0.00     0.074 A 
ATOM     22  C   UNL A   1      37.942  33.915  34.308  1.00  0.00     0.031 C 
ATOM     23  C   UNL A   1      38.574  30.026  28.642  1.00  0.00     0.029 A 
ATOM     24  C   UNL A   1      39.532  29.748  29.706  1.00  0.00     0.049 A 
ATOM     25  H   UNL A   1      39.694  30.696  31.553  1.00  0.00     0.167 HD
ATOM     26  C   UNL A   1      39.848  32.773  35.415  1.00  0.00     0.037 A 
ATOM     27  C   UNL A   1      40.496  28.811  29.660  1.00  0.00     0.037 A 
ATOM     28  C   UNL A   1      40.893  31.784  35.467  1.00  0.00     0.049 A 
ATOM     29  C   UNL A   1      41.409  28.649  30.838  1.00  0.00     0.074 A 
ATOM     30  C   UNL A   1      41.768  31.504  36.503  1.00  0.00     0.029 A 
ATOM     31  N   UNL A   1      41.207  30.911  34.434  1.00  0.00    -0.354 N 
ATOM     32  N   UNL A   1      41.404  29.291  31.982  1.00  0.00    -0.248 NA
ATOM     33  C   UNL A   1      42.465  27.636  30.719  1.00  0.00     0.031 C 
ATOM     34  C   UNL A   1      42.635  30.488  36.082  1.00  0.00     0.029 A 
ATOM     35  C   UNL A   1      42.273  30.106  34.800  1.00  0.00     0.049 A 
ATOM     36  H   UNL A   1      40.740  30.870  33.569  1.00  0.00     0.167 HD
ATOM     37  C   UNL A   1      42.442  28.750  32.725  1.00  0.00     0.074 A 
ATOM     38  C   UNL A   1      43.045  27.716  31.908  1.00  0.00     0.031 C 
ATOM     39  C   UNL A   1      42.859  29.082  33.971  1.00  0.00     0.037 A 
BRANCH  26  40
ATOM     40  C   UNL A   1      39.683  33.696  36.587  1.00  0.00     0.064 A 
ATOM     41  C   UNL A   1      40.313  34.948  36.637  1.00  0.00     0.173 A 
ATOM     42  C   UNL A   1      38.861  33.332  37.664  1.00  0.00     0.173 A 
ATOM     43  F   UNL A   1      41.121  35.338  35.639  1.00  0.00    -0.203 F 
ATOM     44  C   UNL A   1      40.145  35.791  37.733  1.00  0.00     0.198 A 
ATOM     45  C   UNL A   1      38.676  34.188  38.746  1.00  0.00     0.198 A 
ATOM     46  F   UNL A   1      38.232  32.147  37.664  1.00  0.00    -0.203 F 
ATOM     47  F   UNL A   1      40.792  36.963  37.779  1.00  0.00    -0.200 F 
ATOM     48  C   UNL A   1      39.323  35.412  38.783  1.00  0.00     0.200 A 
ATOM     49  F   UNL A   1      37.872  33.825  39.757  1.00  0.00    -0.200 F 
ATOM     50  F   UNL A   1      39.161  36.227  39.837  1.00  0.00    -0.200 F 
ENDBRANCH  26  40
BRANCH  27  51
ATOM     51  C   UNL A   1      40.617  27.948  28.460  1.00  0.00     0.064 A 
ATOM     52  C   UNL A   1      41.373  28.358  27.356  1.00  0.00     0.173 A 
ATOM     53  C   UNL A   1      40.017  26.681  28.411  1.00  0.00     0.173 A 
ATOM     54  F   UNL A   1      41.951  29.569  27.352  1.00  0.00    -0.203 F 
ATOM     55  C   UNL A   1      41.524  27.534  26.243  1.00  0.00     0.198 A 
ATOM     56  C   UNL A   1      40.189  25.848  27.308  1.00  0.00     0.198 A 
ATOM     57  F   UNL A   1      39.289  26.242  29.448  1.00  0.00    -0.203 F 
ATOM     58  F   UNL A   1      42.233  27.960  25.188  1.00  0.00    -0.200 F 
ATOM     59  C   UNL A   1      40.939  26.277  26.224  1.00  0.00     0.200 A 
ATOM     60  F   UNL A   1      39.637  24.627  27.301  1.00  0.00    -0.200 F 
ATOM     61  F   UNL A   1      41.098  25.479  25.159  1.00  0.00    -0.200 F 
ENDBRANCH  27  51
BRANCH  39  62
ATOM     62  C   UNL A   1      44.005  28.296  34.533  1.00  0.00     0.064 A 
ATOM     63  C   UNL A   1      45.331  28.733  34.396  1.00  0.00     0.173 A 
ATOM     64  C   UNL A   1      43.771  27.103  35.233  1.00  0.00     0.173 A 
ATOM     65  F   UNL A   1      45.604  29.858  33.719  1.00  0.00    -0.203 F 
ATOM     66  C   UNL A   1      46.385  27.988  34.918  1.00  0.00     0.198 A 
ATOM     67  C   UNL A   1      44.826  26.375  35.775  1.00  0.00     0.198 A 
ATOM     68  F   UNL A   1      42.520  26.647  35.392  1.00  0.00    -0.203 F 
ATOM     69  F   UNL A   1      47.647  28.399  34.735  1.00  0.00    -0.200 F 
ATOM     70  C   UNL A   1      46.132  26.814  35.611  1.00  0.00     0.200 A 
ATOM     71  F   UNL A   1      44.580  25.245  36.452  1.00  0.00    -0.200 F 
ATOM     72  F   UNL A   1      47.147  26.099  36.113  1.00  0.00    -0.200 F 
ENDBRANCH  39  62
ENDBRANCH  13  14
ENDBRANCH   6   8
ENDBRANCH   3   4
ENDBRANCH   2   3
ENDBRANCH   1   2
BRANCH   1  73
ATOM     73  C   UNL A   1      32.566  30.046  25.550  1.00  0.00     0.116 C 
BRANCH  73  74
ATOM     74  N   UNL A   1      33.373  28.889  25.848  1.00  0.00    -0.356 N 
ATOM     75  C   UNL A   1      33.196  27.579  25.553  1.00  0.00     0.223 C 
ATOM     76  H   UNL A   1      34.195  29.086  26.354  1.00  0.00     0.163 HD
ATOM     77  O   UNL A   1      34.032  26.821  26.055  1.00  0.00    -0.275 OA
BRANCH  75  78
ATOM     78  C   UNL A   1      32.144  27.074  24.545  1.00  0.00     0.091 C 
ATOM     79  C   UNL A   1      30.754  27.725  24.598  1.00  0.00     0.014 C 
ATOM     80  C   UNL A   1      32.048  25.522  24.636  1.00  0.00     0.091 C 
ATOM     81  C   UNL A   1      29.780  27.122  23.592  1.00  0.00     0.001 C 
ATOM     82  C   UNL A   1      30.979  24.926  23.701  1.00  0.00     0.014 C 
ATOM     83  C   UNL A   1      29.629  25.626  23.788  1.00  0.00     0.001 C 
BRANCH  80  84
ATOM     84  C   UNL A   1      31.775  25.032  26.066  1.00  0.00     0.228 C 
ATOM     85  O   UNL A   1      31.057  25.685  26.831  1.00  0.00    -0.274 OA
ATOM     86  N   UNL A   1      32.152  23.786  26.483  1.00  0.00    -0.326 N 
ATOM     87  H   UNL A   1      31.623  23.452  27.242  1.00  0.00     0.169 HD
BRANCH  86  88
ATOM     88  C   UNL A   1      33.140  22.885  26.053  1.00  0.00     0.042 A 
ATOM     89  C   UNL A   1      34.449  23.370  25.973  1.00  0.00     0.039 A 
ATOM     90  C   UNL A   1      32.885  21.586  25.617  1.00  0.00     0.039 A 
ATOM     91  C   UNL A   1      35.504  22.554  25.531  1.00  0.00     0.058 A 
ATOM     92  C   UNL A   1      33.915  20.745  25.167  1.00  0.00     0.058 A 
ATOM     93  C   UNL A   1      35.227  21.236  25.139  1.00  0.00     0.026 A 
BRANCH  91  94
ATOM     94  C   UNL A   1      36.907  23.108  25.482  1.00  0.00     0.416 C 
ATOM     95  F   UNL A   1      37.020  24.290  26.149  1.00  0.00    -0.166 F 
ATOM     96  F   UNL A   1      37.814  22.268  26.050  1.00  0.00    -0.166 F 
ATOM     97  F   UNL A   1      37.354  23.345  24.218  1.00  0.00    -0.166 F 
ENDBRANCH  91  94
BRANCH  92  98
ATOM     98  C   UNL A   1      33.614  19.336  24.709  1.00  0.00     0.416 C 
ATOM     99  F   UNL A   1      32.918  18.625  25.638  1.00  0.00    -0.166 F 
ATOM    100  F   UNL A   1      32.855  19.317  23.578  1.00  0.00    -0.166 F 
ATOM    101  F   UNL A   1      34.723  18.599  24.423  1.00  0.00    -0.166 F 
ENDBRANCH  92  98
ENDBRANCH  86  88
ENDBRANCH  80  84
ENDBRANCH  75  78
ENDBRANCH  73  74
ENDBRANCH   1  73
TORSDOF 15
ENDMDL
MODEL 3
REMARK VINA RESULT:     -13.3      0.298      2.381
REMARK SMILES O=C(NCCCCNC(=O)[C@@H]1CCCC[C@@H]1C(=O)Nc1cc(C(F)(F)F)cc(C(F)(F)F)c1)c1ccc(-c2c3nc(c(-c4c(F)c(F)c(F)c(F)c4F)c4ccc([nH]4)c(-c4c(F)c(F)c(F)c(F)c4F)c4nc(c(-c5c(F)c(F)c(F)c(F)c5F)c5ccc2[nH]5)C=C4)C=C3)cc1
REMARK SMILES IDX 6 1 5 2 4 3 3 4 1 5 2 6 34 8 35 9 96 10 36 11 95 12 37 13
REMARK SMILES IDX 38 14 39 15 89 16 40 17 94 18 88 19 90 20 41 21 93 22 87 23
REMARK SMILES IDX 86 24 42 26 74 27 54 28 73 29 55 30 58 31 72 32 91 33 56 34
REMARK SMILES IDX 57 35 71 37 92 38 59 39 43 40 44 41 52 42 45 43 46 44 50 45
REMARK SMILES IDX 53 46 47 47 48 48 51 49 49 50 75 51 76 52 84 53 77 54 78 55
REMARK SMILES IDX 82 56 85 57 79 58 80 59 83 60 81 61 60 62 61 63 69 64 62 65
REMARK SMILES IDX 63 66 67 67 70 68 64 69 65 70 68 71 66 72 7 73 8 74 9 75
REMARK SMILES IDX 10 77 11 78 12 79 16 80 13 81 15 82 14 83 17 84 18 85 19 86
REMARK SMILES IDX 20 88 21 89 33 90 22 91 28 92 27 93 23 94 24 95 25 96 26 97
REMARK SMILES IDX 29 98 30 99 31 100 32 101
REMARK H PARENT 3 7 90 25 58 36 8 76 19 87
REMARK Flexibility Score: inf
ROOT
ATOM      1  C   UNL A   1      37.322  21.265  24.895  1.00  0.00     0.023 C 
ENDROOT
BRANCH   1   2
ATOM      2  C   UNL A   1      38.273  20.072  24.990  1.00  0.00     0.023 C 
BRANCH   2   3
ATOM      3  C   UNL A   1      39.377  20.220  26.024  1.00  0.00     0.116 C 
BRANCH   3   4
ATOM      4  N   UNL A   1      40.420  19.215  25.894  1.00  0.00    -0.352 N 
ATOM      5  O   UNL A   1      42.544  18.451  25.798  1.00  0.00    -0.269 OA
ATOM      6  C   UNL A   1      41.777  19.373  26.034  1.00  0.00     0.251 C 
ATOM      7  H   UNL A   1      40.114  18.304  25.678  1.00  0.00     0.163 HD
BRANCH   6   8
ATOM      8  C   UNL A   1      42.296  20.693  26.435  1.00  0.00     0.039 A 
ATOM      9  C   UNL A   1      42.362  21.046  27.785  1.00  0.00     0.014 A 
ATOM     10  C   UNL A   1      42.678  21.595  25.440  1.00  0.00     0.014 A 
ATOM     11  C   UNL A   1      42.684  22.351  28.135  1.00  0.00     0.010 A 
ATOM     12  C   UNL A   1      43.073  22.884  25.799  1.00  0.00     0.010 A 
ATOM     13  C   UNL A   1      43.046  23.279  27.146  1.00  0.00    -0.014 A 
BRANCH  13  14
ATOM     14  C   UNL A   1      43.431  24.651  27.548  1.00  0.00     0.031 A 
ATOM     15  C   UNL A   1      44.868  25.080  27.544  1.00  0.00     0.074 A 
ATOM     16  C   UNL A   1      42.459  25.515  27.891  1.00  0.00     0.049 A 
ATOM     17  N   UNL A   1      45.381  26.245  27.851  1.00  0.00    -0.248 NA
ATOM     18  C   UNL A   1      45.863  24.070  27.154  1.00  0.00     0.031 C 
ATOM     19  C   UNL A   1      41.030  25.198  27.931  1.00  0.00     0.029 A 
ATOM     20  N   UNL A   1      42.519  26.836  28.248  1.00  0.00    -0.354 N 
ATOM     21  C   UNL A   1      46.755  26.102  27.718  1.00  0.00     0.074 A 
ATOM     22  C   UNL A   1      47.001  24.732  27.319  1.00  0.00     0.031 C 
ATOM     23  C   UNL A   1      40.345  26.306  28.245  1.00  0.00     0.029 A 
ATOM     24  C   UNL A   1      41.288  27.394  28.481  1.00  0.00     0.049 A 
ATOM     25  H   UNL A   1      43.363  27.336  28.330  1.00  0.00     0.167 HD
ATOM     26  C   UNL A   1      47.720  27.034  27.909  1.00  0.00     0.037 A 
ATOM     27  C   UNL A   1      40.956  28.644  28.849  1.00  0.00     0.037 A 
ATOM     28  C   UNL A   1      47.463  28.401  28.282  1.00  0.00     0.049 A 
ATOM     29  C   UNL A   1      42.045  29.654  29.057  1.00  0.00     0.074 A 
ATOM     30  C   UNL A   1      48.367  29.434  28.460  1.00  0.00     0.029 A 
ATOM     31  N   UNL A   1      46.203  28.926  28.536  1.00  0.00    -0.354 N 
ATOM     32  N   UNL A   1      43.340  29.515  28.904  1.00  0.00    -0.248 NA
ATOM     33  C   UNL A   1      41.629  30.992  29.493  1.00  0.00     0.031 C 
ATOM     34  C   UNL A   1      47.658  30.573  28.859  1.00  0.00     0.029 A 
ATOM     35  C   UNL A   1      46.308  30.262  28.888  1.00  0.00     0.049 A 
ATOM     36  H   UNL A   1      45.359  28.423  28.474  1.00  0.00     0.167 HD
ATOM     37  C   UNL A   1      43.893  30.750  29.207  1.00  0.00     0.074 A 
ATOM     38  C   UNL A   1      42.790  31.630  29.539  1.00  0.00     0.031 C 
ATOM     39  C   UNL A   1      45.197  31.121  29.214  1.00  0.00     0.037 A 
BRANCH  26  40
ATOM     40  C   UNL A   1      49.147  26.599  27.744  1.00  0.00     0.064 A 
ATOM     41  C   UNL A   1      49.734  26.449  26.478  1.00  0.00     0.173 A 
ATOM     42  C   UNL A   1      49.947  26.354  28.870  1.00  0.00     0.173 A 
ATOM     43  F   UNL A   1      49.008  26.658  25.369  1.00  0.00    -0.203 F 
ATOM     44  C   UNL A   1      51.060  26.047  26.348  1.00  0.00     0.198 A 
ATOM     45  C   UNL A   1      51.280  25.976  28.735  1.00  0.00     0.198 A 
ATOM     46  F   UNL A   1      49.437  26.487  30.104  1.00  0.00    -0.203 F 
ATOM     47  F   UNL A   1      51.587  25.867  25.128  1.00  0.00    -0.200 F 
ATOM     48  C   UNL A   1      51.834  25.816  27.475  1.00  0.00     0.200 A 
ATOM     49  F   UNL A   1      52.029  25.763  29.827  1.00  0.00    -0.200 F 
ATOM     50  F   UNL A   1      53.112  25.430  27.346  1.00  0.00    -0.200 F 
ENDBRANCH  26  40
BRANCH  27  51
ATOM     51  C   UNL A   1      39.526  29.000  29.017  1.00  0.00     0.064 A 
ATOM     52  C   UNL A   1      38.752  29.394  27.919  1.00  0.00     0.173 A 
ATOM     53  C   UNL A   1      38.895  28.910  30.267  1.00  0.00     0.173 A 
ATOM     54  F   UNL A   1      39.317  29.509  26.707  1.00  0.00    -0.203 F 
ATOM     55  C   UNL A   1      37.398  29.689  28.064  1.00  0.00     0.198 A 
ATOM     56  C   UNL A   1      37.536  29.181  30.406  1.00  0.00     0.198 A 
ATOM     57  F   UNL A   1      39.595  28.529  31.346  1.00  0.00    -0.203 F 
ATOM     58  F   UNL A   1      36.684  30.088  27.002  1.00  0.00    -0.200 F 
ATOM     59  C   UNL A   1      36.791  29.574  29.305  1.00  0.00     0.200 A 
ATOM     60  F   UNL A   1      36.949  29.052  31.603  1.00  0.00    -0.200 F 
ATOM     61  F   UNL A   1      35.484  29.844  29.440  1.00  0.00    -0.200 F 
ENDBRANCH  27  51
BRANCH  39  62
ATOM     62  C   UNL A   1      45.492  32.548  29.564  1.00  0.00     0.064 A 
ATOM     63  C   UNL A   1      45.514  33.553  28.587  1.00  0.00     0.173 A 
ATOM     64  C   UNL A   1      45.736  32.915  30.896  1.00  0.00     0.173 A 
ATOM     65  F   UNL A   1      45.305  33.246  27.298  1.00  0.00    -0.203 F 
ATOM     66  C   UNL A   1      45.796  34.874  28.928  1.00  0.00     0.198 A 
ATOM     67  C   UNL A   1      45.992  34.239  31.236  1.00  0.00     0.198 A 
ATOM     68  F   UNL A   1      45.722  31.988  31.866  1.00  0.00    -0.203 F 
ATOM     69  F   UNL A   1      45.859  35.810  27.973  1.00  0.00    -0.200 F 
ATOM     70  C   UNL A   1      46.029  35.216  30.252  1.00  0.00     0.200 A 
ATOM     71  F   UNL A   1      46.209  34.571  32.516  1.00  0.00    -0.200 F 
ATOM     72  F   UNL A   1      46.300  36.487  30.578  1.00  0.00    -0.200 F 
ENDBRANCH  39  62
ENDBRANCH  13  14
ENDBRANCH   6   8
ENDBRANCH   3   4
ENDBRANCH   2   3
ENDBRANCH   1   2
BRANCH   1  73
ATOM     73  C   UNL A   1      36.073  21.156  25.772  1.00  0.00     0.116 C 
BRANCH  73  74
ATOM     74  N   UNL A   1      35.634  22.464  26.188  1.00  0.00    -0.356 N 
ATOM     75  C   UNL A   1      34.551  23.197  25.832  1.00  0.00     0.223 C 
ATOM     76  H   UNL A   1      36.222  22.901  26.846  1.00  0.00     0.163 HD
ATOM     77  O   UNL A   1      34.527  24.340  26.299  1.00  0.00    -0.275 OA
BRANCH  75  78
ATOM     78  C   UNL A   1      33.361  22.617  25.041  1.00  0.00     0.091 C 
ATOM     79  C   UNL A   1      33.614  21.336  24.232  1.00  0.00     0.014 C 
ATOM     80  C   UNL A   1      32.738  23.735  24.154  1.00  0.00     0.091 C 
ATOM     81  C   UNL A   1      32.385  20.875  23.456  1.00  0.00     0.001 C 
ATOM     82  C   UNL A   1      31.570  23.237  23.283  1.00  0.00     0.014 C 
ATOM     83  C   UNL A   1      31.878  21.955  22.520  1.00  0.00     0.001 C 
BRANCH  80  84
ATOM     84  C   UNL A   1      33.774  24.410  23.243  1.00  0.00     0.228 C 
ATOM     85  O   UNL A   1      34.656  23.745  22.689  1.00  0.00    -0.274 OA
ATOM     86  N   UNL A   1      33.655  25.717  22.865  1.00  0.00    -0.326 N 
ATOM     87  H   UNL A   1      34.129  25.926  22.028  1.00  0.00     0.169 HD
BRANCH  86  88
ATOM     88  C   UNL A   1      32.999  26.826  23.424  1.00  0.00     0.042 A 
ATOM     89  C   UNL A   1      33.482  27.297  24.649  1.00  0.00     0.039 A 
ATOM     90  C   UNL A   1      31.855  27.416  22.890  1.00  0.00     0.039 A 
ATOM     91  C   UNL A   1      32.878  28.386  25.302  1.00  0.00     0.058 A 
ATOM     92  C   UNL A   1      31.225  28.503  23.516  1.00  0.00     0.058 A 
ATOM     93  C   UNL A   1      31.754  28.989  24.720  1.00  0.00     0.026 A 
BRANCH  91  94
ATOM     94  C   UNL A   1      33.445  28.879  26.611  1.00  0.00     0.416 C 
ATOM     95  F   UNL A   1      33.850  30.177  26.543  1.00  0.00    -0.166 F 
ATOM     96  F   UNL A   1      32.536  28.822  27.622  1.00  0.00    -0.166 F 
ATOM     97  F   UNL A   1      34.525  28.169  27.036  1.00  0.00    -0.166 F 
ENDBRANCH  91  94
BRANCH  92  98
ATOM     98  C   UNL A   1      29.992  29.132  22.912  1.00  0.00     0.416 C 
ATOM     99  F   UNL A   1      30.222  29.639  21.670  1.00  0.00    -0.166 F 
ATOM    100  F   UNL A   1      28.978  28.234  22.766  1.00  0.00    -0.166 F 
ATOM    101  F   UNL A   1      29.476  30.156  23.647  1.00  0.00    -0.166 F 
ENDBRANCH  92  98
ENDBRANCH  86  88
ENDBRANCH  80  84
ENDBRANCH  75  78
ENDBRANCH  73  74
ENDBRANCH   1  73
TORSDOF 15
ENDMDL
