MODEL 1
REMARK VINA RESULT:     -12.7      0.000      0.000
REMARK SMILES C[C@H](Nc1ncccc1C(=O)NCCCCNC(=O)c1ccc(-c2c3nc(c(-c4c(F)c(F)c(F)c(F)c4F)c4ccc([nH]4)c(-c4c(F)c(F)c(F)c(F)c4F)c4nc(c(-c5c(F)c(F)c(F)c(F)c5F)c5ccc2[nH]5)C=C4)C=C3)cc1)c1ccc(Cl)cc1
REMARK SMILES IDX 14 1 13 2 12 3 10 4 11 5 9 7 4 8 5 9 6 10 8 11 7 12 3 13
REMARK SMILES IDX 2 15 1 16 83 17 84 18 89 19 85 20 88 21 86 22 87 23 15 24
REMARK SMILES IDX 16 25 17 26 18 27 19 29 20 30 21 31 82 32 22 33 81 34 23 35
REMARK SMILES IDX 24 36 25 37 75 38 26 39 80 40 74 41 76 42 27 43 79 44 73 45
REMARK SMILES IDX 72 46 28 48 60 49 40 50 59 51 41 52 44 53 58 54 77 55 42 56
REMARK SMILES IDX 43 57 57 59 78 60 45 61 29 62 30 63 38 64 31 65 32 66 36 67
REMARK SMILES IDX 39 68 33 69 34 70 37 71 35 72 61 73 62 74 70 75 63 76 64 77
REMARK SMILES IDX 68 78 71 79 65 80 66 81 69 82 67 83 46 84 47 85 55 86 48 87
REMARK SMILES IDX 49 88 53 89 56 90 50 91 51 92 54 93 52 94
REMARK H PARENT 12 6 3 14 17 28 76 47 44 58
REMARK Flexibility Score: inf
ROOT
ATOM      1  C   UNL A   1      31.590  30.625  26.101  1.00  0.00     0.023 C 
ENDROOT
BRANCH   1   2
ATOM      2  C   UNL A   1      33.042  30.159  26.136  1.00  0.00     0.116 C 
BRANCH   2   3
ATOM      3  N   UNL A   1      33.488  29.642  24.860  1.00  0.00    -0.352 N 
ATOM      4  C   UNL A   1      33.513  28.427  24.218  1.00  0.00     0.255 C 
ATOM      5  O   UNL A   1      33.838  28.521  23.033  1.00  0.00    -0.269 OA
ATOM      6  H   UNL A   1      33.880  30.351  24.300  1.00  0.00     0.163 HD
BRANCH   4   7
ATOM      7  C   UNL A   1      33.149  27.091  24.802  1.00  0.00     0.082 A 
ATOM      8  C   UNL A   1      31.822  26.789  25.167  1.00  0.00     0.139 A 
ATOM      9  N   UNL A   1      31.512  25.704  25.930  1.00  0.00    -0.239 NA
ATOM     10  C   UNL A   1      32.480  24.835  26.266  1.00  0.00     0.113 A 
ATOM     11  C   UNL A   1      34.104  26.112  25.108  1.00  0.00     0.019 A 
ATOM     12  C   UNL A   1      33.777  24.974  25.844  1.00  0.00     0.021 A 
BRANCH   8  13
ATOM     13  N   UNL A   1      30.656  27.406  24.793  1.00  0.00    -0.363 N 
ATOM     14  H   UNL A   1      30.362  28.162  25.350  1.00  0.00     0.162 HD
BRANCH  13  15
ATOM     15  C   UNL A   1      29.802  27.060  23.656  1.00  0.00     0.108 C 
ATOM     16  C   UNL A   1      28.617  26.201  24.131  1.00  0.00     0.036 C 
BRANCH  15  17
ATOM     17  C   UNL A   1      29.375  28.355  22.936  1.00  0.00    -0.026 A 
ATOM     18  C   UNL A   1      30.293  29.192  22.277  1.00  0.00     0.007 A 
ATOM     19  C   UNL A   1      28.032  28.785  22.990  1.00  0.00     0.007 A 
ATOM     20  C   UNL A   1      29.884  30.383  21.665  1.00  0.00     0.021 A 
ATOM     21  C   UNL A   1      27.617  29.966  22.365  1.00  0.00     0.021 A 
ATOM     22  C   UNL A   1      28.547  30.760  21.704  1.00  0.00     0.041 A 
ATOM     23  Cl  UNL A   1      28.047  32.221  20.946  1.00  0.00    -0.084 Cl
ENDBRANCH  15  17
ENDBRANCH  13  15
ENDBRANCH   8  13
ENDBRANCH   4   7
ENDBRANCH   2   3
ENDBRANCH   1   2
BRANCH   1  24
ATOM     24  C   UNL A   1      31.384  32.085  26.534  1.00  0.00     0.023 C 
BRANCH  24  25
ATOM     25  C   UNL A   1      32.573  32.745  27.232  1.00  0.00     0.116 C 
BRANCH  25  26
ATOM     26  N   UNL A   1      32.328  34.125  27.618  1.00  0.00    -0.352 N 
ATOM     27  C   UNL A   1      32.987  34.900  28.541  1.00  0.00     0.251 C 
ATOM     28  H   UNL A   1      31.582  34.568  27.151  1.00  0.00     0.163 HD
ATOM     29  O   UNL A   1      32.590  36.028  28.792  1.00  0.00    -0.269 OA
BRANCH  27  30
ATOM     30  C   UNL A   1      34.155  34.349  29.261  1.00  0.00     0.039 A 
ATOM     31  C   UNL A   1      33.927  33.619  30.431  1.00  0.00     0.014 A 
ATOM     32  C   UNL A   1      35.456  34.546  28.795  1.00  0.00     0.014 A 
ATOM     33  C   UNL A   1      35.004  33.038  31.103  1.00  0.00     0.010 A 
ATOM     34  C   UNL A   1      36.521  33.910  29.427  1.00  0.00     0.010 A 
ATOM     35  C   UNL A   1      36.306  33.156  30.590  1.00  0.00    -0.014 A 
BRANCH  35  36
ATOM     36  C   UNL A   1      37.446  32.490  31.266  1.00  0.00     0.031 A 
ATOM     37  C   UNL A   1      38.153  31.339  30.608  1.00  0.00     0.074 A 
ATOM     38  C   UNL A   1      37.805  32.889  32.501  1.00  0.00     0.049 A 
ATOM     39  N   UNL A   1      39.165  30.633  31.044  1.00  0.00    -0.248 NA
ATOM     40  C   UNL A   1      37.632  30.903  29.305  1.00  0.00     0.031 C 
ATOM     41  C   UNL A   1      37.142  33.939  33.275  1.00  0.00     0.029 A 
ATOM     42  N   UNL A   1      38.811  32.451  33.325  1.00  0.00    -0.354 N 
ATOM     43  C   UNL A   1      39.391  29.661  30.079  1.00  0.00     0.074 A 
ATOM     44  C   UNL A   1      38.375  29.834  29.062  1.00  0.00     0.031 C 
ATOM     45  C   UNL A   1      37.768  34.077  34.453  1.00  0.00     0.029 A 
ATOM     46  C   UNL A   1      38.863  33.113  34.526  1.00  0.00     0.049 A 
ATOM     47  H   UNL A   1      39.434  31.730  33.079  1.00  0.00     0.167 HD
ATOM     48  C   UNL A   1      40.371  28.727  30.033  1.00  0.00     0.037 A 
ATOM     49  C   UNL A   1      39.705  32.965  35.566  1.00  0.00     0.037 A 
ATOM     50  C   UNL A   1      41.394  28.580  31.035  1.00  0.00     0.049 A 
ATOM     51  C   UNL A   1      40.819  31.961  35.468  1.00  0.00     0.074 A 
ATOM     52  C   UNL A   1      42.482  27.725  31.040  1.00  0.00     0.029 A 
ATOM     53  N   UNL A   1      41.450  29.306  32.216  1.00  0.00    -0.354 N 
ATOM     54  N   UNL A   1      41.088  31.116  34.502  1.00  0.00    -0.248 NA
ATOM     55  C   UNL A   1      41.761  31.906  36.594  1.00  0.00     0.031 C 
ATOM     56  C   UNL A   1      43.170  27.901  32.246  1.00  0.00     0.029 A 
ATOM     57  C   UNL A   1      42.541  28.903  32.970  1.00  0.00     0.049 A 
ATOM     58  H   UNL A   1      40.809  30.005  32.480  1.00  0.00     0.167 HD
ATOM     59  C   UNL A   1      42.238  30.443  34.892  1.00  0.00     0.074 A 
ATOM     60  C   UNL A   1      42.627  30.995  36.174  1.00  0.00     0.031 C 
ATOM     61  C   UNL A   1      42.909  29.457  34.248  1.00  0.00     0.037 A 
BRANCH  48  62
ATOM     62  C   UNL A   1      40.375  27.791  28.858  1.00  0.00     0.064 A 
ATOM     63  C   UNL A   1      41.095  28.075  27.688  1.00  0.00     0.173 A 
ATOM     64  C   UNL A   1      39.654  26.587  28.906  1.00  0.00     0.173 A 
ATOM     65  F   UNL A   1      41.792  29.217  27.584  1.00  0.00    -0.203 F 
ATOM     66  C   UNL A   1      41.059  27.212  26.595  1.00  0.00     0.198 A 
ATOM     67  C   UNL A   1      39.647  25.711  27.823  1.00  0.00     0.198 A 
ATOM     68  F   UNL A   1      38.952  26.261  30.001  1.00  0.00    -0.203 F 
ATOM     69  F   UNL A   1      41.705  27.538  25.466  1.00  0.00    -0.200 F 
ATOM     70  C   UNL A   1      40.340  26.029  26.665  1.00  0.00     0.200 A 
ATOM     71  F   UNL A   1      38.961  24.562  27.897  1.00  0.00    -0.200 F 
ATOM     72  F   UNL A   1      40.306  25.201  25.612  1.00  0.00    -0.200 F 
ENDBRANCH  48  62
BRANCH  49  73
ATOM     73  C   UNL A   1      39.544  33.823  36.767  1.00  0.00     0.064 A 
ATOM     74  C   UNL A   1      40.117  35.100  36.825  1.00  0.00     0.173 A 
ATOM     75  C   UNL A   1      38.789  33.394  37.869  1.00  0.00     0.173 A 
ATOM     76  F   UNL A   1      40.861  35.546  35.802  1.00  0.00    -0.203 F 
ATOM     77  C   UNL A   1      39.956  35.911  37.946  1.00  0.00     0.198 A 
ATOM     78  C   UNL A   1      38.606  34.217  38.978  1.00  0.00     0.198 A 
ATOM     79  F   UNL A   1      38.211  32.185  37.857  1.00  0.00    -0.203 F 
ATOM     80  F   UNL A   1      40.544  37.114  37.990  1.00  0.00    -0.200 F 
ATOM     81  C   UNL A   1      39.194  35.472  39.019  1.00  0.00     0.200 A 
ATOM     82  F   UNL A   1      37.855  33.796  40.006  1.00  0.00    -0.200 F 
ATOM     83  F   UNL A   1      39.029  36.258  40.092  1.00  0.00    -0.200 F 
ENDBRANCH  49  73
BRANCH  61  84
ATOM     84  C   UNL A   1      44.146  28.926  34.914  1.00  0.00     0.064 A 
ATOM     85  C   UNL A   1      45.406  29.503  34.695  1.00  0.00     0.173 A 
ATOM     86  C   UNL A   1      44.066  27.838  35.798  1.00  0.00     0.173 A 
ATOM     87  F   UNL A   1      45.537  30.534  33.848  1.00  0.00    -0.203 F 
ATOM     88  C   UNL A   1      46.545  28.989  35.309  1.00  0.00     0.198 A 
ATOM     89  C   UNL A   1      45.203  27.347  36.434  1.00  0.00     0.198 A 
ATOM     90  F   UNL A   1      42.886  27.255  36.048  1.00  0.00    -0.203 F 
ATOM     91  F   UNL A   1      47.745  29.521  35.041  1.00  0.00    -0.200 F 
ATOM     92  C   UNL A   1      46.442  27.917  36.182  1.00  0.00     0.200 A 
ATOM     93  F   UNL A   1      45.100  26.319  37.288  1.00  0.00    -0.200 F 
ATOM     94  F   UNL A   1      47.539  27.424  36.773  1.00  0.00    -0.200 F 
ENDBRANCH  61  84
ENDBRANCH  35  36
ENDBRANCH  27  30
ENDBRANCH  25  26
ENDBRANCH  24  25
ENDBRANCH   1  24
TORSDOF 14
ENDMDL
MODEL 2
REMARK VINA RESULT:     -12.7      0.671      7.350
REMARK SMILES C[C@H](Nc1ncccc1C(=O)NCCCCNC(=O)c1ccc(-c2c3nc(c(-c4c(F)c(F)c(F)c(F)c4F)c4ccc([nH]4)c(-c4c(F)c(F)c(F)c(F)c4F)c4nc(c(-c5c(F)c(F)c(F)c(F)c5F)c5ccc2[nH]5)C=C4)C=C3)cc1)c1ccc(Cl)cc1
REMARK SMILES IDX 14 1 13 2 12 3 10 4 11 5 9 7 4 8 5 9 6 10 8 11 7 12 3 13
REMARK SMILES IDX 2 15 1 16 83 17 84 18 89 19 85 20 88 21 86 22 87 23 15 24
REMARK SMILES IDX 16 25 17 26 18 27 19 29 20 30 21 31 82 32 22 33 81 34 23 35
REMARK SMILES IDX 24 36 25 37 75 38 26 39 80 40 74 41 76 42 27 43 79 44 73 45
REMARK SMILES IDX 72 46 28 48 60 49 40 50 59 51 41 52 44 53 58 54 77 55 42 56
REMARK SMILES IDX 43 57 57 59 78 60 45 61 29 62 30 63 38 64 31 65 32 66 36 67
REMARK SMILES IDX 39 68 33 69 34 70 37 71 35 72 61 73 62 74 70 75 63 76 64 77
REMARK SMILES IDX 68 78 71 79 65 80 66 81 69 82 67 83 46 84 47 85 55 86 48 87
REMARK SMILES IDX 49 88 53 89 56 90 50 91 51 92 54 93 52 94
REMARK H PARENT 12 6 3 14 17 28 76 47 44 58
REMARK Flexibility Score: inf
ROOT
ATOM      1  C   UNL A   1      31.452  30.718  26.057  1.00  0.00     0.023 C 
ENDROOT
BRANCH   1   2
ATOM      2  C   UNL A   1      32.887  30.201  26.066  1.00  0.00     0.116 C 
BRANCH   2   3
ATOM      3  N   UNL A   1      33.311  29.721  24.768  1.00  0.00    -0.352 N 
ATOM      4  C   UNL A   1      33.367  28.517  24.108  1.00  0.00     0.255 C 
ATOM      5  O   UNL A   1      33.646  28.642  22.915  1.00  0.00    -0.269 OA
ATOM      6  H   UNL A   1      33.651  30.455  24.206  1.00  0.00     0.163 HD
BRANCH   4   7
ATOM      7  C   UNL A   1      33.083  27.159  24.684  1.00  0.00     0.082 A 
ATOM      8  C   UNL A   1      31.788  26.800  25.107  1.00  0.00     0.139 A 
ATOM      9  N   UNL A   1      31.558  25.690  25.864  1.00  0.00    -0.239 NA
ATOM     10  C   UNL A   1      32.573  24.855  26.138  1.00  0.00     0.113 A 
ATOM     11  C   UNL A   1      34.089  26.213  24.927  1.00  0.00     0.019 A 
ATOM     12  C   UNL A   1      33.841  25.052  25.657  1.00  0.00     0.021 A 
BRANCH   8  13
ATOM     13  N   UNL A   1      30.583  27.376  24.800  1.00  0.00    -0.363 N 
ATOM     14  H   UNL A   1      30.247  28.053  25.430  1.00  0.00     0.162 HD
BRANCH  13  15
ATOM     15  C   UNL A   1      29.741  27.091  23.637  1.00  0.00     0.108 C 
ATOM     16  C   UNL A   1      28.568  26.184  24.047  1.00  0.00     0.036 C 
BRANCH  15  17
ATOM     17  C   UNL A   1      29.297  28.423  23.000  1.00  0.00    -0.026 A 
ATOM     18  C   UNL A   1      27.981  28.910  23.101  1.00  0.00     0.007 A 
ATOM     19  C   UNL A   1      30.201  29.166  22.210  1.00  0.00     0.007 A 
ATOM     20  C   UNL A   1      27.595  30.102  22.478  1.00  0.00     0.021 A 
ATOM     21  C   UNL A   1      29.823  30.367  21.600  1.00  0.00     0.021 A 
ATOM     22  C   UNL A   1      28.520  30.830  21.738  1.00  0.00     0.041 A 
ATOM     23  Cl  UNL A   1      28.043  32.299  20.980  1.00  0.00    -0.084 Cl
ENDBRANCH  15  17
ENDBRANCH  13  15
ENDBRANCH   8  13
ENDBRANCH   4   7
ENDBRANCH   2   3
ENDBRANCH   1   2
BRANCH   1  24
ATOM     24  C   UNL A   1      31.303  32.178  26.510  1.00  0.00     0.023 C 
BRANCH  24  25
ATOM     25  C   UNL A   1      32.523  32.789  27.200  1.00  0.00     0.116 C 
BRANCH  25  26
ATOM     26  N   UNL A   1      32.313  34.153  27.654  1.00  0.00    -0.352 N 
ATOM     27  C   UNL A   1      33.017  34.877  28.586  1.00  0.00     0.251 C 
ATOM     28  H   UNL A   1      31.559  34.626  27.234  1.00  0.00     0.163 HD
ATOM     29  O   UNL A   1      32.645  35.999  28.900  1.00  0.00    -0.269 OA
BRANCH  27  30
ATOM     30  C   UNL A   1      34.200  34.279  29.239  1.00  0.00     0.039 A 
ATOM     31  C   UNL A   1      33.998  33.461  30.354  1.00  0.00     0.014 A 
ATOM     32  C   UNL A   1      35.491  34.517  28.763  1.00  0.00     0.014 A 
ATOM     33  C   UNL A   1      35.090  32.837  30.959  1.00  0.00     0.010 A 
ATOM     34  C   UNL A   1      36.571  33.841  29.325  1.00  0.00     0.010 A 
ATOM     35  C   UNL A   1      36.381  32.999  30.431  1.00  0.00    -0.014 A 
BRANCH  35  36
ATOM     36  C   UNL A   1      37.537  32.289  31.032  1.00  0.00     0.031 A 
ATOM     37  C   UNL A   1      38.026  32.657  32.403  1.00  0.00     0.074 A 
ATOM     38  C   UNL A   1      38.180  31.350  30.313  1.00  0.00     0.049 A 
ATOM     39  N   UNL A   1      39.018  32.151  33.090  1.00  0.00    -0.248 NA
ATOM     40  C   UNL A   1      37.329  33.762  33.078  1.00  0.00     0.031 C 
ATOM     41  C   UNL A   1      37.849  30.964  28.940  1.00  0.00     0.029 A 
ATOM     42  N   UNL A   1      39.252  30.556  30.634  1.00  0.00    -0.354 N 
ATOM     43  C   UNL A   1      39.075  32.886  34.267  1.00  0.00     0.074 A 
ATOM     44  C   UNL A   1      38.054  33.907  34.177  1.00  0.00     0.031 C 
ATOM     45  C   UNL A   1      38.689  29.996  28.543  1.00  0.00     0.029 A 
ATOM     46  C   UNL A   1      39.627  29.706  29.624  1.00  0.00     0.049 A 
ATOM     47  H   UNL A   1      39.708  30.593  31.505  1.00  0.00     0.167 HD
ATOM     48  C   UNL A   1      39.889  32.707  35.336  1.00  0.00     0.037 A 
ATOM     49  C   UNL A   1      40.613  28.791  29.578  1.00  0.00     0.037 A 
ATOM     50  C   UNL A   1      40.884  31.671  35.429  1.00  0.00     0.049 A 
ATOM     51  C   UNL A   1      41.466  28.572  30.796  1.00  0.00     0.074 A 
ATOM     52  C   UNL A   1      41.699  31.349  36.501  1.00  0.00     0.029 A 
ATOM     53  N   UNL A   1      41.202  30.790  34.406  1.00  0.00    -0.354 N 
ATOM     54  N   UNL A   1      41.443  29.202  31.945  1.00  0.00    -0.248 NA
ATOM     55  C   UNL A   1      42.466  27.499  30.719  1.00  0.00     0.031 C 
ATOM     56  C   UNL A   1      42.543  30.303  36.109  1.00  0.00     0.029 A 
ATOM     57  C   UNL A   1      42.218  29.938  34.811  1.00  0.00     0.049 A 
ATOM     58  H   UNL A   1      40.770  30.772  33.521  1.00  0.00     0.167 HD
ATOM     59  C   UNL A   1      42.409  28.592  32.735  1.00  0.00     0.074 A 
ATOM     60  C   UNL A   1      42.983  27.527  31.939  1.00  0.00     0.031 C 
ATOM     61  C   UNL A   1      42.785  28.889  34.003  1.00  0.00     0.037 A 
BRANCH  48  62
ATOM     62  C   UNL A   1      39.734  33.661  36.486  1.00  0.00     0.064 A 
ATOM     63  C   UNL A   1      38.941  33.352  37.601  1.00  0.00     0.173 A 
ATOM     64  C   UNL A   1      40.394  34.900  36.476  1.00  0.00     0.173 A 
ATOM     65  F   UNL A   1      38.278  32.186  37.657  1.00  0.00    -0.203 F 
ATOM     66  C   UNL A   1      38.780  34.263  38.643  1.00  0.00     0.198 A 
ATOM     67  C   UNL A   1      40.257  35.795  37.534  1.00  0.00     0.198 A 
ATOM     68  F   UNL A   1      41.169  35.246  35.438  1.00  0.00    -0.203 F 
ATOM     69  F   UNL A   1      37.966  33.969  39.667  1.00  0.00    -0.200 F 
ATOM     70  C   UNL A   1      39.441  35.481  38.612  1.00  0.00     0.200 A 
ATOM     71  F   UNL A   1      40.907  36.967  37.508  1.00  0.00    -0.200 F 
ATOM     72  F   UNL A   1      39.285  36.356  39.613  1.00  0.00    -0.200 F 
ENDBRANCH  48  62
BRANCH  49  73
ATOM     73  C   UNL A   1      40.810  27.988  28.344  1.00  0.00     0.064 A 
ATOM     74  C   UNL A   1      41.662  28.430  27.323  1.00  0.00     0.173 A 
ATOM     75  C   UNL A   1      40.172  26.750  28.174  1.00  0.00     0.173 A 
ATOM     76  F   UNL A   1      42.281  29.614  27.434  1.00  0.00    -0.203 F 
ATOM     77  C   UNL A   1      41.859  27.671  26.171  1.00  0.00     0.198 A 
ATOM     78  C   UNL A   1      40.390  25.980  27.034  1.00  0.00     0.198 A 
ATOM     79  F   UNL A   1      39.356  26.279  29.127  1.00  0.00    -0.203 F 
ATOM     80  F   UNL A   1      42.652  28.132  25.195  1.00  0.00    -0.200 F 
ATOM     81  C   UNL A   1      41.228  26.443  26.030  1.00  0.00     0.200 A 
ATOM     82  F   UNL A   1      39.792  24.787  26.909  1.00  0.00    -0.200 F 
ATOM     83  F   UNL A   1      41.426  25.709  24.928  1.00  0.00    -0.200 F 
ENDBRANCH  49  73
BRANCH  61  84
ATOM     84  C   UNL A   1      43.858  28.034  34.613  1.00  0.00     0.064 A 
ATOM     85  C   UNL A   1      45.213  28.393  34.546  1.00  0.00     0.173 A 
ATOM     86  C   UNL A   1      43.525  26.850  35.290  1.00  0.00     0.173 A 
ATOM     87  F   UNL A   1      45.584  29.506  33.897  1.00  0.00    -0.203 F 
ATOM     88  C   UNL A   1      46.197  27.580  35.104  1.00  0.00     0.198 A 
ATOM     89  C   UNL A   1      44.509  26.057  35.874  1.00  0.00     0.198 A 
ATOM     90  F   UNL A   1      42.245  26.465  35.389  1.00  0.00    -0.203 F 
ATOM     91  F   UNL A   1      47.489  27.915  34.978  1.00  0.00    -0.200 F 
ATOM     92  C   UNL A   1      45.845  26.418  35.772  1.00  0.00     0.200 A 
ATOM     93  F   UNL A   1      44.166  24.941  36.531  1.00  0.00    -0.200 F 
ATOM     94  F   UNL A   1      46.793  25.639  36.310  1.00  0.00    -0.200 F 
ENDBRANCH  61  84
ENDBRANCH  35  36
ENDBRANCH  27  30
ENDBRANCH  25  26
ENDBRANCH  24  25
ENDBRANCH   1  24
TORSDOF 14
ENDMDL
MODEL 3
REMARK VINA RESULT:     -12.6      6.262     11.487
REMARK SMILES C[C@H](Nc1ncccc1C(=O)NCCCCNC(=O)c1ccc(-c2c3nc(c(-c4c(F)c(F)c(F)c(F)c4F)c4ccc([nH]4)c(-c4c(F)c(F)c(F)c(F)c4F)c4nc(c(-c5c(F)c(F)c(F)c(F)c5F)c5ccc2[nH]5)C=C4)C=C3)cc1)c1ccc(Cl)cc1
REMARK SMILES IDX 14 1 13 2 12 3 10 4 11 5 9 7 4 8 5 9 6 10 8 11 7 12 3 13
REMARK SMILES IDX 2 15 1 16 83 17 84 18 89 19 85 20 88 21 86 22 87 23 15 24
REMARK SMILES IDX 16 25 17 26 18 27 19 29 20 30 21 31 82 32 22 33 81 34 23 35
REMARK SMILES IDX 24 36 25 37 75 38 26 39 80 40 74 41 76 42 27 43 79 44 73 45
REMARK SMILES IDX 72 46 28 48 60 49 40 50 59 51 41 52 44 53 58 54 77 55 42 56
REMARK SMILES IDX 43 57 57 59 78 60 45 61 29 62 30 63 38 64 31 65 32 66 36 67
REMARK SMILES IDX 39 68 33 69 34 70 37 71 35 72 61 73 62 74 70 75 63 76 64 77
REMARK SMILES IDX 68 78 71 79 65 80 66 81 69 82 67 83 46 84 47 85 55 86 48 87
REMARK SMILES IDX 49 88 53 89 56 90 50 91 51 92 54 93 52 94
REMARK H PARENT 12 6 3 14 17 28 76 47 44 58
REMARK Flexibility Score: inf
ROOT
ATOM      1  C   UNL A   1      36.872  20.683  24.758  1.00  0.00     0.023 C 
ENDROOT
BRANCH   1   2
ATOM      2  C   UNL A   1      36.957  21.879  25.701  1.00  0.00     0.116 C 
BRANCH   2   3
ATOM      3  N   UNL A   1      35.787  22.004  26.544  1.00  0.00    -0.352 N 
ATOM      4  C   UNL A   1      34.577  22.655  26.498  1.00  0.00     0.255 C 
ATOM      5  O   UNL A   1      33.813  22.301  27.397  1.00  0.00    -0.269 OA
ATOM      6  H   UNL A   1      35.883  21.483  27.374  1.00  0.00     0.163 HD
BRANCH   4   7
ATOM      7  C   UNL A   1      34.132  23.659  25.474  1.00  0.00     0.082 A 
ATOM      8  C   UNL A   1      33.889  23.283  24.138  1.00  0.00     0.139 A 
ATOM      9  N   UNL A   1      33.743  24.204  23.144  1.00  0.00    -0.239 NA
ATOM     10  C   UNL A   1      33.730  25.511  23.451  1.00  0.00     0.113 A 
ATOM     11  C   UNL A   1      34.028  25.030  25.751  1.00  0.00     0.019 A 
ATOM     12  C   UNL A   1      33.825  25.968  24.740  1.00  0.00     0.021 A 
BRANCH   8  13
ATOM     13  N   UNL A   1      33.671  22.036  23.612  1.00  0.00    -0.363 N 
ATOM     14  H   UNL A   1      34.466  21.548  23.297  1.00  0.00     0.162 HD
BRANCH  13  15
ATOM     15  C   UNL A   1      32.386  21.353  23.467  1.00  0.00     0.108 C 
ATOM     16  C   UNL A   1      31.897  21.453  22.012  1.00  0.00     0.036 C 
BRANCH  15  17
ATOM     17  C   UNL A   1      32.528  19.902  23.971  1.00  0.00    -0.026 A 
ATOM     18  C   UNL A   1      32.738  19.589  25.327  1.00  0.00     0.007 A 
ATOM     19  C   UNL A   1      32.532  18.831  23.053  1.00  0.00     0.007 A 
ATOM     20  C   UNL A   1      32.904  18.265  25.751  1.00  0.00     0.021 A 
ATOM     21  C   UNL A   1      32.681  17.506  23.476  1.00  0.00     0.021 A 
ATOM     22  C   UNL A   1      32.865  17.229  24.826  1.00  0.00     0.041 A 
ATOM     23  Cl  UNL A   1      33.063  15.604  25.352  1.00  0.00    -0.084 Cl
ENDBRANCH  15  17
ENDBRANCH  13  15
ENDBRANCH   8  13
ENDBRANCH   4   7
ENDBRANCH   2   3
ENDBRANCH   1   2
BRANCH   1  24
ATOM     24  C   UNL A   1      37.943  19.610  25.001  1.00  0.00     0.023 C 
BRANCH  24  25
ATOM     25  C   UNL A   1      39.192  20.073  25.751  1.00  0.00     0.116 C 
BRANCH  25  26
ATOM     26  N   UNL A   1      40.223  19.053  25.852  1.00  0.00    -0.352 N 
ATOM     27  C   UNL A   1      41.561  19.193  26.126  1.00  0.00     0.251 C 
ATOM     28  H   UNL A   1      39.917  18.128  25.703  1.00  0.00     0.163 HD
ATOM     29  O   UNL A   1      42.300  18.219  26.095  1.00  0.00    -0.269 OA
BRANCH  27  30
ATOM     30  C   UNL A   1      42.114  20.533  26.417  1.00  0.00     0.039 A 
ATOM     31  C   UNL A   1      42.506  21.335  25.342  1.00  0.00     0.014 A 
ATOM     32  C   UNL A   1      42.246  20.996  27.728  1.00  0.00     0.014 A 
ATOM     33  C   UNL A   1      42.979  22.626  25.581  1.00  0.00     0.010 A 
ATOM     34  C   UNL A   1      42.653  22.307  27.961  1.00  0.00     0.010 A 
ATOM     35  C   UNL A   1      43.029  23.132  26.890  1.00  0.00    -0.014 A 
BRANCH  35  36
ATOM     36  C   UNL A   1      43.473  24.524  27.144  1.00  0.00     0.031 A 
ATOM     37  C   UNL A   1      42.503  25.550  27.655  1.00  0.00     0.074 A 
ATOM     38  C   UNL A   1      44.742  24.874  26.859  1.00  0.00     0.049 A 
ATOM     39  N   UNL A   1      42.705  26.813  27.934  1.00  0.00    -0.248 NA
ATOM     40  C   UNL A   1      41.113  25.108  27.845  1.00  0.00     0.031 C 
ATOM     41  C   UNL A   1      45.753  23.988  26.282  1.00  0.00     0.029 A 
ATOM     42  N   UNL A   1      45.393  26.073  27.006  1.00  0.00    -0.354 N 
ATOM     43  C   UNL A   1      41.469  27.318  28.315  1.00  0.00     0.074 A 
ATOM     44  C   UNL A   1      40.513  26.240  28.178  1.00  0.00     0.031 C 
ATOM     45  C   UNL A   1      46.902  24.666  26.140  1.00  0.00     0.029 A 
ATOM     46  C   UNL A   1      46.703  26.039  26.598  1.00  0.00     0.049 A 
ATOM     47  H   UNL A   1      44.962  26.880  27.369  1.00  0.00     0.167 HD
ATOM     48  C   UNL A   1      41.166  28.560  28.762  1.00  0.00     0.037 A 
ATOM     49  C   UNL A   1      47.640  27.005  26.599  1.00  0.00     0.037 A 
ATOM     50  C   UNL A   1      42.128  29.619  28.922  1.00  0.00     0.049 A 
ATOM     51  C   UNL A   1      47.295  28.359  27.153  1.00  0.00     0.074 A 
ATOM     52  C   UNL A   1      41.942  30.885  29.449  1.00  0.00     0.029 A 
ATOM     53  N   UNL A   1      43.462  29.534  28.549  1.00  0.00    -0.354 N 
ATOM     54  N   UNL A   1      46.147  28.797  27.610  1.00  0.00    -0.248 NA
ATOM     55  C   UNL A   1      48.382  29.346  27.214  1.00  0.00     0.031 C 
ATOM     56  C   UNL A   1      43.152  31.581  29.352  1.00  0.00     0.029 A 
ATOM     57  C   UNL A   1      44.106  30.732  28.813  1.00  0.00     0.049 A 
ATOM     58  H   UNL A   1      43.889  28.738  28.155  1.00  0.00     0.167 HD
ATOM     59  C   UNL A   1      46.375  30.101  28.030  1.00  0.00     0.074 A 
ATOM     60  C   UNL A   1      47.778  30.373  27.793  1.00  0.00     0.031 C 
ATOM     61  C   UNL A   1      45.502  30.991  28.562  1.00  0.00     0.037 A 
BRANCH  48  62
ATOM     62  C   UNL A   1      39.730  28.836  29.105  1.00  0.00     0.064 A 
ATOM     63  C   UNL A   1      39.226  28.633  30.399  1.00  0.00     0.173 A 
ATOM     64  C   UNL A   1      38.845  29.318  28.128  1.00  0.00     0.173 A 
ATOM     65  F   UNL A   1      40.025  28.163  31.369  1.00  0.00    -0.203 F 
ATOM     66  C   UNL A   1      37.883  28.861  30.691  1.00  0.00     0.198 A 
ATOM     67  C   UNL A   1      37.511  29.577  28.431  1.00  0.00     0.198 A 
ATOM     68  F   UNL A   1      39.273  29.536  26.875  1.00  0.00    -0.203 F 
ATOM     69  F   UNL A   1      37.413  28.599  31.919  1.00  0.00    -0.200 F 
ATOM     70  C   UNL A   1      37.028  29.337  29.709  1.00  0.00     0.200 A 
ATOM     71  F   UNL A   1      36.688  30.048  27.484  1.00  0.00    -0.200 F 
ATOM     72  F   UNL A   1      35.737  29.554  29.991  1.00  0.00    -0.200 F 
ENDBRANCH  48  62
BRANCH  49  73
ATOM     73  C   UNL A   1      49.004  26.703  26.096  1.00  0.00     0.064 A 
ATOM     74  C   UNL A   1      49.952  26.072  26.913  1.00  0.00     0.173 A 
ATOM     75  C   UNL A   1      49.378  27.013  24.780  1.00  0.00     0.173 A 
ATOM     76  F   UNL A   1      49.646  25.770  28.183  1.00  0.00    -0.203 F 
ATOM     77  C   UNL A   1      51.228  25.775  26.437  1.00  0.00     0.198 A 
ATOM     78  C   UNL A   1      50.645  26.692  24.298  1.00  0.00     0.198 A 
ATOM     79  F   UNL A   1      48.503  27.607  23.956  1.00  0.00    -0.203 F 
ATOM     80  F   UNL A   1      52.127  25.203  27.250  1.00  0.00    -0.200 F 
ATOM     81  C   UNL A   1      51.571  26.080  25.128  1.00  0.00     0.200 A 
ATOM     82  F   UNL A   1      50.967  26.973  23.027  1.00  0.00    -0.200 F 
ATOM     83  F   UNL A   1      52.795  25.784  24.668  1.00  0.00    -0.200 F 
ENDBRANCH  49  73
BRANCH  61  84
ATOM     84  C   UNL A   1      46.046  32.338  28.941  1.00  0.00     0.064 A 
ATOM     85  C   UNL A   1      46.593  32.580  30.210  1.00  0.00     0.173 A 
ATOM     86  C   UNL A   1      46.038  33.393  28.016  1.00  0.00     0.173 A 
ATOM     87  F   UNL A   1      46.610  31.609  31.134  1.00  0.00    -0.203 F 
ATOM     88  C   UNL A   1      47.081  33.840  30.551  1.00  0.00     0.198 A 
ATOM     89  C   UNL A   1      46.556  34.642  28.350  1.00  0.00     0.198 A 
ATOM     90  F   UNL A   1      45.533  33.213  26.788  1.00  0.00    -0.203 F 
ATOM     91  F   UNL A   1      47.547  34.063  31.787  1.00  0.00    -0.200 F 
ATOM     92  C   UNL A   1      47.067  34.867  29.619  1.00  0.00     0.200 A 
ATOM     93  F   UNL A   1      46.553  35.630  27.445  1.00  0.00    -0.200 F 
ATOM     94  F   UNL A   1      47.538  36.077  29.948  1.00  0.00    -0.200 F 
ENDBRANCH  61  84
ENDBRANCH  35  36
ENDBRANCH  27  30
ENDBRANCH  25  26
ENDBRANCH  24  25
ENDBRANCH   1  24
TORSDOF 14
ENDMDL
