MODEL 1
REMARK VINA RESULT:     -13.0      0.000      0.000
REMARK SMILES CCC(=O)Nc1ccc(-c2ccc(C(=O)NCCCCNC(=O)c3ccc(-c4c5nc(c(-c6c(F)c(F)c(F)c(F)c6F)c6ccc([nH]6)c(-c6c(F)c(F)c(F)c(F)c6F)c6nc(c(-c7c(F)c(F)c(F)c(F)c7F)c7ccc4[nH]7)C=C6)C=C5)cc3)cc2)nc1
REMARK SMILES IDX 18 1 17 2 16 3 14 4 15 5 13 7 10 8 11 9 88 10 12 11 87 12
REMARK SMILES IDX 9 13 6 14 7 15 90 16 8 17 89 18 5 19 3 20 4 21 2 23 1 24
REMARK SMILES IDX 19 25 20 26 21 27 22 28 23 30 24 31 25 32 86 33 26 34 85 35
REMARK SMILES IDX 27 36 28 37 29 38 79 39 30 40 84 41 78 42 80 43 31 44 83 45
REMARK SMILES IDX 77 46 76 47 32 49 64 50 44 51 63 52 45 53 48 54 62 55 81 56
REMARK SMILES IDX 46 57 47 58 61 60 82 61 49 62 33 63 34 64 42 65 35 66 36 67
REMARK SMILES IDX 40 68 43 69 37 70 38 71 41 72 39 73 65 74 66 75 74 76 67 77
REMARK SMILES IDX 68 78 72 79 75 80 69 81 70 82 73 83 71 84 50 85 51 86 59 87
REMARK SMILES IDX 52 88 53 89 57 90 60 91 54 92 55 93 58 94 56 95
REMARK H PARENT 16 6 5 22 21 29 80 48 48 59
REMARK Flexibility Score: inf
ROOT
ATOM      1  C   UNL A   1      31.012  29.331  24.447  1.00  0.00     0.023 C 
ENDROOT
BRANCH   1   2
ATOM      2  C   UNL A   1      31.143  28.423  23.219  1.00  0.00     0.116 C 
BRANCH   2   3
ATOM      3  N   UNL A   1      32.399  28.655  22.531  1.00  0.00    -0.352 N 
ATOM      4  C   UNL A   1      33.486  27.841  22.324  1.00  0.00     0.251 C 
ATOM      5  O   UNL A   1      34.403  28.273  21.626  1.00  0.00    -0.269 OA
ATOM      6  H   UNL A   1      32.487  29.555  22.143  1.00  0.00     0.163 HD
BRANCH   4   7
ATOM      7  C   UNL A   1      33.574  26.455  22.864  1.00  0.00     0.039 A 
ATOM      8  C   UNL A   1      33.589  23.784  23.793  1.00  0.00     0.000 A 
ATOM      9  C   UNL A   1      33.270  24.071  22.461  1.00  0.00     0.011 A 
ATOM     10  C   UNL A   1      33.970  24.839  24.628  1.00  0.00     0.011 A 
ATOM     11  C   UNL A   1      33.255  25.395  22.002  1.00  0.00     0.014 A 
ATOM     12  C   UNL A   1      33.986  26.151  24.161  1.00  0.00     0.014 A 
BRANCH   8  13
ATOM     13  C   UNL A   1      33.490  22.435  24.341  1.00  0.00     0.070 A 
ATOM     14  C   UNL A   1      33.249  19.869  25.295  1.00  0.00     0.059 A 
ATOM     15  C   UNL A   1      34.511  20.374  25.011  1.00  0.00     0.030 A 
ATOM     16  C   UNL A   1      32.154  20.675  25.013  1.00  0.00     0.137 A 
ATOM     17  C   UNL A   1      34.639  21.673  24.539  1.00  0.00     0.031 A 
ATOM     18  N   UNL A   1      32.247  21.952  24.567  1.00  0.00    -0.254 NA
BRANCH  14  19
ATOM     19  N   UNL A   1      33.077  18.562  25.762  1.00  0.00    -0.325 N 
ATOM     20  C   UNL A   1      32.666  17.461  25.058  1.00  0.00     0.224 C 
ATOM     21  O   UNL A   1      32.239  16.478  25.666  1.00  0.00    -0.275 OA
ATOM     22  H   UNL A   1      33.275  18.416  26.715  1.00  0.00     0.169 HD
BRANCH  20  23
ATOM     23  C   UNL A   1      32.903  17.413  23.554  1.00  0.00     0.097 C 
ATOM     24  C   UNL A   1      34.230  16.821  23.125  1.00  0.00     0.014 C 
ENDBRANCH  20  23
ENDBRANCH  14  19
ENDBRANCH   8  13
ENDBRANCH   4   7
ENDBRANCH   2   3
ENDBRANCH   1   2
BRANCH   1  25
ATOM     25  C   UNL A   1      31.797  28.865  25.670  1.00  0.00     0.023 C 
BRANCH  25  26
ATOM     26  C   UNL A   1      33.030  29.697  25.986  1.00  0.00     0.116 C 
BRANCH  26  27
ATOM     27  N   UNL A   1      32.719  31.058  26.398  1.00  0.00    -0.352 N 
ATOM     28  C   UNL A   1      33.394  31.844  27.298  1.00  0.00     0.251 C 
ATOM     29  H   UNL A   1      31.926  31.464  25.981  1.00  0.00     0.163 HD
ATOM     30  O   UNL A   1      32.956  32.941  27.626  1.00  0.00    -0.269 OA
BRANCH  28  31
ATOM     31  C   UNL A   1      34.641  31.331  27.901  1.00  0.00     0.039 A 
ATOM     32  C   UNL A   1      35.726  32.198  28.045  1.00  0.00     0.014 A 
ATOM     33  C   UNL A   1      34.718  30.014  28.359  1.00  0.00     0.014 A 
ATOM     34  C   UNL A   1      36.875  31.756  28.704  1.00  0.00     0.010 A 
ATOM     35  C   UNL A   1      35.829  29.601  29.083  1.00  0.00     0.010 A 
ATOM     36  C   UNL A   1      36.922  30.465  29.253  1.00  0.00    -0.014 A 
BRANCH  36  37
ATOM     37  C   UNL A   1      38.117  29.983  29.986  1.00  0.00     0.031 A 
ATOM     38  C   UNL A   1      38.370  30.454  31.391  1.00  0.00     0.074 A 
ATOM     39  C   UNL A   1      39.001  29.176  29.370  1.00  0.00     0.049 A 
ATOM     40  N   UNL A   1      39.386  30.207  32.178  1.00  0.00    -0.248 NA
ATOM     41  C   UNL A   1      37.360  31.349  31.976  1.00  0.00     0.031 C 
ATOM     42  C   UNL A   1      38.888  28.691  27.995  1.00  0.00     0.029 A 
ATOM     43  N   UNL A   1      40.176  28.629  29.822  1.00  0.00    -0.354 N 
ATOM     44  C   UNL A   1      39.144  30.928  33.340  1.00  0.00     0.074 A 
ATOM     45  C   UNL A   1      37.920  31.670  33.133  1.00  0.00     0.031 C 
ATOM     46  C   UNL A   1      39.936  27.895  27.723  1.00  0.00     0.029 A 
ATOM     47  C   UNL A   1      40.809  27.843  28.891  1.00  0.00     0.049 A 
ATOM     48  H   UNL A   1      40.530  28.785  30.726  1.00  0.00     0.167 HD
ATOM     49  C   UNL A   1      39.863  30.947  34.487  1.00  0.00     0.037 A 
ATOM     50  C   UNL A   1      41.965  27.158  28.976  1.00  0.00     0.037 A 
ATOM     51  C   UNL A   1      41.066  30.188  34.697  1.00  0.00     0.049 A 
ATOM     52  C   UNL A   1      42.745  27.194  30.262  1.00  0.00     0.074 A 
ATOM     53  C   UNL A   1      41.845  30.100  35.837  1.00  0.00     0.029 A 
ATOM     54  N   UNL A   1      41.664  29.380  33.740  1.00  0.00    -0.354 N 
ATOM     55  N   UNL A   1      42.476  27.828  31.376  1.00  0.00    -0.248 NA
ATOM     56  C   UNL A   1      43.985  26.406  30.303  1.00  0.00     0.031 C 
ATOM     57  C   UNL A   1      42.937  29.269  35.557  1.00  0.00     0.029 A 
ATOM     58  C   UNL A   1      42.810  28.800  34.258  1.00  0.00     0.049 A 
ATOM     59  H   UNL A   1      41.324  29.240  32.826  1.00  0.00     0.167 HD
ATOM     60  C   UNL A   1      43.490  27.490  32.263  1.00  0.00     0.074 A 
ATOM     61  C   UNL A   1      44.375  26.587  31.558  1.00  0.00     0.031 C 
ATOM     62  C   UNL A   1      43.669  27.889  33.546  1.00  0.00     0.037 A 
BRANCH  49  63
ATOM     63  C   UNL A   1      39.357  31.818  35.602  1.00  0.00     0.064 A 
ATOM     64  C   UNL A   1      38.447  31.337  36.555  1.00  0.00     0.173 A 
ATOM     65  C   UNL A   1      39.792  33.146  35.723  1.00  0.00     0.173 A 
ATOM     66  F   UNL A   1      37.987  30.078  36.475  1.00  0.00    -0.203 F 
ATOM     67  C   UNL A   1      37.962  32.163  37.566  1.00  0.00     0.198 A 
ATOM     68  C   UNL A   1      39.331  33.959  36.755  1.00  0.00     0.198 A 
ATOM     69  F   UNL A   1      40.665  33.656  34.842  1.00  0.00    -0.203 F 
ATOM     70  F   UNL A   1      37.046  31.698  38.427  1.00  0.00    -0.200 F 
ATOM     71  C   UNL A   1      38.409  33.471  37.669  1.00  0.00     0.200 A 
ATOM     72  F   UNL A   1      39.773  35.220  36.861  1.00  0.00    -0.200 F 
ATOM     73  F   UNL A   1      37.942  34.265  38.642  1.00  0.00    -0.200 F 
ENDBRANCH  49  63
BRANCH  50  74
ATOM     74  C   UNL A   1      42.429  26.343  27.824  1.00  0.00     0.064 A 
ATOM     75  C   UNL A   1      41.921  25.053  27.608  1.00  0.00     0.173 A 
ATOM     76  C   UNL A   1      43.383  26.828  26.917  1.00  0.00     0.173 A 
ATOM     77  F   UNL A   1      41.021  24.539  28.459  1.00  0.00    -0.203 F 
ATOM     78  C   UNL A   1      42.363  24.273  26.543  1.00  0.00     0.198 A 
ATOM     79  C   UNL A   1      43.805  26.057  25.837  1.00  0.00     0.198 A 
ATOM     80  F   UNL A   1      43.896  28.057  27.076  1.00  0.00    -0.203 F 
ATOM     81  F   UNL A   1      41.892  23.029  26.386  1.00  0.00    -0.200 F 
ATOM     82  C   UNL A   1      43.300  24.778  25.654  1.00  0.00     0.200 A 
ATOM     83  F   UNL A   1      44.701  26.552  24.972  1.00  0.00    -0.200 F 
ATOM     84  F   UNL A   1      43.723  24.028  24.626  1.00  0.00    -0.200 F 
ENDBRANCH  50  74
BRANCH  62  85
ATOM     85  C   UNL A   1      44.838  27.309  34.289  1.00  0.00     0.064 A 
ATOM     86  C   UNL A   1      46.087  27.945  34.316  1.00  0.00     0.173 A 
ATOM     87  C   UNL A   1      44.690  26.118  35.018  1.00  0.00     0.173 A 
ATOM     88  F   UNL A   1      46.283  29.078  33.623  1.00  0.00    -0.203 F 
ATOM     89  C   UNL A   1      47.154  27.395  35.021  1.00  0.00     0.198 A 
ATOM     90  C   UNL A   1      45.749  25.588  35.747  1.00  0.00     0.198 A 
ATOM     91  F   UNL A   1      43.513  25.475  35.031  1.00  0.00    -0.203 F 
ATOM     92  F   UNL A   1      48.353  27.994  34.993  1.00  0.00    -0.200 F 
ATOM     93  C   UNL A   1      46.983  26.222  35.742  1.00  0.00     0.200 A 
ATOM     94  F   UNL A   1      45.578  24.462  36.453  1.00  0.00    -0.200 F 
ATOM     95  F   UNL A   1      48.009  25.698  36.426  1.00  0.00    -0.200 F 
ENDBRANCH  62  85
ENDBRANCH  36  37
ENDBRANCH  28  31
ENDBRANCH  26  27
ENDBRANCH  25  26
ENDBRANCH   1  25
TORSDOF 14
ENDMDL
MODEL 2
REMARK VINA RESULT:     -13.0      4.739      9.005
REMARK SMILES CCC(=O)Nc1ccc(-c2ccc(C(=O)NCCCCNC(=O)c3ccc(-c4c5nc(c(-c6c(F)c(F)c(F)c(F)c6F)c6ccc([nH]6)c(-c6c(F)c(F)c(F)c(F)c6F)c6nc(c(-c7c(F)c(F)c(F)c(F)c7F)c7ccc4[nH]7)C=C6)C=C5)cc3)cc2)nc1
REMARK SMILES IDX 18 1 17 2 16 3 14 4 15 5 13 7 10 8 11 9 88 10 12 11 87 12
REMARK SMILES IDX 9 13 6 14 7 15 90 16 8 17 89 18 5 19 3 20 4 21 2 23 1 24
REMARK SMILES IDX 19 25 20 26 21 27 22 28 23 30 24 31 25 32 86 33 26 34 85 35
REMARK SMILES IDX 27 36 28 37 29 38 79 39 30 40 84 41 78 42 80 43 31 44 83 45
REMARK SMILES IDX 77 46 76 47 32 49 64 50 44 51 63 52 45 53 48 54 62 55 81 56
REMARK SMILES IDX 46 57 47 58 61 60 82 61 49 62 33 63 34 64 42 65 35 66 36 67
REMARK SMILES IDX 40 68 43 69 37 70 38 71 41 72 39 73 65 74 66 75 74 76 67 77
REMARK SMILES IDX 68 78 72 79 75 80 69 81 70 82 73 83 71 84 50 85 51 86 59 87
REMARK SMILES IDX 52 88 53 89 57 90 60 91 54 92 55 93 58 94 56 95
REMARK H PARENT 16 6 5 22 21 29 80 48 48 59
REMARK Flexibility Score: inf
ROOT
ATOM      1  C   UNL A   1      37.203  21.287  24.732  1.00  0.00     0.023 C 
ENDROOT
BRANCH   1   2
ATOM      2  C   UNL A   1      35.693  21.038  24.781  1.00  0.00     0.116 C 
BRANCH   2   3
ATOM      3  N   UNL A   1      35.201  21.077  26.146  1.00  0.00    -0.352 N 
ATOM      4  C   UNL A   1      34.410  21.988  26.802  1.00  0.00     0.251 C 
ATOM      5  O   UNL A   1      34.075  21.731  27.958  1.00  0.00    -0.269 OA
ATOM      6  H   UNL A   1      35.486  20.314  26.699  1.00  0.00     0.163 HD
BRANCH   4   7
ATOM      7  C   UNL A   1      33.906  23.235  26.159  1.00  0.00     0.039 A 
ATOM      8  C   UNL A   1      32.830  25.497  24.849  1.00  0.00     0.000 A 
ATOM      9  C   UNL A   1      31.988  24.490  25.336  1.00  0.00     0.011 A 
ATOM     10  C   UNL A   1      34.203  25.392  25.091  1.00  0.00     0.011 A 
ATOM     11  C   UNL A   1      32.522  23.365  25.978  1.00  0.00     0.014 A 
ATOM     12  C   UNL A   1      34.728  24.288  25.759  1.00  0.00     0.014 A 
BRANCH   8  13
ATOM     13  C   UNL A   1      32.324  26.618  24.063  1.00  0.00     0.070 A 
ATOM     14  C   UNL A   1      31.280  28.702  22.606  1.00  0.00     0.059 A 
ATOM     15  C   UNL A   1      32.135  28.973  23.665  1.00  0.00     0.030 A 
ATOM     16  C   UNL A   1      30.937  27.375  22.378  1.00  0.00     0.137 A 
ATOM     17  C   UNL A   1      32.673  27.924  24.398  1.00  0.00     0.031 A 
ATOM     18  N   UNL A   1      31.458  26.328  23.064  1.00  0.00    -0.254 NA
BRANCH  14  19
ATOM     19  N   UNL A   1      30.708  29.731  21.851  1.00  0.00    -0.325 N 
ATOM     20  C   UNL A   1      29.432  30.224  21.925  1.00  0.00     0.224 C 
ATOM     21  O   UNL A   1      28.980  30.878  20.984  1.00  0.00    -0.275 OA
ATOM     22  H   UNL A   1      31.296  30.151  21.182  1.00  0.00     0.169 HD
BRANCH  20  23
ATOM     23  C   UNL A   1      28.664  30.097  23.234  1.00  0.00     0.097 C 
ATOM     24  C   UNL A   1      27.654  31.194  23.502  1.00  0.00     0.014 C 
ENDBRANCH  20  23
ENDBRANCH  14  19
ENDBRANCH   8  13
ENDBRANCH   4   7
ENDBRANCH   2   3
ENDBRANCH   1   2
BRANCH   1  25
ATOM     25  C   UNL A   1      38.061  20.054  25.003  1.00  0.00     0.023 C 
BRANCH  25  26
ATOM     26  C   UNL A   1      39.208  20.280  25.976  1.00  0.00     0.116 C 
BRANCH  26  27
ATOM     27  N   UNL A   1      40.183  19.200  25.981  1.00  0.00    -0.352 N 
ATOM     28  C   UNL A   1      41.545  19.291  26.126  1.00  0.00     0.251 C 
ATOM     29  H   UNL A   1      39.822  18.292  25.866  1.00  0.00     0.163 HD
ATOM     30  O   UNL A   1      42.257  18.299  26.007  1.00  0.00    -0.269 OA
BRANCH  28  31
ATOM     31  C   UNL A   1      42.149  20.613  26.385  1.00  0.00     0.039 A 
ATOM     32  C   UNL A   1      42.520  21.409  25.300  1.00  0.00     0.014 A 
ATOM     33  C   UNL A   1      42.307  21.077  27.693  1.00  0.00     0.014 A 
ATOM     34  C   UNL A   1      42.998  22.700  25.527  1.00  0.00     0.010 A 
ATOM     35  C   UNL A   1      42.707  22.389  27.915  1.00  0.00     0.010 A 
ATOM     36  C   UNL A   1      43.066  23.209  26.834  1.00  0.00    -0.014 A 
BRANCH  36  37
ATOM     37  C   UNL A   1      43.539  24.589  27.099  1.00  0.00     0.031 A 
ATOM     38  C   UNL A   1      42.582  25.613  27.642  1.00  0.00     0.074 A 
ATOM     39  C   UNL A   1      44.805  24.934  26.797  1.00  0.00     0.049 A 
ATOM     40  N   UNL A   1      42.776  26.886  27.879  1.00  0.00    -0.248 NA
ATOM     41  C   UNL A   1      41.215  25.151  27.925  1.00  0.00     0.031 C 
ATOM     42  C   UNL A   1      45.811  24.040  26.222  1.00  0.00     0.029 A 
ATOM     43  N   UNL A   1      45.458  26.134  26.923  1.00  0.00    -0.354 N 
ATOM     44  C   UNL A   1      41.554  27.375  28.321  1.00  0.00     0.074 A 
ATOM     45  C   UNL A   1      40.611  26.280  28.260  1.00  0.00     0.031 C 
ATOM     46  C   UNL A   1      46.963  24.716  26.072  1.00  0.00     0.029 A 
ATOM     47  C   UNL A   1      46.765  26.096  26.506  1.00  0.00     0.049 A 
ATOM     48  H   UNL A   1      45.029  26.945  27.279  1.00  0.00     0.167 HD
ATOM     49  C   UNL A   1      41.253  28.619  28.764  1.00  0.00     0.037 A 
ATOM     50  C   UNL A   1      47.697  27.067  26.479  1.00  0.00     0.037 A 
ATOM     51  C   UNL A   1      42.201  29.697  28.846  1.00  0.00     0.049 A 
ATOM     52  C   UNL A   1      47.338  28.440  26.979  1.00  0.00     0.074 A 
ATOM     53  C   UNL A   1      42.011  30.981  29.324  1.00  0.00     0.029 A 
ATOM     54  N   UNL A   1      43.525  29.612  28.439  1.00  0.00    -0.354 N 
ATOM     55  N   UNL A   1      46.197  28.876  27.454  1.00  0.00    -0.248 NA
ATOM     56  C   UNL A   1      48.404  29.451  26.950  1.00  0.00     0.031 C 
ATOM     57  C   UNL A   1      43.210  31.687  29.169  1.00  0.00     0.029 A 
ATOM     58  C   UNL A   1      44.161  30.826  28.643  1.00  0.00     0.049 A 
ATOM     59  H   UNL A   1      43.950  28.808  28.061  1.00  0.00     0.167 HD
ATOM     60  C   UNL A   1      46.415  30.200  27.813  1.00  0.00     0.074 A 
ATOM     61  C   UNL A   1      47.801  30.492  27.508  1.00  0.00     0.031 C 
ATOM     62  C   UNL A   1      45.547  31.092  28.350  1.00  0.00     0.037 A 
BRANCH  49  63
ATOM     63  C   UNL A   1      39.837  28.870  29.198  1.00  0.00     0.064 A 
ATOM     64  C   UNL A   1      39.420  28.638  30.518  1.00  0.00     0.173 A 
ATOM     65  C   UNL A   1      38.888  29.355  28.287  1.00  0.00     0.173 A 
ATOM     66  F   UNL A   1      40.286  28.159  31.425  1.00  0.00    -0.203 F 
ATOM     67  C   UNL A   1      38.098  28.846  30.900  1.00  0.00     0.198 A 
ATOM     68  C   UNL A   1      37.574  29.595  28.681  1.00  0.00     0.198 A 
ATOM     69  F   UNL A   1      39.232  29.599  27.014  1.00  0.00    -0.203 F 
ATOM     70  F   UNL A   1      37.710  28.558  32.150  1.00  0.00    -0.200 F 
ATOM     71  C   UNL A   1      37.177  29.330  29.984  1.00  0.00     0.200 A 
ATOM     72  F   UNL A   1      36.687  30.074  27.797  1.00  0.00    -0.200 F 
ATOM     73  F   UNL A   1      35.904  29.530  30.352  1.00  0.00    -0.200 F 
ENDBRANCH  49  63
BRANCH  50  74
ATOM     74  C   UNL A   1      49.072  26.762  26.005  1.00  0.00     0.064 A 
ATOM     75  C   UNL A   1      49.439  27.003  24.673  1.00  0.00     0.173 A 
ATOM     76  C   UNL A   1      50.043  26.228  26.864  1.00  0.00     0.173 A 
ATOM     77  F   UNL A   1      48.539  27.495  23.810  1.00  0.00    -0.203 F 
ATOM     78  C   UNL A   1      50.720  26.703  24.214  1.00  0.00     0.198 A 
ATOM     79  C   UNL A   1      51.330  25.953  26.410  1.00  0.00     0.198 A 
ATOM     80  F   UNL A   1      49.743  25.985  28.148  1.00  0.00    -0.203 F 
ATOM     81  F   UNL A   1      51.031  26.904  22.927  1.00  0.00    -0.200 F 
ATOM     82  C   UNL A   1      51.667  26.185  25.084  1.00  0.00     0.200 A 
ATOM     83  F   UNL A   1      52.247  25.465  27.256  1.00  0.00    -0.200 F 
ATOM     84  F   UNL A   1      52.900  25.900  24.643  1.00  0.00    -0.200 F 
ENDBRANCH  50  74
BRANCH  62  85
ATOM     85  C   UNL A   1      46.082  32.452  28.693  1.00  0.00     0.064 A 
ATOM     86  C   UNL A   1      46.659  32.727  29.941  1.00  0.00     0.173 A 
ATOM     87  C   UNL A   1      46.051  33.483  27.741  1.00  0.00     0.173 A 
ATOM     88  F   UNL A   1      46.699  31.779  30.890  1.00  0.00    -0.203 F 
ATOM     89  C   UNL A   1      47.159  33.993  30.233  1.00  0.00     0.198 A 
ATOM     90  C   UNL A   1      46.579  34.738  28.025  1.00  0.00     0.198 A 
ATOM     91  F   UNL A   1      45.516  33.268  26.529  1.00  0.00    -0.203 F 
ATOM     92  F   UNL A   1      47.662  34.248  31.450  1.00  0.00    -0.200 F 
ATOM     93  C   UNL A   1      47.126  34.995  29.274  1.00  0.00     0.200 A 
ATOM     94  F   UNL A   1      46.559  35.699  27.093  1.00  0.00    -0.200 F 
ATOM     95  F   UNL A   1      47.615  36.210  29.555  1.00  0.00    -0.200 F 
ENDBRANCH  62  85
ENDBRANCH  36  37
ENDBRANCH  28  31
ENDBRANCH  26  27
ENDBRANCH  25  26
ENDBRANCH   1  25
TORSDOF 14
ENDMDL
MODEL 3
REMARK VINA RESULT:     -13.0      4.668      8.939
REMARK SMILES CCC(=O)Nc1ccc(-c2ccc(C(=O)NCCCCNC(=O)c3ccc(-c4c5nc(c(-c6c(F)c(F)c(F)c(F)c6F)c6ccc([nH]6)c(-c6c(F)c(F)c(F)c(F)c6F)c6nc(c(-c7c(F)c(F)c(F)c(F)c7F)c7ccc4[nH]7)C=C6)C=C5)cc3)cc2)nc1
REMARK SMILES IDX 18 1 17 2 16 3 14 4 15 5 13 7 10 8 11 9 88 10 12 11 87 12
REMARK SMILES IDX 9 13 6 14 7 15 90 16 8 17 89 18 5 19 3 20 4 21 2 23 1 24
REMARK SMILES IDX 19 25 20 26 21 27 22 28 23 30 24 31 25 32 86 33 26 34 85 35
REMARK SMILES IDX 27 36 28 37 29 38 79 39 30 40 84 41 78 42 80 43 31 44 83 45
REMARK SMILES IDX 77 46 76 47 32 49 64 50 44 51 63 52 45 53 48 54 62 55 81 56
REMARK SMILES IDX 46 57 47 58 61 60 82 61 49 62 33 63 34 64 42 65 35 66 36 67
REMARK SMILES IDX 40 68 43 69 37 70 38 71 41 72 39 73 65 74 66 75 74 76 67 77
REMARK SMILES IDX 68 78 72 79 75 80 69 81 70 82 73 83 71 84 50 85 51 86 59 87
REMARK SMILES IDX 52 88 53 89 57 90 60 91 54 92 55 93 58 94 56 95
REMARK H PARENT 16 6 5 22 21 29 80 48 48 59
REMARK Flexibility Score: inf
ROOT
ATOM      1  C   UNL A   1      37.069  21.271  24.780  1.00  0.00     0.023 C 
ENDROOT
BRANCH   1   2
ATOM      2  C   UNL A   1      35.585  20.989  25.033  1.00  0.00     0.116 C 
BRANCH   2   3
ATOM      3  N   UNL A   1      35.212  21.336  26.391  1.00  0.00    -0.352 N 
ATOM      4  C   UNL A   1      34.447  22.363  26.891  1.00  0.00     0.251 C 
ATOM      5  O   UNL A   1      34.223  22.377  28.100  1.00  0.00    -0.269 OA
ATOM      6  H   UNL A   1      35.571  20.728  27.077  1.00  0.00     0.163 HD
BRANCH   4   7
ATOM      7  C   UNL A   1      33.845  23.418  26.027  1.00  0.00     0.039 A 
ATOM      8  C   UNL A   1      32.782  25.544  24.496  1.00  0.00     0.000 A 
ATOM      9  C   UNL A   1      34.096  25.601  24.977  1.00  0.00     0.011 A 
ATOM     10  C   UNL A   1      32.039  24.383  24.729  1.00  0.00     0.011 A 
ATOM     11  C   UNL A   1      34.620  24.551  25.742  1.00  0.00     0.014 A 
ATOM     12  C   UNL A   1      32.574  23.326  25.462  1.00  0.00     0.014 A 
BRANCH   8  13
ATOM     13  C   UNL A   1      32.158  26.670  23.808  1.00  0.00     0.070 A 
ATOM     14  C   UNL A   1      31.064  28.797  22.456  1.00  0.00     0.059 A 
ATOM     15  C   UNL A   1      30.408  27.573  22.445  1.00  0.00     0.030 A 
ATOM     16  C   UNL A   1      32.291  28.865  23.102  1.00  0.00     0.137 A 
ATOM     17  C   UNL A   1      30.951  26.499  23.135  1.00  0.00     0.031 A 
ATOM     18  N   UNL A   1      32.840  27.839  23.798  1.00  0.00    -0.254 NA
BRANCH  14  19
ATOM     19  N   UNL A   1      30.555  29.901  21.764  1.00  0.00    -0.325 N 
ATOM     20  C   UNL A   1      29.373  30.560  21.979  1.00  0.00     0.224 C 
ATOM     21  O   UNL A   1      28.909  31.278  21.091  1.00  0.00    -0.275 OA
ATOM     22  H   UNL A   1      31.114  30.246  21.032  1.00  0.00     0.169 HD
BRANCH  20  23
ATOM     23  C   UNL A   1      28.746  30.524  23.367  1.00  0.00     0.097 C 
ATOM     24  C   UNL A   1      27.600  31.491  23.586  1.00  0.00     0.014 C 
ENDBRANCH  20  23
ENDBRANCH  14  19
ENDBRANCH   8  13
ENDBRANCH   4   7
ENDBRANCH   2   3
ENDBRANCH   1   2
BRANCH   1  25
ATOM     25  C   UNL A   1      37.988  20.067  24.975  1.00  0.00     0.023 C 
BRANCH  25  26
ATOM     26  C   UNL A   1      39.174  20.317  25.893  1.00  0.00     0.116 C 
BRANCH  26  27
ATOM     27  N   UNL A   1      40.145  19.233  25.891  1.00  0.00    -0.352 N 
ATOM     28  C   UNL A   1      41.505  19.315  26.061  1.00  0.00     0.251 C 
ATOM     29  H   UNL A   1      39.782  18.329  25.750  1.00  0.00     0.163 HD
ATOM     30  O   UNL A   1      42.214  18.324  25.932  1.00  0.00    -0.269 OA
BRANCH  28  31
ATOM     31  C   UNL A   1      42.109  20.629  26.360  1.00  0.00     0.039 A 
ATOM     32  C   UNL A   1      42.435  21.477  25.299  1.00  0.00     0.014 A 
ATOM     33  C   UNL A   1      42.310  21.034  27.681  1.00  0.00     0.014 A 
ATOM     34  C   UNL A   1      42.912  22.761  25.569  1.00  0.00     0.010 A 
ATOM     35  C   UNL A   1      42.710  22.338  27.948  1.00  0.00     0.010 A 
ATOM     36  C   UNL A   1      43.024  23.209  26.894  1.00  0.00    -0.014 A 
BRANCH  36  37
ATOM     37  C   UNL A   1      43.497  24.579  27.206  1.00  0.00     0.031 A 
ATOM     38  C   UNL A   1      42.535  25.591  27.762  1.00  0.00     0.074 A 
ATOM     39  C   UNL A   1      44.769  24.928  26.934  1.00  0.00     0.049 A 
ATOM     40  N   UNL A   1      42.729  26.856  28.038  1.00  0.00    -0.248 NA
ATOM     41  C   UNL A   1      41.162  25.126  28.010  1.00  0.00     0.031 C 
ATOM     42  C   UNL A   1      45.781  24.047  26.350  1.00  0.00     0.029 A 
ATOM     43  N   UNL A   1      45.423  26.122  27.104  1.00  0.00    -0.354 N 
ATOM     44  C   UNL A   1      41.502  27.337  28.475  1.00  0.00     0.074 A 
ATOM     45  C   UNL A   1      40.557  26.248  28.368  1.00  0.00     0.031 C 
ATOM     46  C   UNL A   1      46.937  24.723  26.237  1.00  0.00     0.029 A 
ATOM     47  C   UNL A   1      46.737  26.090  26.706  1.00  0.00     0.049 A 
ATOM     48  H   UNL A   1      44.992  26.924  27.476  1.00  0.00     0.167 HD
ATOM     49  C   UNL A   1      41.198  28.569  28.948  1.00  0.00     0.037 A 
ATOM     50  C   UNL A   1      47.672  27.059  26.722  1.00  0.00     0.037 A 
ATOM     51  C   UNL A   1      42.148  29.641  29.075  1.00  0.00     0.049 A 
ATOM     52  C   UNL A   1      47.310  28.418  27.255  1.00  0.00     0.074 A 
ATOM     53  C   UNL A   1      41.955  30.912  29.585  1.00  0.00     0.029 A 
ATOM     54  N   UNL A   1      43.478  29.563  28.687  1.00  0.00    -0.354 N 
ATOM     55  N   UNL A   1      46.163  28.845  27.723  1.00  0.00    -0.248 NA
ATOM     56  C   UNL A   1      48.379  29.426  27.271  1.00  0.00     0.031 C 
ATOM     57  C   UNL A   1      43.158  31.617  29.470  1.00  0.00     0.029 A 
ATOM     58  C   UNL A   1      44.115  30.769  28.935  1.00  0.00     0.049 A 
ATOM     59  H   UNL A   1      43.907  28.769  28.293  1.00  0.00     0.167 HD
ATOM     60  C   UNL A   1      46.380  30.157  28.124  1.00  0.00     0.074 A 
ATOM     61  C   UNL A   1      47.771  30.453  27.849  1.00  0.00     0.031 C 
ATOM     62  C   UNL A   1      45.506  31.038  28.671  1.00  0.00     0.037 A 
BRANCH  49  63
ATOM     63  C   UNL A   1      39.776  28.813  29.366  1.00  0.00     0.064 A 
ATOM     64  C   UNL A   1      38.824  29.325  28.471  1.00  0.00     0.173 A 
ATOM     65  C   UNL A   1      39.358  28.527  30.673  1.00  0.00     0.173 A 
ATOM     66  F   UNL A   1      39.177  29.632  27.212  1.00  0.00    -0.203 F 
ATOM     67  C   UNL A   1      37.517  29.577  28.879  1.00  0.00     0.198 A 
ATOM     68  C   UNL A   1      38.041  28.747  31.069  1.00  0.00     0.198 A 
ATOM     69  F   UNL A   1      40.224  28.031  31.569  1.00  0.00    -0.203 F 
ATOM     70  F   UNL A   1      36.643  30.124  28.023  1.00  0.00    -0.200 F 
ATOM     71  C   UNL A   1      37.124  29.282  30.175  1.00  0.00     0.200 A 
ATOM     72  F   UNL A   1      37.659  28.450  32.319  1.00  0.00    -0.200 F 
ATOM     73  F   UNL A   1      35.866  29.523  30.567  1.00  0.00    -0.200 F 
ENDBRANCH  49  63
BRANCH  50  74
ATOM     74  C   UNL A   1      49.053  26.762  26.261  1.00  0.00     0.064 A 
ATOM     75  C   UNL A   1      49.436  27.015  24.936  1.00  0.00     0.173 A 
ATOM     76  C   UNL A   1      50.016  26.224  27.127  1.00  0.00     0.173 A 
ATOM     77  F   UNL A   1      48.544  27.512  24.066  1.00  0.00    -0.203 F 
ATOM     78  C   UNL A   1      50.722  26.724  24.489  1.00  0.00     0.198 A 
ATOM     79  C   UNL A   1      51.310  25.958  26.685  1.00  0.00     0.198 A 
ATOM     80  F   UNL A   1      49.702  25.969  28.405  1.00  0.00    -0.203 F 
ATOM     81  F   UNL A   1      51.048  26.937  23.207  1.00  0.00    -0.200 F 
ATOM     82  C   UNL A   1      51.661  26.201  25.365  1.00  0.00     0.200 A 
ATOM     83  F   UNL A   1      52.219  25.465  27.539  1.00  0.00    -0.200 F 
ATOM     84  F   UNL A   1      52.900  25.924  24.937  1.00  0.00    -0.200 F 
ENDBRANCH  50  74
BRANCH  62  85
ATOM     85  C   UNL A   1      46.040  32.385  29.061  1.00  0.00     0.064 A 
ATOM     86  C   UNL A   1      45.994  33.480  28.188  1.00  0.00     0.173 A 
ATOM     87  C   UNL A   1      46.570  32.589  30.345  1.00  0.00     0.173 A 
ATOM     88  F   UNL A   1      45.511  33.333  26.944  1.00  0.00    -0.203 F 
ATOM     89  C   UNL A   1      46.486  34.725  28.575  1.00  0.00     0.198 A 
ATOM     90  C   UNL A   1      47.032  33.840  30.740  1.00  0.00     0.198 A 
ATOM     91  F   UNL A   1      46.629  31.575  31.221  1.00  0.00    -0.203 F 
ATOM     92  F   UNL A   1      46.477  35.746  27.706  1.00  0.00    -0.200 F 
ATOM     93  C   UNL A   1      46.997  34.906  29.852  1.00  0.00     0.200 A 
ATOM     94  F   UNL A   1      47.512  34.016  31.978  1.00  0.00    -0.200 F 
ATOM     95  F   UNL A   1      47.462  36.105  30.225  1.00  0.00    -0.200 F 
ENDBRANCH  62  85
ENDBRANCH  36  37
ENDBRANCH  28  31
ENDBRANCH  26  27
ENDBRANCH  25  26
ENDBRANCH   1  25
TORSDOF 14
ENDMDL
