MODEL 1
REMARK VINA RESULT:     -12.2      0.000      0.000
REMARK SMILES [NH3+]C[C@@]1([C@@H](O)C(=O)NCCCCNC(=O)c2ccc(-c3c4nc(c(-c5c(F)c(F)c(F)c(F)c5F)c5ccc([nH]5)c(-c5c(F)c(F)c(F)c(F)c5F)c5nc(c(-c6c(F)c(F)c(F)c(F)c6F)c6ccc3[nH]6)C=C5)C=C4)cc2)CCOc2ccccc21
REMARK SMILES IDX 10 1 9 2 8 3 6 4 7 5 4 7 3 8 79 9 87 10 80 11 82 12 86 13
REMARK SMILES IDX 81 14 83 15 85 16 84 17 2 18 1 19 5 23 11 25 12 26 13 27
REMARK SMILES IDX 14 28 15 30 16 31 17 32 78 33 18 34 77 35 19 36 20 37 21 38
REMARK SMILES IDX 71 39 22 40 76 41 70 42 72 43 23 44 75 45 69 46 68 47 24 49
REMARK SMILES IDX 56 50 36 51 55 52 37 53 40 54 54 55 73 56 38 57 39 58 53 60
REMARK SMILES IDX 74 61 41 62 25 63 26 64 34 65 27 66 28 67 32 68 35 69 29 70
REMARK SMILES IDX 30 71 33 72 31 73 57 74 58 75 66 76 59 77 60 78 64 79 67 80
REMARK SMILES IDX 61 81 62 82 65 83 63 84 42 85 43 86 51 87 44 88 45 89 49 90
REMARK SMILES IDX 52 91 46 92 47 93 50 94 48 95
REMARK H PARENT 8 6 1 20 1 21 1 22 5 24 13 29 72 48 40 59
REMARK Flexibility Score: inf
ROOT
ATOM      1  C   UNL A   1      34.034  28.701  24.087  1.00  0.00     0.023 C 
ENDROOT
BRANCH   1   2
ATOM      2  C   UNL A   1      34.002  28.321  22.610  1.00  0.00     0.116 C 
BRANCH   2   3
ATOM      3  N   UNL A   1      32.676  27.888  22.220  1.00  0.00    -0.354 N 
ATOM      4  C   UNL A   1      32.218  26.645  21.909  1.00  0.00     0.250 C 
ATOM      5  O   UNL A   1      31.046  26.558  21.527  1.00  0.00    -0.272 OA
ATOM      6  H   UNL A   1      32.002  28.604  22.174  1.00  0.00     0.163 HD
BRANCH   4   7
ATOM      7  C   UNL A   1      33.096  25.371  22.046  1.00  0.00     0.219 C 
BRANCH   7   8
ATOM      8  C   UNL A   1      32.959  24.582  23.405  1.00  0.00     0.086 C 
ATOM      9  C   UNL A   1      32.400  25.561  24.470  1.00  0.00     0.062 C 
ATOM     10  C   UNL A   1      34.338  24.117  23.938  1.00  0.00     0.009 A 
ATOM     11  C   UNL A   1      32.472  24.964  25.860  1.00  0.00     0.231 C 
ATOM     12  C   UNL A   1      34.625  24.170  25.314  1.00  0.00     0.123 A 
ATOM     13  C   UNL A   1      35.271  23.480  23.097  1.00  0.00     0.008 A 
ATOM     14  O   UNL A   1      33.814  24.728  26.263  1.00  0.00    -0.493 OA
ATOM     15  C   UNL A   1      35.806  23.621  25.819  1.00  0.00     0.047 A 
ATOM     16  C   UNL A   1      36.446  22.925  23.608  1.00  0.00     0.001 A 
ATOM     17  C   UNL A   1      36.711  22.991  24.971  1.00  0.00     0.004 A 
BRANCH   8  18
ATOM     18  C   UNL A   1      32.159  23.233  23.309  1.00  0.00     0.274 C 
BRANCH  18  19
ATOM     19  N   UNL A   1      30.740  23.274  22.969  1.00  0.00    -0.357 N 
ATOM     20  H   UNL A   1      30.281  24.006  23.512  1.00  0.00     0.344 HD
ATOM     21  H   UNL A   1      30.312  22.374  23.183  1.00  0.00     0.344 HD
ATOM     22  H   UNL A   1      30.634  23.472  21.973  1.00  0.00     0.344 HD
ENDBRANCH  18  19
ENDBRANCH   8  18
ENDBRANCH   7   8
BRANCH   7  23
ATOM     23  O   UNL A   1      32.987  24.548  20.882  1.00  0.00    -0.382 OA
ATOM     24  H   UNL A   1      32.788  23.637  21.146  1.00  0.00     0.211 HD
ENDBRANCH   7  23
ENDBRANCH   4   7
ENDBRANCH   2   3
ENDBRANCH   1   2
BRANCH   1  25
ATOM     25  C   UNL A   1      32.763  29.322  24.632  1.00  0.00     0.023 C 
BRANCH  25  26
ATOM     26  C   UNL A   1      32.753  29.524  26.135  1.00  0.00     0.116 C 
BRANCH  26  27
ATOM     27  N   UNL A   1      32.517  30.904  26.544  1.00  0.00    -0.352 N 
ATOM     28  C   UNL A   1      33.307  31.741  27.296  1.00  0.00     0.251 C 
ATOM     29  H   UNL A   1      31.667  31.294  26.237  1.00  0.00     0.163 HD
ATOM     30  O   UNL A   1      32.905  32.850  27.632  1.00  0.00    -0.269 OA
BRANCH  28  31
ATOM     31  C   UNL A   1      34.634  31.270  27.741  1.00  0.00     0.039 A 
ATOM     32  C   UNL A   1      35.650  32.202  27.955  1.00  0.00     0.014 A 
ATOM     33  C   UNL A   1      34.844  29.920  28.029  1.00  0.00     0.014 A 
ATOM     34  C   UNL A   1      36.843  31.790  28.550  1.00  0.00     0.010 A 
ATOM     35  C   UNL A   1      35.970  29.539  28.741  1.00  0.00     0.010 A 
ATOM     36  C   UNL A   1      36.990  30.466  28.998  1.00  0.00    -0.014 A 
BRANCH  36  37
ATOM     37  C   UNL A   1      38.205  30.034  29.733  1.00  0.00     0.031 A 
ATOM     38  C   UNL A   1      38.447  30.514  31.139  1.00  0.00     0.074 A 
ATOM     39  C   UNL A   1      39.123  29.270  29.110  1.00  0.00     0.049 A 
ATOM     40  N   UNL A   1      39.452  30.261  31.938  1.00  0.00    -0.248 NA
ATOM     41  C   UNL A   1      37.454  31.440  31.707  1.00  0.00     0.031 C 
ATOM     42  C   UNL A   1      39.056  28.832  27.714  1.00  0.00     0.029 A 
ATOM     43  N   UNL A   1      40.294  28.724  29.571  1.00  0.00    -0.354 N 
ATOM     44  C   UNL A   1      39.224  31.015  33.081  1.00  0.00     0.074 A 
ATOM     45  C   UNL A   1      38.029  31.793  32.846  1.00  0.00     0.031 C 
ATOM     46  C   UNL A   1      40.112  28.045  27.448  1.00  0.00     0.029 A 
ATOM     47  C   UNL A   1      40.941  27.944  28.644  1.00  0.00     0.049 A 
ATOM     48  H   UNL A   1      40.638  28.876  30.481  1.00  0.00     0.167 HD
ATOM     49  C   UNL A   1      39.923  31.029  34.240  1.00  0.00     0.037 A 
ATOM     50  C   UNL A   1      42.067  27.215  28.754  1.00  0.00     0.037 A 
ATOM     51  C   UNL A   1      41.080  30.211  34.486  1.00  0.00     0.049 A 
ATOM     52  C   UNL A   1      42.779  27.177  30.078  1.00  0.00     0.074 A 
ATOM     53  C   UNL A   1      41.811  30.075  35.652  1.00  0.00     0.029 A 
ATOM     54  N   UNL A   1      41.670  29.382  33.544  1.00  0.00    -0.354 N 
ATOM     55  N   UNL A   1      42.497  27.815  31.189  1.00  0.00    -0.248 NA
ATOM     56  C   UNL A   1      43.954  26.302  30.170  1.00  0.00     0.031 C 
ATOM     57  C   UNL A   1      42.867  29.192  35.404  1.00  0.00     0.029 A 
ATOM     58  C   UNL A   1      42.766  28.742  34.097  1.00  0.00     0.049 A 
ATOM     59  H   UNL A   1      41.357  29.267  32.617  1.00  0.00     0.167 HD
ATOM     60  C   UNL A   1      43.443  27.405  32.115  1.00  0.00     0.074 A 
ATOM     61  C   UNL A   1      44.293  26.443  31.443  1.00  0.00     0.031 C 
ATOM     62  C   UNL A   1      43.601  27.792  33.407  1.00  0.00     0.037 A 
BRANCH  49  63
ATOM     63  C   UNL A   1      39.440  31.946  35.326  1.00  0.00     0.064 A 
ATOM     64  C   UNL A   1      38.555  31.507  36.324  1.00  0.00     0.173 A 
ATOM     65  C   UNL A   1      39.870  33.281  35.377  1.00  0.00     0.173 A 
ATOM     66  F   UNL A   1      38.100  30.244  36.315  1.00  0.00    -0.203 F 
ATOM     67  C   UNL A   1      38.087  32.377  37.304  1.00  0.00     0.198 A 
ATOM     68  C   UNL A   1      39.426  34.140  36.378  1.00  0.00     0.198 A 
ATOM     69  F   UNL A   1      40.717  33.755  34.451  1.00  0.00    -0.203 F 
ATOM     70  F   UNL A   1      37.191  31.950  38.205  1.00  0.00    -0.200 F 
ATOM     71  C   UNL A   1      38.527  33.692  37.334  1.00  0.00     0.200 A 
ATOM     72  F   UNL A   1      39.861  35.408  36.413  1.00  0.00    -0.200 F 
ATOM     73  F   UNL A   1      38.076  34.530  38.278  1.00  0.00    -0.200 F 
ENDBRANCH  49  63
BRANCH  50  74
ATOM     74  C   UNL A   1      42.546  26.413  27.598  1.00  0.00     0.064 A 
ATOM     75  C   UNL A   1      42.024  25.137  27.344  1.00  0.00     0.173 A 
ATOM     76  C   UNL A   1      43.519  26.907  26.718  1.00  0.00     0.173 A 
ATOM     77  F   UNL A   1      41.103  24.615  28.167  1.00  0.00    -0.203 F 
ATOM     78  C   UNL A   1      42.470  24.378  26.264  1.00  0.00     0.198 A 
ATOM     79  C   UNL A   1      43.945  26.158  25.623  1.00  0.00     0.198 A 
ATOM     80  F   UNL A   1      44.042  28.127  26.912  1.00  0.00    -0.203 F 
ATOM     81  F   UNL A   1      41.983  23.145  26.069  1.00  0.00    -0.200 F 
ATOM     82  C   UNL A   1      43.426  24.892  25.400  1.00  0.00     0.200 A 
ATOM     83  F   UNL A   1      44.857  26.664  24.782  1.00  0.00    -0.200 F 
ATOM     84  F   UNL A   1      43.849  24.165  24.358  1.00  0.00    -0.200 F 
ENDBRANCH  50  74
BRANCH  62  85
ATOM     85  C   UNL A   1      44.723  27.158  34.173  1.00  0.00     0.064 A 
ATOM     86  C   UNL A   1      44.546  25.958  34.877  1.00  0.00     0.173 A 
ATOM     87  C   UNL A   1      45.995  27.751  34.191  1.00  0.00     0.173 A 
ATOM     88  F   UNL A   1      43.346  25.360  34.900  1.00  0.00    -0.203 F 
ATOM     89  C   UNL A   1      45.592  25.392  35.601  1.00  0.00     0.198 A 
ATOM     90  C   UNL A   1      47.046  27.166  34.891  1.00  0.00     0.198 A 
ATOM     91  F   UNL A   1      46.217  28.895  33.527  1.00  0.00    -0.203 F 
ATOM     92  F   UNL A   1      45.385  24.276  36.312  1.00  0.00    -0.200 F 
ATOM     93  C   UNL A   1      46.842  25.994  35.603  1.00  0.00     0.200 A 
ATOM     94  F   UNL A   1      48.257  27.741  34.880  1.00  0.00    -0.200 F 
ATOM     95  F   UNL A   1      47.847  25.449  36.301  1.00  0.00    -0.200 F 
ENDBRANCH  62  85
ENDBRANCH  36  37
ENDBRANCH  28  31
ENDBRANCH  26  27
ENDBRANCH  25  26
ENDBRANCH   1  25
TORSDOF 15
ENDMDL
MODEL 2
REMARK VINA RESULT:     -12.1      0.156      1.978
REMARK SMILES [NH3+]C[C@@]1([C@@H](O)C(=O)NCCCCNC(=O)c2ccc(-c3c4nc(c(-c5c(F)c(F)c(F)c(F)c5F)c5ccc([nH]5)c(-c5c(F)c(F)c(F)c(F)c5F)c5nc(c(-c6c(F)c(F)c(F)c(F)c6F)c6ccc3[nH]6)C=C5)C=C4)cc2)CCOc2ccccc21
REMARK SMILES IDX 10 1 9 2 8 3 6 4 7 5 4 7 3 8 79 9 87 10 80 11 82 12 86 13
REMARK SMILES IDX 81 14 83 15 85 16 84 17 2 18 1 19 5 23 11 25 12 26 13 27
REMARK SMILES IDX 14 28 15 30 16 31 17 32 78 33 18 34 77 35 19 36 20 37 21 38
REMARK SMILES IDX 71 39 22 40 76 41 70 42 72 43 23 44 75 45 69 46 68 47 24 49
REMARK SMILES IDX 56 50 36 51 55 52 37 53 40 54 54 55 73 56 38 57 39 58 53 60
REMARK SMILES IDX 74 61 41 62 25 63 26 64 34 65 27 66 28 67 32 68 35 69 29 70
REMARK SMILES IDX 30 71 33 72 31 73 57 74 58 75 66 76 59 77 60 78 64 79 67 80
REMARK SMILES IDX 61 81 62 82 65 83 63 84 42 85 43 86 51 87 44 88 45 89 49 90
REMARK SMILES IDX 52 91 46 92 47 93 50 94 48 95
REMARK H PARENT 8 6 1 20 1 21 1 22 5 24 13 29 72 48 40 59
REMARK Flexibility Score: inf
ROOT
ATOM      1  C   UNL A   1      33.993  28.716  24.352  1.00  0.00     0.023 C 
ENDROOT
BRANCH   1   2
ATOM      2  C   UNL A   1      34.015  28.291  22.887  1.00  0.00     0.116 C 
BRANCH   2   3
ATOM      3  N   UNL A   1      32.692  27.899  22.447  1.00  0.00    -0.354 N 
ATOM      4  C   UNL A   1      32.229  26.683  22.047  1.00  0.00     0.250 C 
ATOM      5  O   UNL A   1      31.064  26.633  21.640  1.00  0.00    -0.272 OA
ATOM      6  H   UNL A   1      32.025  28.622  22.436  1.00  0.00     0.163 HD
BRANCH   4   7
ATOM      7  C   UNL A   1      33.092  25.394  22.116  1.00  0.00     0.219 C 
BRANCH   7   8
ATOM      8  C   UNL A   1      32.983  24.560  23.451  1.00  0.00     0.086 C 
ATOM      9  C   UNL A   1      32.380  25.484  24.541  1.00  0.00     0.062 C 
ATOM     10  C   UNL A   1      34.377  24.137  23.977  1.00  0.00     0.009 A 
ATOM     11  C   UNL A   1      32.470  24.850  25.913  1.00  0.00     0.231 C 
ATOM     12  C   UNL A   1      34.657  24.160  25.355  1.00  0.00     0.123 A 
ATOM     13  C   UNL A   1      35.339  23.563  23.123  1.00  0.00     0.008 A 
ATOM     14  O   UNL A   1      33.819  24.657  26.316  1.00  0.00    -0.493 OA
ATOM     15  C   UNL A   1      35.856  23.645  25.850  1.00  0.00     0.047 A 
ATOM     16  C   UNL A   1      36.533  23.041  23.623  1.00  0.00     0.001 A 
ATOM     17  C   UNL A   1      36.790  23.078  24.989  1.00  0.00     0.004 A 
BRANCH   8  18
ATOM     18  C   UNL A   1      32.239  23.183  23.311  1.00  0.00     0.274 C 
BRANCH  18  19
ATOM     19  N   UNL A   1      30.847  23.171  22.871  1.00  0.00    -0.357 N 
ATOM     20  H   UNL A   1      30.276  23.697  23.535  1.00  0.00     0.344 HD
ATOM     21  H   UNL A   1      30.512  22.210  22.824  1.00  0.00     0.344 HD
ATOM     22  H   UNL A   1      30.778  23.601  21.948  1.00  0.00     0.344 HD
ENDBRANCH  18  19
ENDBRANCH   8  18
ENDBRANCH   7   8
BRANCH   7  23
ATOM     23  O   UNL A   1      32.941  24.613  20.928  1.00  0.00    -0.382 OA
ATOM     24  H   UNL A   1      32.576  23.744  21.155  1.00  0.00     0.211 HD
ENDBRANCH   7  23
ENDBRANCH   4   7
ENDBRANCH   2   3
ENDBRANCH   1   2
BRANCH   1  25
ATOM     25  C   UNL A   1      32.702  29.352  24.831  1.00  0.00     0.023 C 
BRANCH  25  26
ATOM     26  C   UNL A   1      32.655  29.640  26.319  1.00  0.00     0.116 C 
BRANCH  26  27
ATOM     27  N   UNL A   1      32.478  31.052  26.643  1.00  0.00    -0.352 N 
ATOM     28  C   UNL A   1      33.312  31.903  27.326  1.00  0.00     0.251 C 
ATOM     29  H   UNL A   1      31.637  31.452  26.326  1.00  0.00     0.163 HD
ATOM     30  O   UNL A   1      32.957  33.046  27.597  1.00  0.00    -0.269 OA
BRANCH  28  31
ATOM     31  C   UNL A   1      34.629  31.412  27.778  1.00  0.00     0.039 A 
ATOM     32  C   UNL A   1      35.668  32.325  27.967  1.00  0.00     0.014 A 
ATOM     33  C   UNL A   1      34.808  30.065  28.097  1.00  0.00     0.014 A 
ATOM     34  C   UNL A   1      36.853  31.899  28.567  1.00  0.00     0.010 A 
ATOM     35  C   UNL A   1      35.928  29.675  28.815  1.00  0.00     0.010 A 
ATOM     36  C   UNL A   1      36.970  30.583  29.046  1.00  0.00    -0.014 A 
BRANCH  36  37
ATOM     37  C   UNL A   1      38.177  30.140  29.787  1.00  0.00     0.031 A 
ATOM     38  C   UNL A   1      38.405  30.600  31.203  1.00  0.00     0.074 A 
ATOM     39  C   UNL A   1      39.101  29.384  29.163  1.00  0.00     0.049 A 
ATOM     40  N   UNL A   1      39.402  30.335  32.008  1.00  0.00    -0.248 NA
ATOM     41  C   UNL A   1      37.406  31.518  31.774  1.00  0.00     0.031 C 
ATOM     42  C   UNL A   1      39.049  28.966  27.761  1.00  0.00     0.029 A 
ATOM     43  N   UNL A   1      40.267  28.831  29.629  1.00  0.00    -0.354 N 
ATOM     44  C   UNL A   1      39.162  31.073  33.159  1.00  0.00     0.074 A 
ATOM     45  C   UNL A   1      37.970  31.855  32.923  1.00  0.00     0.031 C 
ATOM     46  C   UNL A   1      40.106  28.183  27.495  1.00  0.00     0.029 A 
ATOM     47  C   UNL A   1      40.923  28.065  28.697  1.00  0.00     0.049 A 
ATOM     48  H   UNL A   1      40.602  28.970  30.545  1.00  0.00     0.167 HD
ATOM     49  C   UNL A   1      39.849  31.070  34.326  1.00  0.00     0.037 A 
ATOM     50  C   UNL A   1      42.048  27.333  28.809  1.00  0.00     0.037 A 
ATOM     51  C   UNL A   1      41.003  30.249  34.573  1.00  0.00     0.049 A 
ATOM     52  C   UNL A   1      42.746  27.276  30.140  1.00  0.00     0.074 A 
ATOM     53  C   UNL A   1      41.722  30.096  35.744  1.00  0.00     0.029 A 
ATOM     54  N   UNL A   1      41.603  29.433  33.625  1.00  0.00    -0.354 N 
ATOM     55  N   UNL A   1      42.453  27.898  31.256  1.00  0.00    -0.248 NA
ATOM     56  C   UNL A   1      43.920  26.399  30.232  1.00  0.00     0.031 C 
ATOM     57  C   UNL A   1      42.780  29.215  35.494  1.00  0.00     0.029 A 
ATOM     58  C   UNL A   1      42.692  28.783  34.180  1.00  0.00     0.049 A 
ATOM     59  H   UNL A   1      41.299  29.330  32.693  1.00  0.00     0.167 HD
ATOM     60  C   UNL A   1      43.390  27.475  32.187  1.00  0.00     0.074 A 
ATOM     61  C   UNL A   1      44.246  26.522  31.510  1.00  0.00     0.031 C 
ATOM     62  C   UNL A   1      43.534  27.843  33.485  1.00  0.00     0.037 A 
BRANCH  49  63
ATOM     63  C   UNL A   1      39.355  31.972  35.420  1.00  0.00     0.064 A 
ATOM     64  C   UNL A   1      39.719  33.327  35.480  1.00  0.00     0.173 A 
ATOM     65  C   UNL A   1      38.505  31.480  36.421  1.00  0.00     0.173 A 
ATOM     66  F   UNL A   1      40.543  33.847  34.557  1.00  0.00    -0.203 F 
ATOM     67  C   UNL A   1      39.284  34.143  36.521  1.00  0.00     0.198 A 
ATOM     68  C   UNL A   1      38.044  32.307  37.442  1.00  0.00     0.198 A 
ATOM     69  F   UNL A   1      38.123  30.194  36.413  1.00  0.00    -0.203 F 
ATOM     70  F   UNL A   1      39.700  35.416  36.591  1.00  0.00    -0.200 F 
ATOM     71  C   UNL A   1      38.443  33.634  37.498  1.00  0.00     0.200 A 
ATOM     72  F   UNL A   1      37.222  31.817  38.381  1.00  0.00    -0.200 F 
ATOM     73  F   UNL A   1      38.025  34.420  38.500  1.00  0.00    -0.200 F 
ENDBRANCH  49  63
BRANCH  50  74
ATOM     74  C   UNL A   1      42.538  26.548  27.647  1.00  0.00     0.064 A 
ATOM     75  C   UNL A   1      43.502  27.077  26.777  1.00  0.00     0.173 A 
ATOM     76  C   UNL A   1      42.070  25.251  27.390  1.00  0.00     0.173 A 
ATOM     77  F   UNL A   1      43.969  28.319  26.972  1.00  0.00    -0.203 F 
ATOM     78  C   UNL A   1      43.965  26.348  25.684  1.00  0.00     0.198 A 
ATOM     79  C   UNL A   1      42.553  24.513  26.312  1.00  0.00     0.198 A 
ATOM     80  F   UNL A   1      41.155  24.696  28.199  1.00  0.00    -0.203 F 
ATOM     81  F   UNL A   1      44.856  26.895  24.846  1.00  0.00    -0.200 F 
ATOM     82  C   UNL A   1      43.495  25.063  25.456  1.00  0.00     0.200 A 
ATOM     83  F   UNL A   1      42.108  23.266  26.103  1.00  0.00    -0.200 F 
ATOM     84  F   UNL A   1      43.945  24.359  24.408  1.00  0.00    -0.200 F 
ENDBRANCH  50  74
BRANCH  62  85
ATOM     85  C   UNL A   1      44.648  27.198  34.254  1.00  0.00     0.064 A 
ATOM     86  C   UNL A   1      45.923  27.779  34.326  1.00  0.00     0.173 A 
ATOM     87  C   UNL A   1      44.433  25.993  34.940  1.00  0.00     0.173 A 
ATOM     88  F   UNL A   1      46.181  28.924  33.677  1.00  0.00    -0.203 F 
ATOM     89  C   UNL A   1      46.953  27.158  35.027  1.00  0.00     0.198 A 
ATOM     90  C   UNL A   1      45.457  25.391  35.665  1.00  0.00     0.198 A 
ATOM     91  F   UNL A   1      43.230  25.402  34.908  1.00  0.00    -0.203 F 
ATOM     92  F   UNL A   1      48.178  27.701  35.034  1.00  0.00    -0.200 F 
ATOM     93  C   UNL A   1      46.718  25.967  35.700  1.00  0.00     0.200 A 
ATOM     94  F   UNL A   1      45.225  24.248  36.325  1.00  0.00    -0.200 F 
ATOM     95  F   UNL A   1      47.711  25.370  36.372  1.00  0.00    -0.200 F 
ENDBRANCH  62  85
ENDBRANCH  36  37
ENDBRANCH  28  31
ENDBRANCH  26  27
ENDBRANCH  25  26
ENDBRANCH   1  25
TORSDOF 15
ENDMDL
MODEL 3
REMARK VINA RESULT:     -12.0      4.425      9.638
REMARK SMILES [NH3+]C[C@@]1([C@@H](O)C(=O)NCCCCNC(=O)c2ccc(-c3c4nc(c(-c5c(F)c(F)c(F)c(F)c5F)c5ccc([nH]5)c(-c5c(F)c(F)c(F)c(F)c5F)c5nc(c(-c6c(F)c(F)c(F)c(F)c6F)c6ccc3[nH]6)C=C5)C=C4)cc2)CCOc2ccccc21
REMARK SMILES IDX 10 1 9 2 8 3 6 4 7 5 4 7 3 8 79 9 87 10 80 11 82 12 86 13
REMARK SMILES IDX 81 14 83 15 85 16 84 17 2 18 1 19 5 23 11 25 12 26 13 27
REMARK SMILES IDX 14 28 15 30 16 31 17 32 78 33 18 34 77 35 19 36 20 37 21 38
REMARK SMILES IDX 71 39 22 40 76 41 70 42 72 43 23 44 75 45 69 46 68 47 24 49
REMARK SMILES IDX 56 50 36 51 55 52 37 53 40 54 54 55 73 56 38 57 39 58 53 60
REMARK SMILES IDX 74 61 41 62 25 63 26 64 34 65 27 66 28 67 32 68 35 69 29 70
REMARK SMILES IDX 30 71 33 72 31 73 57 74 58 75 66 76 59 77 60 78 64 79 67 80
REMARK SMILES IDX 61 81 62 82 65 83 63 84 42 85 43 86 51 87 44 88 45 89 49 90
REMARK SMILES IDX 52 91 46 92 47 93 50 94 48 95
REMARK H PARENT 8 6 1 20 1 21 1 22 5 24 13 29 72 48 40 59
REMARK Flexibility Score: inf
ROOT
ATOM      1  C   UNL A   1      36.357  22.902  23.498  1.00  0.00     0.023 C 
ENDROOT
BRANCH   1   2
ATOM      2  C   UNL A   1      34.981  23.488  23.196  1.00  0.00     0.116 C 
BRANCH   2   3
ATOM      3  N   UNL A   1      34.706  24.621  24.056  1.00  0.00    -0.354 N 
ATOM      4  C   UNL A   1      33.544  25.005  24.650  1.00  0.00     0.250 C 
ATOM      5  O   UNL A   1      33.560  26.069  25.279  1.00  0.00    -0.272 OA
ATOM      6  H   UNL A   1      35.479  25.202  24.239  1.00  0.00     0.163 HD
BRANCH   4   7
ATOM      7  C   UNL A   1      32.248  24.151  24.585  1.00  0.00     0.219 C 
BRANCH   7   8
ATOM      8  C   UNL A   1      32.116  23.013  25.669  1.00  0.00     0.086 C 
ATOM      9  C   UNL A   1      33.068  23.361  26.843  1.00  0.00     0.062 C 
ATOM     10  C   UNL A   1      32.598  21.645  25.124  1.00  0.00     0.009 A 
ATOM     11  C   UNL A   1      33.197  22.203  27.811  1.00  0.00     0.231 C 
ATOM     12  C   UNL A   1      33.332  20.769  25.943  1.00  0.00     0.123 A 
ATOM     13  C   UNL A   1      32.179  21.170  23.866  1.00  0.00     0.008 A 
ATOM     14  O   UNL A   1      33.789  21.067  27.198  1.00  0.00    -0.493 OA
ATOM     15  C   UNL A   1      33.645  19.479  25.510  1.00  0.00     0.047 A 
ATOM     16  C   UNL A   1      32.486  19.876  23.441  1.00  0.00     0.001 A 
ATOM     17  C   UNL A   1      33.215  19.028  24.266  1.00  0.00     0.004 A 
BRANCH   8  18
ATOM     18  C   UNL A   1      30.645  22.699  26.124  1.00  0.00     0.274 C 
BRANCH  18  19
ATOM     19  N   UNL A   1      29.906  23.709  26.876  1.00  0.00    -0.357 N 
ATOM     20  H   UNL A   1      29.704  23.356  27.812  1.00  0.00     0.344 HD
ATOM     21  H   UNL A   1      29.031  23.919  26.396  1.00  0.00     0.344 HD
ATOM     22  H   UNL A   1      30.467  24.559  26.947  1.00  0.00     0.344 HD
ENDBRANCH  18  19
ENDBRANCH   8  18
ENDBRANCH   7   8
BRANCH   7  23
ATOM     23  O   UNL A   1      31.092  24.985  24.473  1.00  0.00    -0.382 OA
ATOM     24  H   UNL A   1      31.033  25.338  23.572  1.00  0.00     0.211 HD
ENDBRANCH   7  23
ENDBRANCH   4   7
ENDBRANCH   2   3
ENDBRANCH   1   2
BRANCH   1  25
ATOM     25  C   UNL A   1      36.370  21.714  24.440  1.00  0.00     0.023 C 
BRANCH  25  26
ATOM     26  C   UNL A   1      37.211  21.908  25.687  1.00  0.00     0.116 C 
BRANCH  26  27
ATOM     27  N   UNL A   1      38.315  20.962  25.809  1.00  0.00    -0.352 N 
ATOM     28  C   UNL A   1      39.595  21.166  26.266  1.00  0.00     0.251 C 
ATOM     29  H   UNL A   1      38.113  20.042  25.521  1.00  0.00     0.163 HD
ATOM     30  O   UNL A   1      40.432  20.271  26.206  1.00  0.00    -0.269 OA
BRANCH  28  31
ATOM     31  C   UNL A   1      39.970  22.495  26.787  1.00  0.00     0.039 A 
ATOM     32  C   UNL A   1      40.959  22.587  27.768  1.00  0.00     0.014 A 
ATOM     33  C   UNL A   1      39.406  23.651  26.244  1.00  0.00     0.014 A 
ATOM     34  C   UNL A   1      41.448  23.842  28.131  1.00  0.00     0.010 A 
ATOM     35  C   UNL A   1      39.987  24.882  26.504  1.00  0.00     0.010 A 
ATOM     36  C   UNL A   1      41.004  24.995  27.461  1.00  0.00    -0.014 A 
BRANCH  36  37
ATOM     37  C   UNL A   1      41.592  26.327  27.753  1.00  0.00     0.031 A 
ATOM     38  C   UNL A   1      42.970  26.670  27.253  1.00  0.00     0.074 A 
ATOM     39  C   UNL A   1      40.915  27.198  28.526  1.00  0.00     0.049 A 
ATOM     40  N   UNL A   1      43.658  27.771  27.415  1.00  0.00    -0.248 NA
ATOM     41  C   UNL A   1      43.690  25.621  26.513  1.00  0.00     0.031 C 
ATOM     42  C   UNL A   1      39.621  26.941  29.161  1.00  0.00     0.029 A 
ATOM     43  N   UNL A   1      41.222  28.479  28.910  1.00  0.00    -0.354 N 
ATOM     44  C   UNL A   1      44.893  27.533  26.826  1.00  0.00     0.074 A 
ATOM     45  C   UNL A   1      44.890  26.162  26.370  1.00  0.00     0.031 C 
ATOM     46  C   UNL A   1      39.223  28.045  29.814  1.00  0.00     0.029 A 
ATOM     47  C   UNL A   1      40.243  29.077  29.664  1.00  0.00     0.049 A 
ATOM     48  H   UNL A   1      42.065  28.928  28.668  1.00  0.00     0.167 HD
ATOM     49  C   UNL A   1      45.924  28.391  26.644  1.00  0.00     0.037 A 
ATOM     50  C   UNL A   1      40.169  30.326  30.162  1.00  0.00     0.037 A 
ATOM     51  C   UNL A   1      45.899  29.769  27.053  1.00  0.00     0.049 A 
ATOM     52  C   UNL A   1      41.288  31.289  29.873  1.00  0.00     0.074 A 
ATOM     53  C   UNL A   1      46.848  30.753  26.838  1.00  0.00     0.029 A 
ATOM     54  N   UNL A   1      44.861  30.360  27.758  1.00  0.00    -0.354 N 
ATOM     55  N   UNL A   1      42.409  31.084  29.224  1.00  0.00    -0.248 NA
ATOM     56  C   UNL A   1      41.121  32.661  30.367  1.00  0.00     0.031 C 
ATOM     57  C   UNL A   1      46.400  31.931  27.447  1.00  0.00     0.029 A 
ATOM     58  C   UNL A   1      45.151  31.693  28.000  1.00  0.00     0.049 A 
ATOM     59  H   UNL A   1      44.039  29.901  28.046  1.00  0.00     0.167 HD
ATOM     60  C   UNL A   1      43.072  32.302  29.215  1.00  0.00     0.074 A 
ATOM     61  C   UNL A   1      42.214  33.247  29.901  1.00  0.00     0.031 C 
ATOM     62  C   UNL A   1      44.284  32.613  28.690  1.00  0.00     0.037 A 
BRANCH  49  63
ATOM     63  C   UNL A   1      47.152  27.860  25.961  1.00  0.00     0.064 A 
ATOM     64  C   UNL A   1      47.249  27.800  24.562  1.00  0.00     0.173 A 
ATOM     65  C   UNL A   1      48.247  27.410  26.712  1.00  0.00     0.173 A 
ATOM     66  F   UNL A   1      46.224  28.204  23.795  1.00  0.00    -0.203 F 
ATOM     67  C   UNL A   1      48.379  27.272  23.942  1.00  0.00     0.198 A 
ATOM     68  C   UNL A   1      49.389  26.914  26.088  1.00  0.00     0.198 A 
ATOM     69  F   UNL A   1      48.210  27.446  28.053  1.00  0.00    -0.203 F 
ATOM     70  F   UNL A   1      48.420  27.165  22.606  1.00  0.00    -0.200 F 
ATOM     71  C   UNL A   1      49.450  26.835  24.706  1.00  0.00     0.200 A 
ATOM     72  F   UNL A   1      50.429  26.501  26.827  1.00  0.00    -0.200 F 
ATOM     73  F   UNL A   1      50.537  26.327  24.108  1.00  0.00    -0.200 F 
ENDBRANCH  49  63
BRANCH  50  74
ATOM     74  C   UNL A   1      38.966  30.749  30.924  1.00  0.00     0.064 A 
ATOM     75  C   UNL A   1      38.926  30.643  32.321  1.00  0.00     0.173 A 
ATOM     76  C   UNL A   1      37.840  31.281  30.278  1.00  0.00     0.173 A 
ATOM     77  F   UNL A   1      39.971  30.126  32.983  1.00  0.00    -0.203 F 
ATOM     78  C   UNL A   1      37.800  31.036  33.042  1.00  0.00     0.198 A 
ATOM     79  C   UNL A   1      36.726  31.697  31.002  1.00  0.00     0.198 A 
ATOM     80  F   UNL A   1      37.833  31.412  28.943  1.00  0.00    -0.203 F 
ATOM     81  F   UNL A   1      37.774  30.886  34.374  1.00  0.00    -0.200 F 
ATOM     82  C   UNL A   1      36.703  31.569  32.382  1.00  0.00     0.200 A 
ATOM     83  F   UNL A   1      35.673  32.226  30.362  1.00  0.00    -0.200 F 
ATOM     84  F   UNL A   1      35.623  31.953  33.076  1.00  0.00    -0.200 F 
ENDBRANCH  50  74
BRANCH  62  85
ATOM     85  C   UNL A   1      44.738  34.036  28.826  1.00  0.00     0.064 A 
ATOM     86  C   UNL A   1      45.532  34.453  29.904  1.00  0.00     0.173 A 
ATOM     87  C   UNL A   1      44.388  34.989  27.857  1.00  0.00     0.173 A 
ATOM     88  F   UNL A   1      45.882  33.582  30.862  1.00  0.00    -0.203 F 
ATOM     89  C   UNL A   1      45.928  35.782  30.028  1.00  0.00     0.198 A 
ATOM     90  C   UNL A   1      44.812  36.310  27.968  1.00  0.00     0.198 A 
ATOM     91  F   UNL A   1      43.638  34.638  26.803  1.00  0.00    -0.203 F 
ATOM     92  F   UNL A   1      46.638  36.170  31.096  1.00  0.00    -0.200 F 
ATOM     93  C   UNL A   1      45.573  36.708  29.057  1.00  0.00     0.200 A 
ATOM     94  F   UNL A   1      44.480  37.199  27.023  1.00  0.00    -0.200 F 
ATOM     95  F   UNL A   1      45.954  37.986  29.179  1.00  0.00    -0.200 F 
ENDBRANCH  62  85
ENDBRANCH  36  37
ENDBRANCH  28  31
ENDBRANCH  26  27
ENDBRANCH  25  26
ENDBRANCH   1  25
TORSDOF 15
ENDMDL
