MODEL 1
REMARK VINA RESULT:     -12.1      0.000      0.000
REMARK SMILES CN(Cc1csc(Br)c1)c1cccc(F)c1C(=O)NCCCCNC(=O)c1ccc(-c2c3nc(c(-c4c(F)c(F)c(F)c(F)c4F)c4ccc([nH]4)c(-c4c(F)c(F)c(F)c(F)c4F)c4nc(c(-c5c(F)c(F)c(F)c(F)c5F)c5ccc2[nH]5)C=C4)C=C3)cc1
REMARK SMILES IDX 21 1 20 2 19 3 17 4 18 5 16 7 10 8 11 9 12 10 14 11 13 12
REMARK SMILES IDX 15 13 2 14 1 15 3 16 4 17 5 18 9 19 6 20 7 21 8 22 22 23
REMARK SMILES IDX 23 24 24 25 25 26 26 28 27 29 28 30 89 31 29 32 88 33 30 34
REMARK SMILES IDX 31 35 32 36 82 37 33 38 87 39 81 40 83 41 34 42 86 43 80 44
REMARK SMILES IDX 79 45 35 47 67 48 47 49 66 50 48 51 51 52 65 53 84 54 49 55
REMARK SMILES IDX 50 56 64 58 85 59 52 60 36 61 37 62 45 63 38 64 39 65 43 66
REMARK SMILES IDX 46 67 40 68 41 69 44 70 42 71 68 72 69 73 77 74 70 75 71 76
REMARK SMILES IDX 75 77 78 78 72 79 73 80 76 81 74 82 53 83 54 84 62 85 55 86
REMARK SMILES IDX 56 87 60 88 63 89 57 90 58 91 61 92 59 93
REMARK H PARENT 19 6 24 27 83 46 51 57
REMARK Flexibility Score: inf
ROOT
ATOM      1  C   UNL A   1      31.777  30.701  26.159  1.00  0.00     0.023 C 
ENDROOT
BRANCH   1   2
ATOM      2  C   UNL A   1      32.035  29.536  27.108  1.00  0.00     0.116 C 
BRANCH   2   3
ATOM      3  N   UNL A   1      31.999  28.269  26.422  1.00  0.00    -0.352 N 
ATOM      4  C   UNL A   1      33.190  27.746  25.963  1.00  0.00     0.256 C 
ATOM      5  O   UNL A   1      34.283  27.944  26.479  1.00  0.00    -0.269 OA
ATOM      6  H   UNL A   1      31.150  27.789  26.285  1.00  0.00     0.163 HD
BRANCH   4   7
ATOM      7  C   UNL A   1      33.101  27.134  24.632  1.00  0.00     0.098 A 
ATOM      8  C   UNL A   1      32.937  25.759  24.397  1.00  0.00     0.053 A 
ATOM      9  C   UNL A   1      33.149  25.336  23.067  1.00  0.00     0.027 A 
ATOM     10  C   UNL A   1      33.471  26.230  22.034  1.00  0.00     0.005 A 
ATOM     11  C   UNL A   1      33.398  28.031  23.593  1.00  0.00     0.138 A 
ATOM     12  C   UNL A   1      33.577  27.587  22.295  1.00  0.00     0.040 A 
ATOM     13  F   UNL A   1      33.534  29.344  23.835  1.00  0.00    -0.206 F 
BRANCH   8  14
ATOM     14  N   UNL A   1      32.556  24.843  25.377  1.00  0.00    -0.370 N 
ATOM     15  C   UNL A   1      31.166  24.793  25.811  1.00  0.00     0.144 C 
BRANCH  14  16
ATOM     16  C   UNL A   1      33.570  24.385  26.339  1.00  0.00     0.152 C 
BRANCH  16  17
ATOM     17  C   UNL A   1      34.542  23.323  25.893  1.00  0.00    -0.017 A 
ATOM     18  C   UNL A   1      34.163  22.111  25.333  1.00  0.00     0.071 A 
ATOM     19  C   UNL A   1      35.974  23.396  26.002  1.00  0.00     0.033 A 
ATOM     20  S   UNL A   1      35.494  21.075  25.029  1.00  0.00    -0.136 S 
ATOM     21  C   UNL A   1      36.582  22.230  25.613  1.00  0.00     0.070 A 
ATOM     22  Br  UNL A   1      38.426  21.934  25.735  1.00  0.00    -0.039 Br
ENDBRANCH  16  17
ENDBRANCH  14  16
ENDBRANCH   8  14
ENDBRANCH   4   7
ENDBRANCH   2   3
ENDBRANCH   1   2
BRANCH   1  23
ATOM     23  C   UNL A   1      31.434  32.005  26.869  1.00  0.00     0.023 C 
BRANCH  23  24
ATOM     24  C   UNL A   1      32.636  32.821  27.339  1.00  0.00     0.116 C 
BRANCH  24  25
ATOM     25  N   UNL A   1      32.316  34.208  27.641  1.00  0.00    -0.352 N 
ATOM     26  C   UNL A   1      32.924  35.056  28.535  1.00  0.00     0.251 C 
ATOM     27  H   UNL A   1      31.563  34.591  27.135  1.00  0.00     0.163 HD
ATOM     28  O   UNL A   1      32.477  36.175  28.745  1.00  0.00    -0.269 OA
BRANCH  26  29
ATOM     29  C   UNL A   1      34.107  34.581  29.279  1.00  0.00     0.039 A 
ATOM     30  C   UNL A   1      33.924  34.038  30.553  1.00  0.00     0.014 A 
ATOM     31  C   UNL A   1      35.379  34.631  28.702  1.00  0.00     0.014 A 
ATOM     32  C   UNL A   1      35.010  33.474  31.220  1.00  0.00     0.010 A 
ATOM     33  C   UNL A   1      36.447  34.011  29.341  1.00  0.00     0.010 A 
ATOM     34  C   UNL A   1      36.271  33.422  30.602  1.00  0.00    -0.014 A 
BRANCH  34  35
ATOM     35  C   UNL A   1      37.413  32.740  31.255  1.00  0.00     0.031 A 
ATOM     36  C   UNL A   1      38.078  31.575  30.580  1.00  0.00     0.074 A 
ATOM     37  C   UNL A   1      37.803  33.127  32.485  1.00  0.00     0.049 A 
ATOM     38  N   UNL A   1      39.035  30.802  31.023  1.00  0.00    -0.248 NA
ATOM     39  C   UNL A   1      37.587  31.215  29.239  1.00  0.00     0.031 C 
ATOM     40  C   UNL A   1      37.196  34.210  33.262  1.00  0.00     0.029 A 
ATOM     41  N   UNL A   1      38.793  32.646  33.304  1.00  0.00    -0.354 N 
ATOM     42  C   UNL A   1      39.248  29.859  30.028  1.00  0.00     0.074 A 
ATOM     43  C   UNL A   1      38.298  30.129  28.972  1.00  0.00     0.031 C 
ATOM     44  C   UNL A   1      37.837  34.321  34.436  1.00  0.00     0.029 A 
ATOM     45  C   UNL A   1      38.878  33.299  34.509  1.00  0.00     0.049 A 
ATOM     46  H   UNL A   1      39.389  31.903  33.051  1.00  0.00     0.167 HD
ATOM     47  C   UNL A   1      40.170  28.870  29.994  1.00  0.00     0.037 A 
ATOM     48  C   UNL A   1      39.696  33.090  35.559  1.00  0.00     0.037 A 
ATOM     49  C   UNL A   1      41.144  28.632  31.025  1.00  0.00     0.049 A 
ATOM     50  C   UNL A   1      40.731  32.002  35.478  1.00  0.00     0.074 A 
ATOM     51  C   UNL A   1      42.165  27.699  31.044  1.00  0.00     0.029 A 
ATOM     52  N   UNL A   1      41.221  29.339  32.214  1.00  0.00    -0.354 N 
ATOM     53  N   UNL A   1      40.964  31.156  34.503  1.00  0.00    -0.248 NA
ATOM     54  C   UNL A   1      41.622  31.840  36.636  1.00  0.00     0.031 C 
ATOM     55  C   UNL A   1      42.842  27.819  32.260  1.00  0.00     0.029 A 
ATOM     56  C   UNL A   1      42.267  28.853  32.981  1.00  0.00     0.049 A 
ATOM     57  H   UNL A   1      40.624  30.076  32.475  1.00  0.00     0.167 HD
ATOM     58  C   UNL A   1      42.035  30.379  34.920  1.00  0.00     0.074 A 
ATOM     59  C   UNL A   1      42.418  30.862  36.230  1.00  0.00     0.031 C 
ATOM     60  C   UNL A   1      42.643  29.356  34.276  1.00  0.00     0.037 A 
BRANCH  47  61
ATOM     61  C   UNL A   1      40.198  27.974  28.793  1.00  0.00     0.064 A 
ATOM     62  C   UNL A   1      39.565  26.722  28.824  1.00  0.00     0.173 A 
ATOM     63  C   UNL A   1      40.938  28.312  27.651  1.00  0.00     0.173 A 
ATOM     64  F   UNL A   1      38.850  26.352  29.898  1.00  0.00    -0.203 F 
ATOM     65  C   UNL A   1      39.689  25.833  27.761  1.00  0.00     0.198 A 
ATOM     66  C   UNL A   1      41.042  27.428  26.581  1.00  0.00     0.198 A 
ATOM     67  F   UNL A   1      41.554  29.501  27.573  1.00  0.00    -0.203 F 
ATOM     68  F   UNL A   1      39.107  24.628  27.826  1.00  0.00    -0.200 F 
ATOM     69  C   UNL A   1      40.428  26.186  26.641  1.00  0.00     0.200 A 
ATOM     70  F   UNL A   1      41.743  27.776  25.493  1.00  0.00    -0.200 F 
ATOM     71  F   UNL A   1      40.551  25.326  25.620  1.00  0.00    -0.200 F 
ENDBRANCH  47  61
BRANCH  48  72
ATOM     72  C   UNL A   1      39.586  33.949  36.766  1.00  0.00     0.064 A 
ATOM     73  C   UNL A   1      40.251  35.180  36.848  1.00  0.00     0.173 A 
ATOM     74  C   UNL A   1      38.812  33.550  37.865  1.00  0.00     0.173 A 
ATOM     75  F   UNL A   1      41.009  35.605  35.825  1.00  0.00    -0.203 F 
ATOM     76  C   UNL A   1      40.153  35.977  37.987  1.00  0.00     0.198 A 
ATOM     77  C   UNL A   1      38.694  34.359  38.993  1.00  0.00     0.198 A 
ATOM     78  F   UNL A   1      38.141  32.390  37.824  1.00  0.00    -0.203 F 
ATOM     79  F   UNL A   1      40.817  37.139  38.049  1.00  0.00    -0.200 F 
ATOM     80  C   UNL A   1      39.369  35.568  39.055  1.00  0.00     0.200 A 
ATOM     81  F   UNL A   1      37.915  33.973  40.012  1.00  0.00    -0.200 F 
ATOM     82  F   UNL A   1      39.258  36.344  40.143  1.00  0.00    -0.200 F 
ENDBRANCH  48  72
BRANCH  60  83
ATOM     83  C   UNL A   1      43.802  28.695  34.957  1.00  0.00     0.064 A 
ATOM     84  C   UNL A   1      43.591  27.620  35.834  1.00  0.00     0.173 A 
ATOM     85  C   UNL A   1      45.109  29.181  34.811  1.00  0.00     0.173 A 
ATOM     86  F   UNL A   1      42.356  27.126  36.012  1.00  0.00    -0.203 F 
ATOM     87  C   UNL A   1      44.645  27.065  36.553  1.00  0.00     0.198 A 
ATOM     88  C   UNL A   1      46.165  28.609  35.515  1.00  0.00     0.198 A 
ATOM     89  F   UNL A   1      45.360  30.199  33.975  1.00  0.00    -0.203 F 
ATOM     90  F   UNL A   1      44.416  26.062  37.411  1.00  0.00    -0.200 F 
ATOM     91  C   UNL A   1      45.931  27.560  36.392  1.00  0.00     0.200 A 
ATOM     92  F   UNL A   1      47.410  29.073  35.343  1.00  0.00    -0.200 F 
ATOM     93  F   UNL A   1      46.946  27.022  37.082  1.00  0.00    -0.200 F 
ENDBRANCH  60  83
ENDBRANCH  34  35
ENDBRANCH  26  29
ENDBRANCH  24  25
ENDBRANCH  23  24
ENDBRANCH   1  23
TORSDOF 14
ENDMDL
MODEL 2
REMARK VINA RESULT:     -12.1      0.439      7.313
REMARK SMILES CN(Cc1csc(Br)c1)c1cccc(F)c1C(=O)NCCCCNC(=O)c1ccc(-c2c3nc(c(-c4c(F)c(F)c(F)c(F)c4F)c4ccc([nH]4)c(-c4c(F)c(F)c(F)c(F)c4F)c4nc(c(-c5c(F)c(F)c(F)c(F)c5F)c5ccc2[nH]5)C=C4)C=C3)cc1
REMARK SMILES IDX 21 1 20 2 19 3 17 4 18 5 16 7 10 8 11 9 12 10 14 11 13 12
REMARK SMILES IDX 15 13 2 14 1 15 3 16 4 17 5 18 9 19 6 20 7 21 8 22 22 23
REMARK SMILES IDX 23 24 24 25 25 26 26 28 27 29 28 30 89 31 29 32 88 33 30 34
REMARK SMILES IDX 31 35 32 36 82 37 33 38 87 39 81 40 83 41 34 42 86 43 80 44
REMARK SMILES IDX 79 45 35 47 67 48 47 49 66 50 48 51 51 52 65 53 84 54 49 55
REMARK SMILES IDX 50 56 64 58 85 59 52 60 36 61 37 62 45 63 38 64 39 65 43 66
REMARK SMILES IDX 46 67 40 68 41 69 44 70 42 71 68 72 69 73 77 74 70 75 71 76
REMARK SMILES IDX 75 77 78 78 72 79 73 80 76 81 74 82 53 83 54 84 62 85 55 86
REMARK SMILES IDX 56 87 60 88 63 89 57 90 58 91 61 92 59 93
REMARK H PARENT 19 6 24 27 83 46 51 57
REMARK Flexibility Score: inf
ROOT
ATOM      1  C   UNL A   1      31.743  30.746  26.131  1.00  0.00     0.023 C 
ENDROOT
BRANCH   1   2
ATOM      2  C   UNL A   1      32.042  29.587  27.076  1.00  0.00     0.116 C 
BRANCH   2   3
ATOM      3  N   UNL A   1      31.974  28.315  26.402  1.00  0.00    -0.352 N 
ATOM      4  C   UNL A   1      33.154  27.743  25.976  1.00  0.00     0.256 C 
ATOM      5  O   UNL A   1      34.242  27.905  26.514  1.00  0.00    -0.269 OA
ATOM      6  H   UNL A   1      31.111  27.866  26.250  1.00  0.00     0.163 HD
BRANCH   4   7
ATOM      7  C   UNL A   1      33.073  27.121  24.649  1.00  0.00     0.098 A 
ATOM      8  C   UNL A   1      32.901  25.744  24.423  1.00  0.00     0.053 A 
ATOM      9  C   UNL A   1      33.121  25.309  23.099  1.00  0.00     0.027 A 
ATOM     10  C   UNL A   1      33.459  26.192  22.061  1.00  0.00     0.005 A 
ATOM     11  C   UNL A   1      33.386  28.006  23.605  1.00  0.00     0.138 A 
ATOM     12  C   UNL A   1      33.572  27.551  22.313  1.00  0.00     0.040 A 
ATOM     13  F   UNL A   1      33.528  29.321  23.838  1.00  0.00    -0.206 F 
BRANCH   8  14
ATOM     14  N   UNL A   1      32.505  24.840  25.408  1.00  0.00    -0.370 N 
ATOM     15  C   UNL A   1      31.117  24.824  25.851  1.00  0.00     0.144 C 
BRANCH  14  16
ATOM     16  C   UNL A   1      33.514  24.361  26.365  1.00  0.00     0.152 C 
BRANCH  16  17
ATOM     17  C   UNL A   1      34.462  23.279  25.913  1.00  0.00    -0.017 A 
ATOM     18  C   UNL A   1      34.055  22.057  25.398  1.00  0.00     0.071 A 
ATOM     19  C   UNL A   1      35.897  23.343  25.971  1.00  0.00     0.033 A 
ATOM     20  S   UNL A   1      35.366  21.002  25.075  1.00  0.00    -0.136 S 
ATOM     21  C   UNL A   1      36.482  22.162  25.591  1.00  0.00     0.070 A 
ATOM     22  Br  UNL A   1      38.327  21.853  25.658  1.00  0.00    -0.039 Br
ENDBRANCH  16  17
ENDBRANCH  14  16
ENDBRANCH   8  14
ENDBRANCH   4   7
ENDBRANCH   2   3
ENDBRANCH   1   2
BRANCH   1  23
ATOM     23  C   UNL A   1      31.457  32.061  26.845  1.00  0.00     0.023 C 
BRANCH  23  24
ATOM     24  C   UNL A   1      32.694  32.848  27.271  1.00  0.00     0.116 C 
BRANCH  24  25
ATOM     25  N   UNL A   1      32.403  34.215  27.675  1.00  0.00    -0.352 N 
ATOM     26  C   UNL A   1      33.014  34.975  28.643  1.00  0.00     0.251 C 
ATOM     27  H   UNL A   1      31.669  34.656  27.188  1.00  0.00     0.163 HD
ATOM     28  O   UNL A   1      32.592  36.085  28.932  1.00  0.00    -0.269 OA
BRANCH  26  29
ATOM     29  C   UNL A   1      34.172  34.412  29.367  1.00  0.00     0.039 A 
ATOM     30  C   UNL A   1      33.938  33.656  30.518  1.00  0.00     0.014 A 
ATOM     31  C   UNL A   1      35.471  34.594  28.886  1.00  0.00     0.014 A 
ATOM     32  C   UNL A   1      35.005  33.015  31.146  1.00  0.00     0.010 A 
ATOM     33  C   UNL A   1      36.524  33.903  29.476  1.00  0.00     0.010 A 
ATOM     34  C   UNL A   1      36.299  33.103  30.606  1.00  0.00    -0.014 A 
BRANCH  34  35
ATOM     35  C   UNL A   1      37.427  32.351  31.203  1.00  0.00     0.031 A 
ATOM     36  C   UNL A   1      37.932  32.714  32.570  1.00  0.00     0.074 A 
ATOM     37  C   UNL A   1      38.038  31.389  30.485  1.00  0.00     0.049 A 
ATOM     38  N   UNL A   1      38.954  32.228  33.227  1.00  0.00    -0.248 NA
ATOM     39  C   UNL A   1      37.210  33.779  33.285  1.00  0.00     0.031 C 
ATOM     40  C   UNL A   1      37.670  30.987  29.126  1.00  0.00     0.029 A 
ATOM     41  N   UNL A   1      39.106  30.583  30.791  1.00  0.00    -0.354 N 
ATOM     42  C   UNL A   1      39.007  32.937  34.418  1.00  0.00     0.074 A 
ATOM     43  C   UNL A   1      37.940  33.913  34.383  1.00  0.00     0.031 C 
ATOM     44  C   UNL A   1      38.487  30.001  28.723  1.00  0.00     0.029 A 
ATOM     45  C   UNL A   1      39.456  29.722  29.780  1.00  0.00     0.049 A 
ATOM     46  H   UNL A   1      39.577  30.618  31.656  1.00  0.00     0.167 HD
ATOM     47  C   UNL A   1      39.859  32.772  35.456  1.00  0.00     0.037 A 
ATOM     48  C   UNL A   1      40.450  28.817  29.710  1.00  0.00     0.037 A 
ATOM     49  C   UNL A   1      40.890  31.771  35.507  1.00  0.00     0.049 A 
ATOM     50  C   UNL A   1      41.363  28.636  30.892  1.00  0.00     0.074 A 
ATOM     51  C   UNL A   1      41.754  31.481  36.548  1.00  0.00     0.029 A 
ATOM     52  N   UNL A   1      41.188  30.893  34.477  1.00  0.00    -0.354 N 
ATOM     53  N   UNL A   1      41.362  29.270  32.039  1.00  0.00    -0.248 NA
ATOM     54  C   UNL A   1      42.410  27.610  30.776  1.00  0.00     0.031 C 
ATOM     55  C   UNL A   1      42.599  30.447  36.136  1.00  0.00     0.029 A 
ATOM     56  C   UNL A   1      42.234  30.068  34.854  1.00  0.00     0.049 A 
ATOM     57  H   UNL A   1      40.726  30.860  33.609  1.00  0.00     0.167 HD
ATOM     58  C   UNL A   1      42.389  28.710  32.786  1.00  0.00     0.074 A 
ATOM     59  C   UNL A   1      42.983  27.674  31.969  1.00  0.00     0.031 C 
ATOM     60  C   UNL A   1      42.802  29.030  34.034  1.00  0.00     0.037 A 
BRANCH  47  61
ATOM     61  C   UNL A   1      39.707  33.674  36.643  1.00  0.00     0.064 A 
ATOM     62  C   UNL A   1      38.876  33.308  37.712  1.00  0.00     0.173 A 
ATOM     63  C   UNL A   1      40.304  34.942  36.673  1.00  0.00     0.173 A 
ATOM     64  F   UNL A   1      38.279  32.107  37.725  1.00  0.00    -0.203 F 
ATOM     65  C   UNL A   1      38.632  34.191  38.760  1.00  0.00     0.198 A 
ATOM     66  C   UNL A   1      40.074  35.813  37.734  1.00  0.00     0.198 A 
ATOM     67  F   UNL A   1      41.113  35.332  35.676  1.00  0.00    -0.203 F 
ATOM     68  F   UNL A   1      37.805  33.837  39.754  1.00  0.00    -0.200 F 
ATOM     69  C   UNL A   1      39.230  35.442  38.770  1.00  0.00     0.200 A 
ATOM     70  F   UNL A   1      40.665  37.016  37.750  1.00  0.00    -0.200 F 
ATOM     71  F   UNL A   1      38.990  36.293  39.777  1.00  0.00    -0.200 F 
ENDBRANCH  47  61
BRANCH  48  72
ATOM     72  C   UNL A   1      40.619  27.995  28.484  1.00  0.00     0.064 A 
ATOM     73  C   UNL A   1      39.994  26.747  28.352  1.00  0.00     0.173 A 
ATOM     74  C   UNL A   1      41.413  28.444  27.420  1.00  0.00     0.173 A 
ATOM     75  F   UNL A   1      39.228  26.270  29.344  1.00  0.00    -0.203 F 
ATOM     76  C   UNL A   1      40.164  25.975  27.204  1.00  0.00     0.198 A 
ATOM     77  C   UNL A   1      41.561  27.683  26.262  1.00  0.00     0.198 A 
ATOM     78  F   UNL A   1      42.013  29.641  27.492  1.00  0.00    -0.203 F 
ATOM     79  F   UNL A   1      39.574  24.776  27.112  1.00  0.00    -0.200 F 
ATOM     80  C   UNL A   1      40.942  26.447  26.158  1.00  0.00     0.200 A 
ATOM     81  F   UNL A   1      42.293  28.154  25.243  1.00  0.00    -0.200 F 
ATOM     82  F   UNL A   1      41.089  25.714  25.046  1.00  0.00    -0.200 F 
ENDBRANCH  48  72
BRANCH  60  83
ATOM     83  C   UNL A   1      43.938  28.243  34.614  1.00  0.00     0.064 A 
ATOM     84  C   UNL A   1      43.688  27.075  35.351  1.00  0.00     0.173 A 
ATOM     85  C   UNL A   1      45.262  28.692  34.516  1.00  0.00     0.173 A 
ATOM     86  F   UNL A   1      42.436  26.612  35.479  1.00  0.00    -0.203 F 
ATOM     87  C   UNL A   1      44.723  26.394  35.983  1.00  0.00     0.198 A 
ATOM     88  C   UNL A   1      46.298  27.995  35.130  1.00  0.00     0.198 A 
ATOM     89  F   UNL A   1      45.549  29.797  33.812  1.00  0.00    -0.203 F 
ATOM     90  F   UNL A   1      44.459  25.300  36.710  1.00  0.00    -0.200 F 
ATOM     91  C   UNL A   1      46.027  26.854  35.871  1.00  0.00     0.200 A 
ATOM     92  F   UNL A   1      47.560  28.427  35.004  1.00  0.00    -0.200 F 
ATOM     93  F   UNL A   1      47.025  26.194  36.476  1.00  0.00    -0.200 F 
ENDBRANCH  60  83
ENDBRANCH  34  35
ENDBRANCH  26  29
ENDBRANCH  24  25
ENDBRANCH  23  24
ENDBRANCH   1  23
TORSDOF 14
ENDMDL
MODEL 3
REMARK VINA RESULT:     -11.9      2.246      7.857
REMARK SMILES CN(Cc1csc(Br)c1)c1cccc(F)c1C(=O)NCCCCNC(=O)c1ccc(-c2c3nc(c(-c4c(F)c(F)c(F)c(F)c4F)c4ccc([nH]4)c(-c4c(F)c(F)c(F)c(F)c4F)c4nc(c(-c5c(F)c(F)c(F)c(F)c5F)c5ccc2[nH]5)C=C4)C=C3)cc1
REMARK SMILES IDX 21 1 20 2 19 3 17 4 18 5 16 7 10 8 11 9 12 10 14 11 13 12
REMARK SMILES IDX 15 13 2 14 1 15 3 16 4 17 5 18 9 19 6 20 7 21 8 22 22 23
REMARK SMILES IDX 23 24 24 25 25 26 26 28 27 29 28 30 89 31 29 32 88 33 30 34
REMARK SMILES IDX 31 35 32 36 82 37 33 38 87 39 81 40 83 41 34 42 86 43 80 44
REMARK SMILES IDX 79 45 35 47 67 48 47 49 66 50 48 51 51 52 65 53 84 54 49 55
REMARK SMILES IDX 50 56 64 58 85 59 52 60 36 61 37 62 45 63 38 64 39 65 43 66
REMARK SMILES IDX 46 67 40 68 41 69 44 70 42 71 68 72 69 73 77 74 70 75 71 76
REMARK SMILES IDX 75 77 78 78 72 79 73 80 76 81 74 82 53 83 54 84 62 85 55 86
REMARK SMILES IDX 56 87 60 88 63 89 57 90 58 91 61 92 59 93
REMARK H PARENT 19 6 24 27 83 46 51 57
REMARK Flexibility Score: inf
ROOT
ATOM      1  C   UNL A   1      31.207  31.332  26.656  1.00  0.00     0.023 C 
ENDROOT
BRANCH   1   2
ATOM      2  C   UNL A   1      32.305  30.275  26.612  1.00  0.00     0.116 C 
BRANCH   2   3
ATOM      3  N   UNL A   1      31.882  29.092  25.905  1.00  0.00    -0.352 N 
ATOM      4  C   UNL A   1      31.774  27.916  26.615  1.00  0.00     0.256 C 
ATOM      5  O   UNL A   1      31.503  27.844  27.807  1.00  0.00    -0.269 OA
ATOM      6  H   UNL A   1      31.676  29.123  24.942  1.00  0.00     0.163 HD
BRANCH   4   7
ATOM      7  C   UNL A   1      32.272  26.737  25.898  1.00  0.00     0.098 A 
ATOM      8  C   UNL A   1      31.457  25.714  25.381  1.00  0.00     0.053 A 
ATOM      9  C   UNL A   1      32.129  24.543  24.973  1.00  0.00     0.027 A 
ATOM     10  C   UNL A   1      33.526  24.410  25.045  1.00  0.00     0.005 A 
ATOM     11  C   UNL A   1      33.670  26.612  25.945  1.00  0.00     0.138 A 
ATOM     12  C   UNL A   1      34.301  25.459  25.515  1.00  0.00     0.040 A 
ATOM     13  F   UNL A   1      34.433  27.607  26.426  1.00  0.00    -0.206 F 
BRANCH   8  14
ATOM     14  N   UNL A   1      30.075  25.824  25.232  1.00  0.00    -0.370 N 
ATOM     15  C   UNL A   1      29.196  25.200  26.212  1.00  0.00     0.144 C 
BRANCH  14  16
ATOM     16  C   UNL A   1      29.531  26.022  23.880  1.00  0.00     0.152 C 
BRANCH  16  17
ATOM     17  C   UNL A   1      29.523  27.420  23.315  1.00  0.00    -0.017 A 
ATOM     18  C   UNL A   1      30.556  27.956  22.559  1.00  0.00     0.071 A 
ATOM     19  C   UNL A   1      28.478  28.391  23.492  1.00  0.00     0.033 A 
ATOM     20  S   UNL A   1      30.297  29.600  22.153  1.00  0.00    -0.136 S 
ATOM     21  C   UNL A   1      28.807  29.608  22.953  1.00  0.00     0.070 A 
ATOM     22  Br  UNL A   1      27.730  31.132  23.103  1.00  0.00    -0.039 Br
ENDBRANCH  16  17
ENDBRANCH  14  16
ENDBRANCH   8  14
ENDBRANCH   4   7
ENDBRANCH   2   3
ENDBRANCH   1   2
BRANCH   1  23
ATOM     23  C   UNL A   1      31.720  32.756  26.480  1.00  0.00     0.023 C 
BRANCH  23  24
ATOM     24  C   UNL A   1      32.664  33.242  27.577  1.00  0.00     0.116 C 
BRANCH  24  25
ATOM     25  N   UNL A   1      32.448  34.630  27.958  1.00  0.00    -0.352 N 
ATOM     26  C   UNL A   1      33.125  35.382  28.889  1.00  0.00     0.251 C 
ATOM     27  H   UNL A   1      31.719  35.093  27.485  1.00  0.00     0.163 HD
ATOM     28  O   UNL A   1      32.762  36.516  29.165  1.00  0.00    -0.269 OA
BRANCH  26  29
ATOM     29  C   UNL A   1      34.279  34.783  29.588  1.00  0.00     0.039 A 
ATOM     30  C   UNL A   1      34.076  34.210  30.846  1.00  0.00     0.014 A 
ATOM     31  C   UNL A   1      35.539  34.749  28.984  1.00  0.00     0.014 A 
ATOM     32  C   UNL A   1      35.125  33.534  31.468  1.00  0.00     0.010 A 
ATOM     33  C   UNL A   1      36.564  34.020  29.577  1.00  0.00     0.010 A 
ATOM     34  C   UNL A   1      36.364  33.401  30.820  1.00  0.00    -0.014 A 
BRANCH  34  35
ATOM     35  C   UNL A   1      37.458  32.603  31.422  1.00  0.00     0.031 A 
ATOM     36  C   UNL A   1      37.969  32.943  32.792  1.00  0.00     0.074 A 
ATOM     37  C   UNL A   1      38.033  31.618  30.705  1.00  0.00     0.049 A 
ATOM     38  N   UNL A   1      38.966  32.415  33.454  1.00  0.00    -0.248 NA
ATOM     39  C   UNL A   1      37.286  34.035  33.505  1.00  0.00     0.031 C 
ATOM     40  C   UNL A   1      37.658  31.234  29.343  1.00  0.00     0.029 A 
ATOM     41  N   UNL A   1      39.067  30.770  31.015  1.00  0.00    -0.354 N 
ATOM     42  C   UNL A   1      39.041  33.120  34.647  1.00  0.00     0.074 A 
ATOM     43  C   UNL A   1      38.014  34.137  34.608  1.00  0.00     0.031 C 
ATOM     44  C   UNL A   1      38.437  30.217  28.942  1.00  0.00     0.029 A 
ATOM     45  C   UNL A   1      39.388  29.898  30.004  1.00  0.00     0.049 A 
ATOM     46  H   UNL A   1      39.534  30.784  31.883  1.00  0.00     0.167 HD
ATOM     47  C   UNL A   1      39.879  32.919  35.689  1.00  0.00     0.037 A 
ATOM     48  C   UNL A   1      40.346  28.954  29.938  1.00  0.00     0.037 A 
ATOM     49  C   UNL A   1      40.870  31.876  35.744  1.00  0.00     0.049 A 
ATOM     50  C   UNL A   1      41.243  28.734  31.125  1.00  0.00     0.074 A 
ATOM     51  C   UNL A   1      41.715  31.551  36.789  1.00  0.00     0.029 A 
ATOM     52  N   UNL A   1      41.138  30.989  34.714  1.00  0.00    -0.354 N 
ATOM     53  N   UNL A   1      41.262  29.366  32.273  1.00  0.00    -0.248 NA
ATOM     54  C   UNL A   1      42.249  27.667  31.013  1.00  0.00     0.031 C 
ATOM     55  C   UNL A   1      42.520  30.484  36.379  1.00  0.00     0.029 A 
ATOM     56  C   UNL A   1      42.148  30.122  35.095  1.00  0.00     0.049 A 
ATOM     57  H   UNL A   1      40.680  30.977  33.843  1.00  0.00     0.167 HD
ATOM     58  C   UNL A   1      42.261  28.764  33.025  1.00  0.00     0.074 A 
ATOM     59  C   UNL A   1      42.818  27.706  32.209  1.00  0.00     0.031 C 
ATOM     60  C   UNL A   1      42.679  29.065  34.276  1.00  0.00     0.037 A 
BRANCH  47  61
ATOM     61  C   UNL A   1      39.757  33.824  36.877  1.00  0.00     0.064 A 
ATOM     62  C   UNL A   1      38.929  33.475  37.954  1.00  0.00     0.173 A 
ATOM     63  C   UNL A   1      40.379  35.080  36.901  1.00  0.00     0.173 A 
ATOM     64  F   UNL A   1      38.308  32.285  37.973  1.00  0.00    -0.203 F 
ATOM     65  C   UNL A   1      38.713  34.362  39.005  1.00  0.00     0.198 A 
ATOM     66  C   UNL A   1      40.177  35.955  37.963  1.00  0.00     0.198 A 
ATOM     67  F   UNL A   1      41.186  35.453  35.896  1.00  0.00    -0.203 F 
ATOM     68  F   UNL A   1      37.889  34.024  40.006  1.00  0.00    -0.200 F 
ATOM     69  C   UNL A   1      39.336  35.601  39.008  1.00  0.00     0.200 A 
ATOM     70  F   UNL A   1      40.792  37.146  37.973  1.00  0.00    -0.200 F 
ATOM     71  F   UNL A   1      39.122  36.457  40.017  1.00  0.00    -0.200 F 
ENDBRANCH  47  61
BRANCH  48  72
ATOM     72  C   UNL A   1      40.489  28.128  28.711  1.00  0.00     0.064 A 
ATOM     73  C   UNL A   1      39.826  26.900  28.579  1.00  0.00     0.173 A 
ATOM     74  C   UNL A   1      41.295  28.554  27.647  1.00  0.00     0.173 A 
ATOM     75  F   UNL A   1      39.046  26.445  29.571  1.00  0.00    -0.203 F 
ATOM     76  C   UNL A   1      39.971  26.123  27.431  1.00  0.00     0.198 A 
ATOM     77  C   UNL A   1      41.420  27.789  26.489  1.00  0.00     0.198 A 
ATOM     78  F   UNL A   1      41.931  29.731  27.719  1.00  0.00    -0.203 F 
ATOM     79  F   UNL A   1      39.346  24.943  27.337  1.00  0.00    -0.200 F 
ATOM     80  C   UNL A   1      40.763  26.573  26.384  1.00  0.00     0.200 A 
ATOM     81  F   UNL A   1      42.164  28.239  25.469  1.00  0.00    -0.200 F 
ATOM     82  F   UNL A   1      40.887  25.836  25.271  1.00  0.00    -0.200 F 
ENDBRANCH  48  72
BRANCH  60  83
ATOM     83  C   UNL A   1      43.779  28.232  34.861  1.00  0.00     0.064 A 
ATOM     84  C   UNL A   1      43.479  27.075  35.596  1.00  0.00     0.173 A 
ATOM     85  C   UNL A   1      45.121  28.627  34.769  1.00  0.00     0.173 A 
ATOM     86  F   UNL A   1      42.208  26.663  35.718  1.00  0.00    -0.203 F 
ATOM     87  C   UNL A   1      44.482  26.352  36.232  1.00  0.00     0.198 A 
ATOM     88  C   UNL A   1      46.125  27.887  35.388  1.00  0.00     0.198 A 
ATOM     89  F   UNL A   1      45.456  29.719  34.067  1.00  0.00    -0.203 F 
ATOM     90  F   UNL A   1      44.171  25.269  36.958  1.00  0.00    -0.200 F 
ATOM     91  C   UNL A   1      45.805  26.758  36.126  1.00  0.00     0.200 A 
ATOM     92  F   UNL A   1      47.404  28.268  35.268  1.00  0.00    -0.200 F 
ATOM     93  F   UNL A   1      46.771  26.058  36.736  1.00  0.00    -0.200 F 
ENDBRANCH  60  83
ENDBRANCH  34  35
ENDBRANCH  26  29
ENDBRANCH  24  25
ENDBRANCH  23  24
ENDBRANCH   1  23
TORSDOF 14
ENDMDL
