MODEL 1
REMARK VINA RESULT:     -13.2      0.000      0.000
REMARK SMILES C=C(C)COc1ccc2nc(C)n(-c3cccc(C(=O)NCCCCNC(=O)c4ccc(-c5c6nc(c(-c7c(F)c(F)c(F)c(F)c7F)c7ccc([nH]7)c(-c7c(F)c(F)c(F)c(F)c7F)c7nc(c(-c8c(F)c(F)c(F)c(F)c8F)c8ccc5[nH]8)C=C7)C=C6)cc4)c3)c(=O)c2c1
REMARK SMILES IDX 22 1 21 2 19 3 20 4 18 6 14 7 15 8 92 9 16 10 17 11 13 12
REMARK SMILES IDX 6 13 7 14 96 15 8 16 95 17 9 18 93 19 10 20 94 21 11 22
REMARK SMILES IDX 12 23 5 24 4 25 2 26 1 27 3 28 23 29 24 30 25 31 26 32 27 33
REMARK SMILES IDX 28 35 29 36 30 37 91 38 31 39 90 40 32 41 33 42 34 43 84 44
REMARK SMILES IDX 35 45 89 46 83 47 85 48 36 49 88 50 82 51 81 52 37 54 69 55
REMARK SMILES IDX 49 56 68 57 50 58 53 59 67 60 86 61 51 62 52 63 66 65 87 66
REMARK SMILES IDX 54 67 38 68 39 69 47 70 40 71 41 72 45 73 48 74 42 75 43 76
REMARK SMILES IDX 46 77 44 78 70 79 71 80 79 81 72 82 73 83 77 84 80 85 74 86
REMARK SMILES IDX 75 87 78 88 76 89 55 90 56 91 64 92 57 93 58 94 62 95 65 96
REMARK SMILES IDX 59 97 60 98 63 99 61 100
REMARK H PARENT 21 5 26 34 85 53 53 64
REMARK Flexibility Score: inf
ROOT
ATOM      1  C   UNL A   1      36.188  21.761  25.755  1.00  0.00     0.116 C 
ENDROOT
BRANCH   1   2
ATOM      2  N   UNL A   1      35.207  20.686  25.805  1.00  0.00    -0.352 N 
ATOM      3  C   UNL A   1      33.984  20.548  25.177  1.00  0.00     0.251 C 
ATOM      4  O   UNL A   1      33.345  19.513  25.350  1.00  0.00    -0.269 OA
ATOM      5  H   UNL A   1      35.456  19.931  26.386  1.00  0.00     0.163 HD
BRANCH   3   6
ATOM      6  C   UNL A   1      33.384  21.651  24.377  1.00  0.00     0.041 A 
ATOM      7  C   UNL A   1      32.550  23.919  24.271  1.00  0.00     0.051 A 
ATOM      8  C   UNL A   1      31.818  23.590  23.125  1.00  0.00     0.027 A 
ATOM      9  C   UNL A   1      33.451  22.982  24.785  1.00  0.00     0.040 A 
ATOM     10  C   UNL A   1      31.890  22.303  22.587  1.00  0.00     0.003 A 
ATOM     11  C   UNL A   1      32.635  21.321  23.241  1.00  0.00     0.014 A 
BRANCH   7  12
ATOM     12  N   UNL A   1      32.241  25.075  25.065  1.00  0.00    -0.264 N 
ATOM     13  C   UNL A   1      33.239  29.522  26.759  1.00  0.00     0.120 A 
ATOM     14  C   UNL A   1      32.151  29.394  27.620  1.00  0.00     0.049 A 
ATOM     15  C   UNL A   1      33.546  28.503  25.859  1.00  0.00     0.062 A 
ATOM     16  C   UNL A   1      31.404  28.218  27.626  1.00  0.00     0.033 A 
ATOM     17  C   UNL A   1      32.779  27.330  25.866  1.00  0.00     0.070 A 
ATOM     18  C   UNL A   1      31.718  27.180  26.753  1.00  0.00     0.078 A 
ATOM     19  C   UNL A   1      33.072  26.203  24.957  1.00  0.00     0.266 A 
ATOM     20  N   UNL A   1      30.978  26.005  26.842  1.00  0.00    -0.234 NA
ATOM     21  O   UNL A   1      34.023  26.317  24.185  1.00  0.00    -0.268 OA
ATOM     22  C   UNL A   1      31.265  25.018  26.055  1.00  0.00     0.113 A 
ATOM     23  C   UNL A   1      30.509  23.734  26.345  1.00  0.00     0.088 C 
BRANCH  13  24
ATOM     24  O   UNL A   1      33.977  30.677  26.722  1.00  0.00    -0.489 OA
BRANCH  24  25
ATOM     25  C   UNL A   1      34.188  31.231  28.033  1.00  0.00     0.260 C 
BRANCH  25  26
ATOM     26  C   UNL A   1      34.477  32.718  28.000  1.00  0.00    -0.043 C 
ATOM     27  C   UNL A   1      33.507  33.650  28.002  1.00  0.00     0.011 C 
ATOM     28  C   UNL A   1      35.930  33.096  28.011  1.00  0.00     0.042 C 
ENDBRANCH  25  26
ENDBRANCH  24  25
ENDBRANCH  13  24
ENDBRANCH   7  12
ENDBRANCH   3   6
ENDBRANCH   1   2
BRANCH   1  29
ATOM     29  C   UNL A   1      37.351  21.550  24.796  1.00  0.00     0.023 C 
BRANCH  29  30
ATOM     30  C   UNL A   1      38.187  20.296  24.997  1.00  0.00     0.023 C 
BRANCH  30  31
ATOM     31  C   UNL A   1      39.456  20.459  25.823  1.00  0.00     0.116 C 
BRANCH  31  32
ATOM     32  N   UNL A   1      40.334  19.297  25.812  1.00  0.00    -0.352 N 
ATOM     33  C   UNL A   1      41.687  19.207  26.065  1.00  0.00     0.251 C 
ATOM     34  H   UNL A   1      39.895  18.445  25.589  1.00  0.00     0.163 HD
ATOM     35  O   UNL A   1      42.267  18.136  25.950  1.00  0.00    -0.269 OA
BRANCH  33  36
ATOM     36  C   UNL A   1      42.452  20.427  26.414  1.00  0.00     0.039 A 
ATOM     37  C   UNL A   1      42.516  20.880  27.730  1.00  0.00     0.014 A 
ATOM     38  C   UNL A   1      43.047  21.169  25.388  1.00  0.00     0.014 A 
ATOM     39  C   UNL A   1      42.953  22.175  27.986  1.00  0.00     0.010 A 
ATOM     40  C   UNL A   1      43.584  22.429  25.666  1.00  0.00     0.010 A 
ATOM     41  C   UNL A   1      43.469  22.976  26.953  1.00  0.00    -0.014 A 
BRANCH  41  42
ATOM     42  C   UNL A   1      43.829  24.390  27.241  1.00  0.00     0.031 A 
ATOM     43  C   UNL A   1      45.207  24.914  26.929  1.00  0.00     0.074 A 
ATOM     44  C   UNL A   1      42.885  25.231  27.707  1.00  0.00     0.049 A 
ATOM     45  N   UNL A   1      45.684  26.126  27.078  1.00  0.00    -0.248 NA
ATOM     46  C   UNL A   1      46.182  23.956  26.382  1.00  0.00     0.031 C 
ATOM     47  C   UNL A   1      41.511  24.851  28.035  1.00  0.00     0.029 A 
ATOM     48  N   UNL A   1      42.926  26.581  27.951  1.00  0.00    -0.354 N 
ATOM     49  C   UNL A   1      47.012  26.068  26.672  1.00  0.00     0.074 A 
ATOM     50  C   UNL A   1      47.277  24.697  26.293  1.00  0.00     0.031 C 
ATOM     51  C   UNL A   1      40.820  25.950  28.370  1.00  0.00     0.029 A 
ATOM     52  C   UNL A   1      41.718  27.101  28.344  1.00  0.00     0.049 A 
ATOM     53  H   UNL A   1      43.741  27.123  27.852  1.00  0.00     0.167 HD
ATOM     54  C   UNL A   1      47.924  27.068  26.610  1.00  0.00     0.037 A 
ATOM     55  C   UNL A   1      41.369  28.363  28.658  1.00  0.00     0.037 A 
ATOM     56  C   UNL A   1      47.650  28.441  26.945  1.00  0.00     0.049 A 
ATOM     57  C   UNL A   1      42.403  29.449  28.601  1.00  0.00     0.074 A 
ATOM     58  C   UNL A   1      48.500  29.532  26.875  1.00  0.00     0.029 A 
ATOM     59  N   UNL A   1      46.431  28.914  27.407  1.00  0.00    -0.354 N 
ATOM     60  N   UNL A   1      43.655  29.376  28.222  1.00  0.00    -0.248 NA
ATOM     61  C   UNL A   1      41.981  30.788  29.034  1.00  0.00     0.031 C 
ATOM     62  C   UNL A   1      47.807  30.658  27.331  1.00  0.00     0.029 A 
ATOM     63  C   UNL A   1      46.514  30.276  27.647  1.00  0.00     0.049 A 
ATOM     64  H   UNL A   1      45.626  28.364  27.543  1.00  0.00     0.167 HD
ATOM     65  C   UNL A   1      44.172  30.655  28.371  1.00  0.00     0.074 A 
ATOM     66  C   UNL A   1      43.091  31.491  28.850  1.00  0.00     0.031 C 
ATOM     67  C   UNL A   1      45.434  31.092  28.139  1.00  0.00     0.037 A 
BRANCH  54  68
ATOM     68  C   UNL A   1      49.316  26.722  26.169  1.00  0.00     0.064 A 
ATOM     69  C   UNL A   1      50.243  26.140  27.046  1.00  0.00     0.173 A 
ATOM     70  C   UNL A   1      49.705  26.915  24.834  1.00  0.00     0.173 A 
ATOM     71  F   UNL A   1      49.923  25.944  28.334  1.00  0.00    -0.203 F 
ATOM     72  C   UNL A   1      51.514  25.778  26.606  1.00  0.00     0.198 A 
ATOM     73  C   UNL A   1      50.969  26.531  24.393  1.00  0.00     0.198 A 
ATOM     74  F   UNL A   1      48.853  27.462  23.954  1.00  0.00    -0.203 F 
ATOM     75  F   UNL A   1      52.395  25.254  27.469  1.00  0.00    -0.200 F 
ATOM     76  C   UNL A   1      51.873  25.967  25.280  1.00  0.00     0.200 A 
ATOM     77  F   UNL A   1      51.310  26.703  23.108  1.00  0.00    -0.200 F 
ATOM     78  F   UNL A   1      53.093  25.608  24.857  1.00  0.00    -0.200 F 
ENDBRANCH  54  68
BRANCH  55  79
ATOM     79  C   UNL A   1      39.968  28.651  29.051  1.00  0.00     0.064 A 
ATOM     80  C   UNL A   1      39.034  29.096  28.106  1.00  0.00     0.173 A 
ATOM     81  C   UNL A   1      39.522  28.440  30.364  1.00  0.00     0.173 A 
ATOM     82  F   UNL A   1      39.419  29.331  26.843  1.00  0.00    -0.203 F 
ATOM     83  C   UNL A   1      37.704  29.315  28.460  1.00  0.00     0.198 A 
ATOM     84  C   UNL A   1      38.188  28.636  30.710  1.00  0.00     0.198 A 
ATOM     85  F   UNL A   1      40.379  28.012  31.301  1.00  0.00    -0.203 F 
ATOM     86  F   UNL A   1      36.834  29.760  27.543  1.00  0.00    -0.200 F 
ATOM     87  C   UNL A   1      37.280  29.075  29.758  1.00  0.00     0.200 A 
ATOM     88  F   UNL A   1      37.780  28.385  31.961  1.00  0.00    -0.200 F 
ATOM     89  F   UNL A   1      35.998  29.266  30.093  1.00  0.00    -0.200 F 
ENDBRANCH  55  79
BRANCH  67  90
ATOM     90  C   UNL A   1      45.721  32.537  28.411  1.00  0.00     0.064 A 
ATOM     91  C   UNL A   1      45.487  33.519  27.439  1.00  0.00     0.173 A 
ATOM     92  C   UNL A   1      46.176  32.950  29.672  1.00  0.00     0.173 A 
ATOM     93  F   UNL A   1      45.066  33.170  26.215  1.00  0.00    -0.203 F 
ATOM     94  C   UNL A   1      45.709  34.866  27.716  1.00  0.00     0.198 A 
ATOM     95  C   UNL A   1      46.375  34.299  29.953  1.00  0.00     0.198 A 
ATOM     96  F   UNL A   1      46.408  32.048  30.637  1.00  0.00    -0.203 F 
ATOM     97  F   UNL A   1      45.507  35.786  26.762  1.00  0.00    -0.200 F 
ATOM     98  C   UNL A   1      46.144  35.255  28.974  1.00  0.00     0.200 A 
ATOM     99  F   UNL A   1      46.785  34.676  31.172  1.00  0.00    -0.200 F 
ATOM    100  F   UNL A   1      46.346  36.552  29.242  1.00  0.00    -0.200 F 
ENDBRANCH  67  90
ENDBRANCH  41  42
ENDBRANCH  33  36
ENDBRANCH  31  32
ENDBRANCH  30  31
ENDBRANCH  29  30
ENDBRANCH   1  29
TORSDOF 15
ENDMDL
MODEL 2
REMARK VINA RESULT:     -13.1      0.431      7.122
REMARK SMILES C=C(C)COc1ccc2nc(C)n(-c3cccc(C(=O)NCCCCNC(=O)c4ccc(-c5c6nc(c(-c7c(F)c(F)c(F)c(F)c7F)c7ccc([nH]7)c(-c7c(F)c(F)c(F)c(F)c7F)c7nc(c(-c8c(F)c(F)c(F)c(F)c8F)c8ccc5[nH]8)C=C7)C=C6)cc4)c3)c(=O)c2c1
REMARK SMILES IDX 22 1 21 2 19 3 20 4 18 6 14 7 15 8 92 9 16 10 17 11 13 12
REMARK SMILES IDX 6 13 7 14 96 15 8 16 95 17 9 18 93 19 10 20 94 21 11 22
REMARK SMILES IDX 12 23 5 24 4 25 2 26 1 27 3 28 23 29 24 30 25 31 26 32 27 33
REMARK SMILES IDX 28 35 29 36 30 37 91 38 31 39 90 40 32 41 33 42 34 43 84 44
REMARK SMILES IDX 35 45 89 46 83 47 85 48 36 49 88 50 82 51 81 52 37 54 69 55
REMARK SMILES IDX 49 56 68 57 50 58 53 59 67 60 86 61 51 62 52 63 66 65 87 66
REMARK SMILES IDX 54 67 38 68 39 69 47 70 40 71 41 72 45 73 48 74 42 75 43 76
REMARK SMILES IDX 46 77 44 78 70 79 71 80 79 81 72 82 73 83 77 84 80 85 74 86
REMARK SMILES IDX 75 87 78 88 76 89 55 90 56 91 64 92 57 93 58 94 62 95 65 96
REMARK SMILES IDX 59 97 60 98 63 99 61 100
REMARK H PARENT 21 5 26 34 85 53 53 64
REMARK Flexibility Score: inf
ROOT
ATOM      1  C   UNL A   1      36.202  21.793  25.689  1.00  0.00     0.116 C 
ENDROOT
BRANCH   1   2
ATOM      2  N   UNL A   1      35.250  20.695  25.770  1.00  0.00    -0.352 N 
ATOM      3  C   UNL A   1      34.020  20.519  25.167  1.00  0.00     0.251 C 
ATOM      4  O   UNL A   1      33.410  19.470  25.364  1.00  0.00    -0.269 OA
ATOM      5  H   UNL A   1      35.529  19.953  26.355  1.00  0.00     0.163 HD
BRANCH   3   6
ATOM      6  C   UNL A   1      33.377  21.597  24.366  1.00  0.00     0.041 A 
ATOM      7  C   UNL A   1      32.496  23.846  24.246  1.00  0.00     0.051 A 
ATOM      8  C   UNL A   1      31.741  23.484  23.125  1.00  0.00     0.027 A 
ATOM      9  C   UNL A   1      33.429  22.935  24.751  1.00  0.00     0.040 A 
ATOM     10  C   UNL A   1      31.824  22.190  22.605  1.00  0.00     0.003 A 
ATOM     11  C   UNL A   1      32.606  21.234  23.256  1.00  0.00     0.014 A 
BRANCH   7  12
ATOM     12  N   UNL A   1      32.186  25.009  25.029  1.00  0.00    -0.264 N 
ATOM     13  C   UNL A   1      33.160  29.486  26.657  1.00  0.00     0.120 A 
ATOM     14  C   UNL A   1      32.083  29.357  27.533  1.00  0.00     0.049 A 
ATOM     15  C   UNL A   1      33.466  28.459  25.766  1.00  0.00     0.062 A 
ATOM     16  C   UNL A   1      31.348  28.175  27.562  1.00  0.00     0.033 A 
ATOM     17  C   UNL A   1      32.710  27.278  25.797  1.00  0.00     0.070 A 
ATOM     18  C   UNL A   1      31.662  27.129  26.698  1.00  0.00     0.078 A 
ATOM     19  C   UNL A   1      33.004  26.144  24.898  1.00  0.00     0.266 A 
ATOM     20  N   UNL A   1      30.934  25.949  26.810  1.00  0.00    -0.234 NA
ATOM     21  O   UNL A   1      33.945  26.257  24.113  1.00  0.00    -0.268 OA
ATOM     22  C   UNL A   1      31.222  24.954  26.032  1.00  0.00     0.113 A 
ATOM     23  C   UNL A   1      30.481  23.667  26.346  1.00  0.00     0.088 C 
BRANCH  13  24
ATOM     24  O   UNL A   1      33.886  30.647  26.598  1.00  0.00    -0.489 OA
BRANCH  24  25
ATOM     25  C   UNL A   1      34.320  31.086  27.898  1.00  0.00     0.260 C 
BRANCH  25  26
ATOM     26  C   UNL A   1      34.507  32.587  27.976  1.00  0.00    -0.043 C 
ATOM     27  C   UNL A   1      33.478  33.452  27.972  1.00  0.00     0.011 C 
ATOM     28  C   UNL A   1      35.928  33.057  28.105  1.00  0.00     0.042 C 
ENDBRANCH  25  26
ENDBRANCH  24  25
ENDBRANCH  13  24
ENDBRANCH   7  12
ENDBRANCH   3   6
ENDBRANCH   1   2
BRANCH   1  29
ATOM     29  C   UNL A   1      37.457  21.521  24.871  1.00  0.00     0.023 C 
BRANCH  29  30
ATOM     30  C   UNL A   1      38.241  20.264  25.215  1.00  0.00     0.023 C 
BRANCH  30  31
ATOM     31  C   UNL A   1      39.556  20.473  25.953  1.00  0.00     0.116 C 
BRANCH  31  32
ATOM     32  N   UNL A   1      40.434  19.311  25.959  1.00  0.00    -0.352 N 
ATOM     33  C   UNL A   1      41.797  19.231  26.156  1.00  0.00     0.251 C 
ATOM     34  H   UNL A   1      39.986  18.450  25.797  1.00  0.00     0.163 HD
ATOM     35  O   UNL A   1      42.373  18.155  26.067  1.00  0.00    -0.269 OA
BRANCH  33  36
ATOM     36  C   UNL A   1      42.575  20.466  26.411  1.00  0.00     0.039 A 
ATOM     37  C   UNL A   1      42.608  21.042  27.680  1.00  0.00     0.014 A 
ATOM     38  C   UNL A   1      43.218  21.095  25.340  1.00  0.00     0.014 A 
ATOM     39  C   UNL A   1      43.063  22.347  27.826  1.00  0.00     0.010 A 
ATOM     40  C   UNL A   1      43.771  22.367  25.514  1.00  0.00     0.010 A 
ATOM     41  C   UNL A   1      43.627  23.037  26.739  1.00  0.00    -0.014 A 
BRANCH  41  42
ATOM     42  C   UNL A   1      44.007  24.466  26.903  1.00  0.00     0.031 A 
ATOM     43  C   UNL A   1      43.014  25.473  27.423  1.00  0.00     0.074 A 
ATOM     44  C   UNL A   1      45.277  24.843  26.661  1.00  0.00     0.049 A 
ATOM     45  N   UNL A   1      43.182  26.750  27.665  1.00  0.00    -0.248 NA
ATOM     46  C   UNL A   1      41.653  24.990  27.708  1.00  0.00     0.031 C 
ATOM     47  C   UNL A   1      46.335  23.962  26.168  1.00  0.00     0.029 A 
ATOM     48  N   UNL A   1      45.902  26.053  26.832  1.00  0.00    -0.354 N 
ATOM     49  C   UNL A   1      41.950  27.224  28.100  1.00  0.00     0.074 A 
ATOM     50  C   UNL A   1      41.034  26.105  28.068  1.00  0.00     0.031 C 
ATOM     51  C   UNL A   1      47.492  24.639  26.142  1.00  0.00     0.029 A 
ATOM     52  C   UNL A   1      47.245  26.018  26.552  1.00  0.00     0.049 A 
ATOM     53  H   UNL A   1      45.433  26.867  27.127  1.00  0.00     0.167 HD
ATOM     54  C   UNL A   1      41.616  28.474  28.501  1.00  0.00     0.037 A 
ATOM     55  C   UNL A   1      48.177  26.988  26.611  1.00  0.00     0.037 A 
ATOM     56  C   UNL A   1      42.536  29.578  28.576  1.00  0.00     0.049 A 
ATOM     57  C   UNL A   1      47.777  28.369  27.039  1.00  0.00     0.074 A 
ATOM     58  C   UNL A   1      42.298  30.871  29.009  1.00  0.00     0.029 A 
ATOM     59  N   UNL A   1      43.875  29.517  28.216  1.00  0.00    -0.354 N 
ATOM     60  N   UNL A   1      46.607  28.802  27.440  1.00  0.00    -0.248 NA
ATOM     61  C   UNL A   1      48.822  29.402  27.003  1.00  0.00     0.031 C 
ATOM     62  C   UNL A   1      43.483  31.604  28.874  1.00  0.00     0.029 A 
ATOM     63  C   UNL A   1      44.468  30.756  28.396  1.00  0.00     0.049 A 
ATOM     64  H   UNL A   1      44.335  28.713  27.884  1.00  0.00     0.167 HD
ATOM     65  C   UNL A   1      46.772  30.154  27.703  1.00  0.00     0.074 A 
ATOM     66  C   UNL A   1      48.162  30.465  27.442  1.00  0.00     0.031 C 
ATOM     67  C   UNL A   1      45.848  31.055  28.116  1.00  0.00     0.037 A 
BRANCH  54  68
ATOM     68  C   UNL A   1      40.188  28.728  28.887  1.00  0.00     0.064 A 
ATOM     69  C   UNL A   1      39.235  29.148  27.948  1.00  0.00     0.173 A 
ATOM     70  C   UNL A   1      39.756  28.487  30.200  1.00  0.00     0.173 A 
ATOM     71  F   UNL A   1      39.601  29.402  26.682  1.00  0.00    -0.203 F 
ATOM     72  C   UNL A   1      37.903  29.331  28.312  1.00  0.00     0.198 A 
ATOM     73  C   UNL A   1      38.419  28.649  30.556  1.00  0.00     0.198 A 
ATOM     74  F   UNL A   1      40.627  28.078  31.135  1.00  0.00    -0.203 F 
ATOM     75  F   UNL A   1      37.016  29.763  27.406  1.00  0.00    -0.200 F 
ATOM     76  C   UNL A   1      37.495  29.074  29.613  1.00  0.00     0.200 A 
ATOM     77  F   UNL A   1      38.024  28.388  31.810  1.00  0.00    -0.200 F 
ATOM     78  F   UNL A   1      36.211  29.239  29.959  1.00  0.00    -0.200 F 
ENDBRANCH  54  68
BRANCH  55  79
ATOM     79  C   UNL A   1      49.581  26.667  26.253  1.00  0.00     0.064 A 
ATOM     80  C   UNL A   1      50.036  26.806  24.935  1.00  0.00     0.173 A 
ATOM     81  C   UNL A   1      50.506  26.266  27.227  1.00  0.00     0.173 A 
ATOM     82  F   UNL A   1      49.183  27.168  23.966  1.00  0.00    -0.203 F 
ATOM     83  C   UNL A   1      51.368  26.558  24.606  1.00  0.00     0.198 A 
ATOM     84  C   UNL A   1      51.841  26.042  26.902  1.00  0.00     0.198 A 
ATOM     85  F   UNL A   1      50.117  26.122  28.502  1.00  0.00    -0.203 F 
ATOM     86  F   UNL A   1      51.775  26.678  23.336  1.00  0.00    -0.200 F 
ATOM     87  C   UNL A   1      52.271  26.187  25.592  1.00  0.00     0.200 A 
ATOM     88  F   UNL A   1      52.714  25.701  27.860  1.00  0.00    -0.200 F 
ATOM     89  F   UNL A   1      53.555  25.969  25.279  1.00  0.00    -0.200 F 
ENDBRANCH  55  79
BRANCH  67  90
ATOM     90  C   UNL A   1      46.305  32.471  28.300  1.00  0.00     0.064 A 
ATOM     91  C   UNL A   1      46.862  32.902  29.511  1.00  0.00     0.173 A 
ATOM     92  C   UNL A   1      46.241  33.386  27.239  1.00  0.00     0.173 A 
ATOM     93  F   UNL A   1      46.930  32.066  30.558  1.00  0.00    -0.203 F 
ATOM     94  C   UNL A   1      47.330  34.206  29.659  1.00  0.00     0.198 A 
ATOM     95  C   UNL A   1      46.731  34.681  27.382  1.00  0.00     0.198 A 
ATOM     96  F   UNL A   1      45.723  33.019  26.058  1.00  0.00    -0.203 F 
ATOM     97  F   UNL A   1      47.833  34.605  30.835  1.00  0.00    -0.200 F 
ATOM     98  C   UNL A   1      47.272  35.091  28.593  1.00  0.00     0.200 A 
ATOM     99  F   UNL A   1      46.685  35.533  26.349  1.00  0.00    -0.200 F 
ATOM    100  F   UNL A   1      47.734  36.340  28.733  1.00  0.00    -0.200 F 
ENDBRANCH  67  90
ENDBRANCH  41  42
ENDBRANCH  33  36
ENDBRANCH  31  32
ENDBRANCH  30  31
ENDBRANCH  29  30
ENDBRANCH   1  29
TORSDOF 15
ENDMDL
MODEL 3
REMARK VINA RESULT:     -13.1      1.930      7.400
REMARK SMILES C=C(C)COc1ccc2nc(C)n(-c3cccc(C(=O)NCCCCNC(=O)c4ccc(-c5c6nc(c(-c7c(F)c(F)c(F)c(F)c7F)c7ccc([nH]7)c(-c7c(F)c(F)c(F)c(F)c7F)c7nc(c(-c8c(F)c(F)c(F)c(F)c8F)c8ccc5[nH]8)C=C7)C=C6)cc4)c3)c(=O)c2c1
REMARK SMILES IDX 22 1 21 2 19 3 20 4 18 6 14 7 15 8 92 9 16 10 17 11 13 12
REMARK SMILES IDX 6 13 7 14 96 15 8 16 95 17 9 18 93 19 10 20 94 21 11 22
REMARK SMILES IDX 12 23 5 24 4 25 2 26 1 27 3 28 23 29 24 30 25 31 26 32 27 33
REMARK SMILES IDX 28 35 29 36 30 37 91 38 31 39 90 40 32 41 33 42 34 43 84 44
REMARK SMILES IDX 35 45 89 46 83 47 85 48 36 49 88 50 82 51 81 52 37 54 69 55
REMARK SMILES IDX 49 56 68 57 50 58 53 59 67 60 86 61 51 62 52 63 66 65 87 66
REMARK SMILES IDX 54 67 38 68 39 69 47 70 40 71 41 72 45 73 48 74 42 75 43 76
REMARK SMILES IDX 46 77 44 78 70 79 71 80 79 81 72 82 73 83 77 84 80 85 74 86
REMARK SMILES IDX 75 87 78 88 76 89 55 90 56 91 64 92 57 93 58 94 62 95 65 96
REMARK SMILES IDX 59 97 60 98 63 99 61 100
REMARK H PARENT 21 5 26 34 85 53 53 64
REMARK Flexibility Score: inf
ROOT
ATOM      1  C   UNL A   1      35.988  20.552  24.946  1.00  0.00     0.116 C 
ENDROOT
BRANCH   1   2
ATOM      2  N   UNL A   1      34.781  19.752  24.798  1.00  0.00    -0.352 N 
ATOM      3  C   UNL A   1      33.474  20.014  25.161  1.00  0.00     0.251 C 
ATOM      4  O   UNL A   1      32.608  19.183  24.891  1.00  0.00    -0.269 OA
ATOM      5  H   UNL A   1      34.919  18.877  24.369  1.00  0.00     0.163 HD
BRANCH   3   6
ATOM      6  C   UNL A   1      33.104  21.223  25.947  1.00  0.00     0.041 A 
ATOM      7  C   UNL A   1      32.478  23.558  25.987  1.00  0.00     0.051 A 
ATOM      8  C   UNL A   1      32.898  23.642  27.319  1.00  0.00     0.027 A 
ATOM      9  C   UNL A   1      32.438  22.303  25.373  1.00  0.00     0.040 A 
ATOM     10  C   UNL A   1      33.393  22.513  27.976  1.00  0.00     0.003 A 
ATOM     11  C   UNL A   1      33.541  21.315  27.274  1.00  0.00     0.014 A 
BRANCH   7  12
ATOM     12  N   UNL A   1      32.315  24.725  25.167  1.00  0.00    -0.264 N 
ATOM     13  C   UNL A   1      29.581  28.110  22.995  1.00  0.00     0.120 A 
ATOM     14  C   UNL A   1      30.726  28.551  22.333  1.00  0.00     0.049 A 
ATOM     15  C   UNL A   1      29.660  27.062  23.911  1.00  0.00     0.062 A 
ATOM     16  C   UNL A   1      31.941  27.902  22.538  1.00  0.00     0.033 A 
ATOM     17  C   UNL A   1      30.892  26.425  24.117  1.00  0.00     0.070 A 
ATOM     18  C   UNL A   1      32.028  26.833  23.427  1.00  0.00     0.078 A 
ATOM     19  C   UNL A   1      31.033  25.290  25.052  1.00  0.00     0.266 A 
ATOM     20  N   UNL A   1      33.251  26.183  23.549  1.00  0.00    -0.234 NA
ATOM     21  O   UNL A   1      30.029  24.906  25.650  1.00  0.00    -0.268 OA
ATOM     22  C   UNL A   1      33.351  25.173  24.354  1.00  0.00     0.113 A 
ATOM     23  C   UNL A   1      34.679  24.439  24.289  1.00  0.00     0.088 C 
BRANCH  13  24
ATOM     24  O   UNL A   1      28.379  28.744  22.824  1.00  0.00    -0.489 OA
BRANCH  24  25
ATOM     25  C   UNL A   1      28.488  29.898  21.970  1.00  0.00     0.260 C 
BRANCH  25  26
ATOM     26  C   UNL A   1      28.124  31.187  22.679  1.00  0.00    -0.043 C 
ATOM     27  C   UNL A   1      27.349  31.222  23.777  1.00  0.00     0.011 C 
ATOM     28  C   UNL A   1      28.726  32.436  22.101  1.00  0.00     0.042 C 
ENDBRANCH  25  26
ENDBRANCH  24  25
ENDBRANCH  13  24
ENDBRANCH   7  12
ENDBRANCH   3   6
ENDBRANCH   1   2
BRANCH   1  29
ATOM     29  C   UNL A   1      37.298  19.776  24.959  1.00  0.00     0.023 C 
BRANCH  29  30
ATOM     30  C   UNL A   1      38.579  20.593  25.003  1.00  0.00     0.023 C 
BRANCH  30  31
ATOM     31  C   UNL A   1      39.496  20.341  26.191  1.00  0.00     0.116 C 
BRANCH  31  32
ATOM     32  N   UNL A   1      40.405  19.215  26.020  1.00  0.00    -0.352 N 
ATOM     33  C   UNL A   1      41.784  19.173  26.071  1.00  0.00     0.251 C 
ATOM     34  H   UNL A   1      39.970  18.351  25.841  1.00  0.00     0.163 HD
ATOM     35  O   UNL A   1      42.379  18.129  25.844  1.00  0.00    -0.269 OA
BRANCH  33  36
ATOM     36  C   UNL A   1      42.546  20.416  26.336  1.00  0.00     0.039 A 
ATOM     37  C   UNL A   1      42.603  20.960  27.618  1.00  0.00     0.014 A 
ATOM     38  C   UNL A   1      43.148  21.083  25.264  1.00  0.00     0.014 A 
ATOM     39  C   UNL A   1      43.038  22.270  27.784  1.00  0.00     0.010 A 
ATOM     40  C   UNL A   1      43.683  22.360  25.456  1.00  0.00     0.010 A 
ATOM     41  C   UNL A   1      43.560  22.997  26.701  1.00  0.00    -0.014 A 
BRANCH  41  42
ATOM     42  C   UNL A   1      43.919  24.428  26.890  1.00  0.00     0.031 A 
ATOM     43  C   UNL A   1      42.904  25.415  27.409  1.00  0.00     0.074 A 
ATOM     44  C   UNL A   1      45.187  24.825  26.674  1.00  0.00     0.049 A 
ATOM     45  N   UNL A   1      43.052  26.691  27.671  1.00  0.00    -0.248 NA
ATOM     46  C   UNL A   1      41.546  24.910  27.666  1.00  0.00     0.031 C 
ATOM     47  C   UNL A   1      46.265  23.965  26.186  1.00  0.00     0.029 A 
ATOM     48  N   UNL A   1      45.793  26.040  26.872  1.00  0.00    -0.354 N 
ATOM     49  C   UNL A   1      41.807  27.142  28.093  1.00  0.00     0.074 A 
ATOM     50  C   UNL A   1      40.906  26.012  28.031  1.00  0.00     0.031 C 
ATOM     51  C   UNL A   1      47.413  24.657  26.187  1.00  0.00     0.029 A 
ATOM     52  C   UNL A   1      47.141  26.027  26.613  1.00  0.00     0.049 A 
ATOM     53  H   UNL A   1      45.309  26.844  27.171  1.00  0.00     0.167 HD
ATOM     54  C   UNL A   1      41.450  28.382  28.507  1.00  0.00     0.037 A 
ATOM     55  C   UNL A   1      48.059  27.008  26.700  1.00  0.00     0.037 A 
ATOM     56  C   UNL A   1      42.355  29.497  28.611  1.00  0.00     0.049 A 
ATOM     57  C   UNL A   1      47.634  28.378  27.140  1.00  0.00     0.074 A 
ATOM     58  C   UNL A   1      42.093  30.781  29.058  1.00  0.00     0.029 A 
ATOM     59  N   UNL A   1      43.699  29.458  28.272  1.00  0.00    -0.354 N 
ATOM     60  N   UNL A   1      46.453  28.789  27.529  1.00  0.00    -0.248 NA
ATOM     61  C   UNL A   1      48.666  29.424  27.136  1.00  0.00     0.031 C 
ATOM     62  C   UNL A   1      43.269  31.530  28.953  1.00  0.00     0.029 A 
ATOM     63  C   UNL A   1      44.273  30.702  28.478  1.00  0.00     0.049 A 
ATOM     64  H   UNL A   1      44.175  28.665  27.936  1.00  0.00     0.167 HD
ATOM     65  C   UNL A   1      46.595  30.139  27.814  1.00  0.00     0.074 A 
ATOM     66  C   UNL A   1      47.985  30.472  27.579  1.00  0.00     0.031 C 
ATOM     67  C   UNL A   1      45.654  31.023  28.225  1.00  0.00     0.037 A 
BRANCH  54  68
ATOM     68  C   UNL A   1      40.014  28.613  28.874  1.00  0.00     0.064 A 
ATOM     69  C   UNL A   1      39.542  28.395  30.177  1.00  0.00     0.173 A 
ATOM     70  C   UNL A   1      39.113  29.121  27.925  1.00  0.00     0.173 A 
ATOM     71  F   UNL A   1      40.362  27.900  31.117  1.00  0.00    -0.203 F 
ATOM     72  C   UNL A   1      38.217  28.663  30.513  1.00  0.00     0.198 A 
ATOM     73  C   UNL A   1      37.795  29.409  28.270  1.00  0.00     0.198 A 
ATOM     74  F   UNL A   1      39.515  29.353  26.667  1.00  0.00    -0.203 F 
ATOM     75  F   UNL A   1      37.780  28.416  31.755  1.00  0.00    -0.200 F 
ATOM     76  C   UNL A   1      37.347  29.176  29.563  1.00  0.00     0.200 A 
ATOM     77  F   UNL A   1      36.959  29.917  27.354  1.00  0.00    -0.200 F 
ATOM     78  F   UNL A   1      36.076  29.444  29.891  1.00  0.00    -0.200 F 
ENDBRANCH  54  68
BRANCH  55  79
ATOM     79  C   UNL A   1      49.473  26.710  26.360  1.00  0.00     0.064 A 
ATOM     80  C   UNL A   1      49.949  26.885  25.054  1.00  0.00     0.173 A 
ATOM     81  C   UNL A   1      50.385  26.296  27.341  1.00  0.00     0.173 A 
ATOM     82  F   UNL A   1      49.109  27.260  24.079  1.00  0.00    -0.203 F 
ATOM     83  C   UNL A   1      51.289  26.658  24.743  1.00  0.00     0.198 A 
ATOM     84  C   UNL A   1      51.728  26.095  27.034  1.00  0.00     0.198 A 
ATOM     85  F   UNL A   1      49.975  26.119  28.605  1.00  0.00    -0.203 F 
ATOM     86  F   UNL A   1      51.717  26.812  23.483  1.00  0.00    -0.200 F 
ATOM     87  C   UNL A   1      52.179  26.274  25.736  1.00  0.00     0.200 A 
ATOM     88  F   UNL A   1      52.587  25.740  28.000  1.00  0.00    -0.200 F 
ATOM     89  F   UNL A   1      53.470  26.077  25.441  1.00  0.00    -0.200 F 
ENDBRANCH  55  79
BRANCH  67  90
ATOM     90  C   UNL A   1      46.089  32.442  28.435  1.00  0.00     0.064 A 
ATOM     91  C   UNL A   1      45.983  33.392  27.410  1.00  0.00     0.173 A 
ATOM     92  C   UNL A   1      46.557  32.868  29.686  1.00  0.00     0.173 A 
ATOM     93  F   UNL A   1      45.554  33.027  26.193  1.00  0.00    -0.203 F 
ATOM     94  C   UNL A   1      46.342  34.720  27.628  1.00  0.00     0.198 A 
ATOM     95  C   UNL A   1      46.893  34.201  29.907  1.00  0.00     0.198 A 
ATOM     96  F   UNL A   1      46.669  31.998  30.700  1.00  0.00    -0.203 F 
ATOM     97  F   UNL A   1      46.261  35.606  26.625  1.00  0.00    -0.200 F 
ATOM     98  C   UNL A   1      46.788  35.125  28.877  1.00  0.00     0.200 A 
ATOM     99  F   UNL A   1      47.313  34.594  31.117  1.00  0.00    -0.200 F 
ATOM    100  F   UNL A   1      47.122  36.405  29.087  1.00  0.00    -0.200 F 
ENDBRANCH  67  90
ENDBRANCH  41  42
ENDBRANCH  33  36
ENDBRANCH  31  32
ENDBRANCH  30  31
ENDBRANCH  29  30
ENDBRANCH   1  29
TORSDOF 15
ENDMDL
