MODEL 1
REMARK VINA RESULT:     -10.2      0.000      0.000
REMARK SMILES CC(C)c1ccc(C[N@@H+](CC(=O)NCCCCNC(=O)c2ccc(-c3c4nc(c(-c5c(F)c(F)c(F)c(F)c5F)c5ccc([nH]5)c(-c5c(F)c(F)c(F)c(F)c5F)c5nc(c(-c6c(F)c(F)c(F)c(F)c6F)c6ccc3[nH]6)C=C5)C=C4)cc2)CC(F)(F)F)cc1
REMARK SMILES IDX 14 1 13 2 11 3 12 4 10 6 9 7 8 9 7 10 4 11 5 12 90 13 6 14
REMARK SMILES IDX 89 15 2 16 1 17 3 18 84 19 85 20 86 21 87 22 88 23 15 24
REMARK SMILES IDX 16 25 17 26 18 27 19 28 20 30 21 31 22 32 83 33 23 34 82 35
REMARK SMILES IDX 24 36 25 37 26 38 76 39 27 40 81 41 75 42 77 43 28 44 80 45
REMARK SMILES IDX 74 46 73 47 29 49 61 50 41 51 60 52 42 53 45 54 59 55 78 56
REMARK SMILES IDX 43 57 44 58 58 60 79 61 46 62 30 63 31 64 39 65 32 66 33 67
REMARK SMILES IDX 37 68 40 69 34 70 35 71 38 72 36 73 62 74 63 75 71 76 64 77
REMARK SMILES IDX 65 78 69 79 72 80 66 81 67 82 70 83 68 84 47 85 48 86 56 87
REMARK SMILES IDX 49 88 50 89 54 90 57 91 51 92 52 93 55 94 53 95
REMARK H PARENT 13 5 9 8 18 29 77 48 45 59
REMARK Flexibility Score: inf
ROOT
ATOM      1  C   UNL A   1      33.840  36.839  28.996  1.00  0.00     0.116 C 
ENDROOT
BRANCH   1   2
ATOM      2  N   UNL A   1      33.373  37.510  30.195  1.00  0.00    -0.351 N 
ATOM      3  C   UNL A   1      33.279  37.105  31.494  1.00  0.00     0.275 C 
ATOM      4  O   UNL A   1      32.925  37.963  32.310  1.00  0.00    -0.269 OA
ATOM      5  H   UNL A   1      33.065  38.432  30.043  1.00  0.00     0.163 HD
BRANCH   3   6
ATOM      6  C   UNL A   1      33.642  35.692  31.983  1.00  0.00     0.364 C 
BRANCH   6   7
ATOM      7  N   UNL A   1      35.050  35.435  32.398  1.00  0.00    -0.316 N 
ATOM      8  H   UNL A   1      35.589  36.280  32.204  1.00  0.00     0.349 HD
BRANCH   7   9
ATOM      9  C   UNL A   1      35.639  34.394  31.571  1.00  0.00     0.299 C 
BRANCH   9  10
ATOM     10  C   UNL A   1      37.068  34.453  31.104  1.00  0.00     0.006 A 
ATOM     11  C   UNL A   1      39.768  34.026  30.386  1.00  0.00    -0.045 A 
ATOM     12  C   UNL A   1      38.744  33.935  29.430  1.00  0.00     0.004 A 
ATOM     13  C   UNL A   1      39.428  34.391  31.693  1.00  0.00     0.004 A 
ATOM     14  C   UNL A   1      37.406  34.147  29.785  1.00  0.00     0.010 A 
ATOM     15  C   UNL A   1      38.099  34.605  32.045  1.00  0.00     0.010 A 
BRANCH  11  16
ATOM     16  C   UNL A   1      41.231  33.784  30.065  1.00  0.00     0.013 C 
ATOM     17  C   UNL A   1      42.141  34.989  30.310  1.00  0.00     0.012 C 
ATOM     18  C   UNL A   1      41.724  32.557  30.832  1.00  0.00     0.012 C 
ENDBRANCH  11  16
ENDBRANCH   9  10
ENDBRANCH   7   9
BRANCH   7  19
ATOM     19  C   UNL A   1      35.271  35.333  33.862  1.00  0.00     0.380 C 
BRANCH  19  20
ATOM     20  C   UNL A   1      35.531  34.009  34.625  1.00  0.00     0.438 C 
ATOM     21  F   UNL A   1      36.782  33.540  34.445  1.00  0.00    -0.165 F 
ATOM     22  F   UNL A   1      35.368  34.196  35.959  1.00  0.00    -0.165 F 
ATOM     23  F   UNL A   1      34.670  33.037  34.267  1.00  0.00    -0.165 F 
ENDBRANCH  19  20
ENDBRANCH   7  19
ENDBRANCH   6   7
ENDBRANCH   3   6
ENDBRANCH   1   2
BRANCH   1  24
ATOM     24  C   UNL A   1      32.885  35.719  28.552  1.00  0.00     0.023 C 
BRANCH  24  25
ATOM     25  C   UNL A   1      33.175  34.330  29.079  1.00  0.00     0.023 C 
BRANCH  25  26
ATOM     26  C   UNL A   1      34.004  33.471  28.154  1.00  0.00     0.116 C 
BRANCH  26  27
ATOM     27  N   UNL A   1      33.232  32.463  27.437  1.00  0.00    -0.352 N 
ATOM     28  C   UNL A   1      33.570  31.157  27.152  1.00  0.00     0.251 C 
ATOM     29  H   UNL A   1      32.351  32.755  27.113  1.00  0.00     0.163 HD
ATOM     30  O   UNL A   1      32.849  30.458  26.462  1.00  0.00    -0.269 OA
BRANCH  28  31
ATOM     31  C   UNL A   1      34.856  30.637  27.661  1.00  0.00     0.039 A 
ATOM     32  C   UNL A   1      35.984  31.458  27.625  1.00  0.00     0.014 A 
ATOM     33  C   UNL A   1      34.913  29.379  28.263  1.00  0.00     0.014 A 
ATOM     34  C   UNL A   1      37.147  31.050  28.280  1.00  0.00     0.010 A 
ATOM     35  C   UNL A   1      36.022  29.034  29.018  1.00  0.00     0.010 A 
ATOM     36  C   UNL A   1      37.157  29.859  29.023  1.00  0.00    -0.014 A 
BRANCH  36  37
ATOM     37  C   UNL A   1      38.349  29.424  29.789  1.00  0.00     0.031 A 
ATOM     38  C   UNL A   1      38.590  29.996  31.160  1.00  0.00     0.074 A 
ATOM     39  C   UNL A   1      39.250  28.595  29.226  1.00  0.00     0.049 A 
ATOM     40  N   UNL A   1      39.622  29.847  31.951  1.00  0.00    -0.248 NA
ATOM     41  C   UNL A   1      37.553  30.895  31.693  1.00  0.00     0.031 C 
ATOM     42  C   UNL A   1      39.160  28.031  27.878  1.00  0.00     0.029 A 
ATOM     43  N   UNL A   1      40.427  28.091  29.718  1.00  0.00    -0.354 N 
ATOM     44  C   UNL A   1      39.369  30.656  33.050  1.00  0.00     0.074 A 
ATOM     45  C   UNL A   1      38.124  31.345  32.798  1.00  0.00     0.031 C 
ATOM     46  C   UNL A   1      40.219  27.233  27.664  1.00  0.00     0.029 A 
ATOM     47  C   UNL A   1      41.080  27.258  28.842  1.00  0.00     0.049 A 
ATOM     48  H   UNL A   1      40.772  28.306  30.615  1.00  0.00     0.167 HD
ATOM     49  C   UNL A   1      40.091  30.784  34.187  1.00  0.00     0.037 A 
ATOM     50  C   UNL A   1      42.242  26.593  28.981  1.00  0.00     0.037 A 
ATOM     51  C   UNL A   1      41.296  30.051  34.458  1.00  0.00     0.049 A 
ATOM     52  C   UNL A   1      43.008  26.724  30.270  1.00  0.00     0.074 A 
ATOM     53  C   UNL A   1      42.065  30.046  35.608  1.00  0.00     0.029 A 
ATOM     54  N   UNL A   1      41.901  29.179  33.565  1.00  0.00    -0.354 N 
ATOM     55  N   UNL A   1      42.723  27.437  31.333  1.00  0.00    -0.248 NA
ATOM     56  C   UNL A   1      44.252  25.952  30.381  1.00  0.00     0.031 C 
ATOM     57  C   UNL A   1      43.154  29.193  35.399  1.00  0.00     0.029 A 
ATOM     58  C   UNL A   1      43.041  28.638  34.134  1.00  0.00     0.049 A 
ATOM     59  H   UNL A   1      41.570  28.975  32.661  1.00  0.00     0.167 HD
ATOM     60  C   UNL A   1      43.735  27.180  32.247  1.00  0.00     0.074 A 
ATOM     61  C   UNL A   1      44.633  26.232  31.620  1.00  0.00     0.031 C 
ATOM     62  C   UNL A   1      43.910  27.685  33.493  1.00  0.00     0.037 A 
BRANCH  49  63
ATOM     63  C   UNL A   1      39.580  31.736  35.228  1.00  0.00     0.064 A 
ATOM     64  C   UNL A   1      38.632  31.339  36.185  1.00  0.00     0.173 A 
ATOM     65  C   UNL A   1      40.053  33.055  35.283  1.00  0.00     0.173 A 
ATOM     66  F   UNL A   1      38.133  30.094  36.165  1.00  0.00    -0.203 F 
ATOM     67  C   UNL A   1      38.152  32.236  37.135  1.00  0.00     0.198 A 
ATOM     68  C   UNL A   1      39.595  33.941  36.255  1.00  0.00     0.198 A 
ATOM     69  F   UNL A   1      40.959  33.487  34.393  1.00  0.00    -0.203 F 
ATOM     70  F   UNL A   1      37.207  31.849  38.002  1.00  0.00    -0.200 F 
ATOM     71  C   UNL A   1      38.641  33.533  37.175  1.00  0.00     0.200 A 
ATOM     72  F   UNL A   1      40.073  35.192  36.299  1.00  0.00    -0.200 F 
ATOM     73  F   UNL A   1      38.182  34.394  38.094  1.00  0.00    -0.200 F 
ENDBRANCH  49  63
BRANCH  50  74
ATOM     74  C   UNL A   1      42.734  25.714  27.888  1.00  0.00     0.064 A 
ATOM     75  C   UNL A   1      42.340  24.370  27.818  1.00  0.00     0.173 A 
ATOM     76  C   UNL A   1      43.610  26.188  26.901  1.00  0.00     0.173 A 
ATOM     77  F   UNL A   1      41.519  23.865  28.751  1.00  0.00    -0.203 F 
ATOM     78  C   UNL A   1      42.822  23.528  26.818  1.00  0.00     0.198 A 
ATOM     79  C   UNL A   1      44.070  25.352  25.886  1.00  0.00     0.198 A 
ATOM     80  F   UNL A   1      44.013  27.467  26.919  1.00  0.00    -0.203 F 
ATOM     81  F   UNL A   1      42.465  22.236  26.803  1.00  0.00    -0.200 F 
ATOM     82  C   UNL A   1      43.683  24.021  25.850  1.00  0.00     0.200 A 
ATOM     83  F   UNL A   1      44.893  25.834  24.945  1.00  0.00    -0.200 F 
ATOM     84  F   UNL A   1      44.145  23.211  24.888  1.00  0.00    -0.200 F 
ENDBRANCH  50  74
BRANCH  62  85
ATOM     85  C   UNL A   1      45.094  27.197  34.270  1.00  0.00     0.064 A 
ATOM     86  C   UNL A   1      46.302  27.911  34.291  1.00  0.00     0.173 A 
ATOM     87  C   UNL A   1      45.004  26.029  35.040  1.00  0.00     0.173 A 
ATOM     88  F   UNL A   1      46.439  29.027  33.558  1.00  0.00    -0.203 F 
ATOM     89  C   UNL A   1      47.385  27.459  35.040  1.00  0.00     0.198 A 
ATOM     90  C   UNL A   1      46.081  25.595  35.810  1.00  0.00     0.198 A 
ATOM     91  F   UNL A   1      43.868  25.316  35.058  1.00  0.00    -0.203 F 
ATOM     92  F   UNL A   1      48.543  28.133  35.012  1.00  0.00    -0.200 F 
ATOM     93  C   UNL A   1      47.271  26.307  35.804  1.00  0.00     0.200 A 
ATOM     94  F   UNL A   1      45.964  24.489  36.558  1.00  0.00    -0.200 F 
ATOM     95  F   UNL A   1      48.311  25.879  36.530  1.00  0.00    -0.200 F 
ENDBRANCH  62  85
ENDBRANCH  36  37
ENDBRANCH  28  31
ENDBRANCH  26  27
ENDBRANCH  25  26
ENDBRANCH  24  25
ENDBRANCH   1  24
TORSDOF 17
ENDMDL
MODEL 2
REMARK VINA RESULT:     -10.0      3.797      7.178
REMARK SMILES CC(C)c1ccc(C[N@@H+](CC(=O)NCCCCNC(=O)c2ccc(-c3c4nc(c(-c5c(F)c(F)c(F)c(F)c5F)c5ccc([nH]5)c(-c5c(F)c(F)c(F)c(F)c5F)c5nc(c(-c6c(F)c(F)c(F)c(F)c6F)c6ccc3[nH]6)C=C5)C=C4)cc2)CC(F)(F)F)cc1
REMARK SMILES IDX 14 1 13 2 11 3 12 4 10 6 9 7 8 9 7 10 4 11 5 12 90 13 6 14
REMARK SMILES IDX 89 15 2 16 1 17 3 18 84 19 85 20 86 21 87 22 88 23 15 24
REMARK SMILES IDX 16 25 17 26 18 27 19 28 20 30 21 31 22 32 83 33 23 34 82 35
REMARK SMILES IDX 24 36 25 37 26 38 76 39 27 40 81 41 75 42 77 43 28 44 80 45
REMARK SMILES IDX 74 46 73 47 29 49 61 50 41 51 60 52 42 53 45 54 59 55 78 56
REMARK SMILES IDX 43 57 44 58 58 60 79 61 46 62 30 63 31 64 39 65 32 66 33 67
REMARK SMILES IDX 37 68 40 69 34 70 35 71 38 72 36 73 62 74 63 75 71 76 64 77
REMARK SMILES IDX 65 78 69 79 72 80 66 81 67 82 70 83 68 84 47 85 48 86 56 87
REMARK SMILES IDX 49 88 50 89 54 90 57 91 51 92 52 93 55 94 53 95
REMARK H PARENT 13 5 9 8 18 29 77 48 45 59
REMARK Flexibility Score: inf
ROOT
ATOM      1  C   UNL A   1      31.764  29.449  27.017  1.00  0.00     0.116 C 
ENDROOT
BRANCH   1   2
ATOM      2  N   UNL A   1      32.797  28.502  26.640  1.00  0.00    -0.351 N 
ATOM      3  C   UNL A   1      32.742  27.217  26.186  1.00  0.00     0.275 C 
ATOM      4  O   UNL A   1      33.818  26.708  25.854  1.00  0.00    -0.269 OA
ATOM      5  H   UNL A   1      33.713  28.854  26.728  1.00  0.00     0.163 HD
BRANCH   3   6
ATOM      6  C   UNL A   1      31.437  26.420  26.017  1.00  0.00     0.364 C 
BRANCH   6   7
ATOM      7  N   UNL A   1      31.335  25.483  24.862  1.00  0.00    -0.316 N 
ATOM      8  H   UNL A   1      32.079  25.718  24.206  1.00  0.00     0.349 HD
BRANCH   7   9
ATOM      9  C   UNL A   1      30.090  25.703  24.142  1.00  0.00     0.299 C 
BRANCH   9  10
ATOM     10  C   UNL A   1      29.755  27.024  23.506  1.00  0.00     0.006 A 
ATOM     11  C   UNL A   1      29.126  29.698  22.839  1.00  0.00    -0.045 A 
ATOM     12  C   UNL A   1      30.449  29.233  22.784  1.00  0.00     0.004 A 
ATOM     13  C   UNL A   1      28.115  28.791  23.176  1.00  0.00     0.004 A 
ATOM     14  C   UNL A   1      30.762  27.908  23.113  1.00  0.00     0.010 A 
ATOM     15  C   UNL A   1      28.426  27.474  23.501  1.00  0.00     0.010 A 
BRANCH  11  16
ATOM     16  C   UNL A   1      28.731  31.127  22.516  1.00  0.00     0.013 C 
ATOM     17  C   UNL A   1      28.286  31.349  21.069  1.00  0.00     0.012 C 
ATOM     18  C   UNL A   1      27.656  31.592  23.498  1.00  0.00     0.012 C 
ENDBRANCH  11  16
ENDBRANCH   9  10
ENDBRANCH   7   9
BRANCH   7  19
ATOM     19  C   UNL A   1      31.699  24.075  25.156  1.00  0.00     0.380 C 
BRANCH  19  20
ATOM     20  C   UNL A   1      31.020  23.193  26.233  1.00  0.00     0.438 C 
ATOM     21  F   UNL A   1      30.673  21.975  25.770  1.00  0.00    -0.165 F 
ATOM     22  F   UNL A   1      31.863  22.993  27.276  1.00  0.00    -0.165 F 
ATOM     23  F   UNL A   1      29.913  23.771  26.741  1.00  0.00    -0.165 F 
ENDBRANCH  19  20
ENDBRANCH   7  19
ENDBRANCH   6   7
ENDBRANCH   3   6
ENDBRANCH   1   2
BRANCH   1  24
ATOM     24  C   UNL A   1      31.782  30.706  26.131  1.00  0.00     0.023 C 
BRANCH  24  25
ATOM     25  C   UNL A   1      31.448  32.019  26.806  1.00  0.00     0.023 C 
BRANCH  25  26
ATOM     26  C   UNL A   1      32.651  32.800  27.282  1.00  0.00     0.116 C 
BRANCH  26  27
ATOM     27  N   UNL A   1      32.354  34.186  27.622  1.00  0.00    -0.352 N 
ATOM     28  C   UNL A   1      32.952  34.990  28.570  1.00  0.00     0.251 C 
ATOM     29  H   UNL A   1      31.629  34.605  27.105  1.00  0.00     0.163 HD
ATOM     30  O   UNL A   1      32.530  36.111  28.799  1.00  0.00    -0.269 OA
BRANCH  28  31
ATOM     31  C   UNL A   1      34.086  34.442  29.342  1.00  0.00     0.039 A 
ATOM     32  C   UNL A   1      33.827  33.687  30.487  1.00  0.00     0.014 A 
ATOM     33  C   UNL A   1      35.391  34.595  28.872  1.00  0.00     0.014 A 
ATOM     34  C   UNL A   1      34.876  33.004  31.106  1.00  0.00     0.010 A 
ATOM     35  C   UNL A   1      36.404  33.817  29.408  1.00  0.00     0.010 A 
ATOM     36  C   UNL A   1      36.161  33.024  30.541  1.00  0.00    -0.014 A 
BRANCH  36  37
ATOM     37  C   UNL A   1      37.286  32.258  31.127  1.00  0.00     0.031 A 
ATOM     38  C   UNL A   1      37.780  32.615  32.503  1.00  0.00     0.074 A 
ATOM     39  C   UNL A   1      37.914  31.313  30.400  1.00  0.00     0.049 A 
ATOM     40  N   UNL A   1      38.818  32.159  33.156  1.00  0.00    -0.248 NA
ATOM     41  C   UNL A   1      37.033  33.660  33.223  1.00  0.00     0.031 C 
ATOM     42  C   UNL A   1      37.572  30.928  29.030  1.00  0.00     0.029 A 
ATOM     43  N   UNL A   1      38.983  30.512  30.711  1.00  0.00    -0.354 N 
ATOM     44  C   UNL A   1      38.862  32.884  34.339  1.00  0.00     0.074 A 
ATOM     45  C   UNL A   1      37.793  33.854  34.288  1.00  0.00     0.031 C 
ATOM     46  C   UNL A   1      38.392  29.942  28.631  1.00  0.00     0.029 A 
ATOM     47  C   UNL A   1      39.341  29.652  29.702  1.00  0.00     0.049 A 
ATOM     48  H   UNL A   1      39.451  30.550  31.577  1.00  0.00     0.167 HD
ATOM     49  C   UNL A   1      39.697  32.729  35.393  1.00  0.00     0.037 A 
ATOM     50  C   UNL A   1      40.326  28.735  29.652  1.00  0.00     0.037 A 
ATOM     51  C   UNL A   1      40.720  31.722  35.463  1.00  0.00     0.049 A 
ATOM     52  C   UNL A   1      41.218  28.557  30.851  1.00  0.00     0.074 A 
ATOM     53  C   UNL A   1      41.570  31.426  36.514  1.00  0.00     0.029 A 
ATOM     54  N   UNL A   1      41.020  30.837  34.439  1.00  0.00    -0.354 N 
ATOM     55  N   UNL A   1      41.205  29.200  31.994  1.00  0.00    -0.248 NA
ATOM     56  C   UNL A   1      42.254  27.521  30.756  1.00  0.00     0.031 C 
ATOM     57  C   UNL A   1      42.408  30.380  36.113  1.00  0.00     0.029 A 
ATOM     58  C   UNL A   1      42.053  30.000  34.828  1.00  0.00     0.049 A 
ATOM     59  H   UNL A   1      40.568  30.807  33.565  1.00  0.00     0.167 HD
ATOM     60  C   UNL A   1      42.212  28.631  32.762  1.00  0.00     0.074 A 
ATOM     61  C   UNL A   1      42.803  27.579  31.962  1.00  0.00     0.031 C 
ATOM     62  C   UNL A   1      42.614  28.951  34.017  1.00  0.00     0.037 A 
BRANCH  49  63
ATOM     63  C   UNL A   1      39.519  33.656  36.559  1.00  0.00     0.064 A 
ATOM     64  C   UNL A   1      40.136  34.916  36.596  1.00  0.00     0.173 A 
ATOM     65  C   UNL A   1      38.711  33.290  37.645  1.00  0.00     0.173 A 
ATOM     66  F   UNL A   1      40.935  35.306  35.591  1.00  0.00    -0.203 F 
ATOM     67  C   UNL A   1      39.978  35.761  37.691  1.00  0.00     0.198 A 
ATOM     68  C   UNL A   1      38.528  34.151  38.724  1.00  0.00     0.198 A 
ATOM     69  F   UNL A   1      38.098  32.097  37.660  1.00  0.00    -0.203 F 
ATOM     70  F   UNL A   1      40.622  36.935  37.728  1.00  0.00    -0.200 F 
ATOM     71  C   UNL A   1      39.167  35.381  38.750  1.00  0.00     0.200 A 
ATOM     72  F   UNL A   1      37.737  33.787  39.743  1.00  0.00    -0.200 F 
ATOM     73  F   UNL A   1      39.011  36.197  39.801  1.00  0.00    -0.200 F 
ENDBRANCH  49  63
BRANCH  50  74
ATOM     74  C   UNL A   1      40.497  27.889  28.442  1.00  0.00     0.064 A 
ATOM     75  C   UNL A   1      41.270  28.335  27.360  1.00  0.00     0.173 A 
ATOM     76  C   UNL A   1      39.891  26.629  28.334  1.00  0.00     0.173 A 
ATOM     77  F   UNL A   1      41.853  29.541  27.408  1.00  0.00    -0.203 F 
ATOM     78  C   UNL A   1      41.409  27.565  26.207  1.00  0.00     0.198 A 
ATOM     79  C   UNL A   1      40.054  25.848  27.192  1.00  0.00     0.198 A 
ATOM     80  F   UNL A   1      39.147  26.153  29.344  1.00  0.00    -0.203 F 
ATOM     81  F   UNL A   1      42.115  28.037  25.170  1.00  0.00    -0.200 F 
ATOM     82  C   UNL A   1      40.805  26.319  26.126  1.00  0.00     0.200 A 
ATOM     83  F   UNL A   1      39.479  24.640  27.121  1.00  0.00    -0.200 F 
ATOM     84  F   UNL A   1      40.940  25.579  25.018  1.00  0.00    -0.200 F 
ENDBRANCH  50  74
BRANCH  62  85
ATOM     85  C   UNL A   1      43.720  28.134  34.611  1.00  0.00     0.064 A 
ATOM     86  C   UNL A   1      45.062  28.526  34.501  1.00  0.00     0.173 A 
ATOM     87  C   UNL A   1      43.430  26.971  35.340  1.00  0.00     0.173 A 
ATOM     88  F   UNL A   1      45.389  29.624  33.801  1.00  0.00    -0.203 F 
ATOM     89  C   UNL A   1      46.076  27.771  35.082  1.00  0.00     0.198 A 
ATOM     90  C   UNL A   1      44.445  26.234  35.943  1.00  0.00     0.198 A 
ATOM     91  F   UNL A   1      42.161  26.559  35.479  1.00  0.00    -0.203 F 
ATOM     92  F   UNL A   1      47.356  28.141  34.928  1.00  0.00    -0.200 F 
ATOM     93  C   UNL A   1      45.766  26.630  35.808  1.00  0.00     0.200 A 
ATOM     94  F   UNL A   1      44.142  25.140  36.655  1.00  0.00    -0.200 F 
ATOM     95  F   UNL A   1      46.744  25.910  36.374  1.00  0.00    -0.200 F 
ENDBRANCH  62  85
ENDBRANCH  36  37
ENDBRANCH  28  31
ENDBRANCH  26  27
ENDBRANCH  25  26
ENDBRANCH  24  25
ENDBRANCH   1  24
TORSDOF 17
ENDMDL
MODEL 3
REMARK VINA RESULT:      -9.9      4.448      8.080
REMARK SMILES CC(C)c1ccc(C[N@@H+](CC(=O)NCCCCNC(=O)c2ccc(-c3c4nc(c(-c5c(F)c(F)c(F)c(F)c5F)c5ccc([nH]5)c(-c5c(F)c(F)c(F)c(F)c5F)c5nc(c(-c6c(F)c(F)c(F)c(F)c6F)c6ccc3[nH]6)C=C5)C=C4)cc2)CC(F)(F)F)cc1
REMARK SMILES IDX 14 1 13 2 11 3 12 4 10 6 9 7 8 9 7 10 4 11 5 12 90 13 6 14
REMARK SMILES IDX 89 15 2 16 1 17 3 18 84 19 85 20 86 21 87 22 88 23 15 24
REMARK SMILES IDX 16 25 17 26 18 27 19 28 20 30 21 31 22 32 83 33 23 34 82 35
REMARK SMILES IDX 24 36 25 37 26 38 76 39 27 40 81 41 75 42 77 43 28 44 80 45
REMARK SMILES IDX 74 46 73 47 29 49 61 50 41 51 60 52 42 53 45 54 59 55 78 56
REMARK SMILES IDX 43 57 44 58 58 60 79 61 46 62 30 63 31 64 39 65 32 66 33 67
REMARK SMILES IDX 37 68 40 69 34 70 35 71 38 72 36 73 62 74 63 75 71 76 64 77
REMARK SMILES IDX 65 78 69 79 72 80 66 81 67 82 70 83 68 84 47 85 48 86 56 87
REMARK SMILES IDX 49 88 50 89 54 90 57 91 51 92 52 93 55 94 53 95
REMARK H PARENT 13 5 9 8 18 29 77 48 45 59
REMARK Flexibility Score: inf
ROOT
ATOM      1  C   UNL A   1      32.509  26.964  24.856  1.00  0.00     0.116 C 
ENDROOT
BRANCH   1   2
ATOM      2  N   UNL A   1      33.125  26.915  23.543  1.00  0.00    -0.351 N 
ATOM      3  C   UNL A   1      33.200  25.932  22.601  1.00  0.00     0.275 C 
ATOM      4  O   UNL A   1      33.721  26.244  21.525  1.00  0.00    -0.269 OA
ATOM      5  H   UNL A   1      33.575  27.751  23.282  1.00  0.00     0.163 HD
BRANCH   3   6
ATOM      6  C   UNL A   1      32.629  24.516  22.788  1.00  0.00     0.364 C 
BRANCH   6   7
ATOM      7  N   UNL A   1      33.505  23.486  23.416  1.00  0.00    -0.316 N 
ATOM      8  H   UNL A   1      33.700  22.774  22.712  1.00  0.00     0.349 HD
BRANCH   7   9
ATOM      9  C   UNL A   1      32.794  22.801  24.484  1.00  0.00     0.299 C 
BRANCH   9  10
ATOM     10  C   UNL A   1      32.604  21.309  24.491  1.00  0.00     0.006 A 
ATOM     11  C   UNL A   1      32.791  18.492  24.360  1.00  0.00    -0.045 A 
ATOM     12  C   UNL A   1      32.915  19.167  25.584  1.00  0.00     0.004 A 
ATOM     13  C   UNL A   1      32.514  19.241  23.211  1.00  0.00     0.004 A 
ATOM     14  C   UNL A   1      32.822  20.562  25.650  1.00  0.00     0.010 A 
ATOM     15  C   UNL A   1      32.418  20.627  23.278  1.00  0.00     0.010 A 
BRANCH  11  16
ATOM     16  C   UNL A   1      32.905  16.985  24.225  1.00  0.00     0.013 C 
ATOM     17  C   UNL A   1      34.028  16.515  23.297  1.00  0.00     0.012 C 
ATOM     18  C   UNL A   1      33.042  16.359  25.613  1.00  0.00     0.012 C 
ENDBRANCH  11  16
ENDBRANCH   9  10
ENDBRANCH   7   9
BRANCH   7  19
ATOM     19  C   UNL A   1      34.891  23.928  23.710  1.00  0.00     0.380 C 
BRANCH  19  20
ATOM     20  C   UNL A   1      36.128  22.995  23.736  1.00  0.00     0.438 C 
ATOM     21  F   UNL A   1      37.162  23.518  24.426  1.00  0.00    -0.165 F 
ATOM     22  F   UNL A   1      35.815  21.816  24.329  1.00  0.00    -0.165 F 
ATOM     23  F   UNL A   1      36.567  22.697  22.498  1.00  0.00    -0.165 F 
ENDBRANCH  19  20
ENDBRANCH   7  19
ENDBRANCH   6   7
ENDBRANCH   3   6
ENDBRANCH   1   2
BRANCH   1  24
ATOM     24  C   UNL A   1      31.538  28.147  24.995  1.00  0.00     0.023 C 
BRANCH  24  25
ATOM     25  C   UNL A   1      31.721  29.040  26.204  1.00  0.00     0.023 C 
BRANCH  25  26
ATOM     26  C   UNL A   1      32.942  29.927  26.147  1.00  0.00     0.116 C 
BRANCH  26  27
ATOM     27  N   UNL A   1      32.704  31.286  26.615  1.00  0.00    -0.352 N 
ATOM     28  C   UNL A   1      33.486  32.065  27.442  1.00  0.00     0.251 C 
ATOM     29  H   UNL A   1      31.872  31.705  26.298  1.00  0.00     0.163 HD
ATOM     30  O   UNL A   1      33.107  33.161  27.816  1.00  0.00    -0.269 OA
BRANCH  28  31
ATOM     31  C   UNL A   1      34.778  31.518  27.907  1.00  0.00     0.039 A 
ATOM     32  C   UNL A   1      35.861  32.383  28.074  1.00  0.00     0.014 A 
ATOM     33  C   UNL A   1      34.879  30.174  28.270  1.00  0.00     0.014 A 
ATOM     34  C   UNL A   1      37.019  31.914  28.697  1.00  0.00     0.010 A 
ATOM     35  C   UNL A   1      35.975  29.747  29.000  1.00  0.00     0.010 A 
ATOM     36  C   UNL A   1      37.064  30.608  29.210  1.00  0.00    -0.014 A 
BRANCH  36  37
ATOM     37  C   UNL A   1      38.248  30.093  29.938  1.00  0.00     0.031 A 
ATOM     38  C   UNL A   1      38.501  30.554  31.348  1.00  0.00     0.074 A 
ATOM     39  C   UNL A   1      39.133  29.292  29.312  1.00  0.00     0.049 A 
ATOM     40  N   UNL A   1      39.529  30.326  32.124  1.00  0.00    -0.248 NA
ATOM     41  C   UNL A   1      37.481  31.429  31.951  1.00  0.00     0.031 C 
ATOM     42  C   UNL A   1      39.032  28.835  27.926  1.00  0.00     0.029 A 
ATOM     43  N   UNL A   1      40.300  28.730  29.763  1.00  0.00    -0.354 N 
ATOM     44  C   UNL A   1      39.292  31.053  33.282  1.00  0.00     0.074 A 
ATOM     45  C   UNL A   1      38.060  31.783  33.085  1.00  0.00     0.031 C 
ATOM     46  C   UNL A   1      40.076  28.036  27.649  1.00  0.00     0.029 A 
ATOM     47  C   UNL A   1      40.937  27.955  28.824  1.00  0.00     0.049 A 
ATOM     48  H   UNL A   1      40.650  28.869  30.673  1.00  0.00     0.167 HD
ATOM     49  C   UNL A   1      40.016  31.081  34.425  1.00  0.00     0.037 A 
ATOM     50  C   UNL A   1      42.087  27.259  28.910  1.00  0.00     0.037 A 
ATOM     51  C   UNL A   1      41.208  30.306  34.636  1.00  0.00     0.049 A 
ATOM     52  C   UNL A   1      42.855  27.277  30.204  1.00  0.00     0.074 A 
ATOM     53  C   UNL A   1      41.976  30.199  35.781  1.00  0.00     0.029 A 
ATOM     54  N   UNL A   1      41.795  29.494  33.678  1.00  0.00    -0.354 N 
ATOM     55  N   UNL A   1      42.584  27.912  31.319  1.00  0.00    -0.248 NA
ATOM     56  C   UNL A   1      44.085  26.475  30.254  1.00  0.00     0.031 C 
ATOM     57  C   UNL A   1      43.049  29.344  35.506  1.00  0.00     0.029 A 
ATOM     58  C   UNL A   1      42.926  28.890  34.203  1.00  0.00     0.049 A 
ATOM     59  H   UNL A   1      41.460  29.366  32.762  1.00  0.00     0.167 HD
ATOM     60  C   UNL A   1      43.592  27.567  32.208  1.00  0.00     0.074 A 
ATOM     61  C   UNL A   1      44.471  26.653  31.510  1.00  0.00     0.031 C 
ATOM     62  C   UNL A   1      43.776  27.972  33.489  1.00  0.00     0.037 A 
BRANCH  49  63
ATOM     63  C   UNL A   1      39.523  31.960  35.536  1.00  0.00     0.064 A 
ATOM     64  C   UNL A   1      38.607  31.492  36.491  1.00  0.00     0.173 A 
ATOM     65  C   UNL A   1      39.983  33.279  35.659  1.00  0.00     0.173 A 
ATOM     66  F   UNL A   1      38.122  30.244  36.407  1.00  0.00    -0.203 F 
ATOM     67  C   UNL A   1      38.144  32.322  37.508  1.00  0.00     0.198 A 
ATOM     68  C   UNL A   1      39.542  34.096  36.697  1.00  0.00     0.198 A 
ATOM     69  F   UNL A   1      40.860  33.776  34.774  1.00  0.00    -0.203 F 
ATOM     70  F   UNL A   1      37.227  31.871  38.373  1.00  0.00    -0.200 F 
ATOM     71  C   UNL A   1      38.618  33.621  37.615  1.00  0.00     0.200 A 
ATOM     72  F   UNL A   1      40.008  35.349  36.805  1.00  0.00    -0.200 F 
ATOM     73  F   UNL A   1      38.176  34.417  38.597  1.00  0.00    -0.200 F 
ENDBRANCH  49  63
BRANCH  50  74
ATOM     74  C   UNL A   1      42.562  26.457  27.753  1.00  0.00     0.064 A 
ATOM     75  C   UNL A   1      43.480  26.994  26.838  1.00  0.00     0.173 A 
ATOM     76  C   UNL A   1      42.108  25.150  27.528  1.00  0.00     0.173 A 
ATOM     77  F   UNL A   1      43.928  28.247  26.999  1.00  0.00    -0.203 F 
ATOM     78  C   UNL A   1      43.906  26.263  25.731  1.00  0.00     0.198 A 
ATOM     79  C   UNL A   1      42.555  24.410  26.435  1.00  0.00     0.198 A 
ATOM     80  F   UNL A   1      41.234  24.587  28.376  1.00  0.00    -0.203 F 
ATOM     81  F   UNL A   1      44.747  26.819  24.848  1.00  0.00    -0.200 F 
ATOM     82  C   UNL A   1      43.447  24.970  25.532  1.00  0.00     0.200 A 
ATOM     83  F   UNL A   1      42.120  23.156  26.252  1.00  0.00    -0.200 F 
ATOM     84  F   UNL A   1      43.858  24.268  24.468  1.00  0.00    -0.200 F 
ENDBRANCH  50  74
BRANCH  62  85
ATOM     85  C   UNL A   1      44.951  27.404  34.225  1.00  0.00     0.064 A 
ATOM     86  C   UNL A   1      44.848  26.219  34.968  1.00  0.00     0.173 A 
ATOM     87  C   UNL A   1      46.206  28.026  34.144  1.00  0.00     0.173 A 
ATOM     88  F   UNL A   1      43.665  25.597  35.084  1.00  0.00    -0.203 F 
ATOM     89  C   UNL A   1      45.956  25.689  35.623  1.00  0.00     0.198 A 
ATOM     90  C   UNL A   1      47.317  27.478  34.778  1.00  0.00     0.198 A 
ATOM     91  F   UNL A   1      46.356  29.158  33.439  1.00  0.00    -0.203 F 
ATOM     92  F   UNL A   1      45.826  24.579  36.363  1.00  0.00    -0.200 F 
ATOM     93  C   UNL A   1      47.190  26.314  35.521  1.00  0.00     0.200 A 
ATOM     94  F   UNL A   1      48.512  28.076  34.667  1.00  0.00    -0.200 F 
ATOM     95  F   UNL A   1      48.257  25.797  36.145  1.00  0.00    -0.200 F 
ENDBRANCH  62  85
ENDBRANCH  36  37
ENDBRANCH  28  31
ENDBRANCH  26  27
ENDBRANCH  25  26
ENDBRANCH  24  25
ENDBRANCH   1  24
TORSDOF 17
ENDMDL
