MODEL 1
REMARK VINA RESULT:     -13.4      0.000      0.000
REMARK SMILES COc1ccccc1-n1nnc(C(=O)NCCCCNC(=O)c2ccc(-c3c4nc(c(-c5c(F)c(F)c(F)c(F)c5F)c5ccc([nH]5)c(-c5c(F)c(F)c(F)c(F)c5F)c5nc(c(-c6c(F)c(F)c(F)c(F)c6F)c6ccc3[nH]6)C=C5)C=C4)cc2)c1-c1ccc(Cl)cc1
REMARK SMILES IDX 17 1 16 2 15 3 13 4 14 5 12 7 9 8 10 9 86 10 11 11 8 12 3 13
REMARK SMILES IDX 4 14 5 15 7 16 6 17 2 18 1 19 87 20 88 21 93 22 89 23 92 24
REMARK SMILES IDX 90 25 91 26 18 27 19 28 20 29 21 30 22 32 23 33 24 34 85 35
REMARK SMILES IDX 25 36 84 37 26 38 27 39 28 40 78 41 29 42 83 43 77 44 79 45
REMARK SMILES IDX 30 46 82 47 76 48 75 49 31 51 63 52 43 53 62 54 44 55 47 56
REMARK SMILES IDX 61 57 80 58 45 59 46 60 60 62 81 63 48 64 32 65 33 66 41 67
REMARK SMILES IDX 34 68 35 69 39 70 42 71 36 72 37 73 40 74 38 75 64 76 65 77
REMARK SMILES IDX 73 78 66 79 67 80 71 81 74 82 68 83 69 84 72 85 70 86 49 87
REMARK SMILES IDX 50 88 58 89 51 90 52 91 56 92 59 93 53 94 54 95 57 96 55 97
REMARK H PARENT 15 6 20 31 79 50 47 61
REMARK Flexibility Score: inf
ROOT
ATOM      1  C   UNL A   1      35.930  23.932  25.530  1.00  0.00     0.023 C 
ENDROOT
BRANCH   1   2
ATOM      2  C   UNL A   1      34.986  22.758  25.740  1.00  0.00     0.116 C 
BRANCH   2   3
ATOM      3  N   UNL A   1      34.132  22.691  26.890  1.00  0.00    -0.351 N 
ATOM      4  C   UNL A   1      32.792  23.055  26.968  1.00  0.00     0.274 C 
ATOM      5  O   UNL A   1      32.241  22.814  28.046  1.00  0.00    -0.267 OA
ATOM      6  H   UNL A   1      34.539  22.348  27.718  1.00  0.00     0.163 HD
BRANCH   4   7
ATOM      7  C   UNL A   1      32.046  23.730  25.880  1.00  0.00     0.178 A 
ATOM      8  N   UNL A   1      31.034  24.957  24.354  1.00  0.00    -0.208 N 
ATOM      9  N   UNL A   1      30.604  23.693  24.200  1.00  0.00    -0.061 NA
ATOM     10  C   UNL A   1      31.870  25.056  25.468  1.00  0.00     0.108 A 
ATOM     11  N   UNL A   1      31.288  22.929  25.036  1.00  0.00    -0.124 NA
BRANCH   8  12
ATOM     12  C   UNL A   1      30.518  26.023  23.578  1.00  0.00     0.109 A 
ATOM     13  C   UNL A   1      31.342  26.794  22.744  1.00  0.00     0.144 A 
ATOM     14  C   UNL A   1      30.904  28.062  22.350  1.00  0.00     0.049 A 
ATOM     15  C   UNL A   1      29.649  28.535  22.733  1.00  0.00     0.004 A 
ATOM     16  C   UNL A   1      29.221  26.462  23.897  1.00  0.00     0.032 A 
ATOM     17  C   UNL A   1      28.799  27.728  23.486  1.00  0.00     0.003 A 
BRANCH  13  18
ATOM     18  O   UNL A   1      32.614  26.493  22.337  1.00  0.00    -0.494 OA
ATOM     19  C   UNL A   1      32.741  25.567  21.261  1.00  0.00     0.278 C 
ENDBRANCH  13  18
ENDBRANCH   8  12
BRANCH  10  20
ATOM     20  C   UNL A   1      32.236  26.369  26.004  1.00  0.00     0.003 A 
ATOM     21  C   UNL A   1      31.340  27.135  26.752  1.00  0.00     0.012 A 
ATOM     22  C   UNL A   1      33.532  26.868  25.752  1.00  0.00     0.012 A 
ATOM     23  C   UNL A   1      31.741  28.376  27.251  1.00  0.00     0.021 A 
ATOM     24  C   UNL A   1      33.913  28.125  26.216  1.00  0.00     0.021 A 
ATOM     25  C   UNL A   1      33.014  28.872  26.968  1.00  0.00     0.041 A 
ATOM     26  Cl  UNL A   1      33.476  30.420  27.548  1.00  0.00    -0.084 Cl
ENDBRANCH  10  20
ENDBRANCH   4   7
ENDBRANCH   2   3
ENDBRANCH   1   2
BRANCH   1  27
ATOM     27  C   UNL A   1      37.424  23.657  25.401  1.00  0.00     0.023 C 
BRANCH  27  28
ATOM     28  C   UNL A   1      38.208  23.575  26.705  1.00  0.00     0.116 C 
BRANCH  28  29
ATOM     29  N   UNL A   1      39.342  22.651  26.707  1.00  0.00    -0.352 N 
ATOM     30  C   UNL A   1      40.683  23.010  26.577  1.00  0.00     0.251 C 
ATOM     31  H   UNL A   1      39.141  21.692  26.808  1.00  0.00     0.163 HD
ATOM     32  O   UNL A   1      41.535  22.229  26.206  1.00  0.00    -0.269 OA
BRANCH  30  33
ATOM     33  C   UNL A   1      41.038  24.402  26.925  1.00  0.00     0.039 A 
ATOM     34  C   UNL A   1      40.699  25.482  26.110  1.00  0.00     0.014 A 
ATOM     35  C   UNL A   1      41.622  24.602  28.173  1.00  0.00     0.014 A 
ATOM     36  C   UNL A   1      40.846  26.770  26.622  1.00  0.00     0.010 A 
ATOM     37  C   UNL A   1      41.649  25.856  28.725  1.00  0.00     0.010 A 
ATOM     38  C   UNL A   1      41.284  26.947  27.947  1.00  0.00    -0.014 A 
BRANCH  38  39
ATOM     39  C   UNL A   1      41.184  28.249  28.596  1.00  0.00     0.031 A 
ATOM     40  C   UNL A   1      42.254  29.211  28.201  1.00  0.00     0.074 A 
ATOM     41  C   UNL A   1      40.109  28.650  29.307  1.00  0.00     0.049 A 
ATOM     42  N   UNL A   1      43.207  29.670  28.942  1.00  0.00    -0.248 NA
ATOM     43  C   UNL A   1      42.369  29.599  26.783  1.00  0.00     0.031 C 
ATOM     44  C   UNL A   1      38.830  27.963  29.517  1.00  0.00     0.029 A 
ATOM     45  N   UNL A   1      39.910  29.838  29.940  1.00  0.00    -0.354 N 
ATOM     46  C   UNL A   1      43.934  30.551  28.146  1.00  0.00     0.074 A 
ATOM     47  C   UNL A   1      43.482  30.338  26.795  1.00  0.00     0.031 C 
ATOM     48  C   UNL A   1      37.923  28.831  30.022  1.00  0.00     0.029 A 
ATOM     49  C   UNL A   1      38.598  30.076  30.334  1.00  0.00     0.049 A 
ATOM     50  H   UNL A   1      40.638  30.478  30.107  1.00  0.00     0.167 HD
ATOM     51  C   UNL A   1      44.681  31.542  28.708  1.00  0.00     0.037 A 
ATOM     52  C   UNL A   1      38.112  31.231  30.855  1.00  0.00     0.037 A 
ATOM     53  C   UNL A   1      44.900  31.287  30.111  1.00  0.00     0.049 A 
ATOM     54  C   UNL A   1      39.273  31.993  31.386  1.00  0.00     0.074 A 
ATOM     55  C   UNL A   1      45.495  30.265  30.825  1.00  0.00     0.029 A 
ATOM     56  N   UNL A   1      44.113  31.957  31.017  1.00  0.00    -0.354 N 
ATOM     57  N   UNL A   1      39.987  31.598  32.405  1.00  0.00    -0.248 NA
ATOM     58  C   UNL A   1      39.934  32.918  30.477  1.00  0.00     0.031 C 
ATOM     59  C   UNL A   1      44.640  30.060  31.949  1.00  0.00     0.029 A 
ATOM     60  C   UNL A   1      43.633  31.026  31.902  1.00  0.00     0.049 A 
ATOM     61  H   UNL A   1      43.928  32.924  31.029  1.00  0.00     0.167 HD
ATOM     62  C   UNL A   1      41.298  31.861  32.037  1.00  0.00     0.074 A 
ATOM     63  C   UNL A   1      41.198  32.732  30.865  1.00  0.00     0.031 C 
ATOM     64  C   UNL A   1      42.333  31.115  32.523  1.00  0.00     0.037 A 
BRANCH  51  65
ATOM     65  C   UNL A   1      44.891  32.913  28.109  1.00  0.00     0.064 A 
ATOM     66  C   UNL A   1      46.202  33.327  27.792  1.00  0.00     0.173 A 
ATOM     67  C   UNL A   1      43.921  33.938  28.127  1.00  0.00     0.173 A 
ATOM     68  F   UNL A   1      47.208  32.440  27.752  1.00  0.00    -0.203 F 
ATOM     69  C   UNL A   1      46.530  34.673  27.609  1.00  0.00     0.198 A 
ATOM     70  C   UNL A   1      44.242  35.273  27.893  1.00  0.00     0.198 A 
ATOM     71  F   UNL A   1      42.652  33.714  28.486  1.00  0.00    -0.203 F 
ATOM     72  F   UNL A   1      47.811  35.030  27.448  1.00  0.00    -0.200 F 
ATOM     73  C   UNL A   1      45.550  35.647  27.670  1.00  0.00     0.200 A 
ATOM     74  F   UNL A   1      43.281  36.205  27.973  1.00  0.00    -0.200 F 
ATOM     75  F   UNL A   1      45.870  36.943  27.565  1.00  0.00    -0.200 F 
ENDBRANCH  51  65
BRANCH  52  76
ATOM     76  C   UNL A   1      36.790  31.859  30.612  1.00  0.00     0.064 A 
ATOM     77  C   UNL A   1      35.903  32.126  31.669  1.00  0.00     0.173 A 
ATOM     78  C   UNL A   1      36.490  32.470  29.379  1.00  0.00     0.173 A 
ATOM     79  F   UNL A   1      36.140  31.621  32.888  1.00  0.00    -0.203 F 
ATOM     80  C   UNL A   1      34.801  32.974  31.509  1.00  0.00     0.198 A 
ATOM     81  C   UNL A   1      35.389  33.314  29.219  1.00  0.00     0.198 A 
ATOM     82  F   UNL A   1      37.314  32.341  28.329  1.00  0.00    -0.203 F 
ATOM     83  F   UNL A   1      34.014  33.254  32.557  1.00  0.00    -0.200 F 
ATOM     84  C   UNL A   1      34.552  33.577  30.287  1.00  0.00     0.200 A 
ATOM     85  F   UNL A   1      35.182  33.920  28.042  1.00  0.00    -0.200 F 
ATOM     86  F   UNL A   1      33.535  34.439  30.149  1.00  0.00    -0.200 F 
ENDBRANCH  52  76
BRANCH  64  87
ATOM     87  C   UNL A   1      42.051  30.153  33.646  1.00  0.00     0.064 A 
ATOM     88  C   UNL A   1      41.662  28.814  33.466  1.00  0.00     0.173 A 
ATOM     89  C   UNL A   1      42.341  30.564  34.954  1.00  0.00     0.173 A 
ATOM     90  F   UNL A   1      41.462  28.310  32.242  1.00  0.00    -0.203 F 
ATOM     91  C   UNL A   1      41.531  27.944  34.547  1.00  0.00     0.198 A 
ATOM     92  C   UNL A   1      42.246  29.684  36.028  1.00  0.00     0.198 A 
ATOM     93  F   UNL A   1      42.771  31.814  35.183  1.00  0.00    -0.203 F 
ATOM     94  F   UNL A   1      41.150  26.673  34.348  1.00  0.00    -0.200 F 
ATOM     95  C   UNL A   1      41.831  28.378  35.827  1.00  0.00     0.200 A 
ATOM     96  F   UNL A   1      42.587  30.097  37.257  1.00  0.00    -0.200 F 
ATOM     97  F   UNL A   1      41.747  27.532  36.863  1.00  0.00    -0.200 F 
ENDBRANCH  64  87
ENDBRANCH  38  39
ENDBRANCH  30  33
ENDBRANCH  28  29
ENDBRANCH  27  28
ENDBRANCH   1  27
TORSDOF 14
ENDMDL
MODEL 2
REMARK VINA RESULT:     -13.3      3.352      8.636
REMARK SMILES COc1ccccc1-n1nnc(C(=O)NCCCCNC(=O)c2ccc(-c3c4nc(c(-c5c(F)c(F)c(F)c(F)c5F)c5ccc([nH]5)c(-c5c(F)c(F)c(F)c(F)c5F)c5nc(c(-c6c(F)c(F)c(F)c(F)c6F)c6ccc3[nH]6)C=C5)C=C4)cc2)c1-c1ccc(Cl)cc1
REMARK SMILES IDX 17 1 16 2 15 3 13 4 14 5 12 7 9 8 10 9 86 10 11 11 8 12 3 13
REMARK SMILES IDX 4 14 5 15 7 16 6 17 2 18 1 19 87 20 88 21 93 22 89 23 92 24
REMARK SMILES IDX 90 25 91 26 18 27 19 28 20 29 21 30 22 32 23 33 24 34 85 35
REMARK SMILES IDX 25 36 84 37 26 38 27 39 28 40 78 41 29 42 83 43 77 44 79 45
REMARK SMILES IDX 30 46 82 47 76 48 75 49 31 51 63 52 43 53 62 54 44 55 47 56
REMARK SMILES IDX 61 57 80 58 45 59 46 60 60 62 81 63 48 64 32 65 33 66 41 67
REMARK SMILES IDX 34 68 35 69 39 70 42 71 36 72 37 73 40 74 38 75 64 76 65 77
REMARK SMILES IDX 73 78 66 79 67 80 71 81 74 82 68 83 69 84 72 85 70 86 49 87
REMARK SMILES IDX 50 88 58 89 51 90 52 91 56 92 59 93 53 94 54 95 57 96 55 97
REMARK H PARENT 15 6 20 31 79 50 47 61
REMARK Flexibility Score: inf
ROOT
ATOM      1  C   UNL A   1      32.511  29.662  25.748  1.00  0.00     0.023 C 
ENDROOT
BRANCH   1   2
ATOM      2  C   UNL A   1      33.212  28.425  25.206  1.00  0.00     0.116 C 
BRANCH   2   3
ATOM      3  N   UNL A   1      33.818  28.427  23.907  1.00  0.00    -0.351 N 
ATOM      4  C   UNL A   1      33.677  27.469  22.909  1.00  0.00     0.274 C 
ATOM      5  O   UNL A   1      34.222  27.741  21.835  1.00  0.00    -0.267 OA
ATOM      6  H   UNL A   1      34.400  29.193  23.696  1.00  0.00     0.163 HD
BRANCH   4   7
ATOM      7  C   UNL A   1      32.974  26.177  23.085  1.00  0.00     0.178 A 
ATOM      8  N   UNL A   1      32.149  24.166  23.450  1.00  0.00    -0.208 N 
ATOM      9  N   UNL A   1      31.215  24.866  22.782  1.00  0.00    -0.061 NA
ATOM     10  C   UNL A   1      33.321  24.914  23.579  1.00  0.00     0.108 A 
ATOM     11  N   UNL A   1      31.655  26.107  22.656  1.00  0.00    -0.124 NA
BRANCH   8  12
ATOM     12  C   UNL A   1      31.970  22.800  23.775  1.00  0.00     0.109 A 
ATOM     13  C   UNL A   1      31.908  22.361  25.107  1.00  0.00     0.144 A 
ATOM     14  C   UNL A   1      32.166  21.015  25.385  1.00  0.00     0.049 A 
ATOM     15  C   UNL A   1      32.427  20.110  24.356  1.00  0.00     0.004 A 
ATOM     16  C   UNL A   1      32.150  21.876  22.731  1.00  0.00     0.032 A 
ATOM     17  C   UNL A   1      32.397  20.535  23.030  1.00  0.00     0.003 A 
BRANCH  13  18
ATOM     18  O   UNL A   1      31.725  23.135  26.221  1.00  0.00    -0.494 OA
ATOM     19  C   UNL A   1      30.392  23.250  26.710  1.00  0.00     0.278 C 
ENDBRANCH  13  18
ENDBRANCH   8  12
BRANCH  10  20
ATOM     20  C   UNL A   1      34.563  24.274  24.016  1.00  0.00     0.003 A 
ATOM     21  C   UNL A   1      35.318  23.471  23.159  1.00  0.00     0.012 A 
ATOM     22  C   UNL A   1      35.002  24.478  25.342  1.00  0.00     0.012 A 
ATOM     23  C   UNL A   1      36.502  22.892  23.621  1.00  0.00     0.021 A 
ATOM     24  C   UNL A   1      36.161  23.864  25.810  1.00  0.00     0.021 A 
ATOM     25  C   UNL A   1      36.909  23.075  24.943  1.00  0.00     0.041 A 
ATOM     26  Cl  UNL A   1      38.341  22.318  25.509  1.00  0.00    -0.084 Cl
ENDBRANCH  10  20
ENDBRANCH   4   7
ENDBRANCH   2   3
ENDBRANCH   1   2
BRANCH   1  27
ATOM     27  C   UNL A   1      32.856  30.145  27.151  1.00  0.00     0.023 C 
BRANCH  27  28
ATOM     28  C   UNL A   1      34.009  31.136  27.258  1.00  0.00     0.116 C 
BRANCH  28  29
ATOM     29  N   UNL A   1      34.016  31.975  28.455  1.00  0.00    -0.352 N 
ATOM     30  C   UNL A   1      34.947  31.904  29.491  1.00  0.00     0.251 C 
ATOM     31  H   UNL A   1      33.302  32.649  28.537  1.00  0.00     0.163 HD
ATOM     32  O   UNL A   1      34.715  32.325  30.606  1.00  0.00    -0.269 OA
BRANCH  30  33
ATOM     33  C   UNL A   1      36.255  31.295  29.173  1.00  0.00     0.039 A 
ATOM     34  C   UNL A   1      37.448  32.013  29.252  1.00  0.00     0.014 A 
ATOM     35  C   UNL A   1      36.258  29.928  28.909  1.00  0.00     0.014 A 
ATOM     36  C   UNL A   1      38.650  31.310  29.180  1.00  0.00     0.010 A 
ATOM     37  C   UNL A   1      37.429  29.220  28.965  1.00  0.00     0.010 A 
ATOM     38  C   UNL A   1      38.631  29.907  29.078  1.00  0.00    -0.014 A 
BRANCH  38  39
ATOM     39  C   UNL A   1      39.849  29.130  29.279  1.00  0.00     0.031 A 
ATOM     40  C   UNL A   1      40.181  28.877  30.711  1.00  0.00     0.074 A 
ATOM     41  C   UNL A   1      40.501  28.491  28.285  1.00  0.00     0.049 A 
ATOM     42  N   UNL A   1      41.180  29.350  31.378  1.00  0.00    -0.248 NA
ATOM     43  C   UNL A   1      39.218  28.130  31.540  1.00  0.00     0.031 C 
ATOM     44  C   UNL A   1      40.130  28.354  26.872  1.00  0.00     0.029 A 
ATOM     45  N   UNL A   1      41.630  27.737  28.364  1.00  0.00    -0.354 N 
ATOM     46  C   UNL A   1      41.086  28.815  32.660  1.00  0.00     0.074 A 
ATOM     47  C   UNL A   1      39.779  28.217  32.750  1.00  0.00     0.031 C 
ATOM     48  C   UNL A   1      40.880  27.390  26.294  1.00  0.00     0.029 A 
ATOM     49  C   UNL A   1      41.897  26.966  27.238  1.00  0.00     0.049 A 
ATOM     50  H   UNL A   1      42.213  27.736  29.157  1.00  0.00     0.167 HD
ATOM     51  C   UNL A   1      42.188  28.713  33.455  1.00  0.00     0.037 A 
ATOM     52  C   UNL A   1      42.875  26.033  27.114  1.00  0.00     0.037 A 
ATOM     53  C   UNL A   1      43.257  29.544  32.958  1.00  0.00     0.049 A 
ATOM     54  C   UNL A   1      43.889  26.322  28.162  1.00  0.00     0.074 A 
ATOM     55  C   UNL A   1      43.399  30.899  32.726  1.00  0.00     0.029 A 
ATOM     56  N   UNL A   1      44.256  28.942  32.232  1.00  0.00    -0.354 N 
ATOM     57  N   UNL A   1      44.634  27.393  28.166  1.00  0.00    -0.248 NA
ATOM     58  C   UNL A   1      43.713  25.675  29.455  1.00  0.00     0.031 C 
ATOM     59  C   UNL A   1      44.108  30.984  31.490  1.00  0.00     0.029 A 
ATOM     60  C   UNL A   1      44.435  29.686  31.095  1.00  0.00     0.049 A 
ATOM     61  H   UNL A   1      44.751  28.128  32.482  1.00  0.00     0.167 HD
ATOM     62  C   UNL A   1      44.654  27.803  29.491  1.00  0.00     0.074 A 
ATOM     63  C   UNL A   1      44.121  26.670  30.248  1.00  0.00     0.031 C 
ATOM     64  C   UNL A   1      44.814  29.117  29.823  1.00  0.00     0.037 A 
BRANCH  51  65
ATOM     65  C   UNL A   1      42.442  27.598  34.442  1.00  0.00     0.064 A 
ATOM     66  C   UNL A   1      43.013  26.393  33.978  1.00  0.00     0.173 A 
ATOM     67  C   UNL A   1      41.871  27.540  35.731  1.00  0.00     0.173 A 
ATOM     68  F   UNL A   1      43.578  26.327  32.764  1.00  0.00    -0.203 F 
ATOM     69  C   UNL A   1      42.926  25.204  34.708  1.00  0.00     0.198 A 
ATOM     70  C   UNL A   1      41.832  26.364  36.477  1.00  0.00     0.198 A 
ATOM     71  F   UNL A   1      41.225  28.578  36.273  1.00  0.00    -0.203 F 
ATOM     72  F   UNL A   1      43.359  24.058  34.165  1.00  0.00    -0.200 F 
ATOM     73  C   UNL A   1      42.326  25.189  35.953  1.00  0.00     0.200 A 
ATOM     74  F   UNL A   1      41.232  26.366  37.676  1.00  0.00    -0.200 F 
ATOM     75  F   UNL A   1      42.178  24.039  36.624  1.00  0.00    -0.200 F 
ENDBRANCH  51  65
BRANCH  52  76
ATOM     76  C   UNL A   1      42.814  24.734  26.400  1.00  0.00     0.064 A 
ATOM     77  C   UNL A   1      43.687  24.443  25.338  1.00  0.00     0.173 A 
ATOM     78  C   UNL A   1      42.095  23.644  26.930  1.00  0.00     0.173 A 
ATOM     79  F   UNL A   1      44.443  25.414  24.805  1.00  0.00    -0.203 F 
ATOM     80  C   UNL A   1      43.850  23.139  24.855  1.00  0.00     0.198 A 
ATOM     81  C   UNL A   1      42.256  22.345  26.447  1.00  0.00     0.198 A 
ATOM     82  F   UNL A   1      41.294  23.802  27.995  1.00  0.00    -0.203 F 
ATOM     83  F   UNL A   1      44.738  22.892  23.882  1.00  0.00    -0.200 F 
ATOM     84  C   UNL A   1      43.143  22.090  25.419  1.00  0.00     0.200 A 
ATOM     85  F   UNL A   1      41.595  21.333  27.026  1.00  0.00    -0.200 F 
ATOM     86  F   UNL A   1      43.347  20.833  25.000  1.00  0.00    -0.200 F 
ENDBRANCH  52  76
BRANCH  64  87
ATOM     87  C   UNL A   1      45.203  30.084  28.737  1.00  0.00     0.064 A 
ATOM     88  C   UNL A   1      44.289  30.765  27.915  1.00  0.00     0.173 A 
ATOM     89  C   UNL A   1      46.551  30.452  28.635  1.00  0.00     0.173 A 
ATOM     90  F   UNL A   1      42.972  30.549  28.018  1.00  0.00    -0.203 F 
ATOM     91  C   UNL A   1      44.711  31.736  27.008  1.00  0.00     0.198 A 
ATOM     92  C   UNL A   1      46.967  31.447  27.755  1.00  0.00     0.198 A 
ATOM     93  F   UNL A   1      47.465  29.876  29.432  1.00  0.00    -0.203 F 
ATOM     94  F   UNL A   1      43.817  32.365  26.229  1.00  0.00    -0.200 F 
ATOM     95  C   UNL A   1      46.049  32.082  26.934  1.00  0.00     0.200 A 
ATOM     96  F   UNL A   1      48.256  31.811  27.725  1.00  0.00    -0.200 F 
ATOM     97  F   UNL A   1      46.452  33.044  26.093  1.00  0.00    -0.200 F 
ENDBRANCH  64  87
ENDBRANCH  38  39
ENDBRANCH  30  33
ENDBRANCH  28  29
ENDBRANCH  27  28
ENDBRANCH   1  27
TORSDOF 14
ENDMDL
MODEL 3
REMARK VINA RESULT:     -12.6      2.936      3.942
REMARK SMILES COc1ccccc1-n1nnc(C(=O)NCCCCNC(=O)c2ccc(-c3c4nc(c(-c5c(F)c(F)c(F)c(F)c5F)c5ccc([nH]5)c(-c5c(F)c(F)c(F)c(F)c5F)c5nc(c(-c6c(F)c(F)c(F)c(F)c6F)c6ccc3[nH]6)C=C5)C=C4)cc2)c1-c1ccc(Cl)cc1
REMARK SMILES IDX 17 1 16 2 15 3 13 4 14 5 12 7 9 8 10 9 86 10 11 11 8 12 3 13
REMARK SMILES IDX 4 14 5 15 7 16 6 17 2 18 1 19 87 20 88 21 93 22 89 23 92 24
REMARK SMILES IDX 90 25 91 26 18 27 19 28 20 29 21 30 22 32 23 33 24 34 85 35
REMARK SMILES IDX 25 36 84 37 26 38 27 39 28 40 78 41 29 42 83 43 77 44 79 45
REMARK SMILES IDX 30 46 82 47 76 48 75 49 31 51 63 52 43 53 62 54 44 55 47 56
REMARK SMILES IDX 61 57 80 58 45 59 46 60 60 62 81 63 48 64 32 65 33 66 41 67
REMARK SMILES IDX 34 68 35 69 39 70 42 71 36 72 37 73 40 74 38 75 64 76 65 77
REMARK SMILES IDX 73 78 66 79 67 80 71 81 74 82 68 83 69 84 72 85 70 86 49 87
REMARK SMILES IDX 50 88 58 89 51 90 52 91 56 92 59 93 53 94 54 95 57 96 55 97
REMARK H PARENT 15 6 20 31 79 50 47 61
REMARK Flexibility Score: inf
ROOT
ATOM      1  C   UNL A   1      39.478  21.113  26.259  1.00  0.00     0.023 C 
ENDROOT
BRANCH   1   2
ATOM      2  C   UNL A   1      38.374  21.258  25.222  1.00  0.00     0.116 C 
BRANCH   2   3
ATOM      3  N   UNL A   1      37.187  20.455  25.287  1.00  0.00    -0.351 N 
ATOM      4  C   UNL A   1      35.917  20.789  24.831  1.00  0.00     0.274 C 
ATOM      5  O   UNL A   1      35.074  19.891  24.911  1.00  0.00    -0.267 OA
ATOM      6  H   UNL A   1      37.282  19.567  25.701  1.00  0.00     0.163 HD
BRANCH   4   7
ATOM      7  C   UNL A   1      35.538  22.128  24.321  1.00  0.00     0.178 A 
ATOM      8  N   UNL A   1      34.770  24.106  23.723  1.00  0.00    -0.208 N 
ATOM      9  N   UNL A   1      35.823  23.830  22.933  1.00  0.00    -0.061 NA
ATOM     10  C   UNL A   1      34.483  23.019  24.551  1.00  0.00     0.108 A 
ATOM     11  N   UNL A   1      36.359  22.697  23.357  1.00  0.00    -0.124 NA
BRANCH   8  12
ATOM     12  C   UNL A   1      33.991  25.275  23.550  1.00  0.00     0.109 A 
ATOM     13  C   UNL A   1      33.360  25.566  22.331  1.00  0.00     0.144 A 
ATOM     14  C   UNL A   1      32.982  26.885  22.066  1.00  0.00     0.049 A 
ATOM     15  C   UNL A   1      33.179  27.889  23.015  1.00  0.00     0.004 A 
ATOM     16  C   UNL A   1      34.114  26.265  24.540  1.00  0.00     0.032 A 
ATOM     17  C   UNL A   1      33.723  27.576  24.259  1.00  0.00     0.003 A 
BRANCH  13  18
ATOM     18  O   UNL A   1      33.155  24.707  21.285  1.00  0.00    -0.494 OA
ATOM     19  C   UNL A   1      32.655  25.276  20.077  1.00  0.00     0.278 C 
ENDBRANCH  13  18
ENDBRANCH   8  12
BRANCH  10  20
ATOM     20  C   UNL A   1      33.223  22.968  25.295  1.00  0.00     0.003 A 
ATOM     21  C   UNL A   1      33.132  23.397  26.620  1.00  0.00     0.012 A 
ATOM     22  C   UNL A   1      32.072  22.469  24.647  1.00  0.00     0.012 A 
ATOM     23  C   UNL A   1      31.904  23.339  27.283  1.00  0.00     0.021 A 
ATOM     24  C   UNL A   1      30.859  22.374  25.325  1.00  0.00     0.021 A 
ATOM     25  C   UNL A   1      30.781  22.814  26.642  1.00  0.00     0.041 A 
ATOM     26  Cl  UNL A   1      29.290  22.705  27.484  1.00  0.00    -0.084 Cl
ENDBRANCH  10  20
ENDBRANCH   4   7
ENDBRANCH   2   3
ENDBRANCH   1   2
BRANCH   1  27
ATOM     27  C   UNL A   1      40.500  19.996  26.089  1.00  0.00     0.023 C 
BRANCH  27  28
ATOM     28  C   UNL A   1      41.849  20.210  26.767  1.00  0.00     0.116 C 
BRANCH  28  29
ATOM     29  N   UNL A   1      43.013  19.711  26.035  1.00  0.00    -0.352 N 
ATOM     30  C   UNL A   1      43.863  20.481  25.242  1.00  0.00     0.251 C 
ATOM     31  H   UNL A   1      43.214  18.750  26.108  1.00  0.00     0.163 HD
ATOM     32  O   UNL A   1      44.559  19.997  24.371  1.00  0.00    -0.269 OA
BRANCH  30  33
ATOM     33  C   UNL A   1      43.895  21.934  25.510  1.00  0.00     0.039 A 
ATOM     34  C   UNL A   1      42.996  22.819  24.918  1.00  0.00     0.014 A 
ATOM     35  C   UNL A   1      44.791  22.367  26.485  1.00  0.00     0.014 A 
ATOM     36  C   UNL A   1      42.930  24.123  25.407  1.00  0.00     0.010 A 
ATOM     37  C   UNL A   1      44.641  23.605  27.052  1.00  0.00     0.010 A 
ATOM     38  C   UNL A   1      43.729  24.496  26.504  1.00  0.00    -0.014 A 
BRANCH  38  39
ATOM     39  C   UNL A   1      43.485  25.750  27.209  1.00  0.00     0.031 A 
ATOM     40  C   UNL A   1      44.405  26.857  26.818  1.00  0.00     0.074 A 
ATOM     41  C   UNL A   1      42.396  25.980  27.972  1.00  0.00     0.049 A 
ATOM     42  N   UNL A   1      45.318  27.410  27.544  1.00  0.00    -0.248 NA
ATOM     43  C   UNL A   1      44.413  27.308  25.415  1.00  0.00     0.031 C 
ATOM     44  C   UNL A   1      41.226  25.124  28.196  1.00  0.00     0.029 A 
ATOM     45  N   UNL A   1      42.069  27.107  28.659  1.00  0.00    -0.354 N 
ATOM     46  C   UNL A   1      45.893  28.407  26.762  1.00  0.00     0.074 A 
ATOM     47  C   UNL A   1      45.421  28.186  25.420  1.00  0.00     0.031 C 
ATOM     48  C   UNL A   1      40.234  25.845  28.766  1.00  0.00     0.029 A 
ATOM     49  C   UNL A   1      40.753  27.157  29.106  1.00  0.00     0.049 A 
ATOM     50  H   UNL A   1      42.713  27.831  28.828  1.00  0.00     0.167 HD
ATOM     51  C   UNL A   1      46.527  29.467  27.339  1.00  0.00     0.037 A 
ATOM     52  C   UNL A   1      40.141  28.217  29.691  1.00  0.00     0.037 A 
ATOM     53  C   UNL A   1      46.830  29.192  28.722  1.00  0.00     0.049 A 
ATOM     54  C   UNL A   1      41.213  29.106  30.213  1.00  0.00     0.074 A 
ATOM     55  C   UNL A   1      47.581  28.231  29.373  1.00  0.00     0.029 A 
ATOM     56  N   UNL A   1      45.999  29.719  29.681  1.00  0.00    -0.354 N 
ATOM     57  N   UNL A   1      42.011  28.771  31.190  1.00  0.00    -0.248 NA
ATOM     58  C   UNL A   1      41.713  30.142  29.321  1.00  0.00     0.031 C 
ATOM     59  C   UNL A   1      46.804  27.876  30.516  1.00  0.00     0.029 A 
ATOM     60  C   UNL A   1      45.679  28.702  30.543  1.00  0.00     0.049 A 
ATOM     61  H   UNL A   1      45.690  30.653  29.738  1.00  0.00     0.167 HD
ATOM     62  C   UNL A   1      43.262  29.217  30.790  1.00  0.00     0.074 A 
ATOM     63  C   UNL A   1      43.004  30.109  29.659  1.00  0.00     0.031 C 
ATOM     64  C   UNL A   1      44.403  28.597  31.210  1.00  0.00     0.037 A 
BRANCH  51  65
ATOM     65  C   UNL A   1      46.533  30.875  26.789  1.00  0.00     0.064 A 
ATOM     66  C   UNL A   1      47.745  31.596  26.773  1.00  0.00     0.173 A 
ATOM     67  C   UNL A   1      45.368  31.643  26.579  1.00  0.00     0.173 A 
ATOM     68  F   UNL A   1      48.916  30.971  26.970  1.00  0.00    -0.203 F 
ATOM     69  C   UNL A   1      47.777  32.989  26.657  1.00  0.00     0.198 A 
ATOM     70  C   UNL A   1      45.408  33.026  26.411  1.00  0.00     0.198 A 
ATOM     71  F   UNL A   1      44.142  31.115  26.643  1.00  0.00    -0.203 F 
ATOM     72  F   UNL A   1      48.940  33.641  26.787  1.00  0.00    -0.200 F 
ATOM     73  C   UNL A   1      46.606  33.703  26.486  1.00  0.00     0.200 A 
ATOM     74  F   UNL A   1      44.261  33.703  26.263  1.00  0.00    -0.200 F 
ATOM     75  F   UNL A   1      46.625  35.042  26.444  1.00  0.00    -0.200 F 
ENDBRANCH  51  65
BRANCH  52  76
ATOM     76  C   UNL A   1      38.740  28.675  29.518  1.00  0.00     0.064 A 
ATOM     77  C   UNL A   1      37.916  28.935  30.626  1.00  0.00     0.173 A 
ATOM     78  C   UNL A   1      38.275  29.141  28.273  1.00  0.00     0.173 A 
ATOM     79  F   UNL A   1      38.305  28.566  31.855  1.00  0.00    -0.203 F 
ATOM     80  C   UNL A   1      36.714  29.641  30.500  1.00  0.00     0.198 A 
ATOM     81  C   UNL A   1      37.075  29.843  28.146  1.00  0.00     0.198 A 
ATOM     82  F   UNL A   1      39.023  29.011  27.167  1.00  0.00    -0.203 F 
ATOM     83  F   UNL A   1      35.985  29.924  31.588  1.00  0.00    -0.200 F 
ATOM     84  C   UNL A   1      36.301  30.105  29.261  1.00  0.00     0.200 A 
ATOM     85  F   UNL A   1      36.706  30.319  26.949  1.00  0.00    -0.200 F 
ATOM     86  F   UNL A   1      35.183  30.836  29.148  1.00  0.00    -0.200 F 
ENDBRANCH  52  76
BRANCH  64  87
ATOM     87  C   UNL A   1      44.292  27.566  32.301  1.00  0.00     0.064 A 
ATOM     88  C   UNL A   1      44.154  26.185  32.078  1.00  0.00     0.173 A 
ATOM     89  C   UNL A   1      44.494  27.982  33.623  1.00  0.00     0.173 A 
ATOM     90  F   UNL A   1      44.058  25.690  30.837  1.00  0.00    -0.203 F 
ATOM     91  C   UNL A   1      44.176  25.272  33.132  1.00  0.00     0.198 A 
ATOM     92  C   UNL A   1      44.552  27.068  34.671  1.00  0.00     0.198 A 
ATOM     93  F   UNL A   1      44.687  29.283  33.894  1.00  0.00    -0.203 F 
ATOM     94  F   UNL A   1      44.032  23.960  32.891  1.00  0.00    -0.200 F 
ATOM     95  C   UNL A   1      44.382  25.714  34.428  1.00  0.00     0.200 A 
ATOM     96  F   UNL A   1      44.803  27.498  35.915  1.00  0.00    -0.200 F 
ATOM     97  F   UNL A   1      44.445  24.837  35.438  1.00  0.00    -0.200 F 
ENDBRANCH  64  87
ENDBRANCH  38  39
ENDBRANCH  30  33
ENDBRANCH  28  29
ENDBRANCH  27  28
ENDBRANCH   1  27
TORSDOF 14
ENDMDL
