MODEL 1
REMARK VINA RESULT:     -14.2      0.000      0.000
REMARK SMILES O=C(NCCCCNC(=O)c1nnn(-c2cccc(C(F)(F)F)c2)c1[C@@H]1COc2ccccc2O1)c1ccc(-c2c3nc(c(-c4c(F)c(F)c(F)c(F)c4F)c4ccc([nH]4)c(-c4c(F)c(F)c(F)c(F)c4F)c4nc(c(-c5c(F)c(F)c(F)c(F)c5F)c5ccc2[nH]5)C=C4)C=C3)cc1
REMARK SMILES IDX 5 1 4 2 3 3 1 4 2 5 36 7 37 8 98 9 38 10 97 11 39 12 40 13
REMARK SMILES IDX 41 14 91 15 42 16 96 17 90 18 92 19 43 20 95 21 89 22 88 23
REMARK SMILES IDX 44 25 76 26 56 27 75 28 57 29 60 30 74 31 93 32 58 33 59 34
REMARK SMILES IDX 73 36 94 37 61 38 45 39 46 40 54 41 47 42 48 43 52 44 55 45
REMARK SMILES IDX 49 46 50 47 53 48 51 49 77 50 78 51 86 52 79 53 80 54 84 55
REMARK SMILES IDX 87 56 81 57 82 58 85 59 83 60 62 61 63 62 71 63 64 64 65 65
REMARK SMILES IDX 69 66 72 67 66 68 67 69 70 70 68 71 6 72 7 73 8 74 9 75
REMARK SMILES IDX 10 77 11 78 12 79 25 80 13 81 14 82 26 83 27 84 35 85 28 86
REMARK SMILES IDX 34 87 29 88 33 89 30 90 32 91 31 92 15 93 16 94 24 95 17 96
REMARK SMILES IDX 19 97 18 98 20 99 21 100 22 101 23 102
REMARK H PARENT 3 6 92 24 60 35 8 76
REMARK Flexibility Score: inf
ROOT
ATOM      1  C   UNL A   1      37.369  22.304  24.623  1.00  0.00     0.023 C 
ENDROOT
BRANCH   1   2
ATOM      2  C   UNL A   1      38.156  22.212  25.936  1.00  0.00     0.116 C 
BRANCH   2   3
ATOM      3  N   UNL A   1      39.565  21.891  25.799  1.00  0.00    -0.352 N 
ATOM      4  O   UNL A   1      41.758  21.792  26.059  1.00  0.00    -0.269 OA
ATOM      5  C   UNL A   1      40.733  22.452  26.246  1.00  0.00     0.251 C 
ATOM      6  H   UNL A   1      39.717  21.082  25.260  1.00  0.00     0.163 HD
BRANCH   5   7
ATOM      7  C   UNL A   1      40.856  23.793  26.882  1.00  0.00     0.039 A 
ATOM      8  C   UNL A   1      41.698  24.102  27.947  1.00  0.00     0.014 A 
ATOM      9  C   UNL A   1      40.039  24.816  26.359  1.00  0.00     0.014 A 
ATOM     10  C   UNL A   1      41.673  25.366  28.530  1.00  0.00     0.010 A 
ATOM     11  C   UNL A   1      40.030  26.094  26.921  1.00  0.00     0.010 A 
ATOM     12  C   UNL A   1      40.832  26.359  28.028  1.00  0.00    -0.014 A 
BRANCH  12  13
ATOM     13  C   UNL A   1      40.912  27.679  28.651  1.00  0.00     0.031 A 
ATOM     14  C   UNL A   1      42.003  28.580  28.173  1.00  0.00     0.074 A 
ATOM     15  C   UNL A   1      40.003  28.152  29.524  1.00  0.00     0.049 A 
ATOM     16  N   UNL A   1      42.919  29.181  28.868  1.00  0.00    -0.248 NA
ATOM     17  C   UNL A   1      42.091  28.826  26.727  1.00  0.00     0.031 C 
ATOM     18  C   UNL A   1      38.710  27.571  29.882  1.00  0.00     0.029 A 
ATOM     19  N   UNL A   1      40.019  29.338  30.203  1.00  0.00    -0.354 N 
ATOM     20  C   UNL A   1      43.622  29.985  27.970  1.00  0.00     0.074 A 
ATOM     21  C   UNL A   1      43.117  29.675  26.657  1.00  0.00     0.031 C 
ATOM     22  C   UNL A   1      37.979  28.499  30.539  1.00  0.00     0.029 A 
ATOM     23  C   UNL A   1      38.797  29.684  30.750  1.00  0.00     0.049 A 
ATOM     24  H   UNL A   1      40.825  29.894  30.292  1.00  0.00     0.167 HD
ATOM     25  C   UNL A   1      44.476  30.967  28.374  1.00  0.00     0.037 A 
ATOM     26  C   UNL A   1      38.454  30.886  31.269  1.00  0.00     0.037 A 
ATOM     27  C   UNL A   1      44.894  30.809  29.736  1.00  0.00     0.049 A 
ATOM     28  C   UNL A   1      39.695  31.627  31.600  1.00  0.00     0.074 A 
ATOM     29  C   UNL A   1      45.594  29.848  30.438  1.00  0.00     0.029 A 
ATOM     30  N   UNL A   1      44.370  31.645  30.687  1.00  0.00    -0.354 N 
ATOM     31  N   UNL A   1      40.497  31.331  32.583  1.00  0.00    -0.248 NA
ATOM     32  C   UNL A   1      40.239  32.539  30.604  1.00  0.00     0.031 C 
ATOM     33  C   UNL A   1      45.057  29.881  31.758  1.00  0.00     0.029 A 
ATOM     34  C   UNL A   1      44.066  30.862  31.770  1.00  0.00     0.049 A 
ATOM     35  H   UNL A   1      44.237  32.617  30.608  1.00  0.00     0.167 HD
ATOM     36  C   UNL A   1      41.757  31.681  32.127  1.00  0.00     0.074 A 
ATOM     37  C   UNL A   1      41.522  32.533  30.969  1.00  0.00     0.031 C 
ATOM     38  C   UNL A   1      42.871  31.020  32.559  1.00  0.00     0.037 A 
BRANCH  25  39
ATOM     39  C   UNL A   1      44.735  32.238  27.608  1.00  0.00     0.064 A 
ATOM     40  C   UNL A   1      45.930  32.389  26.878  1.00  0.00     0.173 A 
ATOM     41  C   UNL A   1      43.986  33.416  27.810  1.00  0.00     0.173 A 
ATOM     42  F   UNL A   1      46.734  31.337  26.659  1.00  0.00    -0.203 F 
ATOM     43  C   UNL A   1      46.369  33.638  26.430  1.00  0.00     0.198 A 
ATOM     44  C   UNL A   1      44.401  34.653  27.317  1.00  0.00     0.198 A 
ATOM     45  F   UNL A   1      42.889  33.427  28.580  1.00  0.00    -0.203 F 
ATOM     46  F   UNL A   1      47.566  33.751  25.838  1.00  0.00    -0.200 F 
ATOM     47  C   UNL A   1      45.605  34.769  26.651  1.00  0.00     0.200 A 
ATOM     48  F   UNL A   1      43.659  35.743  27.559  1.00  0.00    -0.200 F 
ATOM     49  F   UNL A   1      46.048  35.974  26.270  1.00  0.00    -0.200 F 
ENDBRANCH  25  39
BRANCH  26  50
ATOM     50  C   UNL A   1      37.124  31.533  31.269  1.00  0.00     0.064 A 
ATOM     51  C   UNL A   1      36.454  31.819  32.468  1.00  0.00     0.173 A 
ATOM     52  C   UNL A   1      36.592  32.109  30.099  1.00  0.00     0.173 A 
ATOM     53  F   UNL A   1      36.926  31.351  33.633  1.00  0.00    -0.203 F 
ATOM     54  C   UNL A   1      35.325  32.642  32.496  1.00  0.00     0.198 A 
ATOM     55  C   UNL A   1      35.457  32.918  30.126  1.00  0.00     0.198 A 
ATOM     56  F   UNL A   1      37.216  31.975  28.920  1.00  0.00    -0.203 F 
ATOM     57  F   UNL A   1      34.746  32.942  33.667  1.00  0.00    -0.200 F 
ATOM     58  C   UNL A   1      34.831  33.196  31.325  1.00  0.00     0.200 A 
ATOM     59  F   UNL A   1      35.011  33.475  28.991  1.00  0.00    -0.200 F 
ATOM     60  F   UNL A   1      33.779  34.025  31.359  1.00  0.00    -0.200 F 
ENDBRANCH  26  50
BRANCH  38  61
ATOM     61  C   UNL A   1      42.739  30.151  33.774  1.00  0.00     0.064 A 
ATOM     62  C   UNL A   1      42.910  30.621  35.086  1.00  0.00     0.173 A 
ATOM     63  C   UNL A   1      42.289  28.834  33.608  1.00  0.00     0.173 A 
ATOM     64  F   UNL A   1      43.228  31.900  35.324  1.00  0.00    -0.203 F 
ATOM     65  C   UNL A   1      42.694  29.788  36.182  1.00  0.00     0.198 A 
ATOM     66  C   UNL A   1      42.038  28.016  34.706  1.00  0.00     0.198 A 
ATOM     67  F   UNL A   1      42.045  28.354  32.378  1.00  0.00    -0.203 F 
ATOM     68  F   UNL A   1      42.879  30.254  37.426  1.00  0.00    -0.200 F 
ATOM     69  C   UNL A   1      42.254  28.488  35.991  1.00  0.00     0.200 A 
ATOM     70  F   UNL A   1      41.560  26.777  34.519  1.00  0.00    -0.200 F 
ATOM     71  F   UNL A   1      42.007  27.700  37.046  1.00  0.00    -0.200 F 
ENDBRANCH  38  61
ENDBRANCH  12  13
ENDBRANCH   5   7
ENDBRANCH   2   3
ENDBRANCH   1   2
BRANCH   1  72
ATOM     72  C   UNL A   1      36.104  21.457  24.547  1.00  0.00     0.023 C 
BRANCH  72  73
ATOM     73  C   UNL A   1      35.303  21.323  25.835  1.00  0.00     0.116 C 
BRANCH  73  74
ATOM     74  N   UNL A   1      33.958  20.843  25.691  1.00  0.00    -0.351 N 
ATOM     75  C   UNL A   1      32.803  21.333  25.108  1.00  0.00     0.273 C 
ATOM     76  H   UNL A   1      33.827  19.958  26.102  1.00  0.00     0.163 HD
ATOM     77  O   UNL A   1      31.867  20.546  25.187  1.00  0.00    -0.267 OA
BRANCH  75  78
ATOM     78  C   UNL A   1      32.604  22.654  24.455  1.00  0.00     0.178 A 
ATOM     79  N   UNL A   1      31.993  22.595  23.208  1.00  0.00    -0.124 NA
ATOM     80  C   UNL A   1      32.818  24.010  24.743  1.00  0.00     0.122 A 
ATOM     81  N   UNL A   1      31.788  23.816  22.755  1.00  0.00    -0.061 NA
ATOM     82  N   UNL A   1      32.376  24.671  23.601  1.00  0.00    -0.213 N 
BRANCH  80  83
ATOM     83  C   UNL A   1      33.188  24.730  26.005  1.00  0.00     0.262 C 
ATOM     84  C   UNL A   1      31.941  24.898  26.905  1.00  0.00     0.281 C 
ATOM     85  O   UNL A   1      33.924  25.942  25.788  1.00  0.00    -0.477 OA
ATOM     86  O   UNL A   1      31.174  26.046  26.548  1.00  0.00    -0.485 OA
ATOM     87  C   UNL A   1      33.355  27.054  26.356  1.00  0.00     0.162 A 
ATOM     88  C   UNL A   1      31.996  27.131  26.670  1.00  0.00     0.161 A 
ATOM     89  C   UNL A   1      34.169  28.163  26.555  1.00  0.00     0.050 A 
ATOM     90  C   UNL A   1      31.431  28.316  27.123  1.00  0.00     0.050 A 
ATOM     91  C   UNL A   1      33.617  29.345  27.057  1.00  0.00     0.004 A 
ATOM     92  C   UNL A   1      32.248  29.425  27.325  1.00  0.00     0.004 A 
ENDBRANCH  80  83
BRANCH  82  93
ATOM     93  C   UNL A   1      32.455  26.033  23.263  1.00  0.00     0.067 A 
ATOM     94  C   UNL A   1      33.654  26.547  22.766  1.00  0.00     0.028 A 
ATOM     95  C   UNL A   1      31.305  26.826  23.344  1.00  0.00     0.041 A 
ATOM     96  C   UNL A   1      33.672  27.843  22.253  1.00  0.00     0.003 A 
ATOM     97  C   UNL A   1      31.326  28.137  22.849  1.00  0.00     0.058 A 
ATOM     98  C   UNL A   1      32.514  28.627  22.280  1.00  0.00     0.013 A 
BRANCH  97  99
ATOM     99  C   UNL A   1      30.075  28.977  22.850  1.00  0.00     0.416 C 
ATOM    100  F   UNL A   1      29.967  29.771  21.748  1.00  0.00    -0.166 F 
ATOM    101  F   UNL A   1      28.939  28.224  22.878  1.00  0.00    -0.166 F 
ATOM    102  F   UNL A   1      29.988  29.816  23.921  1.00  0.00    -0.166 F 
ENDBRANCH  97  99
ENDBRANCH  82  93
ENDBRANCH  75  78
ENDBRANCH  73  74
ENDBRANCH  72  73
ENDBRANCH   1  72
TORSDOF 14
ENDMDL
MODEL 2
REMARK VINA RESULT:     -14.2      0.678      1.659
REMARK SMILES O=C(NCCCCNC(=O)c1nnn(-c2cccc(C(F)(F)F)c2)c1[C@@H]1COc2ccccc2O1)c1ccc(-c2c3nc(c(-c4c(F)c(F)c(F)c(F)c4F)c4ccc([nH]4)c(-c4c(F)c(F)c(F)c(F)c4F)c4nc(c(-c5c(F)c(F)c(F)c(F)c5F)c5ccc2[nH]5)C=C4)C=C3)cc1
REMARK SMILES IDX 5 1 4 2 3 3 1 4 2 5 36 7 37 8 98 9 38 10 97 11 39 12 40 13
REMARK SMILES IDX 41 14 91 15 42 16 96 17 90 18 92 19 43 20 95 21 89 22 88 23
REMARK SMILES IDX 44 25 76 26 56 27 75 28 57 29 60 30 74 31 93 32 58 33 59 34
REMARK SMILES IDX 73 36 94 37 61 38 45 39 46 40 54 41 47 42 48 43 52 44 55 45
REMARK SMILES IDX 49 46 50 47 53 48 51 49 77 50 78 51 86 52 79 53 80 54 84 55
REMARK SMILES IDX 87 56 81 57 82 58 85 59 83 60 62 61 63 62 71 63 64 64 65 65
REMARK SMILES IDX 69 66 72 67 66 68 67 69 70 70 68 71 6 72 7 73 8 74 9 75
REMARK SMILES IDX 10 77 11 78 12 79 25 80 13 81 14 82 26 83 27 84 35 85 28 86
REMARK SMILES IDX 34 87 29 88 33 89 30 90 32 91 31 92 15 93 16 94 24 95 17 96
REMARK SMILES IDX 19 97 18 98 20 99 21 100 22 101 23 102
REMARK H PARENT 3 6 92 24 60 35 8 76
REMARK Flexibility Score: inf
ROOT
ATOM      1  C   UNL A   1      38.192  22.383  25.605  1.00  0.00     0.023 C 
ENDROOT
BRANCH   1   2
ATOM      2  C   UNL A   1      39.315  21.639  26.338  1.00  0.00     0.116 C 
BRANCH   2   3
ATOM      3  N   UNL A   1      40.626  21.719  25.719  1.00  0.00    -0.352 N 
ATOM      4  O   UNL A   1      42.724  22.225  25.239  1.00  0.00    -0.269 OA
ATOM      5  C   UNL A   1      41.689  22.577  25.813  1.00  0.00     0.251 C 
ATOM      6  H   UNL A   1      40.788  20.985  25.084  1.00  0.00     0.163 HD
BRANCH   5   7
ATOM      7  C   UNL A   1      41.672  23.898  26.501  1.00  0.00     0.039 A 
ATOM      8  C   UNL A   1      42.226  24.158  27.753  1.00  0.00     0.014 A 
ATOM      9  C   UNL A   1      41.030  24.954  25.824  1.00  0.00     0.014 A 
ATOM     10  C   UNL A   1      42.077  25.407  28.351  1.00  0.00     0.010 A 
ATOM     11  C   UNL A   1      40.902  26.216  26.405  1.00  0.00     0.010 A 
ATOM     12  C   UNL A   1      41.405  26.433  27.686  1.00  0.00    -0.014 A 
BRANCH  12  13
ATOM     13  C   UNL A   1      41.349  27.733  28.349  1.00  0.00     0.031 A 
ATOM     14  C   UNL A   1      42.477  28.674  28.078  1.00  0.00     0.074 A 
ATOM     15  C   UNL A   1      40.300  28.158  29.079  1.00  0.00     0.049 A 
ATOM     16  N   UNL A   1      43.254  29.272  28.927  1.00  0.00    -0.248 NA
ATOM     17  C   UNL A   1      42.788  28.968  26.672  1.00  0.00     0.031 C 
ATOM     18  C   UNL A   1      38.982  27.537  29.209  1.00  0.00     0.029 A 
ATOM     19  N   UNL A   1      40.175  29.321  29.784  1.00  0.00    -0.354 N 
ATOM     20  C   UNL A   1      44.068  30.120  28.177  1.00  0.00     0.074 A 
ATOM     21  C   UNL A   1      43.788  29.841  26.791  1.00  0.00     0.031 C 
ATOM     22  C   UNL A   1      38.131  28.426  29.766  1.00  0.00     0.029 A 
ATOM     23  C   UNL A   1      38.872  29.623  30.138  1.00  0.00     0.049 A 
ATOM     24  H   UNL A   1      40.941  29.893  30.017  1.00  0.00     0.167 HD
ATOM     25  C   UNL A   1      44.821  31.108  28.739  1.00  0.00     0.037 A 
ATOM     26  C   UNL A   1      38.419  30.800  30.629  1.00  0.00     0.037 A 
ATOM     27  C   UNL A   1      45.020  30.916  30.146  1.00  0.00     0.049 A 
ATOM     28  C   UNL A   1      39.570  31.557  31.175  1.00  0.00     0.074 A 
ATOM     29  C   UNL A   1      45.625  29.948  30.923  1.00  0.00     0.029 A 
ATOM     30  N   UNL A   1      44.328  31.709  31.023  1.00  0.00    -0.354 N 
ATOM     31  N   UNL A   1      40.213  31.248  32.265  1.00  0.00    -0.248 NA
ATOM     32  C   UNL A   1      40.241  32.512  30.305  1.00  0.00     0.031 C 
ATOM     33  C   UNL A   1      44.884  29.928  32.141  1.00  0.00     0.029 A 
ATOM     34  C   UNL A   1      43.877  30.885  32.022  1.00  0.00     0.049 A 
ATOM     35  H   UNL A   1      44.184  32.680  30.951  1.00  0.00     0.167 HD
ATOM     36  C   UNL A   1      41.520  31.640  32.027  1.00  0.00     0.074 A 
ATOM     37  C   UNL A   1      41.449  32.524  30.871  1.00  0.00     0.031 C 
ATOM     38  C   UNL A   1      42.567  30.991  32.613  1.00  0.00     0.037 A 
BRANCH  25  39
ATOM     39  C   UNL A   1      45.163  32.408  28.061  1.00  0.00     0.064 A 
ATOM     40  C   UNL A   1      44.155  33.361  27.815  1.00  0.00     0.173 A 
ATOM     41  C   UNL A   1      46.385  32.619  27.387  1.00  0.00     0.173 A 
ATOM     42  F   UNL A   1      42.945  33.235  28.379  1.00  0.00    -0.203 F 
ATOM     43  C   UNL A   1      44.340  34.416  26.917  1.00  0.00     0.198 A 
ATOM     44  C   UNL A   1      46.583  33.702  26.531  1.00  0.00     0.198 A 
ATOM     45  F   UNL A   1      47.383  31.728  27.450  1.00  0.00    -0.203 F 
ATOM     46  F   UNL A   1      43.317  35.232  26.628  1.00  0.00    -0.200 F 
ATOM     47  C   UNL A   1      45.553  34.584  26.274  1.00  0.00     0.200 A 
ATOM     48  F   UNL A   1      47.758  33.837  25.900  1.00  0.00    -0.200 F 
ATOM     49  F   UNL A   1      45.715  35.562  25.374  1.00  0.00    -0.200 F 
ENDBRANCH  25  39
BRANCH  26  50
ATOM     50  C   UNL A   1      37.088  31.416  30.434  1.00  0.00     0.064 A 
ATOM     51  C   UNL A   1      36.249  31.695  31.523  1.00  0.00     0.173 A 
ATOM     52  C   UNL A   1      36.716  31.972  29.194  1.00  0.00     0.173 A 
ATOM     53  F   UNL A   1      36.560  31.246  32.748  1.00  0.00    -0.203 F 
ATOM     54  C   UNL A   1      35.110  32.493  31.383  1.00  0.00     0.198 A 
ATOM     55  C   UNL A   1      35.571  32.755  29.052  1.00  0.00     0.198 A 
ATOM     56  F   UNL A   1      37.503  31.844  28.117  1.00  0.00    -0.203 F 
ATOM     57  F   UNL A   1      34.365  32.787  32.456  1.00  0.00    -0.200 F 
ATOM     58  C   UNL A   1      34.775  33.027  30.148  1.00  0.00     0.200 A 
ATOM     59  F   UNL A   1      35.279  33.294  27.860  1.00  0.00    -0.200 F 
ATOM     60  F   UNL A   1      33.711  33.832  30.024  1.00  0.00    -0.200 F 
ENDBRANCH  26  50
BRANCH  38  61
ATOM     61  C   UNL A   1      42.268  30.081  33.766  1.00  0.00     0.064 A 
ATOM     62  C   UNL A   1      41.805  28.764  33.615  1.00  0.00     0.173 A 
ATOM     63  C   UNL A   1      42.592  30.512  35.060  1.00  0.00     0.173 A 
ATOM     64  F   UNL A   1      41.583  28.246  32.399  1.00  0.00    -0.203 F 
ATOM     65  C   UNL A   1      41.622  27.935  34.719  1.00  0.00     0.198 A 
ATOM     66  C   UNL A   1      42.443  29.669  36.158  1.00  0.00     0.198 A 
ATOM     67  F   UNL A   1      43.100  31.739  35.255  1.00  0.00    -0.203 F 
ATOM     68  F   UNL A   1      41.164  26.685  34.552  1.00  0.00    -0.200 F 
ATOM     69  C   UNL A   1      41.945  28.386  35.989  1.00  0.00     0.200 A 
ATOM     70  F   UNL A   1      42.808  30.090  37.377  1.00  0.00    -0.200 F 
ATOM     71  F   UNL A   1      41.807  27.575  37.046  1.00  0.00    -0.200 F 
ENDBRANCH  38  61
ENDBRANCH  12  13
ENDBRANCH   5   7
ENDBRANCH   2   3
ENDBRANCH   1   2
BRANCH   1  72
ATOM     72  C   UNL A   1      37.050  21.516  25.087  1.00  0.00     0.023 C 
BRANCH  72  73
ATOM     73  C   UNL A   1      35.718  21.651  25.812  1.00  0.00     0.116 C 
BRANCH  73  74
ATOM     74  N   UNL A   1      34.618  20.926  25.244  1.00  0.00    -0.351 N 
ATOM     75  C   UNL A   1      33.547  21.254  24.432  1.00  0.00     0.273 C 
ATOM     76  H   UNL A   1      34.627  19.972  25.490  1.00  0.00     0.163 HD
ATOM     77  O   UNL A   1      32.855  20.282  24.150  1.00  0.00    -0.267 OA
BRANCH  75  78
ATOM     78  C   UNL A   1      33.173  22.598  23.919  1.00  0.00     0.178 A 
ATOM     79  N   UNL A   1      32.576  22.593  22.664  1.00  0.00    -0.124 NA
ATOM     80  C   UNL A   1      33.202  23.933  24.353  1.00  0.00     0.122 A 
ATOM     81  N   UNL A   1      32.209  23.817  22.340  1.00  0.00    -0.061 NA
ATOM     82  N   UNL A   1      32.677  24.647  23.281  1.00  0.00    -0.213 N 
BRANCH  80  83
ATOM     83  C   UNL A   1      33.472  24.557  25.689  1.00  0.00     0.262 C 
ATOM     84  C   UNL A   1      32.205  24.485  26.573  1.00  0.00     0.281 C 
ATOM     85  O   UNL A   1      34.062  25.861  25.613  1.00  0.00    -0.477 OA
ATOM     86  O   UNL A   1      31.311  25.566  26.317  1.00  0.00    -0.485 OA
ATOM     87  C   UNL A   1      33.361  26.835  26.278  1.00  0.00     0.162 A 
ATOM     88  C   UNL A   1      31.999  26.721  26.568  1.00  0.00     0.161 A 
ATOM     89  C   UNL A   1      34.036  28.004  26.607  1.00  0.00     0.050 A 
ATOM     90  C   UNL A   1      31.293  27.779  27.125  1.00  0.00     0.050 A 
ATOM     91  C   UNL A   1      33.343  29.056  27.213  1.00  0.00     0.004 A 
ATOM     92  C   UNL A   1      31.972  28.948  27.457  1.00  0.00     0.004 A 
ENDBRANCH  80  83
BRANCH  82  93
ATOM     93  C   UNL A   1      32.573  26.035  23.090  1.00  0.00     0.067 A 
ATOM     94  C   UNL A   1      33.688  26.752  22.650  1.00  0.00     0.028 A 
ATOM     95  C   UNL A   1      31.330  26.658  23.255  1.00  0.00     0.041 A 
ATOM     96  C   UNL A   1      33.529  28.086  22.279  1.00  0.00     0.003 A 
ATOM     97  C   UNL A   1      31.173  28.005  22.902  1.00  0.00     0.058 A 
ATOM     98  C   UNL A   1      32.279  28.704  22.389  1.00  0.00     0.013 A 
BRANCH  97  99
ATOM     99  C   UNL A   1      29.823  28.669  22.993  1.00  0.00     0.416 C 
ATOM    100  F   UNL A   1      29.366  29.109  21.787  1.00  0.00    -0.166 F 
ATOM    101  F   UNL A   1      28.861  27.832  23.473  1.00  0.00    -0.166 F 
ATOM    102  F   UNL A   1      29.811  29.757  23.814  1.00  0.00    -0.166 F 
ENDBRANCH  97  99
ENDBRANCH  82  93
ENDBRANCH  75  78
ENDBRANCH  73  74
ENDBRANCH  72  73
ENDBRANCH   1  72
TORSDOF 14
ENDMDL
MODEL 3
REMARK VINA RESULT:     -14.1      3.470      8.632
REMARK SMILES O=C(NCCCCNC(=O)c1nnn(-c2cccc(C(F)(F)F)c2)c1[C@@H]1COc2ccccc2O1)c1ccc(-c2c3nc(c(-c4c(F)c(F)c(F)c(F)c4F)c4ccc([nH]4)c(-c4c(F)c(F)c(F)c(F)c4F)c4nc(c(-c5c(F)c(F)c(F)c(F)c5F)c5ccc2[nH]5)C=C4)C=C3)cc1
REMARK SMILES IDX 5 1 4 2 3 3 1 4 2 5 36 7 37 8 98 9 38 10 97 11 39 12 40 13
REMARK SMILES IDX 41 14 91 15 42 16 96 17 90 18 92 19 43 20 95 21 89 22 88 23
REMARK SMILES IDX 44 25 76 26 56 27 75 28 57 29 60 30 74 31 93 32 58 33 59 34
REMARK SMILES IDX 73 36 94 37 61 38 45 39 46 40 54 41 47 42 48 43 52 44 55 45
REMARK SMILES IDX 49 46 50 47 53 48 51 49 77 50 78 51 86 52 79 53 80 54 84 55
REMARK SMILES IDX 87 56 81 57 82 58 85 59 83 60 62 61 63 62 71 63 64 64 65 65
REMARK SMILES IDX 69 66 72 67 66 68 67 69 70 70 68 71 6 72 7 73 8 74 9 75
REMARK SMILES IDX 10 77 11 78 12 79 25 80 13 81 14 82 26 83 27 84 35 85 28 86
REMARK SMILES IDX 34 87 29 88 33 89 30 90 32 91 31 92 15 93 16 94 24 95 17 96
REMARK SMILES IDX 19 97 18 98 20 99 21 100 22 101 23 102
REMARK H PARENT 3 6 92 24 60 35 8 76
REMARK Flexibility Score: inf
ROOT
ATOM      1  C   UNL A   1      31.890  29.051  27.230  1.00  0.00     0.023 C 
ENDROOT
BRANCH   1   2
ATOM      2  C   UNL A   1      33.316  29.542  26.956  1.00  0.00     0.116 C 
BRANCH   2   3
ATOM      3  N   UNL A   1      33.650  30.838  27.520  1.00  0.00    -0.352 N 
ATOM      4  O   UNL A   1      34.725  32.631  28.237  1.00  0.00    -0.269 OA
ATOM      5  C   UNL A   1      34.801  31.429  27.970  1.00  0.00     0.251 C 
ATOM      6  H   UNL A   1      32.867  31.429  27.596  1.00  0.00     0.163 HD
BRANCH   5   7
ATOM      7  C   UNL A   1      36.095  30.729  28.203  1.00  0.00     0.039 A 
ATOM      8  C   UNL A   1      36.321  29.370  27.996  1.00  0.00     0.014 A 
ATOM      9  C   UNL A   1      37.161  31.517  28.681  1.00  0.00     0.014 A 
ATOM     10  C   UNL A   1      37.543  28.793  28.330  1.00  0.00     0.010 A 
ATOM     11  C   UNL A   1      38.398  30.950  28.992  1.00  0.00     0.010 A 
ATOM     12  C   UNL A   1      38.579  29.578  28.840  1.00  0.00    -0.014 A 
BRANCH  12  13
ATOM     13  C   UNL A   1      39.852  28.912  29.103  1.00  0.00     0.031 A 
ATOM     14  C   UNL A   1      40.237  28.741  30.536  1.00  0.00     0.074 A 
ATOM     15  C   UNL A   1      40.618  28.354  28.146  1.00  0.00     0.049 A 
ATOM     16  N   UNL A   1      41.328  29.113  31.131  1.00  0.00    -0.248 NA
ATOM     17  C   UNL A   1      39.265  28.086  31.423  1.00  0.00     0.031 C 
ATOM     18  C   UNL A   1      40.282  28.132  26.740  1.00  0.00     0.029 A 
ATOM     19  N   UNL A   1      41.844  27.766  28.279  1.00  0.00    -0.354 N 
ATOM     20  C   UNL A   1      41.244  28.626  32.436  1.00  0.00     0.074 A 
ATOM     21  C   UNL A   1      39.924  28.064  32.581  1.00  0.00     0.031 C 
ATOM     22  C   UNL A   1      41.181  27.275  26.205  1.00  0.00     0.029 A 
ATOM     23  C   UNL A   1      42.213  26.992  27.193  1.00  0.00     0.049 A 
ATOM     24  H   UNL A   1      42.411  27.881  29.074  1.00  0.00     0.167 HD
ATOM     25  C   UNL A   1      42.315  28.581  33.277  1.00  0.00     0.037 A 
ATOM     26  C   UNL A   1      43.246  26.120  27.134  1.00  0.00     0.037 A 
ATOM     27  C   UNL A   1      43.381  29.444  32.858  1.00  0.00     0.049 A 
ATOM     28  C   UNL A   1      44.203  26.451  28.217  1.00  0.00     0.074 A 
ATOM     29  C   UNL A   1      43.521  30.806  32.677  1.00  0.00     0.029 A 
ATOM     30  N   UNL A   1      44.501  28.884  32.300  1.00  0.00    -0.354 N 
ATOM     31  N   UNL A   1      44.973  27.501  28.232  1.00  0.00    -0.248 NA
ATOM     32  C   UNL A   1      44.070  25.757  29.490  1.00  0.00     0.031 C 
ATOM     33  C   UNL A   1      44.461  30.948  31.614  1.00  0.00     0.029 A 
ATOM     34  C   UNL A   1      44.829  29.661  31.220  1.00  0.00     0.049 A 
ATOM     35  H   UNL A   1      44.977  28.082  32.615  1.00  0.00     0.167 HD
ATOM     36  C   UNL A   1      45.090  27.834  29.571  1.00  0.00     0.074 A 
ATOM     37  C   UNL A   1      44.629  26.659  30.299  1.00  0.00     0.031 C 
ATOM     38  C   UNL A   1      45.283  29.128  29.961  1.00  0.00     0.037 A 
BRANCH  25  39
ATOM     39  C   UNL A   1      42.511  27.546  34.352  1.00  0.00     0.064 A 
ATOM     40  C   UNL A   1      43.110  26.310  34.039  1.00  0.00     0.173 A 
ATOM     41  C   UNL A   1      41.865  27.614  35.605  1.00  0.00     0.173 A 
ATOM     42  F   UNL A   1      43.720  26.126  32.858  1.00  0.00    -0.203 F 
ATOM     43  C   UNL A   1      43.021  25.208  34.895  1.00  0.00     0.198 A 
ATOM     44  C   UNL A   1      41.823  26.529  36.479  1.00  0.00     0.198 A 
ATOM     45  F   UNL A   1      41.165  28.696  35.974  1.00  0.00    -0.203 F 
ATOM     46  F   UNL A   1      43.508  24.021  34.506  1.00  0.00    -0.200 F 
ATOM     47  C   UNL A   1      42.376  25.318  36.113  1.00  0.00     0.200 A 
ATOM     48  F   UNL A   1      41.175  26.647  37.647  1.00  0.00    -0.200 F 
ATOM     49  F   UNL A   1      42.244  24.251  36.911  1.00  0.00    -0.200 F 
ENDBRANCH  25  39
BRANCH  26  50
ATOM     50  C   UNL A   1      43.337  24.867  26.354  1.00  0.00     0.064 A 
ATOM     51  C   UNL A   1      44.218  24.748  25.269  1.00  0.00     0.173 A 
ATOM     52  C   UNL A   1      42.741  23.676  26.814  1.00  0.00     0.173 A 
ATOM     53  F   UNL A   1      44.867  25.826  24.804  1.00  0.00    -0.203 F 
ATOM     54  C   UNL A   1      44.494  23.508  24.684  1.00  0.00     0.198 A 
ATOM     55  C   UNL A   1      43.005  22.443  26.221  1.00  0.00     0.198 A 
ATOM     56  F   UNL A   1      41.962  23.672  27.905  1.00  0.00    -0.203 F 
ATOM     57  F   UNL A   1      45.386  23.424  23.688  1.00  0.00    -0.200 F 
ATOM     58  C   UNL A   1      43.891  22.356  25.165  1.00  0.00     0.200 A 
ATOM     59  F   UNL A   1      42.443  21.332  26.718  1.00  0.00    -0.200 F 
ATOM     60  F   UNL A   1      44.195  21.162  24.637  1.00  0.00    -0.200 F 
ENDBRANCH  26  50
BRANCH  38  61
ATOM     61  C   UNL A   1      45.701  30.117  28.916  1.00  0.00     0.064 A 
ATOM     62  C   UNL A   1      44.800  30.759  28.050  1.00  0.00     0.173 A 
ATOM     63  C   UNL A   1      47.040  30.531  28.883  1.00  0.00     0.173 A 
ATOM     64  F   UNL A   1      43.487  30.496  28.104  1.00  0.00    -0.203 F 
ATOM     65  C   UNL A   1      45.235  31.731  27.153  1.00  0.00     0.198 A 
ATOM     66  C   UNL A   1      47.464  31.530  28.011  1.00  0.00     0.198 A 
ATOM     67  F   UNL A   1      47.931  29.998  29.735  1.00  0.00    -0.203 F 
ATOM     68  F   UNL A   1      44.359  32.319  26.324  1.00  0.00    -0.200 F 
ATOM     69  C   UNL A   1      46.564  32.119  27.137  1.00  0.00     0.200 A 
ATOM     70  F   UNL A   1      48.740  31.940  28.037  1.00  0.00    -0.200 F 
ATOM     71  F   UNL A   1      46.974  33.084  26.302  1.00  0.00    -0.200 F 
ENDBRANCH  38  61
ENDBRANCH  12  13
ENDBRANCH   5   7
ENDBRANCH   2   3
ENDBRANCH   1   2
BRANCH   1  72
ATOM     72  C   UNL A   1      31.712  27.539  27.301  1.00  0.00     0.023 C 
BRANCH  72  73
ATOM     73  C   UNL A   1      30.832  26.911  26.228  1.00  0.00     0.116 C 
BRANCH  73  74
ATOM     74  N   UNL A   1      30.152  25.704  26.601  1.00  0.00    -0.351 N 
ATOM     75  C   UNL A   1      30.538  24.395  26.825  1.00  0.00     0.273 C 
ATOM     76  H   UNL A   1      29.185  25.839  26.726  1.00  0.00     0.163 HD
ATOM     77  O   UNL A   1      29.604  23.682  27.175  1.00  0.00    -0.267 OA
BRANCH  75  78
ATOM     78  C   UNL A   1      31.896  23.808  26.670  1.00  0.00     0.178 A 
ATOM     79  N   UNL A   1      32.268  22.936  27.687  1.00  0.00    -0.124 NA
ATOM     80  C   UNL A   1      32.951  23.835  25.746  1.00  0.00     0.122 A 
ATOM     81  N   UNL A   1      33.445  22.410  27.413  1.00  0.00    -0.061 NA
ATOM     82  N   UNL A   1      33.922  23.019  26.320  1.00  0.00    -0.213 N 
BRANCH  80  83
ATOM     83  C   UNL A   1      33.058  24.361  24.347  1.00  0.00     0.262 C 
ATOM     84  C   UNL A   1      34.285  25.295  24.224  1.00  0.00     0.281 C 
ATOM     85  O   UNL A   1      31.840  24.923  23.842  1.00  0.00    -0.477 OA
ATOM     86  O   UNL A   1      33.988  26.627  24.636  1.00  0.00    -0.485 OA
ATOM     87  C   UNL A   1      31.956  26.218  23.404  1.00  0.00     0.162 A 
ATOM     88  C   UNL A   1      32.971  27.074  23.840  1.00  0.00     0.161 A 
ATOM     89  C   UNL A   1      30.976  26.698  22.544  1.00  0.00     0.050 A 
ATOM     90  C   UNL A   1      32.983  28.414  23.477  1.00  0.00     0.050 A 
ATOM     91  C   UNL A   1      31.010  28.034  22.135  1.00  0.00     0.004 A 
ATOM     92  C   UNL A   1      32.002  28.893  22.613  1.00  0.00     0.004 A 
ENDBRANCH  80  83
BRANCH  82  93
ATOM     93  C   UNL A   1      35.242  22.766  25.909  1.00  0.00     0.067 A 
ATOM     94  C   UNL A   1      35.471  21.903  24.836  1.00  0.00     0.028 A 
ATOM     95  C   UNL A   1      36.294  23.455  26.524  1.00  0.00     0.041 A 
ATOM     96  C   UNL A   1      36.759  21.806  24.311  1.00  0.00     0.003 A 
ATOM     97  C   UNL A   1      37.593  23.342  26.012  1.00  0.00     0.058 A 
ATOM     98  C   UNL A   1      37.809  22.532  24.884  1.00  0.00     0.013 A 
BRANCH  97  99
ATOM     99  C   UNL A   1      38.724  24.142  26.607  1.00  0.00     0.416 C 
ATOM    100  F   UNL A   1      38.310  25.313  27.166  1.00  0.00    -0.166 F 
ATOM    101  F   UNL A   1      39.377  23.467  27.595  1.00  0.00    -0.166 F 
ATOM    102  F   UNL A   1      39.681  24.483  25.698  1.00  0.00    -0.166 F 
ENDBRANCH  97  99
ENDBRANCH  82  93
ENDBRANCH  75  78
ENDBRANCH  73  74
ENDBRANCH  72  73
ENDBRANCH   1  72
TORSDOF 14
ENDMDL
