MODEL 1
REMARK VINA RESULT:     -13.9      0.000      0.000
REMARK SMILES Cc1ccc(C(=O)NCCCCNC(=O)c2ccc(-c3c4nc(c(-c5c(F)c(F)c(F)c(F)c5F)c5ccc([nH]5)c(-c5c(F)c(F)c(F)c(F)c5F)c5nc(c(-c6c(F)c(F)c(F)c(F)c6F)c6ccc3[nH]6)C=C5)C=C4)cc2)c(Oc2cccc(F)c2C(N)=O)c1
REMARK SMILES IDX 10 1 9 2 8 3 6 4 7 5 5 7 1 8 2 9 3 10 91 11 4 12 79 13 80 14
REMARK SMILES IDX 81 15 82 16 87 17 83 18 85 19 84 20 86 21 88 22 89 23 90 24
REMARK SMILES IDX 11 27 12 28 13 29 14 30 15 32 16 33 17 34 78 35 18 36 77 37
REMARK SMILES IDX 19 38 20 39 21 40 71 41 22 42 76 43 70 44 72 45 23 46 75 47
REMARK SMILES IDX 69 48 68 49 24 51 56 52 36 53 55 54 37 55 40 56 54 57 73 58
REMARK SMILES IDX 38 59 39 60 53 62 74 63 41 64 25 65 26 66 34 67 27 68 28 69
REMARK SMILES IDX 32 70 35 71 29 72 30 73 33 74 31 75 57 76 58 77 66 78 59 79
REMARK SMILES IDX 60 80 64 81 67 82 61 83 62 84 65 85 63 86 42 87 43 88 51 89
REMARK SMILES IDX 44 90 45 91 49 92 52 93 46 94 47 95 50 96 48 97
REMARK H PARENT 8 6 89 25 89 26 13 31 72 50 40 61
REMARK Flexibility Score: inf
ROOT
ATOM      1  C   UNL A   1      31.792  28.822  27.267  1.00  0.00     0.023 C 
ENDROOT
BRANCH   1   2
ATOM      2  C   UNL A   1      32.496  27.529  26.859  1.00  0.00     0.116 C 
BRANCH   2   3
ATOM      3  N   UNL A   1      31.684  26.331  26.876  1.00  0.00    -0.352 N 
ATOM      4  C   UNL A   1      31.877  25.037  26.442  1.00  0.00     0.255 C 
ATOM      5  O   UNL A   1      30.997  24.232  26.767  1.00  0.00    -0.269 OA
ATOM      6  H   UNL A   1      30.800  26.472  27.285  1.00  0.00     0.163 HD
BRANCH   4   7
ATOM      7  C   UNL A   1      32.976  24.537  25.553  1.00  0.00     0.082 A 
ATOM      8  C   UNL A   1      36.446  23.014  23.423  1.00  0.00     0.044 C 
ATOM      9  C   UNL A   1      35.266  23.560  24.170  1.00  0.00    -0.047 A 
ATOM     10  C   UNL A   1      35.231  23.556  25.562  1.00  0.00     0.004 A 
ATOM     11  C   UNL A   1      34.192  24.120  23.476  1.00  0.00     0.051 A 
ATOM     12  C   UNL A   1      34.108  24.047  26.240  1.00  0.00     0.018 A 
ATOM     13  C   UNL A   1      33.042  24.568  24.150  1.00  0.00     0.140 A 
BRANCH  13  14
ATOM     14  O   UNL A   1      32.035  25.141  23.429  1.00  0.00    -0.456 OA
BRANCH  14  15
ATOM     15  C   UNL A   1      31.892  26.516  23.362  1.00  0.00     0.143 A 
ATOM     16  C   UNL A   1      33.139  27.131  23.130  1.00  0.00     0.048 A 
ATOM     17  C   UNL A   1      30.756  27.316  23.601  1.00  0.00     0.117 A 
ATOM     18  C   UNL A   1      33.272  28.517  23.113  1.00  0.00     0.007 A 
ATOM     19  C   UNL A   1      30.923  28.712  23.600  1.00  0.00     0.139 A 
ATOM     20  C   UNL A   1      32.160  29.308  23.360  1.00  0.00     0.040 A 
ATOM     21  F   UNL A   1      29.894  29.528  23.875  1.00  0.00    -0.206 F 
BRANCH  17  22
ATOM     22  C   UNL A   1      29.349  26.880  23.796  1.00  0.00     0.255 C 
ATOM     23  N   UNL A   1      29.062  25.807  24.587  1.00  0.00    -0.365 N 
ATOM     24  O   UNL A   1      28.430  27.492  23.263  1.00  0.00    -0.269 OA
ATOM     25  H   UNL A   1      29.791  25.306  25.021  1.00  0.00     0.159 HD
ATOM     26  H   UNL A   1      28.127  25.533  24.725  1.00  0.00     0.159 HD
ENDBRANCH  17  22
ENDBRANCH  14  15
ENDBRANCH  13  14
ENDBRANCH   4   7
ENDBRANCH   2   3
ENDBRANCH   1   2
BRANCH   1  27
ATOM     27  C   UNL A   1      32.555  30.118  27.035  1.00  0.00     0.023 C 
BRANCH  27  28
ATOM     28  C   UNL A   1      34.069  29.983  27.015  1.00  0.00     0.116 C 
BRANCH  28  29
ATOM     29  N   UNL A   1      34.833  31.125  27.487  1.00  0.00    -0.352 N 
ATOM     30  C   UNL A   1      36.030  31.164  28.195  1.00  0.00     0.251 C 
ATOM     31  H   UNL A   1      34.445  32.003  27.271  1.00  0.00     0.163 HD
ATOM     32  O   UNL A   1      36.428  32.233  28.621  1.00  0.00    -0.269 OA
BRANCH  30  33
ATOM     33  C   UNL A   1      36.904  29.956  28.311  1.00  0.00     0.039 A 
ATOM     34  C   UNL A   1      36.934  29.272  29.539  1.00  0.00     0.014 A 
ATOM     35  C   UNL A   1      37.818  29.602  27.329  1.00  0.00     0.014 A 
ATOM     36  C   UNL A   1      38.021  28.456  29.857  1.00  0.00     0.010 A 
ATOM     37  C   UNL A   1      38.960  28.925  27.683  1.00  0.00     0.010 A 
ATOM     38  C   UNL A   1      39.087  28.404  28.971  1.00  0.00    -0.014 A 
BRANCH  38  39
ATOM     39  C   UNL A   1      40.418  27.901  29.265  1.00  0.00     0.031 A 
ATOM     40  C   UNL A   1      40.790  26.543  28.825  1.00  0.00     0.074 A 
ATOM     41  C   UNL A   1      41.349  28.812  29.629  1.00  0.00     0.049 A 
ATOM     42  N   UNL A   1      41.926  25.991  29.074  1.00  0.00    -0.248 NA
ATOM     43  C   UNL A   1      39.879  25.664  28.089  1.00  0.00     0.031 C 
ATOM     44  C   UNL A   1      42.801  28.724  29.492  1.00  0.00     0.029 A 
ATOM     45  N   UNL A   1      41.147  29.972  30.400  1.00  0.00    -0.354 N 
ATOM     46  C   UNL A   1      42.019  24.874  28.279  1.00  0.00     0.074 A 
ATOM     47  C   UNL A   1      40.682  24.635  27.803  1.00  0.00     0.031 C 
ATOM     48  C   UNL A   1      43.372  29.566  30.370  1.00  0.00     0.029 A 
ATOM     49  C   UNL A   1      42.301  30.063  31.218  1.00  0.00     0.049 A 
ATOM     50  H   UNL A   1      40.377  30.584  30.377  1.00  0.00     0.167 HD
ATOM     51  C   UNL A   1      43.259  24.385  28.001  1.00  0.00     0.037 A 
ATOM     52  C   UNL A   1      42.221  29.830  32.563  1.00  0.00     0.037 A 
ATOM     53  C   UNL A   1      44.246  24.952  28.918  1.00  0.00     0.049 A 
ATOM     54  C   UNL A   1      43.089  28.685  33.035  1.00  0.00     0.074 A 
ATOM     55  C   UNL A   1      45.252  25.890  28.779  1.00  0.00     0.029 A 
ATOM     56  N   UNL A   1      44.072  24.757  30.287  1.00  0.00    -0.354 N 
ATOM     57  N   UNL A   1      43.492  27.709  32.267  1.00  0.00    -0.248 NA
ATOM     58  C   UNL A   1      43.554  28.545  34.411  1.00  0.00     0.031 C 
ATOM     59  C   UNL A   1      45.586  26.356  30.081  1.00  0.00     0.029 A 
ATOM     60  C   UNL A   1      44.828  25.657  31.008  1.00  0.00     0.049 A 
ATOM     61  H   UNL A   1      43.489  24.070  30.685  1.00  0.00     0.167 HD
ATOM     62  C   UNL A   1      44.233  26.826  33.005  1.00  0.00     0.074 A 
ATOM     63  C   UNL A   1      44.255  27.401  34.338  1.00  0.00     0.031 C 
ATOM     64  C   UNL A   1      44.760  25.688  32.463  1.00  0.00     0.037 A 
BRANCH  51  65
ATOM     65  C   UNL A   1      43.623  23.551  26.790  1.00  0.00     0.064 A 
ATOM     66  C   UNL A   1      43.205  22.204  26.710  1.00  0.00     0.173 A 
ATOM     67  C   UNL A   1      44.490  23.958  25.750  1.00  0.00     0.173 A 
ATOM     68  F   UNL A   1      42.394  21.677  27.637  1.00  0.00    -0.203 F 
ATOM     69  C   UNL A   1      43.627  21.344  25.688  1.00  0.00     0.198 A 
ATOM     70  C   UNL A   1      44.865  23.114  24.701  1.00  0.00     0.198 A 
ATOM     71  F   UNL A   1      45.069  25.163  25.732  1.00  0.00    -0.203 F 
ATOM     72  F   UNL A   1      43.246  20.059  25.700  1.00  0.00    -0.200 F 
ATOM     73  C   UNL A   1      44.447  21.802  24.677  1.00  0.00     0.200 A 
ATOM     74  F   UNL A   1      45.669  23.579  23.732  1.00  0.00    -0.200 F 
ATOM     75  F   UNL A   1      44.850  20.982  23.697  1.00  0.00    -0.200 F 
ENDBRANCH  51  65
BRANCH  52  76
ATOM     76  C   UNL A   1      40.882  30.164  33.127  1.00  0.00     0.064 A 
ATOM     77  C   UNL A   1      40.531  31.524  33.255  1.00  0.00     0.173 A 
ATOM     78  C   UNL A   1      39.843  29.225  33.140  1.00  0.00     0.173 A 
ATOM     79  F   UNL A   1      41.486  32.468  33.244  1.00  0.00    -0.203 F 
ATOM     80  C   UNL A   1      39.199  31.931  33.256  1.00  0.00     0.198 A 
ATOM     81  C   UNL A   1      38.509  29.638  33.164  1.00  0.00     0.198 A 
ATOM     82  F   UNL A   1      40.108  27.917  33.009  1.00  0.00    -0.203 F 
ATOM     83  F   UNL A   1      38.900  33.238  33.249  1.00  0.00    -0.200 F 
ATOM     84  C   UNL A   1      38.189  30.989  33.178  1.00  0.00     0.200 A 
ATOM     85  F   UNL A   1      37.529  28.728  33.060  1.00  0.00    -0.200 F 
ATOM     86  F   UNL A   1      36.910  31.378  33.068  1.00  0.00    -0.200 F 
ENDBRANCH  52  76
BRANCH  64  87
ATOM     87  C   UNL A   1      45.328  24.530  33.249  1.00  0.00     0.064 A 
ATOM     88  C   UNL A   1      46.596  24.542  33.856  1.00  0.00     0.173 A 
ATOM     89  C   UNL A   1      44.524  23.403  33.548  1.00  0.00     0.173 A 
ATOM     90  F   UNL A   1      47.403  25.608  33.765  1.00  0.00    -0.203 F 
ATOM     91  C   UNL A   1      47.057  23.476  34.632  1.00  0.00     0.198 A 
ATOM     92  C   UNL A   1      44.964  22.370  34.374  1.00  0.00     0.198 A 
ATOM     93  F   UNL A   1      43.277  23.286  33.069  1.00  0.00    -0.203 F 
ATOM     94  F   UNL A   1      48.294  23.516  35.146  1.00  0.00    -0.200 F 
ATOM     95  C   UNL A   1      46.238  22.395  34.900  1.00  0.00     0.200 A 
ATOM     96  F   UNL A   1      44.136  21.358  34.672  1.00  0.00    -0.200 F 
ATOM     97  F   UNL A   1      46.668  21.396  35.681  1.00  0.00    -0.200 F 
ENDBRANCH  64  87
ENDBRANCH  38  39
ENDBRANCH  30  33
ENDBRANCH  28  29
ENDBRANCH  27  28
ENDBRANCH   1  27
TORSDOF 14
ENDMDL
MODEL 2
REMARK VINA RESULT:     -13.8      4.005      9.935
REMARK SMILES Cc1ccc(C(=O)NCCCCNC(=O)c2ccc(-c3c4nc(c(-c5c(F)c(F)c(F)c(F)c5F)c5ccc([nH]5)c(-c5c(F)c(F)c(F)c(F)c5F)c5nc(c(-c6c(F)c(F)c(F)c(F)c6F)c6ccc3[nH]6)C=C5)C=C4)cc2)c(Oc2cccc(F)c2C(N)=O)c1
REMARK SMILES IDX 10 1 9 2 8 3 6 4 7 5 5 7 1 8 2 9 3 10 91 11 4 12 79 13 80 14
REMARK SMILES IDX 81 15 82 16 87 17 83 18 85 19 84 20 86 21 88 22 89 23 90 24
REMARK SMILES IDX 11 27 12 28 13 29 14 30 15 32 16 33 17 34 78 35 18 36 77 37
REMARK SMILES IDX 19 38 20 39 21 40 71 41 22 42 76 43 70 44 72 45 23 46 75 47
REMARK SMILES IDX 69 48 68 49 24 51 56 52 36 53 55 54 37 55 40 56 54 57 73 58
REMARK SMILES IDX 38 59 39 60 53 62 74 63 41 64 25 65 26 66 34 67 27 68 28 69
REMARK SMILES IDX 32 70 35 71 29 72 30 73 33 74 31 75 57 76 58 77 66 78 59 79
REMARK SMILES IDX 60 80 64 81 67 82 61 83 62 84 65 85 63 86 42 87 43 88 51 89
REMARK SMILES IDX 44 90 45 91 49 92 52 93 46 94 47 95 50 96 48 97
REMARK H PARENT 8 6 89 25 89 26 13 31 72 50 40 61
REMARK Flexibility Score: inf
ROOT
ATOM      1  C   UNL A   1      36.286  22.108  24.239  1.00  0.00     0.023 C 
ENDROOT
BRANCH   1   2
ATOM      2  C   UNL A   1      35.778  23.542  24.381  1.00  0.00     0.116 C 
BRANCH   2   3
ATOM      3  N   UNL A   1      34.969  24.040  23.290  1.00  0.00    -0.352 N 
ATOM      4  C   UNL A   1      33.990  25.004  23.185  1.00  0.00     0.255 C 
ATOM      5  O   UNL A   1      33.621  25.263  22.034  1.00  0.00    -0.269 OA
ATOM      6  H   UNL A   1      35.160  23.591  22.435  1.00  0.00     0.163 HD
BRANCH   4   7
ATOM      7  C   UNL A   1      33.272  25.688  24.311  1.00  0.00     0.082 A 
ATOM      8  C   UNL A   1      31.640  27.960  27.637  1.00  0.00     0.044 C 
ATOM      9  C   UNL A   1      32.226  27.168  26.507  1.00  0.00    -0.047 A 
ATOM     10  C   UNL A   1      33.471  27.489  25.972  1.00  0.00     0.004 A 
ATOM     11  C   UNL A   1      31.543  26.065  25.994  1.00  0.00     0.051 A 
ATOM     12  C   UNL A   1      33.988  26.753  24.899  1.00  0.00     0.018 A 
ATOM     13  C   UNL A   1      32.035  25.353  24.884  1.00  0.00     0.140 A 
BRANCH  13  14
ATOM     14  O   UNL A   1      31.348  24.259  24.444  1.00  0.00    -0.456 OA
BRANCH  14  15
ATOM     15  C   UNL A   1      31.913  22.996  24.477  1.00  0.00     0.143 A 
ATOM     16  C   UNL A   1      31.792  22.369  23.220  1.00  0.00     0.048 A 
ATOM     17  C   UNL A   1      32.443  22.274  25.565  1.00  0.00     0.117 A 
ATOM     18  C   UNL A   1      32.202  21.053  23.023  1.00  0.00     0.007 A 
ATOM     19  C   UNL A   1      32.829  20.941  25.344  1.00  0.00     0.139 A 
ATOM     20  C   UNL A   1      32.713  20.335  24.094  1.00  0.00     0.040 A 
ATOM     21  F   UNL A   1      33.289  20.182  26.351  1.00  0.00    -0.206 F 
BRANCH  17  22
ATOM     22  C   UNL A   1      32.720  22.759  26.943  1.00  0.00     0.255 C 
ATOM     23  N   UNL A   1      33.995  23.050  27.329  1.00  0.00    -0.365 N 
ATOM     24  O   UNL A   1      31.802  22.922  27.739  1.00  0.00    -0.269 OA
ATOM     25  H   UNL A   1      34.741  22.924  26.699  1.00  0.00     0.159 HD
ATOM     26  H   UNL A   1      34.170  23.387  28.237  1.00  0.00     0.159 HD
ENDBRANCH  17  22
ENDBRANCH  14  15
ENDBRANCH  13  14
ENDBRANCH   4   7
ENDBRANCH   2   3
ENDBRANCH   1   2
BRANCH   1  27
ATOM     27  C   UNL A   1      37.462  21.709  25.119  1.00  0.00     0.023 C 
BRANCH  27  28
ATOM     28  C   UNL A   1      37.926  22.773  26.100  1.00  0.00     0.116 C 
BRANCH  28  29
ATOM     29  N   UNL A   1      39.226  22.573  26.715  1.00  0.00    -0.352 N 
ATOM     30  C   UNL A   1      40.158  23.508  27.156  1.00  0.00     0.251 C 
ATOM     31  H   UNL A   1      39.487  21.632  26.840  1.00  0.00     0.163 HD
ATOM     32  O   UNL A   1      41.256  23.124  27.511  1.00  0.00    -0.269 OA
BRANCH  30  33
ATOM     33  C   UNL A   1      39.786  24.945  27.342  1.00  0.00     0.039 A 
ATOM     34  C   UNL A   1      40.311  25.890  26.442  1.00  0.00     0.014 A 
ATOM     35  C   UNL A   1      39.110  25.399  28.465  1.00  0.00     0.014 A 
ATOM     36  C   UNL A   1      40.386  27.235  26.808  1.00  0.00     0.010 A 
ATOM     37  C   UNL A   1      39.310  26.687  28.898  1.00  0.00     0.010 A 
ATOM     38  C   UNL A   1      40.005  27.590  28.094  1.00  0.00    -0.014 A 
BRANCH  38  39
ATOM     39  C   UNL A   1      40.320  28.841  28.762  1.00  0.00     0.031 A 
ATOM     40  C   UNL A   1      39.301  29.906  28.818  1.00  0.00     0.074 A 
ATOM     41  C   UNL A   1      41.398  28.843  29.579  1.00  0.00     0.049 A 
ATOM     42  N   UNL A   1      39.495  31.062  29.348  1.00  0.00    -0.248 NA
ATOM     43  C   UNL A   1      37.965  29.765  28.235  1.00  0.00     0.031 C 
ATOM     44  C   UNL A   1      41.663  29.713  30.722  1.00  0.00     0.029 A 
ATOM     45  N   UNL A   1      42.602  28.136  29.399  1.00  0.00    -0.354 N 
ATOM     46  C   UNL A   1      38.267  31.666  29.474  1.00  0.00     0.074 A 
ATOM     47  C   UNL A   1      37.380  30.894  28.645  1.00  0.00     0.031 C 
ATOM     48  C   UNL A   1      42.987  29.730  30.957  1.00  0.00     0.029 A 
ATOM     49  C   UNL A   1      43.610  29.026  29.848  1.00  0.00     0.049 A 
ATOM     50  H   UNL A   1      42.718  27.227  29.041  1.00  0.00     0.167 HD
ATOM     51  C   UNL A   1      38.130  32.657  30.396  1.00  0.00     0.037 A 
ATOM     52  C   UNL A   1      44.470  29.610  28.959  1.00  0.00     0.037 A 
ATOM     53  C   UNL A   1      39.443  33.134  30.829  1.00  0.00     0.049 A 
ATOM     54  C   UNL A   1      44.409  31.121  28.957  1.00  0.00     0.074 A 
ATOM     55  C   UNL A   1      40.177  32.989  31.991  1.00  0.00     0.029 A 
ATOM     56  N   UNL A   1      40.316  33.643  29.869  1.00  0.00    -0.354 N 
ATOM     57  N   UNL A   1      43.373  31.812  29.351  1.00  0.00    -0.248 NA
ATOM     58  C   UNL A   1      45.505  31.967  28.496  1.00  0.00     0.031 C 
ATOM     59  C   UNL A   1      41.533  33.288  31.681  1.00  0.00     0.029 A 
ATOM     60  C   UNL A   1      41.607  33.672  30.351  1.00  0.00     0.049 A 
ATOM     61  H   UNL A   1      40.047  33.941  28.969  1.00  0.00     0.167 HD
ATOM     62  C   UNL A   1      43.631  33.147  29.196  1.00  0.00     0.074 A 
ATOM     63  C   UNL A   1      44.984  33.193  28.670  1.00  0.00     0.031 C 
ATOM     64  C   UNL A   1      42.709  34.107  29.501  1.00  0.00     0.037 A 
BRANCH  51  65
ATOM     65  C   UNL A   1      36.830  33.070  31.057  1.00  0.00     0.064 A 
ATOM     66  C   UNL A   1      35.892  33.847  30.341  1.00  0.00     0.173 A 
ATOM     67  C   UNL A   1      36.506  32.864  32.417  1.00  0.00     0.173 A 
ATOM     68  F   UNL A   1      36.079  34.135  29.046  1.00  0.00    -0.203 F 
ATOM     69  C   UNL A   1      34.742  34.376  30.939  1.00  0.00     0.198 A 
ATOM     70  C   UNL A   1      35.329  33.346  32.998  1.00  0.00     0.198 A 
ATOM     71  F   UNL A   1      37.335  32.249  33.266  1.00  0.00    -0.203 F 
ATOM     72  F   UNL A   1      33.920  35.158  30.225  1.00  0.00    -0.200 F 
ATOM     73  C   UNL A   1      34.453  34.116  32.264  1.00  0.00     0.200 A 
ATOM     74  F   UNL A   1      35.073  33.087  34.288  1.00  0.00    -0.200 F 
ATOM     75  F   UNL A   1      33.352  34.620  32.837  1.00  0.00    -0.200 F 
ENDBRANCH  51  65
BRANCH  52  76
ATOM     76  C   UNL A   1      44.704  28.771  27.749  1.00  0.00     0.064 A 
ATOM     77  C   UNL A   1      45.530  27.636  27.872  1.00  0.00     0.173 A 
ATOM     78  C   UNL A   1      43.839  28.823  26.649  1.00  0.00     0.173 A 
ATOM     79  F   UNL A   1      46.377  27.531  28.910  1.00  0.00    -0.203 F 
ATOM     80  C   UNL A   1      45.398  26.546  27.015  1.00  0.00     0.198 A 
ATOM     81  C   UNL A   1      43.725  27.737  25.778  1.00  0.00     0.198 A 
ATOM     82  F   UNL A   1      43.016  29.868  26.480  1.00  0.00    -0.203 F 
ATOM     83  F   UNL A   1      46.108  25.431  27.237  1.00  0.00    -0.200 F 
ATOM     84  C   UNL A   1      44.472  26.585  25.988  1.00  0.00     0.200 A 
ATOM     85  F   UNL A   1      42.809  27.760  24.800  1.00  0.00    -0.200 F 
ATOM     86  F   UNL A   1      44.262  25.500  25.228  1.00  0.00    -0.200 F 
ENDBRANCH  52  76
BRANCH  64  87
ATOM     87  C   UNL A   1      42.792  35.558  29.093  1.00  0.00     0.064 A 
ATOM     88  C   UNL A   1      42.128  36.098  27.978  1.00  0.00     0.173 A 
ATOM     89  C   UNL A   1      43.442  36.501  29.927  1.00  0.00     0.173 A 
ATOM     90  F   UNL A   1      41.365  35.336  27.183  1.00  0.00    -0.203 F 
ATOM     91  C   UNL A   1      42.177  37.461  27.675  1.00  0.00     0.198 A 
ATOM     92  C   UNL A   1      43.436  37.868  29.655  1.00  0.00     0.198 A 
ATOM     93  F   UNL A   1      44.077  36.125  31.047  1.00  0.00    -0.203 F 
ATOM     94  F   UNL A   1      41.568  37.917  26.571  1.00  0.00    -0.200 F 
ATOM     95  C   UNL A   1      42.821  38.347  28.517  1.00  0.00     0.200 A 
ATOM     96  F   UNL A   1      44.013  38.720  30.515  1.00  0.00    -0.200 F 
ATOM     97  F   UNL A   1      42.828  39.659  28.246  1.00  0.00    -0.200 F 
ENDBRANCH  64  87
ENDBRANCH  38  39
ENDBRANCH  30  33
ENDBRANCH  28  29
ENDBRANCH  27  28
ENDBRANCH   1  27
TORSDOF 14
ENDMDL
MODEL 3
REMARK VINA RESULT:     -13.8      0.764      1.647
REMARK SMILES Cc1ccc(C(=O)NCCCCNC(=O)c2ccc(-c3c4nc(c(-c5c(F)c(F)c(F)c(F)c5F)c5ccc([nH]5)c(-c5c(F)c(F)c(F)c(F)c5F)c5nc(c(-c6c(F)c(F)c(F)c(F)c6F)c6ccc3[nH]6)C=C5)C=C4)cc2)c(Oc2cccc(F)c2C(N)=O)c1
REMARK SMILES IDX 10 1 9 2 8 3 6 4 7 5 5 7 1 8 2 9 3 10 91 11 4 12 79 13 80 14
REMARK SMILES IDX 81 15 82 16 87 17 83 18 85 19 84 20 86 21 88 22 89 23 90 24
REMARK SMILES IDX 11 27 12 28 13 29 14 30 15 32 16 33 17 34 78 35 18 36 77 37
REMARK SMILES IDX 19 38 20 39 21 40 71 41 22 42 76 43 70 44 72 45 23 46 75 47
REMARK SMILES IDX 69 48 68 49 24 51 56 52 36 53 55 54 37 55 40 56 54 57 73 58
REMARK SMILES IDX 38 59 39 60 53 62 74 63 41 64 25 65 26 66 34 67 27 68 28 69
REMARK SMILES IDX 32 70 35 71 29 72 30 73 33 74 31 75 57 76 58 77 66 78 59 79
REMARK SMILES IDX 60 80 64 81 67 82 61 83 62 84 65 85 63 86 42 87 43 88 51 89
REMARK SMILES IDX 44 90 45 91 49 92 52 93 46 94 47 95 50 96 48 97
REMARK H PARENT 8 6 89 25 89 26 13 31 72 50 40 61
REMARK Flexibility Score: inf
ROOT
ATOM      1  C   UNL A   1      31.523  28.851  27.122  1.00  0.00     0.023 C 
ENDROOT
BRANCH   1   2
ATOM      2  C   UNL A   1      32.248  27.571  26.710  1.00  0.00     0.116 C 
BRANCH   2   3
ATOM      3  N   UNL A   1      31.511  26.338  26.890  1.00  0.00    -0.352 N 
ATOM      4  C   UNL A   1      31.743  25.024  26.543  1.00  0.00     0.255 C 
ATOM      5  O   UNL A   1      30.941  24.205  27.005  1.00  0.00    -0.269 OA
ATOM      6  H   UNL A   1      30.658  26.466  27.363  1.00  0.00     0.163 HD
BRANCH   4   7
ATOM      7  C   UNL A   1      32.791  24.510  25.601  1.00  0.00     0.082 A 
ATOM      8  C   UNL A   1      36.173  23.073  23.280  1.00  0.00     0.044 C 
ATOM      9  C   UNL A   1      35.021  23.594  24.086  1.00  0.00    -0.047 A 
ATOM     10  C   UNL A   1      35.156  23.856  25.448  1.00  0.00     0.004 A 
ATOM     11  C   UNL A   1      33.797  23.861  23.472  1.00  0.00     0.051 A 
ATOM     12  C   UNL A   1      34.060  24.317  26.188  1.00  0.00     0.018 A 
ATOM     13  C   UNL A   1      32.680  24.277  24.221  1.00  0.00     0.140 A 
BRANCH  13  14
ATOM     14  O   UNL A   1      31.517  24.560  23.567  1.00  0.00    -0.456 OA
BRANCH  14  15
ATOM     15  C   UNL A   1      31.048  25.859  23.467  1.00  0.00     0.143 A 
ATOM     16  C   UNL A   1      29.680  25.917  23.803  1.00  0.00     0.048 A 
ATOM     17  C   UNL A   1      31.695  27.016  22.989  1.00  0.00     0.117 A 
ATOM     18  C   UNL A   1      28.955  27.100  23.690  1.00  0.00     0.007 A 
ATOM     19  C   UNL A   1      30.935  28.191  22.864  1.00  0.00     0.139 A 
ATOM     20  C   UNL A   1      29.585  28.238  23.209  1.00  0.00     0.040 A 
ATOM     21  F   UNL A   1      31.477  29.312  22.363  1.00  0.00    -0.206 F 
BRANCH  17  22
ATOM     22  C   UNL A   1      33.131  27.191  22.647  1.00  0.00     0.255 C 
ATOM     23  N   UNL A   1      33.995  27.739  23.550  1.00  0.00    -0.365 N 
ATOM     24  O   UNL A   1      33.559  26.826  21.558  1.00  0.00    -0.269 OA
ATOM     25  H   UNL A   1      33.664  28.036  24.429  1.00  0.00     0.159 HD
ATOM     26  H   UNL A   1      34.947  27.837  23.324  1.00  0.00     0.159 HD
ENDBRANCH  17  22
ENDBRANCH  14  15
ENDBRANCH  13  14
ENDBRANCH   4   7
ENDBRANCH   2   3
ENDBRANCH   1   2
BRANCH   1  27
ATOM     27  C   UNL A   1      32.316  30.146  27.025  1.00  0.00     0.023 C 
BRANCH  27  28
ATOM     28  C   UNL A   1      33.827  29.987  27.084  1.00  0.00     0.116 C 
BRANCH  28  29
ATOM     29  N   UNL A   1      34.595  31.166  27.445  1.00  0.00    -0.352 N 
ATOM     30  C   UNL A   1      35.831  31.265  28.076  1.00  0.00     0.251 C 
ATOM     31  H   UNL A   1      34.177  32.024  27.207  1.00  0.00     0.163 HD
ATOM     32  O   UNL A   1      36.232  32.362  28.418  1.00  0.00    -0.269 OA
BRANCH  30  33
ATOM     33  C   UNL A   1      36.735  30.079  28.203  1.00  0.00     0.039 A 
ATOM     34  C   UNL A   1      36.740  29.374  29.420  1.00  0.00     0.014 A 
ATOM     35  C   UNL A   1      37.694  29.770  27.250  1.00  0.00     0.014 A 
ATOM     36  C   UNL A   1      37.838  28.583  29.764  1.00  0.00     0.010 A 
ATOM     37  C   UNL A   1      38.841  29.118  27.635  1.00  0.00     0.010 A 
ATOM     38  C   UNL A   1      38.936  28.578  28.917  1.00  0.00    -0.014 A 
BRANCH  38  39
ATOM     39  C   UNL A   1      40.269  28.107  29.252  1.00  0.00     0.031 A 
ATOM     40  C   UNL A   1      40.678  26.748  28.848  1.00  0.00     0.074 A 
ATOM     41  C   UNL A   1      41.174  29.044  29.619  1.00  0.00     0.049 A 
ATOM     42  N   UNL A   1      41.818  26.225  29.133  1.00  0.00    -0.248 NA
ATOM     43  C   UNL A   1      39.801  25.838  28.109  1.00  0.00     0.031 C 
ATOM     44  C   UNL A   1      42.630  28.982  29.517  1.00  0.00     0.029 A 
ATOM     45  N   UNL A   1      40.931  30.215  30.362  1.00  0.00    -0.354 N 
ATOM     46  C   UNL A   1      41.952  25.094  28.364  1.00  0.00     0.074 A 
ATOM     47  C   UNL A   1      40.631  24.819  27.862  1.00  0.00     0.031 C 
ATOM     48  C   UNL A   1      43.163  29.853  30.391  1.00  0.00     0.029 A 
ATOM     49  C   UNL A   1      42.064  30.344  31.204  1.00  0.00     0.049 A 
ATOM     50  H   UNL A   1      40.150  30.810  30.308  1.00  0.00     0.167 HD
ATOM     51  C   UNL A   1      43.206  24.624  28.123  1.00  0.00     0.037 A 
ATOM     52  C   UNL A   1      41.957  30.137  32.551  1.00  0.00     0.037 A 
ATOM     53  C   UNL A   1      44.161  25.229  29.052  1.00  0.00     0.049 A 
ATOM     54  C   UNL A   1      42.836  29.018  33.065  1.00  0.00     0.074 A 
ATOM     55  C   UNL A   1      45.152  26.183  28.917  1.00  0.00     0.029 A 
ATOM     56  N   UNL A   1      43.959  25.057  30.421  1.00  0.00    -0.354 N 
ATOM     57  N   UNL A   1      43.276  28.035  32.326  1.00  0.00    -0.248 NA
ATOM     58  C   UNL A   1      43.272  28.914  34.454  1.00  0.00     0.031 C 
ATOM     59  C   UNL A   1      45.446  26.682  30.217  1.00  0.00     0.029 A 
ATOM     60  C   UNL A   1      44.680  25.986  31.140  1.00  0.00     0.049 A 
ATOM     61  H   UNL A   1      43.380  24.367  30.819  1.00  0.00     0.167 HD
ATOM     62  C   UNL A   1      44.017  27.182  33.099  1.00  0.00     0.074 A 
ATOM     63  C   UNL A   1      43.996  27.783  34.420  1.00  0.00     0.031 C 
ATOM     64  C   UNL A   1      44.578  26.044  32.593  1.00  0.00     0.037 A 
BRANCH  51  65
ATOM     65  C   UNL A   1      43.615  23.775  26.938  1.00  0.00     0.064 A 
ATOM     66  C   UNL A   1      43.235  22.415  26.882  1.00  0.00     0.173 A 
ATOM     67  C   UNL A   1      44.490  24.182  25.906  1.00  0.00     0.173 A 
ATOM     68  F   UNL A   1      42.422  21.886  27.806  1.00  0.00    -0.203 F 
ATOM     69  C   UNL A   1      43.698  21.545  25.887  1.00  0.00     0.198 A 
ATOM     70  C   UNL A   1      44.906  23.326  24.882  1.00  0.00     0.198 A 
ATOM     71  F   UNL A   1      45.037  25.401  25.870  1.00  0.00    -0.203 F 
ATOM     72  F   UNL A   1      43.352  20.250  25.921  1.00  0.00    -0.200 F 
ATOM     73  C   UNL A   1      44.524  22.003  24.880  1.00  0.00     0.200 A 
ATOM     74  F   UNL A   1      45.714  23.791  23.918  1.00  0.00    -0.200 F 
ATOM     75  F   UNL A   1      44.966  21.172  23.926  1.00  0.00    -0.200 F 
ENDBRANCH  51  65
BRANCH  52  76
ATOM     76  C   UNL A   1      40.599  30.455  33.077  1.00  0.00     0.064 A 
ATOM     77  C   UNL A   1      40.202  31.806  33.127  1.00  0.00     0.173 A 
ATOM     78  C   UNL A   1      39.591  29.483  33.126  1.00  0.00     0.173 A 
ATOM     79  F   UNL A   1      41.125  32.780  33.080  1.00  0.00    -0.203 F 
ATOM     80  C   UNL A   1      38.857  32.168  33.088  1.00  0.00     0.198 A 
ATOM     81  C   UNL A   1      38.244  29.852  33.109  1.00  0.00     0.198 A 
ATOM     82  F   UNL A   1      39.900  28.180  33.068  1.00  0.00    -0.203 F 
ATOM     83  F   UNL A   1      38.516  33.463  33.007  1.00  0.00    -0.200 F 
ATOM     84  C   UNL A   1      37.880  31.190  33.046  1.00  0.00     0.200 A 
ATOM     85  F   UNL A   1      37.296  28.906  33.039  1.00  0.00    -0.200 F 
ATOM     86  F   UNL A   1      36.591  31.530  32.897  1.00  0.00    -0.200 F 
ENDBRANCH  52  76
BRANCH  64  87
ATOM     87  C   UNL A   1      45.150  24.914  33.414  1.00  0.00     0.064 A 
ATOM     88  C   UNL A   1      44.415  23.782  33.809  1.00  0.00     0.173 A 
ATOM     89  C   UNL A   1      46.535  24.869  33.706  1.00  0.00     0.173 A 
ATOM     90  F   UNL A   1      43.125  23.637  33.477  1.00  0.00    -0.203 F 
ATOM     91  C   UNL A   1      45.000  22.726  34.512  1.00  0.00     0.198 A 
ATOM     92  C   UNL A   1      47.128  23.785  34.352  1.00  0.00     0.198 A 
ATOM     93  F   UNL A   1      47.358  25.864  33.346  1.00  0.00    -0.203 F 
ATOM     94  F   UNL A   1      44.243  21.693  34.908  1.00  0.00    -0.200 F 
ATOM     95  C   UNL A   1      46.357  22.722  34.774  1.00  0.00     0.200 A 
ATOM     96  F   UNL A   1      48.454  23.769  34.544  1.00  0.00    -0.200 F 
ATOM     97  F   UNL A   1      46.923  21.686  35.408  1.00  0.00    -0.200 F 
ENDBRANCH  64  87
ENDBRANCH  38  39
ENDBRANCH  30  33
ENDBRANCH  28  29
ENDBRANCH  27  28
ENDBRANCH   1  27
TORSDOF 14
ENDMDL
