MODEL 1
REMARK VINA RESULT:     -11.7      0.000      0.000
REMARK SMILES C[C@@H](CC(=O)NCCCCNC(=O)c1ccc(-c2c3nc(c(-c4c(F)c(F)c(F)c(F)c4F)c4ccc([nH]4)c(-c4c(F)c(F)c(F)c(F)c4F)c4nc(c(-c5c(F)c(F)c(F)c(F)c5F)c5ccc2[nH]5)C=C4)C=C3)cc1)N1C(=O)CCCC1=O
REMARK SMILES IDX 8 1 7 2 6 3 4 4 5 5 3 7 2 8 1 9 77 10 78 11 83 12 79 13
REMARK SMILES IDX 80 14 82 15 84 16 81 17 9 18 10 19 11 20 12 21 13 23 14 24
REMARK SMILES IDX 15 25 76 26 16 27 75 28 17 29 18 30 19 31 69 32 20 33 74 34
REMARK SMILES IDX 68 35 70 36 21 37 73 38 67 39 66 40 22 42 54 43 34 44 53 45
REMARK SMILES IDX 35 46 38 47 52 48 71 49 36 50 37 51 51 53 72 54 39 55 23 56
REMARK SMILES IDX 24 57 32 58 25 59 26 60 30 61 33 62 27 63 28 64 31 65 29 66
REMARK SMILES IDX 55 67 56 68 64 69 57 70 58 71 62 72 65 73 59 74 60 75 63 76
REMARK SMILES IDX 61 77 40 78 41 79 49 80 42 81 43 82 47 83 50 84 44 85 45 86
REMARK SMILES IDX 48 87 46 88
REMARK H PARENT 6 6 11 22 70 41 38 52
REMARK Flexibility Score: inf
ROOT
ATOM      1  C   UNL A   1      37.403  21.447  24.404  1.00  0.00     0.023 C 
ENDROOT
BRANCH   1   2
ATOM      2  C   UNL A   1      36.816  22.470  25.376  1.00  0.00     0.116 C 
BRANCH   2   3
ATOM      3  N   UNL A   1      35.879  21.827  26.270  1.00  0.00    -0.356 N 
ATOM      4  C   UNL A   1      34.599  21.434  26.040  1.00  0.00     0.222 C 
ATOM      5  O   UNL A   1      33.913  21.130  27.018  1.00  0.00    -0.275 OA
ATOM      6  H   UNL A   1      36.217  21.649  27.178  1.00  0.00     0.163 HD
BRANCH   4   7
ATOM      7  C   UNL A   1      34.055  21.340  24.629  1.00  0.00     0.125 C 
BRANCH   7   8
ATOM      8  C   UNL A   1      32.795  22.187  24.314  1.00  0.00     0.099 C 
ATOM      9  C   UNL A   1      32.187  21.760  22.970  1.00  0.00     0.032 C 
BRANCH   8  10
ATOM     10  N   UNL A   1      32.977  23.640  24.563  1.00  0.00    -0.279 N 
ATOM     11  C   UNL A   1      33.772  24.444  23.746  1.00  0.00     0.229 C 
ATOM     12  C   UNL A   1      32.124  24.189  25.528  1.00  0.00     0.229 C 
ATOM     13  O   UNL A   1      34.408  24.058  22.767  1.00  0.00    -0.274 OA
ATOM     14  C   UNL A   1      33.760  25.922  24.059  1.00  0.00     0.101 C 
ATOM     15  C   UNL A   1      32.497  25.536  26.118  1.00  0.00     0.101 C 
ATOM     16  O   UNL A   1      31.076  23.643  25.879  1.00  0.00    -0.274 OA
ATOM     17  C   UNL A   1      33.778  26.109  25.555  1.00  0.00     0.020 C 
ENDBRANCH   8  10
ENDBRANCH   7   8
ENDBRANCH   4   7
ENDBRANCH   2   3
ENDBRANCH   1   2
BRANCH   1  18
ATOM     18  C   UNL A   1      38.007  20.211  25.069  1.00  0.00     0.023 C 
BRANCH  18  19
ATOM     19  C   UNL A   1      39.302  20.456  25.832  1.00  0.00     0.116 C 
BRANCH  19  20
ATOM     20  N   UNL A   1      40.180  19.296  25.866  1.00  0.00    -0.352 N 
ATOM     21  C   UNL A   1      41.536  19.256  26.089  1.00  0.00     0.251 C 
ATOM     22  H   UNL A   1      39.746  18.426  25.709  1.00  0.00     0.163 HD
ATOM     23  O   UNL A   1      42.158  18.204  25.994  1.00  0.00    -0.269 OA
BRANCH  21  24
ATOM     24  C   UNL A   1      42.243  20.512  26.403  1.00  0.00     0.039 A 
ATOM     25  C   UNL A   1      42.805  21.249  25.359  1.00  0.00     0.014 A 
ATOM     26  C   UNL A   1      42.279  20.990  27.715  1.00  0.00     0.014 A 
ATOM     27  C   UNL A   1      43.333  22.514  25.620  1.00  0.00     0.010 A 
ATOM     28  C   UNL A   1      42.737  22.280  27.960  1.00  0.00     0.010 A 
ATOM     29  C   UNL A   1      43.260  23.056  26.914  1.00  0.00    -0.014 A 
BRANCH  29  30
ATOM     30  C   UNL A   1      43.711  24.440  27.200  1.00  0.00     0.031 A 
ATOM     31  C   UNL A   1      42.729  25.452  27.716  1.00  0.00     0.074 A 
ATOM     32  C   UNL A   1      44.973  24.805  26.904  1.00  0.00     0.049 A 
ATOM     33  N   UNL A   1      42.889  26.737  27.908  1.00  0.00    -0.248 NA
ATOM     34  C   UNL A   1      41.376  24.961  28.021  1.00  0.00     0.031 C 
ATOM     35  C   UNL A   1      46.001  23.925  26.347  1.00  0.00     0.029 A 
ATOM     36  N   UNL A   1      45.600  26.021  27.013  1.00  0.00    -0.354 N 
ATOM     37  C   UNL A   1      41.654  27.209  28.329  1.00  0.00     0.074 A 
ATOM     38  C   UNL A   1      40.743  26.084  28.322  1.00  0.00     0.031 C 
ATOM     39  C   UNL A   1      47.135  24.626  26.178  1.00  0.00     0.029 A 
ATOM     40  C   UNL A   1      46.903  26.009  26.580  1.00  0.00     0.049 A 
ATOM     41  H   UNL A   1      45.158  26.825  27.370  1.00  0.00     0.167 HD
ATOM     42  C   UNL A   1      41.317  28.464  28.708  1.00  0.00     0.037 A 
ATOM     43  C   UNL A   1      47.805  27.007  26.505  1.00  0.00     0.037 A 
ATOM     44  C   UNL A   1      42.236  29.567  28.759  1.00  0.00     0.049 A 
ATOM     45  C   UNL A   1      47.411  28.387  26.954  1.00  0.00     0.074 A 
ATOM     46  C   UNL A   1      42.014  30.857  29.208  1.00  0.00     0.029 A 
ATOM     47  N   UNL A   1      43.560  29.508  28.347  1.00  0.00    -0.354 N 
ATOM     48  N   UNL A   1      46.259  28.808  27.416  1.00  0.00    -0.248 NA
ATOM     49  C   UNL A   1      48.443  29.430  26.875  1.00  0.00     0.031 C 
ATOM     50  C   UNL A   1      43.195  31.588  29.037  1.00  0.00     0.029 A 
ATOM     51  C   UNL A   1      44.163  30.744  28.516  1.00  0.00     0.049 A 
ATOM     52  H   UNL A   1      44.005  28.706  27.989  1.00  0.00     0.167 HD
ATOM     53  C   UNL A   1      46.432  30.154  27.703  1.00  0.00     0.074 A 
ATOM     54  C   UNL A   1      47.804  30.479  27.376  1.00  0.00     0.031 C 
ATOM     55  C   UNL A   1      45.532  31.043  28.191  1.00  0.00     0.037 A 
BRANCH  42  56
ATOM     56  C   UNL A   1      39.892  28.706  29.110  1.00  0.00     0.064 A 
ATOM     57  C   UNL A   1      39.463  28.533  30.435  1.00  0.00     0.173 A 
ATOM     58  C   UNL A   1      38.951  29.144  28.167  1.00  0.00     0.173 A 
ATOM     59  F   UNL A   1      40.321  28.102  31.371  1.00  0.00    -0.203 F 
ATOM     60  C   UNL A   1      38.138  28.763  30.794  1.00  0.00     0.198 A 
ATOM     61  C   UNL A   1      37.634  29.401  28.535  1.00  0.00     0.198 A 
ATOM     62  F   UNL A   1      39.311  29.328  26.887  1.00  0.00    -0.203 F 
ATOM     63  F   UNL A   1      37.740  28.545  32.055  1.00  0.00    -0.200 F 
ATOM     64  C   UNL A   1      37.226  29.203  29.846  1.00  0.00     0.200 A 
ATOM     65  F   UNL A   1      36.755  29.835  27.621  1.00  0.00    -0.200 F 
ATOM     66  F   UNL A   1      35.952  29.429  30.195  1.00  0.00    -0.200 F 
ENDBRANCH  42  56
BRANCH  43  67
ATOM     67  C   UNL A   1      49.177  26.731  26.006  1.00  0.00     0.064 A 
ATOM     68  C   UNL A   1      49.504  26.938  24.659  1.00  0.00     0.173 A 
ATOM     69  C   UNL A   1      50.184  26.258  26.859  1.00  0.00     0.173 A 
ATOM     70  F   UNL A   1      48.568  27.371  23.802  1.00  0.00    -0.203 F 
ATOM     71  C   UNL A   1      50.783  26.666  24.179  1.00  0.00     0.198 A 
ATOM     72  C   UNL A   1      51.470  26.008  26.382  1.00  0.00     0.198 A 
ATOM     73  F   UNL A   1      49.922  26.048  28.157  1.00  0.00    -0.203 F 
ATOM     74  F   UNL A   1      51.058  26.835  22.878  1.00  0.00    -0.200 F 
ATOM     75  C   UNL A   1      51.767  26.205  25.042  1.00  0.00     0.200 A 
ATOM     76  F   UNL A   1      52.420  25.575  27.221  1.00  0.00    -0.200 F 
ATOM     77  F   UNL A   1      52.998  25.946  24.581  1.00  0.00    -0.200 F 
ENDBRANCH  43  67
BRANCH  55  78
ATOM     78  C   UNL A   1      46.011  32.445  28.425  1.00  0.00     0.064 A 
ATOM     79  C   UNL A   1      45.953  33.415  27.416  1.00  0.00     0.173 A 
ATOM     80  C   UNL A   1      46.480  32.833  29.690  1.00  0.00     0.173 A 
ATOM     81  F   UNL A   1      45.526  33.087  26.188  1.00  0.00    -0.203 F 
ATOM     82  C   UNL A   1      46.363  34.723  27.660  1.00  0.00     0.198 A 
ATOM     83  C   UNL A   1      46.866  34.146  29.936  1.00  0.00     0.198 A 
ATOM     84  F   UNL A   1      46.549  31.940  30.689  1.00  0.00    -0.203 F 
ATOM     85  F   UNL A   1      46.332  35.628  26.671  1.00  0.00    -0.200 F 
ATOM     86  C   UNL A   1      46.811  35.089  28.921  1.00  0.00     0.200 A 
ATOM     87  F   UNL A   1      47.288  34.501  31.158  1.00  0.00    -0.200 F 
ATOM     88  F   UNL A   1      47.196  36.351  29.156  1.00  0.00    -0.200 F 
ENDBRANCH  55  78
ENDBRANCH  29  30
ENDBRANCH  21  24
ENDBRANCH  19  20
ENDBRANCH  18  19
ENDBRANCH   1  18
TORSDOF 13
ENDMDL
MODEL 2
REMARK VINA RESULT:     -11.7      5.953     11.423
REMARK SMILES C[C@@H](CC(=O)NCCCCNC(=O)c1ccc(-c2c3nc(c(-c4c(F)c(F)c(F)c(F)c4F)c4ccc([nH]4)c(-c4c(F)c(F)c(F)c(F)c4F)c4nc(c(-c5c(F)c(F)c(F)c(F)c5F)c5ccc2[nH]5)C=C4)C=C3)cc1)N1C(=O)CCCC1=O
REMARK SMILES IDX 8 1 7 2 6 3 4 4 5 5 3 7 2 8 1 9 77 10 78 11 83 12 79 13
REMARK SMILES IDX 80 14 82 15 84 16 81 17 9 18 10 19 11 20 12 21 13 23 14 24
REMARK SMILES IDX 15 25 76 26 16 27 75 28 17 29 18 30 19 31 69 32 20 33 74 34
REMARK SMILES IDX 68 35 70 36 21 37 73 38 67 39 66 40 22 42 54 43 34 44 53 45
REMARK SMILES IDX 35 46 38 47 52 48 71 49 36 50 37 51 51 53 72 54 39 55 23 56
REMARK SMILES IDX 24 57 32 58 25 59 26 60 30 61 33 62 27 63 28 64 31 65 29 66
REMARK SMILES IDX 55 67 56 68 64 69 57 70 58 71 62 72 65 73 59 74 60 75 63 76
REMARK SMILES IDX 61 77 40 78 41 79 49 80 42 81 43 82 47 83 50 84 44 85 45 86
REMARK SMILES IDX 48 87 46 88
REMARK H PARENT 6 6 11 22 70 41 38 52
REMARK Flexibility Score: inf
ROOT
ATOM      1  C   UNL A   1      32.023  30.089  26.908  1.00  0.00     0.023 C 
ENDROOT
BRANCH   1   2
ATOM      2  C   UNL A   1      33.354  29.461  26.494  1.00  0.00     0.116 C 
BRANCH   2   3
ATOM      3  N   UNL A   1      33.596  29.689  25.088  1.00  0.00    -0.356 N 
ATOM      4  C   UNL A   1      33.284  28.909  24.021  1.00  0.00     0.222 C 
ATOM      5  O   UNL A   1      33.805  29.190  22.940  1.00  0.00    -0.275 OA
ATOM      6  H   UNL A   1      34.055  30.534  24.872  1.00  0.00     0.163 HD
BRANCH   4   7
ATOM      7  C   UNL A   1      32.306  27.760  24.157  1.00  0.00     0.125 C 
BRANCH   7   8
ATOM      8  C   UNL A   1      31.812  27.110  22.838  1.00  0.00     0.099 C 
ATOM      9  C   UNL A   1      30.496  27.758  22.385  1.00  0.00     0.032 C 
BRANCH   8  10
ATOM     10  N   UNL A   1      31.891  25.627  22.839  1.00  0.00    -0.279 N 
ATOM     11  C   UNL A   1      30.957  24.829  23.501  1.00  0.00     0.229 C 
ATOM     12  C   UNL A   1      32.825  25.080  21.950  1.00  0.00     0.229 C 
ATOM     13  O   UNL A   1      30.000  25.243  24.153  1.00  0.00    -0.274 OA
ATOM     14  C   UNL A   1      31.105  23.338  23.308  1.00  0.00     0.101 C 
ATOM     15  C   UNL A   1      33.246  23.639  22.164  1.00  0.00     0.101 C 
ATOM     16  O   UNL A   1      33.279  25.709  20.992  1.00  0.00    -0.274 OA
ATOM     17  C   UNL A   1      32.570  22.980  23.345  1.00  0.00     0.020 C 
ENDBRANCH   8  10
ENDBRANCH   7   8
ENDBRANCH   4   7
ENDBRANCH   2   3
ENDBRANCH   1   2
BRANCH   1  18
ATOM     18  C   UNL A   1      31.925  31.593  26.660  1.00  0.00     0.023 C 
BRANCH  18  19
ATOM     19  C   UNL A   1      32.966  32.436  27.383  1.00  0.00     0.116 C 
BRANCH  19  20
ATOM     20  N   UNL A   1      32.536  33.806  27.620  1.00  0.00    -0.352 N 
ATOM     21  C   UNL A   1      33.046  34.721  28.510  1.00  0.00     0.251 C 
ATOM     22  H   UNL A   1      31.781  34.119  27.070  1.00  0.00     0.163 HD
ATOM     23  O   UNL A   1      32.514  35.815  28.662  1.00  0.00    -0.269 OA
BRANCH  21  24
ATOM     24  C   UNL A   1      34.224  34.349  29.317  1.00  0.00     0.039 A 
ATOM     25  C   UNL A   1      34.026  33.759  30.567  1.00  0.00     0.014 A 
ATOM     26  C   UNL A   1      35.511  34.515  28.802  1.00  0.00     0.014 A 
ATOM     27  C   UNL A   1      35.122  33.255  31.268  1.00  0.00     0.010 A 
ATOM     28  C   UNL A   1      36.592  33.947  29.466  1.00  0.00     0.010 A 
ATOM     29  C   UNL A   1      36.406  33.305  30.700  1.00  0.00    -0.014 A 
BRANCH  29  30
ATOM     30  C   UNL A   1      37.573  32.680  31.369  1.00  0.00     0.031 A 
ATOM     31  C   UNL A   1      38.283  31.531  30.713  1.00  0.00     0.074 A 
ATOM     32  C   UNL A   1      37.929  33.083  32.605  1.00  0.00     0.049 A 
ATOM     33  N   UNL A   1      39.237  30.770  31.184  1.00  0.00    -0.248 NA
ATOM     34  C   UNL A   1      37.833  31.167  29.360  1.00  0.00     0.031 C 
ATOM     35  C   UNL A   1      37.280  34.151  33.368  1.00  0.00     0.029 A 
ATOM     36  N   UNL A   1      38.913  32.626  33.445  1.00  0.00    -0.354 N 
ATOM     37  C   UNL A   1      39.481  29.823  30.199  1.00  0.00     0.074 A 
ATOM     38  C   UNL A   1      38.547  30.077  29.124  1.00  0.00     0.031 C 
ATOM     39  C   UNL A   1      37.894  34.278  34.555  1.00  0.00     0.029 A 
ATOM     40  C   UNL A   1      38.953  33.278  34.653  1.00  0.00     0.049 A 
ATOM     41  H   UNL A   1      39.533  31.901  33.204  1.00  0.00     0.167 HD
ATOM     42  C   UNL A   1      40.417  28.844  30.185  1.00  0.00     0.037 A 
ATOM     43  C   UNL A   1      39.747  33.083  35.722  1.00  0.00     0.037 A 
ATOM     44  C   UNL A   1      41.374  28.626  31.235  1.00  0.00     0.049 A 
ATOM     45  C   UNL A   1      40.793  32.003  35.671  1.00  0.00     0.074 A 
ATOM     46  C   UNL A   1      42.415  27.716  31.279  1.00  0.00     0.029 A 
ATOM     47  N   UNL A   1      41.407  29.332  32.428  1.00  0.00    -0.354 N 
ATOM     48  N   UNL A   1      41.061  31.158  34.707  1.00  0.00    -0.248 NA
ATOM     49  C   UNL A   1      41.649  31.852  36.857  1.00  0.00     0.031 C 
ATOM     50  C   UNL A   1      43.058  27.849  32.514  1.00  0.00     0.029 A 
ATOM     51  C   UNL A   1      42.441  28.866  33.224  1.00  0.00     0.049 A 
ATOM     52  H   UNL A   1      40.788  30.058  32.674  1.00  0.00     0.167 HD
ATOM     53  C   UNL A   1      42.127  30.392  35.156  1.00  0.00     0.074 A 
ATOM     54  C   UNL A   1      42.467  30.880  36.476  1.00  0.00     0.031 C 
ATOM     55  C   UNL A   1      42.766  29.372  34.531  1.00  0.00     0.037 A 
BRANCH  42  56
ATOM     56  C   UNL A   1      40.456  27.943  28.987  1.00  0.00     0.064 A 
ATOM     57  C   UNL A   1      41.261  28.232  27.875  1.00  0.00     0.173 A 
ATOM     58  C   UNL A   1      39.703  26.759  28.963  1.00  0.00     0.173 A 
ATOM     59  F   UNL A   1      41.988  29.359  27.844  1.00  0.00    -0.203 F 
ATOM     60  C   UNL A   1      41.288  27.385  26.771  1.00  0.00     0.198 A 
ATOM     61  C   UNL A   1      39.755  25.900  27.869  1.00  0.00     0.198 A 
ATOM     62  F   UNL A   1      38.919  26.434  30.003  1.00  0.00    -0.203 F 
ATOM     63  F   UNL A   1      42.028  27.706  25.701  1.00  0.00    -0.200 F 
ATOM     64  C   UNL A   1      40.541  26.216  26.771  1.00  0.00     0.200 A 
ATOM     65  F   UNL A   1      39.040  24.766  27.874  1.00  0.00    -0.200 F 
ATOM     66  F   UNL A   1      40.574  25.399  25.710  1.00  0.00    -0.200 F 
ENDBRANCH  42  56
BRANCH  43  67
ATOM     67  C   UNL A   1      39.600  33.944  36.924  1.00  0.00     0.064 A 
ATOM     68  C   UNL A   1      38.817  33.531  38.010  1.00  0.00     0.173 A 
ATOM     69  C   UNL A   1      40.235  35.191  37.012  1.00  0.00     0.173 A 
ATOM     70  F   UNL A   1      38.175  32.354  37.962  1.00  0.00    -0.203 F 
ATOM     71  C   UNL A   1      38.660  34.340  39.133  1.00  0.00     0.198 A 
ATOM     72  C   UNL A   1      40.095  35.989  38.146  1.00  0.00     0.198 A 
ATOM     73  F   UNL A   1      40.998  35.630  36.000  1.00  0.00    -0.203 F 
ATOM     74  F   UNL A   1      37.873  33.937  40.141  1.00  0.00    -0.200 F 
ATOM     75  C   UNL A   1      39.303  35.567  39.202  1.00  0.00     0.200 A 
ATOM     76  F   UNL A   1      40.728  37.168  38.214  1.00  0.00    -0.200 F 
ATOM     77  F   UNL A   1      39.154  36.343  40.284  1.00  0.00    -0.200 F 
ENDBRANCH  43  67
BRANCH  55  78
ATOM     78  C   UNL A   1      43.912  28.734  35.257  1.00  0.00     0.064 A 
ATOM     79  C   UNL A   1      45.226  29.194  35.099  1.00  0.00     0.173 A 
ATOM     80  C   UNL A   1      43.684  27.685  36.162  1.00  0.00     0.173 A 
ATOM     81  F   UNL A   1      45.495  30.184  34.234  1.00  0.00    -0.203 F 
ATOM     82  C   UNL A   1      46.274  28.618  35.810  1.00  0.00     0.198 A 
ATOM     83  C   UNL A   1      44.730  27.128  36.888  1.00  0.00     0.198 A 
ATOM     84  F   UNL A   1      42.442  27.214  36.350  1.00  0.00    -0.203 F 
ATOM     85  F   UNL A   1      47.529  29.050  35.618  1.00  0.00    -0.200 F 
ATOM     86  C   UNL A   1      46.025  27.591  36.709  1.00  0.00     0.200 A 
ATOM     87  F   UNL A   1      44.486  26.143  37.765  1.00  0.00    -0.200 F 
ATOM     88  F   UNL A   1      47.035  27.044  37.400  1.00  0.00    -0.200 F 
ENDBRANCH  55  78
ENDBRANCH  29  30
ENDBRANCH  21  24
ENDBRANCH  19  20
ENDBRANCH  18  19
ENDBRANCH   1  18
TORSDOF 13
ENDMDL
MODEL 3
REMARK VINA RESULT:     -11.7      6.113     10.258
REMARK SMILES C[C@@H](CC(=O)NCCCCNC(=O)c1ccc(-c2c3nc(c(-c4c(F)c(F)c(F)c(F)c4F)c4ccc([nH]4)c(-c4c(F)c(F)c(F)c(F)c4F)c4nc(c(-c5c(F)c(F)c(F)c(F)c5F)c5ccc2[nH]5)C=C4)C=C3)cc1)N1C(=O)CCCC1=O
REMARK SMILES IDX 8 1 7 2 6 3 4 4 5 5 3 7 2 8 1 9 77 10 78 11 83 12 79 13
REMARK SMILES IDX 80 14 82 15 84 16 81 17 9 18 10 19 11 20 12 21 13 23 14 24
REMARK SMILES IDX 15 25 76 26 16 27 75 28 17 29 18 30 19 31 69 32 20 33 74 34
REMARK SMILES IDX 68 35 70 36 21 37 73 38 67 39 66 40 22 42 54 43 34 44 53 45
REMARK SMILES IDX 35 46 38 47 52 48 71 49 36 50 37 51 51 53 72 54 39 55 23 56
REMARK SMILES IDX 24 57 32 58 25 59 26 60 30 61 33 62 27 63 28 64 31 65 29 66
REMARK SMILES IDX 55 67 56 68 64 69 57 70 58 71 62 72 65 73 59 74 60 75 63 76
REMARK SMILES IDX 61 77 40 78 41 79 49 80 42 81 43 82 47 83 50 84 44 85 45 86
REMARK SMILES IDX 48 87 46 88
REMARK H PARENT 6 6 11 22 70 41 38 52
REMARK Flexibility Score: inf
ROOT
ATOM      1  C   UNL A   1      31.764  30.662  26.241  1.00  0.00     0.023 C 
ENDROOT
BRANCH   1   2
ATOM      2  C   UNL A   1      32.666  29.759  27.084  1.00  0.00     0.116 C 
BRANCH   2   3
ATOM      3  N   UNL A   1      32.013  28.493  27.330  1.00  0.00    -0.356 N 
ATOM      4  C   UNL A   1      31.418  27.645  26.451  1.00  0.00     0.222 C 
ATOM      5  O   UNL A   1      30.715  26.746  26.916  1.00  0.00    -0.275 OA
ATOM      6  H   UNL A   1      31.996  28.204  28.271  1.00  0.00     0.163 HD
BRANCH   4   7
ATOM      7  C   UNL A   1      31.644  27.785  24.959  1.00  0.00     0.125 C 
BRANCH   7   8
ATOM      8  C   UNL A   1      30.583  27.136  24.033  1.00  0.00     0.099 C 
ATOM      9  C   UNL A   1      31.234  26.072  23.139  1.00  0.00     0.032 C 
BRANCH   8  10
ATOM     10  N   UNL A   1      29.672  28.119  23.393  1.00  0.00    -0.279 N 
ATOM     11  C   UNL A   1      30.138  29.136  22.558  1.00  0.00     0.229 C 
ATOM     12  C   UNL A   1      28.308  27.822  23.497  1.00  0.00     0.229 C 
ATOM     13  O   UNL A   1      31.317  29.343  22.276  1.00  0.00    -0.274 OA
ATOM     14  C   UNL A   1      29.079  29.979  21.888  1.00  0.00     0.101 C 
ATOM     15  C   UNL A   1      27.318  28.939  23.230  1.00  0.00     0.101 C 
ATOM     16  O   UNL A   1      27.890  26.691  23.755  1.00  0.00    -0.274 OA
ATOM     17  C   UNL A   1      27.972  30.255  22.874  1.00  0.00     0.020 C 
ENDBRANCH   8  10
ENDBRANCH   7   8
ENDBRANCH   4   7
ENDBRANCH   2   3
ENDBRANCH   1   2
BRANCH   1  18
ATOM     18  C   UNL A   1      31.469  32.026  26.864  1.00  0.00     0.023 C 
BRANCH  18  19
ATOM     19  C   UNL A   1      32.697  32.833  27.263  1.00  0.00     0.116 C 
BRANCH  19  20
ATOM     20  N   UNL A   1      32.390  34.208  27.628  1.00  0.00    -0.352 N 
ATOM     21  C   UNL A   1      32.966  34.982  28.607  1.00  0.00     0.251 C 
ATOM     22  H   UNL A   1      31.678  34.641  27.103  1.00  0.00     0.163 HD
ATOM     23  O   UNL A   1      32.533  36.101  28.859  1.00  0.00    -0.269 OA
BRANCH  21  24
ATOM     24  C   UNL A   1      34.089  34.426  29.386  1.00  0.00     0.039 A 
ATOM     25  C   UNL A   1      33.812  33.692  30.540  1.00  0.00     0.014 A 
ATOM     26  C   UNL A   1      35.401  34.569  28.928  1.00  0.00     0.014 A 
ATOM     27  C   UNL A   1      34.848  33.026  31.194  1.00  0.00     0.010 A 
ATOM     28  C   UNL A   1      36.420  33.845  29.537  1.00  0.00     0.010 A 
ATOM     29  C   UNL A   1      36.151  33.060  30.670  1.00  0.00    -0.014 A 
BRANCH  29  30
ATOM     30  C   UNL A   1      37.252  32.274  31.277  1.00  0.00     0.031 A 
ATOM     31  C   UNL A   1      37.753  32.627  32.648  1.00  0.00     0.074 A 
ATOM     32  C   UNL A   1      37.862  31.311  30.557  1.00  0.00     0.049 A 
ATOM     33  N   UNL A   1      38.782  32.151  33.302  1.00  0.00    -0.248 NA
ATOM     34  C   UNL A   1      37.020  33.684  33.364  1.00  0.00     0.031 C 
ATOM     35  C   UNL A   1      37.502  30.916  29.195  1.00  0.00     0.029 A 
ATOM     36  N   UNL A   1      38.927  30.503  30.867  1.00  0.00    -0.354 N 
ATOM     37  C   UNL A   1      38.835  32.867  34.489  1.00  0.00     0.074 A 
ATOM     38  C   UNL A   1      37.764  33.840  34.448  1.00  0.00     0.031 C 
ATOM     39  C   UNL A   1      38.320  29.930  28.792  1.00  0.00     0.029 A 
ATOM     40  C   UNL A   1      39.284  29.650  29.852  1.00  0.00     0.049 A 
ATOM     41  H   UNL A   1      39.390  30.532  31.735  1.00  0.00     0.167 HD
ATOM     42  C   UNL A   1      39.687  32.711  35.530  1.00  0.00     0.037 A 
ATOM     43  C   UNL A   1      40.285  28.753  29.781  1.00  0.00     0.037 A 
ATOM     44  C   UNL A   1      40.719  31.712  35.586  1.00  0.00     0.049 A 
ATOM     45  C   UNL A   1      41.204  28.584  30.960  1.00  0.00     0.074 A 
ATOM     46  C   UNL A   1      41.580  31.418  36.628  1.00  0.00     0.029 A 
ATOM     47  N   UNL A   1      41.027  30.840  34.552  1.00  0.00    -0.354 N 
ATOM     48  N   UNL A   1      41.202  29.219  32.106  1.00  0.00    -0.248 NA
ATOM     49  C   UNL A   1      42.262  27.571  30.836  1.00  0.00     0.031 C 
ATOM     50  C   UNL A   1      42.431  30.389  36.213  1.00  0.00     0.029 A 
ATOM     51  C   UNL A   1      42.077  30.018  34.925  1.00  0.00     0.049 A 
ATOM     52  H   UNL A   1      40.567  30.810  33.682  1.00  0.00     0.167 HD
ATOM     53  C   UNL A   1      42.239  28.671  32.848  1.00  0.00     0.074 A 
ATOM     54  C   UNL A   1      42.841  27.640  32.028  1.00  0.00     0.031 C 
ATOM     55  C   UNL A   1      42.656  28.993  34.096  1.00  0.00     0.037 A 
BRANCH  42  56
ATOM     56  C   UNL A   1      39.528  33.638  36.698  1.00  0.00     0.064 A 
ATOM     57  C   UNL A   1      38.733  33.298  37.803  1.00  0.00     0.173 A 
ATOM     58  C   UNL A   1      40.204  34.867  36.728  1.00  0.00     0.173 A 
ATOM     59  F   UNL A   1      38.055  32.141  37.815  1.00  0.00    -0.203 F 
ATOM     60  C   UNL A   1      38.597  34.168  38.881  1.00  0.00     0.198 A 
ATOM     61  C   UNL A   1      40.088  35.721  37.821  1.00  0.00     0.198 A 
ATOM     62  F   UNL A   1      40.981  35.237  35.699  1.00  0.00    -0.203 F 
ATOM     63  F   UNL A   1      37.793  33.843  39.903  1.00  0.00    -0.200 F 
ATOM     64  C   UNL A   1      39.279  35.375  38.893  1.00  0.00     0.200 A 
ATOM     65  F   UNL A   1      40.756  36.883  37.837  1.00  0.00    -0.200 F 
ATOM     66  F   UNL A   1      39.151  36.208  39.935  1.00  0.00    -0.200 F 
ENDBRANCH  42  56
BRANCH  43  67
ATOM     67  C   UNL A   1      40.457  27.927  28.558  1.00  0.00     0.064 A 
ATOM     68  C   UNL A   1      39.846  26.670  28.451  1.00  0.00     0.173 A 
ATOM     69  C   UNL A   1      41.230  28.372  27.477  1.00  0.00     0.173 A 
ATOM     70  F   UNL A   1      39.113  26.194  29.468  1.00  0.00    -0.203 F 
ATOM     71  C   UNL A   1      40.016  25.881  27.315  1.00  0.00     0.198 A 
ATOM     72  C   UNL A   1      41.380  27.592  26.332  1.00  0.00     0.198 A 
ATOM     73  F   UNL A   1      41.832  29.569  27.529  1.00  0.00    -0.203 F 
ATOM     74  F   UNL A   1      39.452  24.667  27.256  1.00  0.00    -0.200 F 
ATOM     75  C   UNL A   1      40.779  26.345  26.255  1.00  0.00     0.200 A 
ATOM     76  F   UNL A   1      42.109  28.049  25.304  1.00  0.00    -0.200 F 
ATOM     77  F   UNL A   1      40.940  25.588  25.161  1.00  0.00    -0.200 F 
ENDBRANCH  43  67
BRANCH  55  78
ATOM     78  C   UNL A   1      43.802  28.209  34.661  1.00  0.00     0.064 A 
ATOM     79  C   UNL A   1      45.125  28.650  34.530  1.00  0.00     0.173 A 
ATOM     80  C   UNL A   1      43.566  27.032  35.389  1.00  0.00     0.173 A 
ATOM     81  F   UNL A   1      45.400  29.760  33.831  1.00  0.00    -0.203 F 
ATOM     82  C   UNL A   1      46.175  27.932  35.095  1.00  0.00     0.198 A 
ATOM     83  C   UNL A   1      44.615  26.330  35.972  1.00  0.00     0.198 A 
ATOM     84  F   UNL A   1      42.315  26.573  35.546  1.00  0.00    -0.203 F 
ATOM     85  F   UNL A   1      47.438  28.352  34.928  1.00  0.00    -0.200 F 
ATOM     86  C   UNL A   1      45.920  26.778  35.821  1.00  0.00     0.200 A 
ATOM     87  F   UNL A   1      44.366  25.221  36.683  1.00  0.00    -0.200 F 
ATOM     88  F   UNL A   1      46.932  26.094  36.373  1.00  0.00    -0.200 F 
ENDBRANCH  55  78
ENDBRANCH  29  30
ENDBRANCH  21  24
ENDBRANCH  19  20
ENDBRANCH  18  19
ENDBRANCH   1  18
TORSDOF 13
ENDMDL
