MODEL 1
REMARK VINA RESULT:     -12.3      0.000      0.000
REMARK SMILES Cc1cc(NCc2ccc(C(=O)NCCCCNC(=O)c3ccc(-c4c5nc(c(-c6c(F)c(F)c(F)c(F)c6F)c6ccc([nH]6)c(-c6c(F)c(F)c(F)c(F)c6F)c6nc(c(-c7c(F)c(F)c(F)c(F)c7F)c7ccc4[nH]7)C=C6)C=C5)cc3)o2)ccc1Br
REMARK SMILES IDX 15 1 14 2 13 3 11 4 12 5 10 7 7 8 8 9 84 10 9 11 6 12 5 13
REMARK SMILES IDX 4 15 1 16 2 17 3 18 87 19 86 20 88 21 85 22 16 23 17 24
REMARK SMILES IDX 18 25 19 26 20 28 21 29 22 30 83 31 23 32 82 33 24 34 25 35
REMARK SMILES IDX 26 36 76 37 27 38 81 39 75 40 77 41 28 42 80 43 74 44 73 45
REMARK SMILES IDX 29 47 61 48 41 49 60 50 42 51 45 52 59 53 78 54 43 55 44 56
REMARK SMILES IDX 58 58 79 59 46 60 30 61 31 62 39 63 32 64 33 65 37 66 40 67
REMARK SMILES IDX 34 68 35 69 38 70 36 71 62 72 63 73 71 74 64 75 65 76 69 77
REMARK SMILES IDX 72 78 66 79 67 80 70 81 68 82 47 83 48 84 56 85 49 86 50 87
REMARK SMILES IDX 54 88 57 89 51 90 52 91 55 92 53 93
REMARK H PARENT 13 6 5 14 18 27 77 46 45 57
REMARK Flexibility Score: inf
ROOT
ATOM      1  C   UNL A   1      37.309  21.019  24.653  1.00  0.00     0.023 C 
ENDROOT
BRANCH   1   2
ATOM      2  C   UNL A   1      35.964  21.065  25.376  1.00  0.00     0.116 C 
BRANCH   2   3
ATOM      3  N   UNL A   1      35.174  19.890  25.085  1.00  0.00    -0.349 N 
ATOM      4  C   UNL A   1      33.878  19.755  24.641  1.00  0.00     0.286 C 
ATOM      5  O   UNL A   1      33.523  18.599  24.404  1.00  0.00    -0.266 OA
ATOM      6  H   UNL A   1      35.645  19.038  25.228  1.00  0.00     0.163 HD
BRANCH   4   7
ATOM      7  C   UNL A   1      33.006  20.903  24.450  1.00  0.00     0.191 A 
ATOM      8  C   UNL A   1      31.590  22.429  25.222  1.00  0.00     0.124 A 
ATOM      9  C   UNL A   1      31.729  22.680  23.877  1.00  0.00     0.048 A 
ATOM     10  O   UNL A   1      32.346  21.352  25.570  1.00  0.00    -0.454 OA
ATOM     11  C   UNL A   1      32.658  21.725  23.391  1.00  0.00     0.056 A 
BRANCH   8  12
ATOM     12  C   UNL A   1      30.801  23.063  26.314  1.00  0.00     0.188 C 
BRANCH  12  13
ATOM     13  N   UNL A   1      31.404  24.258  26.877  1.00  0.00    -0.378 N 
ATOM     14  H   UNL A   1      31.491  24.288  27.857  1.00  0.00     0.161 HD
BRANCH  13  15
ATOM     15  C   UNL A   1      31.870  25.354  26.182  1.00  0.00     0.035 A 
ATOM     16  C   UNL A   1      30.278  27.950  23.868  1.00  0.00     0.045 C 
ATOM     17  C   UNL A   1      31.331  27.199  24.633  1.00  0.00    -0.035 A 
ATOM     18  C   UNL A   1      30.946  26.116  25.446  1.00  0.00     0.030 A 
ATOM     19  C   UNL A   1      32.690  27.518  24.556  1.00  0.00     0.021 A 
ATOM     20  C   UNL A   1      33.627  26.774  25.274  1.00  0.00     0.018 A 
ATOM     21  Br  UNL A   1      33.333  28.944  23.481  1.00  0.00    -0.051 Br
ATOM     22  C   UNL A   1      33.218  25.698  26.071  1.00  0.00     0.027 A 
ENDBRANCH  13  15
ENDBRANCH  12  13
ENDBRANCH   8  12
ENDBRANCH   4   7
ENDBRANCH   2   3
ENDBRANCH   1   2
BRANCH   1  23
ATOM     23  C   UNL A   1      38.165  19.794  25.002  1.00  0.00     0.023 C 
BRANCH  23  24
ATOM     24  C   UNL A   1      39.271  20.040  26.028  1.00  0.00     0.116 C 
BRANCH  24  25
ATOM     25  N   UNL A   1      40.321  19.037  25.995  1.00  0.00    -0.352 N 
ATOM     26  C   UNL A   1      41.682  19.198  26.093  1.00  0.00     0.251 C 
ATOM     27  H   UNL A   1      40.014  18.107  25.888  1.00  0.00     0.163 HD
ATOM     28  O   UNL A   1      42.426  18.237  25.929  1.00  0.00    -0.269 OA
BRANCH  26  29
ATOM     29  C   UNL A   1      42.251  20.536  26.360  1.00  0.00     0.039 A 
ATOM     30  C   UNL A   1      42.614  21.332  25.270  1.00  0.00     0.014 A 
ATOM     31  C   UNL A   1      42.424  21.008  27.663  1.00  0.00     0.014 A 
ATOM     32  C   UNL A   1      43.093  22.624  25.490  1.00  0.00     0.010 A 
ATOM     33  C   UNL A   1      42.829  22.323  27.878  1.00  0.00     0.010 A 
ATOM     34  C   UNL A   1      43.170  23.144  26.794  1.00  0.00    -0.014 A 
BRANCH  34  35
ATOM     35  C   UNL A   1      43.587  24.551  27.020  1.00  0.00     0.031 A 
ATOM     36  C   UNL A   1      42.606  25.568  27.533  1.00  0.00     0.074 A 
ATOM     37  C   UNL A   1      44.850  24.918  26.730  1.00  0.00     0.049 A 
ATOM     38  N   UNL A   1      42.796  26.835  27.807  1.00  0.00    -0.248 NA
ATOM     39  C   UNL A   1      41.223  25.113  27.744  1.00  0.00     0.031 C 
ATOM     40  C   UNL A   1      45.875  24.039  26.166  1.00  0.00     0.029 A 
ATOM     41  N   UNL A   1      45.488  26.125  26.869  1.00  0.00    -0.354 N 
ATOM     42  C   UNL A   1      41.563  27.324  28.217  1.00  0.00     0.074 A 
ATOM     43  C   UNL A   1      40.617  26.237  28.096  1.00  0.00     0.031 C 
ATOM     44  C   UNL A   1      47.023  24.723  26.044  1.00  0.00     0.029 A 
ATOM     45  C   UNL A   1      46.808  26.097  26.486  1.00  0.00     0.049 A 
ATOM     46  H   UNL A   1      45.044  26.934  27.211  1.00  0.00     0.167 HD
ATOM     47  C   UNL A   1      41.254  28.560  28.680  1.00  0.00     0.037 A 
ATOM     48  C   UNL A   1      47.740  27.068  26.495  1.00  0.00     0.037 A 
ATOM     49  C   UNL A   1      42.203  29.635  28.810  1.00  0.00     0.049 A 
ATOM     50  C   UNL A   1      47.368  28.431  27.013  1.00  0.00     0.074 A 
ATOM     51  C   UNL A   1      42.002  30.905  29.322  1.00  0.00     0.029 A 
ATOM     52  N   UNL A   1      43.532  29.568  28.419  1.00  0.00    -0.354 N 
ATOM     53  N   UNL A   1      46.220  28.857  27.480  1.00  0.00    -0.248 NA
ATOM     54  C   UNL A   1      48.431  29.447  27.018  1.00  0.00     0.031 C 
ATOM     55  C   UNL A   1      43.195  31.625  29.188  1.00  0.00     0.029 A 
ATOM     56  C   UNL A   1      44.157  30.784  28.652  1.00  0.00     0.049 A 
ATOM     57  H   UNL A   1      43.967  28.774  28.033  1.00  0.00     0.167 HD
ATOM     58  C   UNL A   1      46.426  30.177  27.858  1.00  0.00     0.074 A 
ATOM     59  C   UNL A   1      47.819  30.473  27.589  1.00  0.00     0.031 C 
ATOM     60  C   UNL A   1      45.543  31.066  28.377  1.00  0.00     0.037 A 
BRANCH  47  61
ATOM     61  C   UNL A   1      39.828  28.816  29.082  1.00  0.00     0.064 A 
ATOM     62  C   UNL A   1      39.390  28.626  30.402  1.00  0.00     0.173 A 
ATOM     63  C   UNL A   1      38.898  29.294  28.147  1.00  0.00     0.173 A 
ATOM     64  F   UNL A   1      40.235  28.159  31.333  1.00  0.00    -0.203 F 
ATOM     65  C   UNL A   1      38.068  28.877  30.763  1.00  0.00     0.198 A 
ATOM     66  C   UNL A   1      37.586  29.577  28.518  1.00  0.00     0.198 A 
ATOM     67  F   UNL A   1      39.264  29.499  26.872  1.00  0.00    -0.203 F 
ATOM     68  F   UNL A   1      37.662  28.639  32.018  1.00  0.00    -0.200 F 
ATOM     69  C   UNL A   1      37.170  29.360  29.824  1.00  0.00     0.200 A 
ATOM     70  F   UNL A   1      36.723  30.057  27.613  1.00  0.00    -0.200 F 
ATOM     71  F   UNL A   1      35.901  29.610  30.175  1.00  0.00    -0.200 F 
ENDBRANCH  47  61
BRANCH  48  72
ATOM     72  C   UNL A   1      49.121  26.780  26.026  1.00  0.00     0.064 A 
ATOM     73  C   UNL A   1      49.492  27.004  24.693  1.00  0.00     0.173 A 
ATOM     74  C   UNL A   1      50.095  26.266  26.896  1.00  0.00     0.173 A 
ATOM     75  F   UNL A   1      48.592  27.476  23.817  1.00  0.00    -0.203 F 
ATOM     76  C   UNL A   1      50.774  26.700  24.241  1.00  0.00     0.198 A 
ATOM     77  C   UNL A   1      51.386  25.995  26.450  1.00  0.00     0.198 A 
ATOM     78  F   UNL A   1      49.795  26.041  28.183  1.00  0.00    -0.203 F 
ATOM     79  F   UNL A   1      51.085  26.873  22.949  1.00  0.00    -0.200 F 
ATOM     80  C   UNL A   1      51.722  26.200  25.121  1.00  0.00     0.200 A 
ATOM     81  F   UNL A   1      52.304  25.528  27.308  1.00  0.00    -0.200 F 
ATOM     82  F   UNL A   1      52.957  25.911  24.687  1.00  0.00    -0.200 F 
ENDBRANCH  48  72
BRANCH  60  83
ATOM     83  C   UNL A   1      46.068  32.432  28.715  1.00  0.00     0.064 A 
ATOM     84  C   UNL A   1      46.652  32.713  29.959  1.00  0.00     0.173 A 
ATOM     85  C   UNL A   1      45.994  33.473  27.777  1.00  0.00     0.173 A 
ATOM     86  F   UNL A   1      46.735  31.757  30.897  1.00  0.00    -0.203 F 
ATOM     87  C   UNL A   1      47.105  33.994  30.266  1.00  0.00     0.198 A 
ATOM     88  C   UNL A   1      46.481  34.744  28.074  1.00  0.00     0.198 A 
ATOM     89  F   UNL A   1      45.454  33.259  26.568  1.00  0.00    -0.203 F 
ATOM     90  F   UNL A   1      47.597  34.252  31.486  1.00  0.00    -0.200 F 
ATOM     91  C   UNL A   1      47.024  35.006  29.322  1.00  0.00     0.200 A 
ATOM     92  F   UNL A   1      46.417  35.716  27.154  1.00  0.00    -0.200 F 
ATOM     93  F   UNL A   1      47.460  36.237  29.620  1.00  0.00    -0.200 F 
ENDBRANCH  60  83
ENDBRANCH  34  35
ENDBRANCH  26  29
ENDBRANCH  24  25
ENDBRANCH  23  24
ENDBRANCH   1  23
TORSDOF 14
ENDMDL
MODEL 2
REMARK VINA RESULT:     -12.3      5.816     10.119
REMARK SMILES Cc1cc(NCc2ccc(C(=O)NCCCCNC(=O)c3ccc(-c4c5nc(c(-c6c(F)c(F)c(F)c(F)c6F)c6ccc([nH]6)c(-c6c(F)c(F)c(F)c(F)c6F)c6nc(c(-c7c(F)c(F)c(F)c(F)c7F)c7ccc4[nH]7)C=C6)C=C5)cc3)o2)ccc1Br
REMARK SMILES IDX 15 1 14 2 13 3 11 4 12 5 10 7 7 8 8 9 84 10 9 11 6 12 5 13
REMARK SMILES IDX 4 15 1 16 2 17 3 18 87 19 86 20 88 21 85 22 16 23 17 24
REMARK SMILES IDX 18 25 19 26 20 28 21 29 22 30 83 31 23 32 82 33 24 34 25 35
REMARK SMILES IDX 26 36 76 37 27 38 81 39 75 40 77 41 28 42 80 43 74 44 73 45
REMARK SMILES IDX 29 47 61 48 41 49 60 50 42 51 45 52 59 53 78 54 43 55 44 56
REMARK SMILES IDX 58 58 79 59 46 60 30 61 31 62 39 63 32 64 33 65 37 66 40 67
REMARK SMILES IDX 34 68 35 69 38 70 36 71 62 72 63 73 71 74 64 75 65 76 69 77
REMARK SMILES IDX 72 78 66 79 67 80 70 81 68 82 47 83 48 84 56 85 49 86 50 87
REMARK SMILES IDX 54 88 57 89 51 90 52 91 55 92 53 93
REMARK H PARENT 13 6 5 14 18 27 77 46 45 57
REMARK Flexibility Score: inf
ROOT
ATOM      1  C   UNL A   1      31.857  30.478  26.890  1.00  0.00     0.023 C 
ENDROOT
BRANCH   1   2
ATOM      2  C   UNL A   1      32.037  29.867  25.502  1.00  0.00     0.116 C 
BRANCH   2   3
ATOM      3  N   UNL A   1      30.996  30.303  24.600  1.00  0.00    -0.349 N 
ATOM      4  C   UNL A   1      30.223  29.604  23.700  1.00  0.00     0.286 C 
ATOM      5  O   UNL A   1      29.350  30.266  23.135  1.00  0.00    -0.266 OA
ATOM      6  H   UNL A   1      30.807  31.268  24.635  1.00  0.00     0.163 HD
BRANCH   4   7
ATOM      7  C   UNL A   1      30.418  28.184  23.457  1.00  0.00     0.191 A 
ATOM      8  C   UNL A   1      31.395  26.502  22.386  1.00  0.00     0.124 A 
ATOM      9  C   UNL A   1      30.528  25.931  23.287  1.00  0.00     0.048 A 
ATOM     10  O   UNL A   1      31.324  27.859  22.475  1.00  0.00    -0.454 OA
ATOM     11  C   UNL A   1      29.927  27.005  23.993  1.00  0.00     0.056 A 
BRANCH   8  12
ATOM     12  C   UNL A   1      32.339  25.955  21.372  1.00  0.00     0.188 C 
BRANCH  12  13
ATOM     13  N   UNL A   1      32.529  24.517  21.441  1.00  0.00    -0.378 N 
ATOM     14  H   UNL A   1      32.141  23.985  20.709  1.00  0.00     0.161 HD
BRANCH  13  15
ATOM     15  C   UNL A   1      33.199  23.819  22.424  1.00  0.00     0.035 A 
ATOM     16  C   UNL A   1      32.615  20.509  24.249  1.00  0.00     0.045 C 
ATOM     17  C   UNL A   1      33.240  21.825  23.877  1.00  0.00    -0.035 A 
ATOM     18  C   UNL A   1      32.683  22.574  22.823  1.00  0.00     0.030 A 
ATOM     19  C   UNL A   1      34.346  22.351  24.551  1.00  0.00     0.021 A 
ATOM     20  C   UNL A   1      34.873  23.587  24.176  1.00  0.00     0.018 A 
ATOM     21  Br  UNL A   1      35.172  21.442  25.998  1.00  0.00    -0.051 Br
ATOM     22  C   UNL A   1      34.298  24.314  23.128  1.00  0.00     0.027 A 
ENDBRANCH  13  15
ENDBRANCH  12  13
ENDBRANCH   8  12
ENDBRANCH   4   7
ENDBRANCH   2   3
ENDBRANCH   1   2
BRANCH   1  23
ATOM     23  C   UNL A   1      31.561  31.984  26.877  1.00  0.00     0.023 C 
BRANCH  23  24
ATOM     24  C   UNL A   1      32.778  32.890  27.061  1.00  0.00     0.116 C 
BRANCH  24  25
ATOM     25  N   UNL A   1      32.448  34.188  27.627  1.00  0.00    -0.352 N 
ATOM     26  C   UNL A   1      33.026  34.848  28.684  1.00  0.00     0.251 C 
ATOM     27  H   UNL A   1      31.705  34.663  27.189  1.00  0.00     0.163 HD
ATOM     28  O   UNL A   1      32.536  35.894  29.094  1.00  0.00    -0.269 OA
BRANCH  26  29
ATOM     29  C   UNL A   1      34.216  34.278  29.351  1.00  0.00     0.039 A 
ATOM     30  C   UNL A   1      34.024  33.462  30.468  1.00  0.00     0.014 A 
ATOM     31  C   UNL A   1      35.507  34.537  28.884  1.00  0.00     0.014 A 
ATOM     32  C   UNL A   1      35.124  32.858  31.079  1.00  0.00     0.010 A 
ATOM     33  C   UNL A   1      36.595  33.874  29.445  1.00  0.00     0.010 A 
ATOM     34  C   UNL A   1      36.416  33.029  30.550  1.00  0.00    -0.014 A 
BRANCH  34  35
ATOM     35  C   UNL A   1      37.572  32.309  31.141  1.00  0.00     0.031 A 
ATOM     36  C   UNL A   1      38.057  32.642  32.524  1.00  0.00     0.074 A 
ATOM     37  C   UNL A   1      38.207  31.372  30.410  1.00  0.00     0.049 A 
ATOM     38  N   UNL A   1      39.037  32.106  33.207  1.00  0.00    -0.248 NA
ATOM     39  C   UNL A   1      37.368  33.736  33.225  1.00  0.00     0.031 C 
ATOM     40  C   UNL A   1      37.872  31.006  29.033  1.00  0.00     0.029 A 
ATOM     41  N   UNL A   1      39.265  30.556  30.722  1.00  0.00    -0.354 N 
ATOM     42  C   UNL A   1      39.084  32.798  34.410  1.00  0.00     0.074 A 
ATOM     43  C   UNL A   1      38.076  33.833  34.341  1.00  0.00     0.031 C 
ATOM     44  C   UNL A   1      38.680  30.012  28.633  1.00  0.00     0.029 A 
ATOM     45  C   UNL A   1      39.613  29.695  29.709  1.00  0.00     0.049 A 
ATOM     46  H   UNL A   1      39.730  30.583  31.590  1.00  0.00     0.167 HD
ATOM     47  C   UNL A   1      39.875  32.571  35.487  1.00  0.00     0.037 A 
ATOM     48  C   UNL A   1      40.575  28.754  29.656  1.00  0.00     0.037 A 
ATOM     49  C   UNL A   1      40.867  31.530  35.556  1.00  0.00     0.049 A 
ATOM     50  C   UNL A   1      41.440  28.525  30.865  1.00  0.00     0.074 A 
ATOM     51  C   UNL A   1      41.680  31.181  36.622  1.00  0.00     0.029 A 
ATOM     52  N   UNL A   1      41.189  30.673  34.514  1.00  0.00    -0.354 N 
ATOM     53  N   UNL A   1      41.415  29.127  32.029  1.00  0.00    -0.248 NA
ATOM     54  C   UNL A   1      42.458  27.471  30.757  1.00  0.00     0.031 C 
ATOM     55  C   UNL A   1      42.531  30.152  36.205  1.00  0.00     0.029 A 
ATOM     56  C   UNL A   1      42.206  29.815  34.901  1.00  0.00     0.049 A 
ATOM     57  H   UNL A   1      40.757  30.675  33.629  1.00  0.00     0.167 HD
ATOM     58  C   UNL A   1      42.392  28.511  32.799  1.00  0.00     0.074 A 
ATOM     59  C   UNL A   1      42.974  27.469  31.977  1.00  0.00     0.031 C 
ATOM     60  C   UNL A   1      42.778  28.784  34.070  1.00  0.00     0.037 A 
BRANCH  47  61
ATOM     61  C   UNL A   1      39.698  33.465  36.682  1.00  0.00     0.064 A 
ATOM     62  C   UNL A   1      38.813  33.139  37.722  1.00  0.00     0.173 A 
ATOM     63  C   UNL A   1      40.449  34.643  36.809  1.00  0.00     0.173 A 
ATOM     64  F   UNL A   1      38.062  32.031  37.646  1.00  0.00    -0.203 F 
ATOM     65  C   UNL A   1      38.666  33.973  38.829  1.00  0.00     0.198 A 
ATOM     66  C   UNL A   1      40.325  35.457  37.933  1.00  0.00     0.198 A 
ATOM     67  F   UNL A   1      41.314  35.002  35.848  1.00  0.00    -0.203 F 
ATOM     68  F   UNL A   1      37.778  33.665  39.784  1.00  0.00    -0.200 F 
ATOM     69  C   UNL A   1      39.428  35.125  38.937  1.00  0.00     0.200 A 
ATOM     70  F   UNL A   1      41.073  36.563  38.043  1.00  0.00    -0.200 F 
ATOM     71  F   UNL A   1      39.294  35.921  40.007  1.00  0.00    -0.200 F 
ENDBRANCH  47  61
BRANCH  48  72
ATOM     72  C   UNL A   1      40.751  27.938  28.425  1.00  0.00     0.064 A 
ATOM     73  C   UNL A   1      40.115  26.697  28.285  1.00  0.00     0.173 A 
ATOM     74  C   UNL A   1      41.566  28.375  27.370  1.00  0.00     0.173 A 
ATOM     75  F   UNL A   1      39.340  26.226  29.274  1.00  0.00    -0.203 F 
ATOM     76  C   UNL A   1      40.307  25.912  27.150  1.00  0.00     0.198 A 
ATOM     77  C   UNL A   1      41.731  27.605  26.221  1.00  0.00     0.198 A 
ATOM     78  F   UNL A   1      42.192  29.558  27.451  1.00  0.00    -0.203 F 
ATOM     79  F   UNL A   1      39.729  24.707  27.066  1.00  0.00    -0.200 F 
ATOM     80  C   UNL A   1      41.111  26.370  26.116  1.00  0.00     0.200 A 
ATOM     81  F   UNL A   1      42.496  28.058  25.218  1.00  0.00    -0.200 F 
ATOM     82  F   UNL A   1      41.294  25.616  25.023  1.00  0.00    -0.200 F 
ENDBRANCH  48  72
BRANCH  60  83
ATOM     83  C   UNL A   1      43.859  27.922  34.657  1.00  0.00     0.064 A 
ATOM     84  C   UNL A   1      45.210  28.299  34.615  1.00  0.00     0.173 A 
ATOM     85  C   UNL A   1      43.538  26.707  35.281  1.00  0.00     0.173 A 
ATOM     86  F   UNL A   1      45.573  29.445  34.018  1.00  0.00    -0.203 F 
ATOM     87  C   UNL A   1      46.201  27.473  35.137  1.00  0.00     0.198 A 
ATOM     88  C   UNL A   1      44.529  25.900  35.835  1.00  0.00     0.198 A 
ATOM     89  F   UNL A   1      42.261  26.301  35.359  1.00  0.00    -0.203 F 
ATOM     90  F   UNL A   1      47.490  27.824  35.024  1.00  0.00    -0.200 F 
ATOM     91  C   UNL A   1      45.860  26.277  35.751  1.00  0.00     0.200 A 
ATOM     92  F   UNL A   1      44.195  24.753  36.443  1.00  0.00    -0.200 F 
ATOM     93  F   UNL A   1      46.816  25.484  36.253  1.00  0.00    -0.200 F 
ENDBRANCH  60  83
ENDBRANCH  34  35
ENDBRANCH  26  29
ENDBRANCH  24  25
ENDBRANCH  23  24
ENDBRANCH   1  23
TORSDOF 14
ENDMDL
MODEL 3
REMARK VINA RESULT:     -12.2      0.566      7.462
REMARK SMILES Cc1cc(NCc2ccc(C(=O)NCCCCNC(=O)c3ccc(-c4c5nc(c(-c6c(F)c(F)c(F)c(F)c6F)c6ccc([nH]6)c(-c6c(F)c(F)c(F)c(F)c6F)c6nc(c(-c7c(F)c(F)c(F)c(F)c7F)c7ccc4[nH]7)C=C6)C=C5)cc3)o2)ccc1Br
REMARK SMILES IDX 15 1 14 2 13 3 11 4 12 5 10 7 7 8 8 9 84 10 9 11 6 12 5 13
REMARK SMILES IDX 4 15 1 16 2 17 3 18 87 19 86 20 88 21 85 22 16 23 17 24
REMARK SMILES IDX 18 25 19 26 20 28 21 29 22 30 83 31 23 32 82 33 24 34 25 35
REMARK SMILES IDX 26 36 76 37 27 38 81 39 75 40 77 41 28 42 80 43 74 44 73 45
REMARK SMILES IDX 29 47 61 48 41 49 60 50 42 51 45 52 59 53 78 54 43 55 44 56
REMARK SMILES IDX 58 58 79 59 46 60 30 61 31 62 39 63 32 64 33 65 37 66 40 67
REMARK SMILES IDX 34 68 35 69 38 70 36 71 62 72 63 73 71 74 64 75 65 76 69 77
REMARK SMILES IDX 72 78 66 79 67 80 70 81 68 82 47 83 48 84 56 85 49 86 50 87
REMARK SMILES IDX 54 88 57 89 51 90 52 91 55 92 53 93
REMARK H PARENT 13 6 5 14 18 27 77 46 45 57
REMARK Flexibility Score: inf
ROOT
ATOM      1  C   UNL A   1      37.139  21.102  24.628  1.00  0.00     0.023 C 
ENDROOT
BRANCH   1   2
ATOM      2  C   UNL A   1      35.836  21.105  25.425  1.00  0.00     0.116 C 
BRANCH   2   3
ATOM      3  N   UNL A   1      35.026  19.951  25.108  1.00  0.00    -0.349 N 
ATOM      4  C   UNL A   1      33.727  19.848  24.665  1.00  0.00     0.286 C 
ATOM      5  O   UNL A   1      33.353  18.703  24.401  1.00  0.00    -0.266 OA
ATOM      6  H   UNL A   1      35.484  19.088  25.229  1.00  0.00     0.163 HD
BRANCH   4   7
ATOM      7  C   UNL A   1      32.873  21.013  24.505  1.00  0.00     0.191 A 
ATOM      8  C   UNL A   1      31.498  22.554  25.323  1.00  0.00     0.124 A 
ATOM      9  C   UNL A   1      31.619  22.822  23.980  1.00  0.00     0.048 A 
ATOM     10  O   UNL A   1      32.241  21.458  25.643  1.00  0.00    -0.454 OA
ATOM     11  C   UNL A   1      32.522  21.857  23.464  1.00  0.00     0.056 A 
BRANCH   8  12
ATOM     12  C   UNL A   1      30.740  23.187  26.437  1.00  0.00     0.188 C 
BRANCH  12  13
ATOM     13  N   UNL A   1      31.323  24.418  26.940  1.00  0.00    -0.378 N 
ATOM     14  H   UNL A   1      31.336  24.533  27.918  1.00  0.00     0.161 HD
BRANCH  13  15
ATOM     15  C   UNL A   1      31.863  25.442  26.191  1.00  0.00     0.035 A 
ATOM     16  C   UNL A   1      30.426  28.155  23.911  1.00  0.00     0.045 C 
ATOM     17  C   UNL A   1      31.435  27.306  24.631  1.00  0.00    -0.035 A 
ATOM     18  C   UNL A   1      30.984  26.288  25.493  1.00  0.00     0.030 A 
ATOM     19  C   UNL A   1      32.814  27.470  24.465  1.00  0.00     0.021 A 
ATOM     20  C   UNL A   1      33.706  26.639  25.144  1.00  0.00     0.018 A 
ATOM     21  Br  UNL A   1      33.542  28.795  23.317  1.00  0.00    -0.051 Br
ATOM     22  C   UNL A   1      33.231  25.631  25.990  1.00  0.00     0.027 A 
ENDBRANCH  13  15
ENDBRANCH  12  13
ENDBRANCH   8  12
ENDBRANCH   4   7
ENDBRANCH   2   3
ENDBRANCH   1   2
BRANCH   1  23
ATOM     23  C   UNL A   1      38.053  19.907  24.927  1.00  0.00     0.023 C 
BRANCH  23  24
ATOM     24  C   UNL A   1      39.165  20.173  25.941  1.00  0.00     0.116 C 
BRANCH  24  25
ATOM     25  N   UNL A   1      40.231  19.186  25.900  1.00  0.00    -0.352 N 
ATOM     26  C   UNL A   1      41.584  19.358  26.062  1.00  0.00     0.251 C 
ATOM     27  H   UNL A   1      39.942  18.259  25.732  1.00  0.00     0.163 HD
ATOM     28  O   UNL A   1      42.347  18.417  25.879  1.00  0.00    -0.269 OA
BRANCH  26  29
ATOM     29  C   UNL A   1      42.122  20.688  26.421  1.00  0.00     0.039 A 
ATOM     30  C   UNL A   1      42.410  21.588  25.392  1.00  0.00     0.014 A 
ATOM     31  C   UNL A   1      42.338  21.051  27.753  1.00  0.00     0.014 A 
ATOM     32  C   UNL A   1      42.858  22.872  25.704  1.00  0.00     0.010 A 
ATOM     33  C   UNL A   1      42.710  22.355  28.065  1.00  0.00     0.010 A 
ATOM     34  C   UNL A   1      42.977  23.279  27.045  1.00  0.00    -0.014 A 
BRANCH  34  35
ATOM     35  C   UNL A   1      43.359  24.676  27.376  1.00  0.00     0.031 A 
ATOM     36  C   UNL A   1      44.764  25.159  27.150  1.00  0.00     0.074 A 
ATOM     37  C   UNL A   1      42.441  25.499  27.914  1.00  0.00     0.049 A 
ATOM     38  N   UNL A   1      45.274  26.347  27.361  1.00  0.00    -0.248 NA
ATOM     39  C   UNL A   1      45.733  24.176  26.641  1.00  0.00     0.031 C 
ATOM     40  C   UNL A   1      41.063  25.128  28.241  1.00  0.00     0.029 A 
ATOM     41  N   UNL A   1      42.523  26.819  28.280  1.00  0.00    -0.354 N 
ATOM     42  C   UNL A   1      46.616  26.252  27.017  1.00  0.00     0.074 A 
ATOM     43  C   UNL A   1      46.858  24.876  26.642  1.00  0.00     0.031 C 
ATOM     44  C   UNL A   1      40.419  26.203  28.722  1.00  0.00     0.029 A 
ATOM     45  C   UNL A   1      41.346  27.330  28.771  1.00  0.00     0.049 A 
ATOM     46  H   UNL A   1      43.348  27.352  28.198  1.00  0.00     0.167 HD
ATOM     47  C   UNL A   1      47.554  27.230  26.988  1.00  0.00     0.037 A 
ATOM     48  C   UNL A   1      41.046  28.567  29.208  1.00  0.00     0.037 A 
ATOM     49  C   UNL A   1      47.303  28.601  27.350  1.00  0.00     0.049 A 
ATOM     50  C   UNL A   1      42.107  29.633  29.166  1.00  0.00     0.074 A 
ATOM     51  C   UNL A   1      48.170  29.679  27.299  1.00  0.00     0.029 A 
ATOM     52  N   UNL A   1      46.097  29.083  27.836  1.00  0.00    -0.354 N 
ATOM     53  N   UNL A   1      43.349  29.552  28.755  1.00  0.00    -0.248 NA
ATOM     54  C   UNL A   1      41.718  30.970  29.635  1.00  0.00     0.031 C 
ATOM     55  C   UNL A   1      47.506  30.800  27.809  1.00  0.00     0.029 A 
ATOM     56  C   UNL A   1      46.205  30.436  28.116  1.00  0.00     0.049 A 
ATOM     57  H   UNL A   1      45.284  28.543  27.964  1.00  0.00     0.167 HD
ATOM     58  C   UNL A   1      43.882  30.827  28.891  1.00  0.00     0.074 A 
ATOM     59  C   UNL A   1      42.818  31.669  29.398  1.00  0.00     0.031 C 
ATOM     60  C   UNL A   1      45.138  31.262  28.624  1.00  0.00     0.037 A 
BRANCH  47  61
ATOM     61  C   UNL A   1      48.940  26.852  26.547  1.00  0.00     0.064 A 
ATOM     62  C   UNL A   1      49.884  26.336  27.449  1.00  0.00     0.173 A 
ATOM     63  C   UNL A   1      49.318  26.968  25.201  1.00  0.00     0.173 A 
ATOM     64  F   UNL A   1      49.579  26.215  28.750  1.00  0.00    -0.203 F 
ATOM     65  C   UNL A   1      51.163  25.980  27.026  1.00  0.00     0.198 A 
ATOM     66  C   UNL A   1      50.586  26.580  24.775  1.00  0.00     0.198 A 
ATOM     67  F   UNL A   1      48.454  27.450  24.295  1.00  0.00    -0.203 F 
ATOM     68  F   UNL A   1      52.063  25.539  27.915  1.00  0.00    -0.200 F 
ATOM     69  C   UNL A   1      51.509  26.094  25.689  1.00  0.00     0.200 A 
ATOM     70  F   UNL A   1      50.914  26.676  23.480  1.00  0.00    -0.200 F 
ATOM     71  F   UNL A   1      52.736  25.742  25.280  1.00  0.00    -0.200 F 
ENDBRANCH  47  61
BRANCH  48  72
ATOM     72  C   UNL A   1      39.675  28.874  29.694  1.00  0.00     0.064 A 
ATOM     73  C   UNL A   1      39.312  28.637  31.027  1.00  0.00     0.173 A 
ATOM     74  C   UNL A   1      38.697  29.400  28.837  1.00  0.00     0.173 A 
ATOM     75  F   UNL A   1      40.206  28.117  31.882  1.00  0.00    -0.203 F 
ATOM     76  C   UNL A   1      38.018  28.888  31.478  1.00  0.00     0.198 A 
ATOM     77  C   UNL A   1      37.412  29.682  29.297  1.00  0.00     0.198 A 
ATOM     78  F   UNL A   1      38.993  29.653  27.554  1.00  0.00    -0.203 F 
ATOM     79  F   UNL A   1      37.684  28.601  32.744  1.00  0.00    -0.200 F 
ATOM     80  C   UNL A   1      37.070  29.415  30.613  1.00  0.00     0.200 A 
ATOM     81  F   UNL A   1      36.505  30.207  28.462  1.00  0.00    -0.200 F 
ATOM     82  F   UNL A   1      35.826  29.659  31.048  1.00  0.00    -0.200 F 
ENDBRANCH  48  72
BRANCH  60  83
ATOM     83  C   UNL A   1      45.419  32.721  28.849  1.00  0.00     0.064 A 
ATOM     84  C   UNL A   1      45.180  33.682  27.855  1.00  0.00     0.173 A 
ATOM     85  C   UNL A   1      45.924  33.165  30.080  1.00  0.00     0.173 A 
ATOM     86  F   UNL A   1      44.710  33.308  26.654  1.00  0.00    -0.203 F 
ATOM     87  C   UNL A   1      45.475  35.025  28.070  1.00  0.00     0.198 A 
ATOM     88  C   UNL A   1      46.183  34.515  30.305  1.00  0.00     0.198 A 
ATOM     89  F   UNL A   1      46.162  32.292  31.070  1.00  0.00    -0.203 F 
ATOM     90  F   UNL A   1      45.301  35.913  27.081  1.00  0.00    -0.200 F 
ATOM     91  C   UNL A   1      45.971  35.441  29.296  1.00  0.00     0.200 A 
ATOM     92  F   UNL A   1      46.647  34.917  31.497  1.00  0.00    -0.200 F 
ATOM     93  F   UNL A   1      46.254  36.735  29.501  1.00  0.00    -0.200 F 
ENDBRANCH  60  83
ENDBRANCH  34  35
ENDBRANCH  26  29
ENDBRANCH  24  25
ENDBRANCH  23  24
ENDBRANCH   1  23
TORSDOF 14
ENDMDL
