MODEL 1
REMARK VINA RESULT:     -12.2      0.000      0.000
REMARK SMILES CC[C@H](NC(=O)N1CCO[C@@H](CC(=O)NCCCCNC(=O)c2ccc(-c3c4nc(c(-c5c(F)c(F)c(F)c(F)c5F)c5ccc([nH]5)c(-c5c(F)c(F)c(F)c(F)c5F)c5nc(c(-c6c(F)c(F)c(F)c(F)c6F)c6ccc3[nH]6)C=C5)C=C4)cc2)C1)c1cccs1
REMARK SMILES IDX 16 1 15 2 13 3 14 4 12 6 11 7 7 8 8 9 86 10 9 11 10 12 5 13
REMARK SMILES IDX 4 14 6 16 3 17 2 18 1 19 87 20 88 21 91 22 89 23 90 24 17 25
REMARK SMILES IDX 18 26 19 27 20 28 21 29 22 31 23 32 24 33 85 34 25 35 84 36
REMARK SMILES IDX 26 37 27 38 28 39 78 40 29 41 83 42 77 43 79 44 30 45 82 46
REMARK SMILES IDX 76 47 75 48 31 50 63 51 43 52 62 53 44 54 47 55 61 56 80 57
REMARK SMILES IDX 45 58 46 59 60 61 81 62 48 63 32 64 33 65 41 66 34 67 35 68
REMARK SMILES IDX 39 69 42 70 36 71 37 72 40 73 38 74 64 75 65 76 73 77 66 78
REMARK SMILES IDX 67 79 71 80 74 81 68 82 69 83 72 84 70 85 49 86 50 87 58 88
REMARK SMILES IDX 51 89 52 90 56 91 59 92 53 93 54 94 57 95 55 96
REMARK H PARENT 15 5 4 15 20 30 79 49 47 60
REMARK Flexibility Score: inf
ROOT
ATOM      1  C   UNL A   1      31.505  29.571  25.539  1.00  0.00     0.116 C 
ENDROOT
BRANCH   1   2
ATOM      2  N   UNL A   1      32.419  29.443  24.411  1.00  0.00    -0.356 N 
ATOM      3  C   UNL A   1      33.436  28.562  24.178  1.00  0.00     0.222 C 
ATOM      4  O   UNL A   1      34.151  28.751  23.192  1.00  0.00    -0.275 OA
ATOM      5  H   UNL A   1      32.278  30.104  23.694  1.00  0.00     0.163 HD
BRANCH   3   6
ATOM      6  C   UNL A   1      33.706  27.399  25.115  1.00  0.00     0.133 C 
BRANCH   6   7
ATOM      7  C   UNL A   1      33.148  26.069  24.595  1.00  0.00     0.147 C 
ATOM      8  N   UNL A   1      31.889  24.062  25.444  1.00  0.00    -0.320 N 
ATOM      9  C   UNL A   1      30.798  24.408  24.540  1.00  0.00     0.150 C 
ATOM     10  C   UNL A   1      32.716  25.198  25.772  1.00  0.00     0.154 C 
ATOM     11  C   UNL A   1      31.346  25.160  23.328  1.00  0.00     0.182 C 
ATOM     12  O   UNL A   1      32.022  26.363  23.739  1.00  0.00    -0.374 OA
BRANCH   8  13
ATOM     13  C   UNL A   1      31.699  23.168  26.470  1.00  0.00     0.318 C 
ATOM     14  N   UNL A   1      32.446  22.049  26.488  1.00  0.00    -0.330 N 
ATOM     15  H   UNL A   1      32.289  21.455  27.258  1.00  0.00     0.166 HD
ATOM     16  O   UNL A   1      30.958  23.387  27.427  1.00  0.00    -0.249 OA
BRANCH  14  17
ATOM     17  C   UNL A   1      33.444  21.582  25.551  1.00  0.00     0.124 C 
BRANCH  17  18
ATOM     18  C   UNL A   1      34.803  21.383  26.230  1.00  0.00     0.027 C 
ATOM     19  C   UNL A   1      35.866  20.904  25.244  1.00  0.00     0.006 C 
ENDBRANCH  17  18
BRANCH  17  20
ATOM     20  C   UNL A   1      32.912  20.320  24.909  1.00  0.00     0.027 A 
ATOM     21  C   UNL A   1      32.836  19.063  25.482  1.00  0.00     0.017 A 
ATOM     22  S   UNL A   1      32.401  20.278  23.267  1.00  0.00    -0.147 S 
ATOM     23  C   UNL A   1      32.503  18.053  24.534  1.00  0.00     0.012 A 
ATOM     24  C   UNL A   1      32.280  18.576  23.280  1.00  0.00     0.065 A 
ENDBRANCH  17  20
ENDBRANCH  14  17
ENDBRANCH   8  13
ENDBRANCH   6   7
ENDBRANCH   3   6
ENDBRANCH   1   2
BRANCH   1  25
ATOM     25  C   UNL A   1      32.138  30.373  26.679  1.00  0.00     0.023 C 
BRANCH  25  26
ATOM     26  C   UNL A   1      31.776  31.843  26.762  1.00  0.00     0.023 C 
BRANCH  26  27
ATOM     27  C   UNL A   1      32.866  32.720  27.338  1.00  0.00     0.116 C 
BRANCH  27  28
ATOM     28  N   UNL A   1      32.439  34.079  27.643  1.00  0.00    -0.352 N 
ATOM     29  C   UNL A   1      32.959  34.965  28.561  1.00  0.00     0.251 C 
ATOM     30  H   UNL A   1      31.673  34.410  27.121  1.00  0.00     0.163 HD
ATOM     31  O   UNL A   1      32.445  36.060  28.737  1.00  0.00    -0.269 OA
BRANCH  29  32
ATOM     32  C   UNL A   1      34.117  34.547  29.379  1.00  0.00     0.039 A 
ATOM     33  C   UNL A   1      33.883  33.979  30.633  1.00  0.00     0.014 A 
ATOM     34  C   UNL A   1      35.413  34.632  28.872  1.00  0.00     0.014 A 
ATOM     35  C   UNL A   1      34.947  33.414  31.337  1.00  0.00     0.010 A 
ATOM     36  C   UNL A   1      36.444  33.960  29.512  1.00  0.00     0.010 A 
ATOM     37  C   UNL A   1      36.226  33.355  30.757  1.00  0.00    -0.014 A 
BRANCH  37  38
ATOM     38  C   UNL A   1      37.350  32.676  31.445  1.00  0.00     0.031 A 
ATOM     39  C   UNL A   1      38.045  31.518  30.784  1.00  0.00     0.074 A 
ATOM     40  C   UNL A   1      37.691  33.051  32.693  1.00  0.00     0.049 A 
ATOM     41  N   UNL A   1      39.024  30.774  31.233  1.00  0.00    -0.248 NA
ATOM     42  C   UNL A   1      37.545  31.111  29.462  1.00  0.00     0.031 C 
ATOM     43  C   UNL A   1      37.024  34.091  33.478  1.00  0.00     0.029 A 
ATOM     44  N   UNL A   1      38.683  32.594  33.525  1.00  0.00    -0.354 N 
ATOM     45  C   UNL A   1      39.232  29.803  30.264  1.00  0.00     0.074 A 
ATOM     46  C   UNL A   1      38.235  30.004  29.237  1.00  0.00     0.031 C 
ATOM     47  C   UNL A   1      37.645  34.216  34.663  1.00  0.00     0.029 A 
ATOM     48  C   UNL A   1      38.736  33.250  34.729  1.00  0.00     0.049 A 
ATOM     49  H   UNL A   1      39.297  31.865  33.280  1.00  0.00     0.167 HD
ATOM     50  C   UNL A   1      40.191  28.849  30.217  1.00  0.00     0.037 A 
ATOM     51  C   UNL A   1      39.579  33.094  35.767  1.00  0.00     0.037 A 
ATOM     52  C   UNL A   1      41.211  28.687  31.217  1.00  0.00     0.049 A 
ATOM     53  C   UNL A   1      40.684  32.078  35.660  1.00  0.00     0.074 A 
ATOM     54  C   UNL A   1      42.293  27.825  31.218  1.00  0.00     0.029 A 
ATOM     55  N   UNL A   1      41.271  29.409  32.400  1.00  0.00    -0.354 N 
ATOM     56  N   UNL A   1      40.941  31.235  34.689  1.00  0.00    -0.248 NA
ATOM     57  C   UNL A   1      41.626  32.004  36.785  1.00  0.00     0.031 C 
ATOM     58  C   UNL A   1      42.983  27.995  32.423  1.00  0.00     0.029 A 
ATOM     59  C   UNL A   1      42.360  28.996  33.152  1.00  0.00     0.049 A 
ATOM     60  H   UNL A   1      40.635  30.112  32.667  1.00  0.00     0.167 HD
ATOM     61  C   UNL A   1      42.077  30.539  35.077  1.00  0.00     0.074 A 
ATOM     62  C   UNL A   1      42.477  31.082  36.361  1.00  0.00     0.031 C 
ATOM     63  C   UNL A   1      42.730  29.541  34.433  1.00  0.00     0.037 A 
BRANCH  50  64
ATOM     64  C   UNL A   1      40.181  27.918  29.036  1.00  0.00     0.064 A 
ATOM     65  C   UNL A   1      39.493  26.695  29.065  1.00  0.00     0.173 A 
ATOM     66  C   UNL A   1      40.866  28.257  27.859  1.00  0.00     0.173 A 
ATOM     67  F   UNL A   1      38.835  26.316  30.171  1.00  0.00    -0.203 F 
ATOM     68  C   UNL A   1      39.525  25.827  27.976  1.00  0.00     0.198 A 
ATOM     69  C   UNL A   1      40.868  27.402  26.761  1.00  0.00     0.198 A 
ATOM     70  F   UNL A   1      41.537  29.415  27.776  1.00  0.00    -0.203 F 
ATOM     71  F   UNL A   1      38.916  24.636  28.053  1.00  0.00    -0.200 F 
ATOM     72  C   UNL A   1      40.208  26.184  26.824  1.00  0.00     0.200 A 
ATOM     73  F   UNL A   1      41.518  27.752  25.642  1.00  0.00    -0.200 F 
ATOM     74  F   UNL A   1      40.239  25.349  25.776  1.00  0.00    -0.200 F 
ENDBRANCH  50  64
BRANCH  51  75
ATOM     75  C   UNL A   1      39.437  33.953  36.970  1.00  0.00     0.064 A 
ATOM     76  C   UNL A   1      38.729  33.508  38.095  1.00  0.00     0.173 A 
ATOM     77  C   UNL A   1      40.022  35.226  37.029  1.00  0.00     0.173 A 
ATOM     78  F   UNL A   1      38.137  32.304  38.080  1.00  0.00    -0.203 F 
ATOM     79  C   UNL A   1      38.597  34.310  39.227  1.00  0.00     0.198 A 
ATOM     80  C   UNL A   1      39.913  36.017  38.171  1.00  0.00     0.198 A 
ATOM     81  F   UNL A   1      40.716  35.694  35.982  1.00  0.00    -0.203 F 
ATOM     82  F   UNL A   1      37.882  33.875  40.274  1.00  0.00    -0.200 F 
ATOM     83  C   UNL A   1      39.194  35.560  39.267  1.00  0.00     0.200 A 
ATOM     84  F   UNL A   1      40.502  37.218  38.212  1.00  0.00    -0.200 F 
ATOM     85  F   UNL A   1      39.075  36.328  40.359  1.00  0.00    -0.200 F 
ENDBRANCH  51  75
BRANCH  63  86
ATOM     86  C   UNL A   1      43.944  28.976  35.110  1.00  0.00     0.064 A 
ATOM     87  C   UNL A   1      43.851  27.892  35.996  1.00  0.00     0.173 A 
ATOM     88  C   UNL A   1      45.216  29.509  34.854  1.00  0.00     0.173 A 
ATOM     89  F   UNL A   1      42.655  27.356  36.285  1.00  0.00    -0.203 F 
ATOM     90  C   UNL A   1      44.984  27.386  36.627  1.00  0.00     0.198 A 
ATOM     91  C   UNL A   1      46.349  28.980  35.463  1.00  0.00     0.198 A 
ATOM     92  F   UNL A   1      45.359  30.541  34.008  1.00  0.00    -0.203 F 
ATOM     93  F   UNL A   1      44.864  26.387  37.513  1.00  0.00    -0.200 F 
ATOM     94  C   UNL A   1      46.231  27.925  36.356  1.00  0.00     0.200 A 
ATOM     95  F   UNL A   1      47.557  29.493  35.189  1.00  0.00    -0.200 F 
ATOM     96  F   UNL A   1      47.321  27.436  36.964  1.00  0.00    -0.200 F 
ENDBRANCH  63  86
ENDBRANCH  37  38
ENDBRANCH  29  32
ENDBRANCH  27  28
ENDBRANCH  26  27
ENDBRANCH  25  26
ENDBRANCH   1  25
TORSDOF 16
ENDMDL
MODEL 2
REMARK VINA RESULT:     -12.0      5.715     11.317
REMARK SMILES CC[C@H](NC(=O)N1CCO[C@@H](CC(=O)NCCCCNC(=O)c2ccc(-c3c4nc(c(-c5c(F)c(F)c(F)c(F)c5F)c5ccc([nH]5)c(-c5c(F)c(F)c(F)c(F)c5F)c5nc(c(-c6c(F)c(F)c(F)c(F)c6F)c6ccc3[nH]6)C=C5)C=C4)cc2)C1)c1cccs1
REMARK SMILES IDX 16 1 15 2 13 3 14 4 12 6 11 7 7 8 8 9 86 10 9 11 10 12 5 13
REMARK SMILES IDX 4 14 6 16 3 17 2 18 1 19 87 20 88 21 91 22 89 23 90 24 17 25
REMARK SMILES IDX 18 26 19 27 20 28 21 29 22 31 23 32 24 33 85 34 25 35 84 36
REMARK SMILES IDX 26 37 27 38 28 39 78 40 29 41 83 42 77 43 79 44 30 45 82 46
REMARK SMILES IDX 76 47 75 48 31 50 63 51 43 52 62 53 44 54 47 55 61 56 80 57
REMARK SMILES IDX 45 58 46 59 60 61 81 62 48 63 32 64 33 65 41 66 34 67 35 68
REMARK SMILES IDX 39 69 42 70 36 71 37 72 40 73 38 74 64 75 65 76 73 77 66 78
REMARK SMILES IDX 67 79 71 80 74 81 68 82 69 83 72 84 70 85 49 86 50 87 58 88
REMARK SMILES IDX 51 89 52 90 56 91 59 92 53 93 54 94 57 95 55 96
REMARK H PARENT 15 5 4 15 20 30 79 49 47 60
REMARK Flexibility Score: inf
ROOT
ATOM      1  C   UNL A   1      35.683  20.976  24.831  1.00  0.00     0.116 C 
ENDROOT
BRANCH   1   2
ATOM      2  N   UNL A   1      34.960  21.056  26.094  1.00  0.00    -0.356 N 
ATOM      3  C   UNL A   1      34.535  22.134  26.815  1.00  0.00     0.222 C 
ATOM      4  O   UNL A   1      34.053  21.932  27.931  1.00  0.00    -0.275 OA
ATOM      5  H   UNL A   1      34.741  20.183  26.495  1.00  0.00     0.163 HD
BRANCH   3   6
ATOM      6  C   UNL A   1      34.673  23.548  26.281  1.00  0.00     0.133 C 
BRANCH   6   7
ATOM      7  C   UNL A   1      33.414  24.041  25.557  1.00  0.00     0.147 C 
ATOM      8  N   UNL A   1      32.775  25.293  23.470  1.00  0.00    -0.320 N 
ATOM      9  C   UNL A   1      32.081  24.096  23.008  1.00  0.00     0.150 C 
ATOM     10  C   UNL A   1      33.808  24.995  24.432  1.00  0.00     0.154 C 
ATOM     11  C   UNL A   1      31.608  23.274  24.205  1.00  0.00     0.182 C 
ATOM     12  O   UNL A   1      32.724  22.887  25.028  1.00  0.00    -0.374 OA
BRANCH   8  13
ATOM     13  C   UNL A   1      33.069  26.318  22.602  1.00  0.00     0.318 C 
ATOM     14  N   UNL A   1      32.615  27.550  22.895  1.00  0.00    -0.330 N 
ATOM     15  H   UNL A   1      32.876  28.253  22.255  1.00  0.00     0.166 HD
ATOM     16  O   UNL A   1      33.812  26.187  21.631  1.00  0.00    -0.249 OA
BRANCH  14  17
ATOM     17  C   UNL A   1      31.804  28.004  24.003  1.00  0.00     0.124 C 
BRANCH  17  18
ATOM     18  C   UNL A   1      32.487  29.140  24.772  1.00  0.00     0.027 C 
ATOM     19  C   UNL A   1      33.843  28.714  25.329  1.00  0.00     0.006 C 
ENDBRANCH  17  18
BRANCH  17  20
ATOM     20  C   UNL A   1      30.452  28.394  23.448  1.00  0.00     0.027 A 
ATOM     21  C   UNL A   1      30.082  29.630  22.948  1.00  0.00     0.017 A 
ATOM     22  S   UNL A   1      29.113  27.313  23.465  1.00  0.00    -0.147 S 
ATOM     23  C   UNL A   1      28.678  29.727  22.724  1.00  0.00     0.012 A 
ATOM     24  C   UNL A   1      28.028  28.546  23.003  1.00  0.00     0.065 A 
ENDBRANCH  17  20
ENDBRANCH  14  17
ENDBRANCH   8  13
ENDBRANCH   6   7
ENDBRANCH   3   6
ENDBRANCH   1   2
BRANCH   1  25
ATOM     25  C   UNL A   1      37.169  21.293  25.019  1.00  0.00     0.023 C 
BRANCH  25  26
ATOM     26  C   UNL A   1      38.123  20.116  25.032  1.00  0.00     0.023 C 
BRANCH  26  27
ATOM     27  C   UNL A   1      39.386  20.347  25.832  1.00  0.00     0.116 C 
BRANCH  27  28
ATOM     28  N   UNL A   1      40.284  19.200  25.874  1.00  0.00    -0.352 N 
ATOM     29  C   UNL A   1      41.639  19.169  26.125  1.00  0.00     0.251 C 
ATOM     30  H   UNL A   1      39.865  18.327  25.698  1.00  0.00     0.163 HD
ATOM     31  O   UNL A   1      42.264  18.121  26.067  1.00  0.00    -0.269 OA
BRANCH  29  32
ATOM     32  C   UNL A   1      42.341  20.438  26.407  1.00  0.00     0.039 A 
ATOM     33  C   UNL A   1      42.946  21.121  25.349  1.00  0.00     0.014 A 
ATOM     34  C   UNL A   1      42.322  20.993  27.686  1.00  0.00     0.014 A 
ATOM     35  C   UNL A   1      43.452  22.403  25.562  1.00  0.00     0.010 A 
ATOM     36  C   UNL A   1      42.708  22.313  27.866  1.00  0.00     0.010 A 
ATOM     37  C   UNL A   1      43.290  23.028  26.811  1.00  0.00    -0.014 A 
BRANCH  37  38
ATOM     38  C   UNL A   1      43.735  24.425  27.033  1.00  0.00     0.031 A 
ATOM     39  C   UNL A   1      42.754  25.457  27.517  1.00  0.00     0.074 A 
ATOM     40  C   UNL A   1      44.998  24.779  26.726  1.00  0.00     0.049 A 
ATOM     41  N   UNL A   1      42.937  26.733  27.741  1.00  0.00    -0.248 NA
ATOM     42  C   UNL A   1      41.370  25.006  27.736  1.00  0.00     0.031 C 
ATOM     43  C   UNL A   1      46.011  23.892  26.152  1.00  0.00     0.029 A 
ATOM     44  N   UNL A   1      45.642  25.984  26.847  1.00  0.00    -0.354 N 
ATOM     45  C   UNL A   1      41.693  27.235  28.096  1.00  0.00     0.074 A 
ATOM     46  C   UNL A   1      40.748  26.147  27.990  1.00  0.00     0.031 C 
ATOM     47  C   UNL A   1      47.159  24.573  26.002  1.00  0.00     0.029 A 
ATOM     48  C   UNL A   1      46.955  25.948  26.446  1.00  0.00     0.049 A 
ATOM     49  H   UNL A   1      45.206  26.798  27.188  1.00  0.00     0.167 HD
ATOM     50  C   UNL A   1      41.372  28.484  28.508  1.00  0.00     0.037 A 
ATOM     51  C   UNL A   1      47.891  26.915  26.446  1.00  0.00     0.037 A 
ATOM     52  C   UNL A   1      42.327  29.548  28.660  1.00  0.00     0.049 A 
ATOM     53  C   UNL A   1      47.531  28.275  26.979  1.00  0.00     0.074 A 
ATOM     54  C   UNL A   1      42.132  30.818  29.170  1.00  0.00     0.029 A 
ATOM     55  N   UNL A   1      43.664  29.460  28.300  1.00  0.00    -0.354 N 
ATOM     56  N   UNL A   1      46.374  28.712  27.417  1.00  0.00    -0.248 NA
ATOM     57  C   UNL A   1      48.608  29.271  27.034  1.00  0.00     0.031 C 
ATOM     58  C   UNL A   1      43.342  31.515  29.077  1.00  0.00     0.029 A 
ATOM     59  C   UNL A   1      44.303  30.663  28.554  1.00  0.00     0.049 A 
ATOM     60  H   UNL A   1      44.096  28.661  27.920  1.00  0.00     0.167 HD
ATOM     61  C   UNL A   1      46.585  30.026  27.811  1.00  0.00     0.074 A 
ATOM     62  C   UNL A   1      47.990  30.305  27.586  1.00  0.00     0.031 C 
ATOM     63  C   UNL A   1      45.699  30.922  28.309  1.00  0.00     0.037 A 
BRANCH  50  64
ATOM     64  C   UNL A   1      39.930  28.754  28.832  1.00  0.00     0.064 A 
ATOM     65  C   UNL A   1      39.409  28.545  30.119  1.00  0.00     0.173 A 
ATOM     66  C   UNL A   1      39.058  29.233  27.842  1.00  0.00     0.173 A 
ATOM     67  F   UNL A   1      40.195  28.074  31.098  1.00  0.00    -0.203 F 
ATOM     68  C   UNL A   1      38.061  28.764  30.392  1.00  0.00     0.198 A 
ATOM     69  C   UNL A   1      37.718  29.483  28.128  1.00  0.00     0.198 A 
ATOM     70  F   UNL A   1      39.503  29.453  26.597  1.00  0.00    -0.203 F 
ATOM     71  F   UNL A   1      37.573  28.493  31.610  1.00  0.00    -0.200 F 
ATOM     72  C   UNL A   1      37.219  29.238  29.398  1.00  0.00     0.200 A 
ATOM     73  F   UNL A   1      36.907  29.952  27.170  1.00  0.00    -0.200 F 
ATOM     74  F   UNL A   1      35.922  29.449  29.661  1.00  0.00    -0.200 F 
ENDBRANCH  50  64
BRANCH  51  75
ATOM     75  C   UNL A   1      49.265  26.614  25.970  1.00  0.00     0.064 A 
ATOM     76  C   UNL A   1      49.662  26.930  24.663  1.00  0.00     0.173 A 
ATOM     77  C   UNL A   1      50.215  26.025  26.817  1.00  0.00     0.173 A 
ATOM     78  F   UNL A   1      48.783  27.478  23.811  1.00  0.00    -0.203 F 
ATOM     79  C   UNL A   1      50.952  26.652  24.215  1.00  0.00     0.198 A 
ATOM     80  C   UNL A   1      51.514  25.773  26.376  1.00  0.00     0.198 A 
ATOM     81  F   UNL A   1      49.888  25.712  28.078  1.00  0.00    -0.203 F 
ATOM     82  F   UNL A   1      51.292  26.929  22.949  1.00  0.00    -0.200 F 
ATOM     83  C   UNL A   1      51.878  26.081  25.073  1.00  0.00     0.200 A 
ATOM     84  F   UNL A   1      52.410  25.233  27.212  1.00  0.00    -0.200 F 
ATOM     85  F   UNL A   1      53.121  25.822  24.645  1.00  0.00    -0.200 F 
ENDBRANCH  51  75
BRANCH  63  86
ATOM     86  C   UNL A   1      46.227  32.286  28.646  1.00  0.00     0.064 A 
ATOM     87  C   UNL A   1      46.746  32.576  29.917  1.00  0.00     0.173 A 
ATOM     88  C   UNL A   1      46.235  33.306  27.684  1.00  0.00     0.173 A 
ATOM     89  F   UNL A   1      46.747  31.637  30.877  1.00  0.00    -0.203 F 
ATOM     90  C   UNL A   1      47.221  33.848  30.222  1.00  0.00     0.198 A 
ATOM     91  C   UNL A   1      46.740  34.567  27.982  1.00  0.00     0.198 A 
ATOM     92  F   UNL A   1      45.758  33.076  26.451  1.00  0.00    -0.203 F 
ATOM     93  F   UNL A   1      47.659  34.119  31.459  1.00  0.00    -0.200 F 
ATOM     94  C   UNL A   1      47.224  34.840  29.253  1.00  0.00     0.200 A 
ATOM     95  F   UNL A   1      46.755  35.522  27.041  1.00  0.00    -0.200 F 
ATOM     96  F   UNL A   1      47.683  36.064  29.548  1.00  0.00    -0.200 F 
ENDBRANCH  63  86
ENDBRANCH  37  38
ENDBRANCH  29  32
ENDBRANCH  27  28
ENDBRANCH  26  27
ENDBRANCH  25  26
ENDBRANCH   1  25
TORSDOF 16
ENDMDL
MODEL 3
REMARK VINA RESULT:     -11.9      0.981      7.468
REMARK SMILES CC[C@H](NC(=O)N1CCO[C@@H](CC(=O)NCCCCNC(=O)c2ccc(-c3c4nc(c(-c5c(F)c(F)c(F)c(F)c5F)c5ccc([nH]5)c(-c5c(F)c(F)c(F)c(F)c5F)c5nc(c(-c6c(F)c(F)c(F)c(F)c6F)c6ccc3[nH]6)C=C5)C=C4)cc2)C1)c1cccs1
REMARK SMILES IDX 16 1 15 2 13 3 14 4 12 6 11 7 7 8 8 9 86 10 9 11 10 12 5 13
REMARK SMILES IDX 4 14 6 16 3 17 2 18 1 19 87 20 88 21 91 22 89 23 90 24 17 25
REMARK SMILES IDX 18 26 19 27 20 28 21 29 22 31 23 32 24 33 85 34 25 35 84 36
REMARK SMILES IDX 26 37 27 38 28 39 78 40 29 41 83 42 77 43 79 44 30 45 82 46
REMARK SMILES IDX 76 47 75 48 31 50 63 51 43 52 62 53 44 54 47 55 61 56 80 57
REMARK SMILES IDX 45 58 46 59 60 61 81 62 48 63 32 64 33 65 41 66 34 67 35 68
REMARK SMILES IDX 39 69 42 70 36 71 37 72 40 73 38 74 64 75 65 76 73 77 66 78
REMARK SMILES IDX 67 79 71 80 74 81 68 82 69 83 72 84 70 85 49 86 50 87 58 88
REMARK SMILES IDX 51 89 52 90 56 91 59 92 53 93 54 94 57 95 55 96
REMARK H PARENT 15 5 4 15 20 30 79 49 47 60
REMARK Flexibility Score: inf
ROOT
ATOM      1  C   UNL A   1      32.965  30.033  26.055  1.00  0.00     0.116 C 
ENDROOT
BRANCH   1   2
ATOM      2  N   UNL A   1      33.277  29.461  24.751  1.00  0.00    -0.356 N 
ATOM      3  C   UNL A   1      33.721  28.219  24.401  1.00  0.00     0.222 C 
ATOM      4  O   UNL A   1      34.037  28.026  23.226  1.00  0.00    -0.275 OA
ATOM      5  H   UNL A   1      33.144  30.077  23.993  1.00  0.00     0.163 HD
BRANCH   3   6
ATOM      6  C   UNL A   1      33.854  27.108  25.427  1.00  0.00     0.133 C 
BRANCH   6   7
ATOM      7  C   UNL A   1      33.044  25.857  25.065  1.00  0.00     0.147 C 
ATOM      8  N   UNL A   1      32.399  23.641  26.067  1.00  0.00    -0.320 N 
ATOM      9  C   UNL A   1      31.004  24.065  26.018  1.00  0.00     0.150 C 
ATOM     10  C   UNL A   1      33.315  24.756  26.087  1.00  0.00     0.154 C 
ATOM     11  C   UNL A   1      30.804  25.065  24.880  1.00  0.00     0.182 C 
ATOM     12  O   UNL A   1      31.645  26.219  25.065  1.00  0.00    -0.374 OA
BRANCH   8  13
ATOM     13  C   UNL A   1      32.782  22.562  26.828  1.00  0.00     0.318 C 
ATOM     14  N   UNL A   1      33.401  21.537  26.214  1.00  0.00    -0.330 N 
ATOM     15  H   UNL A   1      33.679  20.802  26.808  1.00  0.00     0.166 HD
ATOM     16  O   UNL A   1      32.684  22.532  28.053  1.00  0.00    -0.249 OA
BRANCH  14  17
ATOM     17  C   UNL A   1      33.722  21.347  24.816  1.00  0.00     0.124 C 
BRANCH  17  18
ATOM     18  C   UNL A   1      35.049  22.020  24.448  1.00  0.00     0.027 C 
ATOM     19  C   UNL A   1      34.902  22.945  23.243  1.00  0.00     0.006 C 
ENDBRANCH  17  18
BRANCH  17  20
ATOM     20  C   UNL A   1      33.718  19.859  24.546  1.00  0.00     0.027 A 
ATOM     21  C   UNL A   1      34.765  18.975  24.735  1.00  0.00     0.017 A 
ATOM     22  S   UNL A   1      32.364  19.065  23.840  1.00  0.00    -0.147 S 
ATOM     23  C   UNL A   1      34.504  17.695  24.167  1.00  0.00     0.012 A 
ATOM     24  C   UNL A   1      33.246  17.622  23.613  1.00  0.00     0.065 A 
ENDBRANCH  17  20
ENDBRANCH  14  17
ENDBRANCH   8  13
ENDBRANCH   6   7
ENDBRANCH   3   6
ENDBRANCH   1   2
BRANCH   1  25
ATOM     25  C   UNL A   1      31.679  30.864  26.005  1.00  0.00     0.023 C 
BRANCH  25  26
ATOM     26  C   UNL A   1      31.500  31.909  27.088  1.00  0.00     0.023 C 
BRANCH  26  27
ATOM     27  C   UNL A   1      32.695  32.816  27.281  1.00  0.00     0.116 C 
BRANCH  27  28
ATOM     28  N   UNL A   1      32.352  34.186  27.642  1.00  0.00    -0.352 N 
ATOM     29  C   UNL A   1      32.963  35.021  28.551  1.00  0.00     0.251 C 
ATOM     30  H   UNL A   1      31.576  34.566  27.170  1.00  0.00     0.163 HD
ATOM     31  O   UNL A   1      32.514  36.135  28.780  1.00  0.00    -0.269 OA
BRANCH  29  32
ATOM     32  C   UNL A   1      34.141  34.528  29.294  1.00  0.00     0.039 A 
ATOM     33  C   UNL A   1      33.938  33.827  30.485  1.00  0.00     0.014 A 
ATOM     34  C   UNL A   1      35.426  34.675  28.771  1.00  0.00     0.014 A 
ATOM     35  C   UNL A   1      35.020  33.199  31.101  1.00  0.00     0.010 A 
ATOM     36  C   UNL A   1      36.473  33.946  29.313  1.00  0.00     0.010 A 
ATOM     37  C   UNL A   1      36.287  33.211  30.491  1.00  0.00    -0.014 A 
BRANCH  37  38
ATOM     38  C   UNL A   1      37.429  32.471  31.078  1.00  0.00     0.031 A 
ATOM     39  C   UNL A   1      37.926  32.824  32.452  1.00  0.00     0.074 A 
ATOM     40  C   UNL A   1      38.065  31.537  30.344  1.00  0.00     0.049 A 
ATOM     41  N   UNL A   1      38.928  32.319  33.126  1.00  0.00    -0.248 NA
ATOM     42  C   UNL A   1      37.236  33.923  33.146  1.00  0.00     0.031 C 
ATOM     43  C   UNL A   1      37.741  31.180  28.962  1.00  0.00     0.029 A 
ATOM     44  N   UNL A   1      39.124  30.723  30.658  1.00  0.00    -0.354 N 
ATOM     45  C   UNL A   1      39.001  33.055  34.300  1.00  0.00     0.074 A 
ATOM     46  C   UNL A   1      37.992  34.087  34.220  1.00  0.00     0.031 C 
ATOM     47  C   UNL A   1      38.561  30.195  28.558  1.00  0.00     0.029 A 
ATOM     48  C   UNL A   1      39.481  29.870  29.643  1.00  0.00     0.049 A 
ATOM     49  H   UNL A   1      39.584  30.747  31.528  1.00  0.00     0.167 HD
ATOM     50  C   UNL A   1      39.813  32.866  35.366  1.00  0.00     0.037 A 
ATOM     51  C   UNL A   1      40.439  28.926  29.597  1.00  0.00     0.037 A 
ATOM     52  C   UNL A   1      40.780  31.807  35.460  1.00  0.00     0.049 A 
ATOM     53  C   UNL A   1      41.280  28.684  30.821  1.00  0.00     0.074 A 
ATOM     54  C   UNL A   1      41.580  31.458  36.533  1.00  0.00     0.029 A 
ATOM     55  N   UNL A   1      41.077  30.922  34.433  1.00  0.00    -0.354 N 
ATOM     56  N   UNL A   1      41.267  29.315  31.971  1.00  0.00    -0.248 NA
ATOM     57  C   UNL A   1      42.255  27.588  30.748  1.00  0.00     0.031 C 
ATOM     58  C   UNL A   1      42.393  30.389  36.140  1.00  0.00     0.029 A 
ATOM     59  C   UNL A   1      42.066  30.040  34.838  1.00  0.00     0.049 A 
ATOM     60  H   UNL A   1      40.647  30.919  33.547  1.00  0.00     0.167 HD
ATOM     61  C   UNL A   1      42.220  28.688  32.761  1.00  0.00     0.074 A 
ATOM     62  C   UNL A   1      42.771  27.607  31.968  1.00  0.00     0.031 C 
ATOM     63  C   UNL A   1      42.609  28.981  34.027  1.00  0.00     0.037 A 
BRANCH  50  64
ATOM     64  C   UNL A   1      39.676  33.824  36.516  1.00  0.00     0.064 A 
ATOM     65  C   UNL A   1      40.367  35.046  36.547  1.00  0.00     0.173 A 
ATOM     66  C   UNL A   1      38.839  33.518  37.600  1.00  0.00     0.173 A 
ATOM     67  F   UNL A   1      41.192  35.382  35.543  1.00  0.00    -0.203 F 
ATOM     68  C   UNL A   1      40.258  35.905  37.637  1.00  0.00     0.198 A 
ATOM     69  C   UNL A   1      38.707  34.396  38.673  1.00  0.00     0.198 A 
ATOM     70  F   UNL A   1      38.154  32.366  37.621  1.00  0.00    -0.203 F 
ATOM     71  F   UNL A   1      40.980  37.034  37.673  1.00  0.00    -0.200 F 
ATOM     72  C   UNL A   1      39.425  35.582  38.696  1.00  0.00     0.200 A 
ATOM     73  F   UNL A   1      37.892  34.088  39.691  1.00  0.00    -0.200 F 
ATOM     74  F   UNL A   1      39.320  36.409  39.745  1.00  0.00    -0.200 F 
ENDBRANCH  50  64
BRANCH  51  75
ATOM     75  C   UNL A   1      40.617  28.112  28.367  1.00  0.00     0.064 A 
ATOM     76  C   UNL A   1      41.452  28.546  27.329  1.00  0.00     0.173 A 
ATOM     77  C   UNL A   1      39.974  26.876  28.214  1.00  0.00     0.173 A 
ATOM     78  F   UNL A   1      42.075  29.731  27.422  1.00  0.00    -0.203 F 
ATOM     79  C   UNL A   1      41.624  27.783  26.176  1.00  0.00     0.198 A 
ATOM     80  C   UNL A   1      40.168  26.100  27.072  1.00  0.00     0.198 A 
ATOM     81  F   UNL A   1      39.171  26.412  29.182  1.00  0.00    -0.203 F 
ATOM     82  F   UNL A   1      42.398  28.241  25.182  1.00  0.00    -0.200 F 
ATOM     83  C   UNL A   1      40.988  26.558  26.051  1.00  0.00     0.200 A 
ATOM     84  F   UNL A   1      39.562  24.911  26.961  1.00  0.00    -0.200 F 
ATOM     85  F   UNL A   1      41.160  25.820  24.946  1.00  0.00    -0.200 F 
ENDBRANCH  51  75
BRANCH  63  86
ATOM     86  C   UNL A   1      43.677  28.115  34.628  1.00  0.00     0.064 A 
ATOM     87  C   UNL A   1      45.031  28.475  34.565  1.00  0.00     0.173 A 
ATOM     88  C   UNL A   1      43.342  26.926  35.290  1.00  0.00     0.173 A 
ATOM     89  F   UNL A   1      45.405  29.597  33.929  1.00  0.00    -0.203 F 
ATOM     90  C   UNL A   1      46.014  27.657  35.115  1.00  0.00     0.198 A 
ATOM     91  C   UNL A   1      44.324  26.127  35.866  1.00  0.00     0.198 A 
ATOM     92  F   UNL A   1      42.060  26.542  35.385  1.00  0.00    -0.203 F 
ATOM     93  F   UNL A   1      47.306  27.991  34.993  1.00  0.00    -0.200 F 
ATOM     94  C   UNL A   1      45.660  26.488  35.770  1.00  0.00     0.200 A 
ATOM     95  F   UNL A   1      43.979  25.003  36.512  1.00  0.00    -0.200 F 
ATOM     96  F   UNL A   1      46.608  25.701  36.299  1.00  0.00    -0.200 F 
ENDBRANCH  63  86
ENDBRANCH  37  38
ENDBRANCH  29  32
ENDBRANCH  27  28
ENDBRANCH  26  27
ENDBRANCH  25  26
ENDBRANCH   1  25
TORSDOF 16
ENDMDL
