MODEL 1
REMARK VINA RESULT:     -12.8      0.000      0.000
REMARK SMILES O=C(NCCCCNC(=O)[C@@H]1C=C[C@@H]([NH+]2CC3(CCOCC3)C2)C1)c1ccc(-c2c3nc(c(-c4c(F)c(F)c(F)c(F)c4F)c4ccc([nH]4)c(-c4c(F)c(F)c(F)c(F)c4F)c4nc(c(-c5c(F)c(F)c(F)c(F)c5F)c5ccc2[nH]5)C=C4)C=C3)cc1
REMARK SMILES IDX 5 1 4 2 3 3 1 4 2 5 25 7 26 8 87 9 27 10 86 11 28 12 29 13
REMARK SMILES IDX 30 14 80 15 31 16 85 17 79 18 81 19 32 20 84 21 78 22 77 23
REMARK SMILES IDX 33 25 65 26 45 27 64 28 46 29 49 30 63 31 82 32 47 33 48 34
REMARK SMILES IDX 62 36 83 37 50 38 34 39 35 40 43 41 36 42 37 43 41 44 44 45
REMARK SMILES IDX 38 46 39 47 42 48 40 49 66 50 67 51 75 52 68 53 69 54 73 55
REMARK SMILES IDX 76 56 70 57 71 58 74 59 72 60 51 61 52 62 60 63 53 64 54 65
REMARK SMILES IDX 58 66 61 67 55 68 56 69 59 70 57 71 6 72 7 73 8 74 9 75
REMARK SMILES IDX 10 77 11 78 12 79 24 80 13 81 14 82 15 83 16 84 23 85 17 87
REMARK SMILES IDX 18 88 22 89 19 90 21 91 20 92
REMARK H PARENT 3 6 81 24 49 35 8 76 15 86
REMARK Flexibility Score: inf
ROOT
ATOM      1  C   UNL A   1      31.571  31.887  26.746  1.00  0.00     0.023 C 
ENDROOT
BRANCH   1   2
ATOM      2  C   UNL A   1      32.762  32.682  27.270  1.00  0.00     0.116 C 
BRANCH   2   3
ATOM      3  N   UNL A   1      32.420  34.049  27.628  1.00  0.00    -0.352 N 
ATOM      4  O   UNL A   1      32.494  35.943  28.856  1.00  0.00    -0.269 OA
ATOM      5  C   UNL A   1      32.985  34.861  28.588  1.00  0.00     0.251 C 
ATOM      6  H   UNL A   1      31.683  34.450  27.111  1.00  0.00     0.163 HD
BRANCH   5   7
ATOM      7  C   UNL A   1      34.178  34.380  29.318  1.00  0.00     0.039 A 
ATOM      8  C   UNL A   1      35.459  34.617  28.816  1.00  0.00     0.014 A 
ATOM      9  C   UNL A   1      34.004  33.647  30.496  1.00  0.00     0.014 A 
ATOM     10  C   UNL A   1      36.550  33.980  29.395  1.00  0.00     0.010 A 
ATOM     11  C   UNL A   1      35.115  33.080  31.126  1.00  0.00     0.010 A 
ATOM     12  C   UNL A   1      36.390  33.202  30.554  1.00  0.00    -0.014 A 
BRANCH  12  13
ATOM     13  C   UNL A   1      37.580  32.538  31.146  1.00  0.00     0.031 A 
ATOM     14  C   UNL A   1      38.046  32.871  32.536  1.00  0.00     0.074 A 
ATOM     15  C   UNL A   1      38.209  31.582  30.435  1.00  0.00     0.049 A 
ATOM     16  N   UNL A   1      39.028  32.346  33.226  1.00  0.00    -0.248 NA
ATOM     17  C   UNL A   1      37.325  33.941  33.244  1.00  0.00     0.031 C 
ATOM     18  C   UNL A   1      37.857  31.181  29.071  1.00  0.00     0.029 A 
ATOM     19  N   UNL A   1      39.254  30.758  30.765  1.00  0.00    -0.354 N 
ATOM     20  C   UNL A   1      39.060  33.035  34.432  1.00  0.00     0.074 A 
ATOM     21  C   UNL A   1      38.013  34.032  34.374  1.00  0.00     0.031 C 
ATOM     22  C   UNL A   1      38.630  30.149  28.704  1.00  0.00     0.029 A 
ATOM     23  C   UNL A   1      39.567  29.852  29.782  1.00  0.00     0.049 A 
ATOM     24  H   UNL A   1      39.732  30.810  31.623  1.00  0.00     0.167 HD
ATOM     25  C   UNL A   1      39.884  32.845  35.492  1.00  0.00     0.037 A 
ATOM     26  C   UNL A   1      40.505  28.889  29.752  1.00  0.00     0.037 A 
ATOM     27  C   UNL A   1      40.902  31.829  35.559  1.00  0.00     0.049 A 
ATOM     28  C   UNL A   1      41.394  28.694  30.945  1.00  0.00     0.074 A 
ATOM     29  C   UNL A   1      41.756  31.530  36.606  1.00  0.00     0.029 A 
ATOM     30  N   UNL A   1      41.203  30.943  34.535  1.00  0.00    -0.354 N 
ATOM     31  N   UNL A   1      41.390  29.329  32.091  1.00  0.00    -0.248 NA
ATOM     32  C   UNL A   1      42.419  27.648  30.839  1.00  0.00     0.031 C 
ATOM     33  C   UNL A   1      42.599  30.489  36.203  1.00  0.00     0.029 A 
ATOM     34  C   UNL A   1      42.241  30.109  34.920  1.00  0.00     0.049 A 
ATOM     35  H   UNL A   1      40.746  30.911  33.663  1.00  0.00     0.167 HD
ATOM     36  C   UNL A   1      42.395  28.749  32.850  1.00  0.00     0.074 A 
ATOM     37  C   UNL A   1      42.975  27.697  32.042  1.00  0.00     0.031 C 
ATOM     38  C   UNL A   1      42.802  29.062  34.105  1.00  0.00     0.037 A 
BRANCH  25  39
ATOM     39  C   UNL A   1      39.733  33.769  36.666  1.00  0.00     0.064 A 
ATOM     40  C   UNL A   1      40.372  35.016  36.712  1.00  0.00     0.173 A 
ATOM     41  C   UNL A   1      38.898  33.420  37.739  1.00  0.00     0.173 A 
ATOM     42  F   UNL A   1      41.189  35.394  35.717  1.00  0.00    -0.203 F 
ATOM     43  C   UNL A   1      40.197  35.872  37.798  1.00  0.00     0.198 A 
ATOM     44  C   UNL A   1      38.705  34.287  38.810  1.00  0.00     0.198 A 
ATOM     45  F   UNL A   1      38.259  32.240  37.742  1.00  0.00    -0.203 F 
ATOM     46  F   UNL A   1      40.849  37.042  37.839  1.00  0.00    -0.200 F 
ATOM     47  C   UNL A   1      39.360  35.510  38.842  1.00  0.00     0.200 A 
ATOM     48  F   UNL A   1      37.887  33.941  39.813  1.00  0.00    -0.200 F 
ATOM     49  F   UNL A   1      39.187  36.337  39.882  1.00  0.00    -0.200 F 
ENDBRANCH  25  39
BRANCH  26  50
ATOM     50  C   UNL A   1      40.631  28.023  28.552  1.00  0.00     0.064 A 
ATOM     51  C   UNL A   1      39.965  26.792  28.480  1.00  0.00     0.173 A 
ATOM     52  C   UNL A   1      41.404  28.415  27.449  1.00  0.00     0.173 A 
ATOM     53  F   UNL A   1      39.229  26.367  29.517  1.00  0.00    -0.203 F 
ATOM     54  C   UNL A   1      40.078  25.979  27.354  1.00  0.00     0.198 A 
ATOM     55  C   UNL A   1      41.494  27.615  26.314  1.00  0.00     0.198 A 
ATOM     56  F   UNL A   1      42.054  29.587  27.468  1.00  0.00    -0.203 F 
ATOM     57  F   UNL A   1      39.462  24.790  27.325  1.00  0.00    -0.200 F 
ATOM     58  C   UNL A   1      40.836  26.394  26.269  1.00  0.00     0.200 A 
ATOM     59  F   UNL A   1      42.213  28.028  25.260  1.00  0.00    -0.200 F 
ATOM     60  F   UNL A   1      40.937  25.616  25.183  1.00  0.00    -0.200 F 
ENDBRANCH  26  50
BRANCH  38  61
ATOM     61  C   UNL A   1      43.908  28.232  34.687  1.00  0.00     0.064 A 
ATOM     62  C   UNL A   1      45.253  28.608  34.564  1.00  0.00     0.173 A 
ATOM     63  C   UNL A   1      43.615  27.055  35.391  1.00  0.00     0.173 A 
ATOM     64  F   UNL A   1      45.584  29.718  33.886  1.00  0.00    -0.203 F 
ATOM     65  C   UNL A   1      46.267  27.820  35.098  1.00  0.00     0.198 A 
ATOM     66  C   UNL A   1      44.630  26.282  35.947  1.00  0.00     0.198 A 
ATOM     67  F   UNL A   1      42.343  26.655  35.539  1.00  0.00    -0.203 F 
ATOM     68  F   UNL A   1      47.549  28.170  34.923  1.00  0.00    -0.200 F 
ATOM     69  C   UNL A   1      45.955  26.660  35.793  1.00  0.00     0.200 A 
ATOM     70  F   UNL A   1      44.326  25.168  36.626  1.00  0.00    -0.200 F 
ATOM     71  F   UNL A   1      46.933  25.901  36.306  1.00  0.00    -0.200 F 
ENDBRANCH  38  61
ENDBRANCH  12  13
ENDBRANCH   5   7
ENDBRANCH   2   3
ENDBRANCH   1   2
BRANCH   1  72
ATOM     72  C   UNL A   1      31.777  30.370  26.712  1.00  0.00     0.023 C 
BRANCH  72  73
ATOM     73  C   UNL A   1      33.241  29.950  26.595  1.00  0.00     0.116 C 
BRANCH  73  74
ATOM     74  N   UNL A   1      33.603  29.746  25.203  1.00  0.00    -0.356 N 
ATOM     75  C   UNL A   1      33.643  28.590  24.476  1.00  0.00     0.227 C 
ATOM     76  H   UNL A   1      33.857  30.562  24.712  1.00  0.00     0.163 HD
ATOM     77  O   UNL A   1      34.186  28.616  23.372  1.00  0.00    -0.274 OA
BRANCH  75  78
ATOM     78  C   UNL A   1      32.911  27.363  25.007  1.00  0.00     0.107 C 
ATOM     79  C   UNL A   1      33.723  26.393  25.796  1.00  0.00    -0.012 C 
ATOM     80  C   UNL A   1      32.415  26.547  23.808  1.00  0.00     0.087 C 
ATOM     81  C   UNL A   1      33.731  25.177  25.240  1.00  0.00     0.033 C 
ATOM     82  C   UNL A   1      33.042  25.141  23.907  1.00  0.00     0.208 C 
BRANCH  82  83
ATOM     83  N   UNL A   1      32.213  23.943  23.738  1.00  0.00    -0.328 N 
ATOM     84  C   UNL A   1      32.396  22.967  24.823  1.00  0.00     0.275 C 
ATOM     85  C   UNL A   1      32.666  22.985  22.727  1.00  0.00     0.275 C 
ATOM     86  H   UNL A   1      31.311  24.397  23.591  1.00  0.00     0.348 HD
ATOM     87  C   UNL A   1      33.088  21.980  23.844  1.00  0.00     0.073 C 
ATOM     88  C   UNL A   1      32.416  20.615  23.630  1.00  0.00     0.047 C 
ATOM     89  C   UNL A   1      34.590  21.783  24.108  1.00  0.00     0.047 C 
ATOM     90  C   UNL A   1      32.764  19.672  24.772  1.00  0.00     0.161 C 
ATOM     91  C   UNL A   1      34.802  20.759  25.216  1.00  0.00     0.161 C 
ATOM     92  O   UNL A   1      34.181  19.523  24.875  1.00  0.00    -0.381 OA
ENDBRANCH  82  83
ENDBRANCH  75  78
ENDBRANCH  73  74
ENDBRANCH  72  73
ENDBRANCH   1  72
TORSDOF 12
ENDMDL
MODEL 2
REMARK VINA RESULT:     -12.8      0.881      1.932
REMARK SMILES O=C(NCCCCNC(=O)[C@@H]1C=C[C@@H]([NH+]2CC3(CCOCC3)C2)C1)c1ccc(-c2c3nc(c(-c4c(F)c(F)c(F)c(F)c4F)c4ccc([nH]4)c(-c4c(F)c(F)c(F)c(F)c4F)c4nc(c(-c5c(F)c(F)c(F)c(F)c5F)c5ccc2[nH]5)C=C4)C=C3)cc1
REMARK SMILES IDX 5 1 4 2 3 3 1 4 2 5 25 7 26 8 87 9 27 10 86 11 28 12 29 13
REMARK SMILES IDX 30 14 80 15 31 16 85 17 79 18 81 19 32 20 84 21 78 22 77 23
REMARK SMILES IDX 33 25 65 26 45 27 64 28 46 29 49 30 63 31 82 32 47 33 48 34
REMARK SMILES IDX 62 36 83 37 50 38 34 39 35 40 43 41 36 42 37 43 41 44 44 45
REMARK SMILES IDX 38 46 39 47 42 48 40 49 66 50 67 51 75 52 68 53 69 54 73 55
REMARK SMILES IDX 76 56 70 57 71 58 74 59 72 60 51 61 52 62 60 63 53 64 54 65
REMARK SMILES IDX 58 66 61 67 55 68 56 69 59 70 57 71 6 72 7 73 8 74 9 75
REMARK SMILES IDX 10 77 11 78 12 79 24 80 13 81 14 82 15 83 16 84 23 85 17 87
REMARK SMILES IDX 18 88 22 89 19 90 21 91 20 92
REMARK H PARENT 3 6 81 24 49 35 8 76 15 86
REMARK Flexibility Score: inf
ROOT
ATOM      1  C   UNL A   1      31.559  32.007  26.799  1.00  0.00     0.023 C 
ENDROOT
BRANCH   1   2
ATOM      2  C   UNL A   1      32.764  32.822  27.256  1.00  0.00     0.116 C 
BRANCH   2   3
ATOM      3  N   UNL A   1      32.418  34.182  27.637  1.00  0.00    -0.352 N 
ATOM      4  O   UNL A   1      32.490  36.056  28.896  1.00  0.00    -0.269 OA
ATOM      5  C   UNL A   1      32.983  34.980  28.610  1.00  0.00     0.251 C 
ATOM      6  H   UNL A   1      31.679  34.590  27.130  1.00  0.00     0.163 HD
BRANCH   5   7
ATOM      7  C   UNL A   1      34.180  34.491  29.328  1.00  0.00     0.039 A 
ATOM      8  C   UNL A   1      35.451  34.640  28.771  1.00  0.00     0.014 A 
ATOM      9  C   UNL A   1      34.017  33.838  30.553  1.00  0.00     0.014 A 
ATOM     10  C   UNL A   1      36.534  33.991  29.352  1.00  0.00     0.010 A 
ATOM     11  C   UNL A   1      35.125  33.260  31.180  1.00  0.00     0.010 A 
ATOM     12  C   UNL A   1      36.382  33.291  30.561  1.00  0.00    -0.014 A 
BRANCH  12  13
ATOM     13  C   UNL A   1      37.563  32.611  31.153  1.00  0.00     0.031 A 
ATOM     14  C   UNL A   1      38.030  32.935  32.545  1.00  0.00     0.074 A 
ATOM     15  C   UNL A   1      38.182  31.651  30.440  1.00  0.00     0.049 A 
ATOM     16  N   UNL A   1      39.004  32.396  33.235  1.00  0.00    -0.248 NA
ATOM     17  C   UNL A   1      37.321  34.011  33.255  1.00  0.00     0.031 C 
ATOM     18  C   UNL A   1      37.829  31.259  29.074  1.00  0.00     0.029 A 
ATOM     19  N   UNL A   1      39.217  30.814  30.770  1.00  0.00    -0.354 N 
ATOM     20  C   UNL A   1      39.043  33.081  34.444  1.00  0.00     0.074 A 
ATOM     21  C   UNL A   1      38.007  34.091  34.386  1.00  0.00     0.031 C 
ATOM     22  C   UNL A   1      38.590  30.218  28.705  1.00  0.00     0.029 A 
ATOM     23  C   UNL A   1      39.521  29.907  29.785  1.00  0.00     0.049 A 
ATOM     24  H   UNL A   1      39.694  30.858  31.629  1.00  0.00     0.167 HD
ATOM     25  C   UNL A   1      39.861  32.878  35.504  1.00  0.00     0.037 A 
ATOM     26  C   UNL A   1      40.448  28.933  29.753  1.00  0.00     0.037 A 
ATOM     27  C   UNL A   1      40.868  31.850  35.570  1.00  0.00     0.049 A 
ATOM     28  C   UNL A   1      41.333  28.724  30.948  1.00  0.00     0.074 A 
ATOM     29  C   UNL A   1      41.716  31.538  36.619  1.00  0.00     0.029 A 
ATOM     30  N   UNL A   1      41.160  30.963  34.544  1.00  0.00    -0.354 N 
ATOM     31  N   UNL A   1      41.334  29.355  32.096  1.00  0.00    -0.248 NA
ATOM     32  C   UNL A   1      42.346  27.667  30.840  1.00  0.00     0.031 C 
ATOM     33  C   UNL A   1      42.548  30.488  36.213  1.00  0.00     0.029 A 
ATOM     34  C   UNL A   1      42.188  30.116  34.929  1.00  0.00     0.049 A 
ATOM     35  H   UNL A   1      40.705  30.940  33.671  1.00  0.00     0.167 HD
ATOM     36  C   UNL A   1      42.330  28.762  32.855  1.00  0.00     0.074 A 
ATOM     37  C   UNL A   1      42.900  27.705  32.044  1.00  0.00     0.031 C 
ATOM     38  C   UNL A   1      42.739  29.065  34.111  1.00  0.00     0.037 A 
BRANCH  25  39
ATOM     39  C   UNL A   1      39.719  33.799  36.681  1.00  0.00     0.064 A 
ATOM     40  C   UNL A   1      40.354  35.049  36.722  1.00  0.00     0.173 A 
ATOM     41  C   UNL A   1      38.896  33.447  37.762  1.00  0.00     0.173 A 
ATOM     42  F   UNL A   1      41.160  35.431  35.720  1.00  0.00    -0.203 F 
ATOM     43  C   UNL A   1      40.187  35.903  37.811  1.00  0.00     0.198 A 
ATOM     44  C   UNL A   1      38.711  34.311  38.837  1.00  0.00     0.198 A 
ATOM     45  F   UNL A   1      38.262  32.264  37.770  1.00  0.00    -0.203 F 
ATOM     46  F   UNL A   1      40.835  37.076  37.847  1.00  0.00    -0.200 F 
ATOM     47  C   UNL A   1      39.361  35.536  38.863  1.00  0.00     0.200 A 
ATOM     48  F   UNL A   1      37.904  33.961  39.847  1.00  0.00    -0.200 F 
ATOM     49  F   UNL A   1      39.196  36.361  39.906  1.00  0.00    -0.200 F 
ENDBRANCH  25  39
BRANCH  26  50
ATOM     50  C   UNL A   1      40.566  28.069  28.551  1.00  0.00     0.064 A 
ATOM     51  C   UNL A   1      41.353  28.460  27.459  1.00  0.00     0.173 A 
ATOM     52  C   UNL A   1      39.911  26.831  28.477  1.00  0.00     0.173 A 
ATOM     53  F   UNL A   1      41.984  29.642  27.477  1.00  0.00    -0.203 F 
ATOM     54  C   UNL A   1      41.469  27.649  26.331  1.00  0.00     0.198 A 
ATOM     55  C   UNL A   1      40.049  26.010  27.361  1.00  0.00     0.198 A 
ATOM     56  F   UNL A   1      39.152  26.411  29.499  1.00  0.00    -0.203 F 
ATOM     57  F   UNL A   1      42.197  28.062  25.285  1.00  0.00    -0.200 F 
ATOM     58  C   UNL A   1      40.824  26.423  26.287  1.00  0.00     0.200 A 
ATOM     59  F   UNL A   1      39.439  24.818  27.329  1.00  0.00    -0.200 F 
ATOM     60  F   UNL A   1      40.943  25.640  25.206  1.00  0.00    -0.200 F 
ENDBRANCH  26  50
BRANCH  38  61
ATOM     61  C   UNL A   1      43.833  28.221  34.693  1.00  0.00     0.064 A 
ATOM     62  C   UNL A   1      43.557  27.032  35.383  1.00  0.00     0.173 A 
ATOM     63  C   UNL A   1      45.176  28.600  34.544  1.00  0.00     0.173 A 
ATOM     64  F   UNL A   1      42.288  26.637  35.565  1.00  0.00    -0.203 F 
ATOM     65  C   UNL A   1      44.584  26.268  35.929  1.00  0.00     0.198 A 
ATOM     66  C   UNL A   1      46.202  27.820  35.069  1.00  0.00     0.198 A 
ATOM     67  F   UNL A   1      45.491  29.727  33.889  1.00  0.00    -0.203 F 
ATOM     68  F   UNL A   1      44.295  25.163  36.630  1.00  0.00    -0.200 F 
ATOM     69  C   UNL A   1      45.905  26.660  35.768  1.00  0.00     0.200 A 
ATOM     70  F   UNL A   1      47.477  28.194  34.903  1.00  0.00    -0.200 F 
ATOM     71  F   UNL A   1      46.892  25.923  36.296  1.00  0.00    -0.200 F 
ENDBRANCH  38  61
ENDBRANCH  12  13
ENDBRANCH   5   7
ENDBRANCH   2   3
ENDBRANCH   1   2
BRANCH   1  72
ATOM     72  C   UNL A   1      31.747  30.489  26.870  1.00  0.00     0.023 C 
BRANCH  72  73
ATOM     73  C   UNL A   1      32.432  29.895  25.640  1.00  0.00     0.116 C 
BRANCH  73  74
ATOM     74  N   UNL A   1      31.500  29.811  24.530  1.00  0.00    -0.356 N 
ATOM     75  C   UNL A   1      31.426  28.886  23.526  1.00  0.00     0.227 C 
ATOM     76  H   UNL A   1      30.822  30.525  24.495  1.00  0.00     0.163 HD
ATOM     77  O   UNL A   1      30.693  29.127  22.566  1.00  0.00    -0.274 OA
BRANCH  75  78
ATOM     78  C   UNL A   1      32.152  27.557  23.697  1.00  0.00     0.107 C 
ATOM     79  C   UNL A   1      33.397  27.372  22.898  1.00  0.00    -0.012 C 
ATOM     80  C   UNL A   1      31.225  26.439  23.208  1.00  0.00     0.087 C 
ATOM     81  C   UNL A   1      33.312  26.323  22.073  1.00  0.00     0.033 C 
ATOM     82  C   UNL A   1      31.948  25.696  22.066  1.00  0.00     0.208 C 
BRANCH  82  83
ATOM     83  N   UNL A   1      32.006  24.231  22.052  1.00  0.00    -0.328 N 
ATOM     84  C   UNL A   1      31.331  23.623  23.208  1.00  0.00     0.275 C 
ATOM     85  C   UNL A   1      33.292  23.634  22.420  1.00  0.00     0.275 C 
ATOM     86  H   UNL A   1      31.663  24.070  21.103  1.00  0.00     0.348 HD
ATOM     87  C   UNL A   1      32.694  23.143  23.775  1.00  0.00     0.073 C 
ATOM     88  C   UNL A   1      32.893  21.628  23.940  1.00  0.00     0.047 C 
ATOM     89  C   UNL A   1      33.130  23.866  25.060  1.00  0.00     0.047 C 
ATOM     90  C   UNL A   1      32.230  21.147  25.222  1.00  0.00     0.161 C 
ATOM     91  C   UNL A   1      32.457  23.238  26.274  1.00  0.00     0.161 C 
ATOM     92  O   UNL A   1      32.762  21.848  26.347  1.00  0.00    -0.381 OA
ENDBRANCH  82  83
ENDBRANCH  75  78
ENDBRANCH  73  74
ENDBRANCH  72  73
ENDBRANCH   1  72
TORSDOF 12
ENDMDL
MODEL 3
REMARK VINA RESULT:     -12.8      0.190      1.621
REMARK SMILES O=C(NCCCCNC(=O)[C@@H]1C=C[C@@H]([NH+]2CC3(CCOCC3)C2)C1)c1ccc(-c2c3nc(c(-c4c(F)c(F)c(F)c(F)c4F)c4ccc([nH]4)c(-c4c(F)c(F)c(F)c(F)c4F)c4nc(c(-c5c(F)c(F)c(F)c(F)c5F)c5ccc2[nH]5)C=C4)C=C3)cc1
REMARK SMILES IDX 5 1 4 2 3 3 1 4 2 5 25 7 26 8 87 9 27 10 86 11 28 12 29 13
REMARK SMILES IDX 30 14 80 15 31 16 85 17 79 18 81 19 32 20 84 21 78 22 77 23
REMARK SMILES IDX 33 25 65 26 45 27 64 28 46 29 49 30 63 31 82 32 47 33 48 34
REMARK SMILES IDX 62 36 83 37 50 38 34 39 35 40 43 41 36 42 37 43 41 44 44 45
REMARK SMILES IDX 38 46 39 47 42 48 40 49 66 50 67 51 75 52 68 53 69 54 73 55
REMARK SMILES IDX 76 56 70 57 71 58 74 59 72 60 51 61 52 62 60 63 53 64 54 65
REMARK SMILES IDX 58 66 61 67 55 68 56 69 59 70 57 71 6 72 7 73 8 74 9 75
REMARK SMILES IDX 10 77 11 78 12 79 24 80 13 81 14 82 15 83 16 84 23 85 17 87
REMARK SMILES IDX 18 88 22 89 19 90 21 91 20 92
REMARK H PARENT 3 6 81 24 49 35 8 76 15 86
REMARK Flexibility Score: inf
ROOT
ATOM      1  C   UNL A   1      31.419  31.943  26.677  1.00  0.00     0.023 C 
ENDROOT
BRANCH   1   2
ATOM      2  C   UNL A   1      32.601  32.668  27.310  1.00  0.00     0.116 C 
BRANCH   2   3
ATOM      3  N   UNL A   1      32.320  34.063  27.610  1.00  0.00    -0.352 N 
ATOM      4  O   UNL A   1      32.490  36.005  28.749  1.00  0.00    -0.269 OA
ATOM      5  C   UNL A   1      32.932  34.894  28.524  1.00  0.00     0.251 C 
ATOM      6  H   UNL A   1      31.591  34.470  27.087  1.00  0.00     0.163 HD
BRANCH   5   7
ATOM      7  C   UNL A   1      34.118  34.398  29.256  1.00  0.00     0.039 A 
ATOM      8  C   UNL A   1      35.398  34.555  28.722  1.00  0.00     0.014 A 
ATOM      9  C   UNL A   1      33.936  33.731  30.472  1.00  0.00     0.014 A 
ATOM     10  C   UNL A   1      36.472  33.901  29.313  1.00  0.00     0.010 A 
ATOM     11  C   UNL A   1      35.034  33.149  31.111  1.00  0.00     0.010 A 
ATOM     12  C   UNL A   1      36.302  33.188  30.512  1.00  0.00    -0.014 A 
BRANCH  12  13
ATOM     13  C   UNL A   1      37.473  32.503  31.116  1.00  0.00     0.031 A 
ATOM     14  C   UNL A   1      37.920  32.815  32.517  1.00  0.00     0.074 A 
ATOM     15  C   UNL A   1      38.103  31.548  30.404  1.00  0.00     0.049 A 
ATOM     16  N   UNL A   1      38.884  32.271  33.217  1.00  0.00    -0.248 NA
ATOM     17  C   UNL A   1      37.200  33.885  33.226  1.00  0.00     0.031 C 
ATOM     18  C   UNL A   1      37.770  31.167  29.030  1.00  0.00     0.029 A 
ATOM     19  N   UNL A   1      39.133  30.708  30.743  1.00  0.00    -0.354 N 
ATOM     20  C   UNL A   1      38.904  32.945  34.432  1.00  0.00     0.074 A 
ATOM     21  C   UNL A   1      37.870  33.956  34.367  1.00  0.00     0.031 C 
ATOM     22  C   UNL A   1      38.536  30.129  28.664  1.00  0.00     0.029 A 
ATOM     23  C   UNL A   1      39.452  29.809  29.755  1.00  0.00     0.049 A 
ATOM     24  H   UNL A   1      39.597  30.745  31.609  1.00  0.00     0.167 HD
ATOM     25  C   UNL A   1      39.707  32.734  35.503  1.00  0.00     0.037 A 
ATOM     26  C   UNL A   1      40.379  28.836  29.729  1.00  0.00     0.037 A 
ATOM     27  C   UNL A   1      40.713  31.706  35.575  1.00  0.00     0.049 A 
ATOM     28  C   UNL A   1      41.246  28.617  30.935  1.00  0.00     0.074 A 
ATOM     29  C   UNL A   1      41.546  31.384  36.633  1.00  0.00     0.029 A 
ATOM     30  N   UNL A   1      41.020  30.827  34.546  1.00  0.00    -0.354 N 
ATOM     31  N   UNL A   1      41.230  29.239  32.088  1.00  0.00    -0.248 NA
ATOM     32  C   UNL A   1      42.260  27.560  30.833  1.00  0.00     0.031 C 
ATOM     33  C   UNL A   1      42.383  30.338  36.232  1.00  0.00     0.029 A 
ATOM     34  C   UNL A   1      42.042  29.976  34.939  1.00  0.00     0.049 A 
ATOM     35  H   UNL A   1      40.578  30.810  33.667  1.00  0.00     0.167 HD
ATOM     36  C   UNL A   1      42.215  28.639  32.857  1.00  0.00     0.074 A 
ATOM     37  C   UNL A   1      42.796  27.589  32.046  1.00  0.00     0.031 C 
ATOM     38  C   UNL A   1      42.605  28.932  34.121  1.00  0.00     0.037 A 
BRANCH  25  39
ATOM     39  C   UNL A   1      39.548  33.646  36.685  1.00  0.00     0.064 A 
ATOM     40  C   UNL A   1      38.731  33.308  37.774  1.00  0.00     0.173 A 
ATOM     41  C   UNL A   1      40.262  34.852  36.751  1.00  0.00     0.173 A 
ATOM     42  F   UNL A   1      38.019  32.171  37.757  1.00  0.00    -0.203 F 
ATOM     43  C   UNL A   1      38.618  34.154  38.875  1.00  0.00     0.198 A 
ATOM     44  C   UNL A   1      40.167  35.684  37.863  1.00  0.00     0.198 A 
ATOM     45  F   UNL A   1      41.061  35.220  35.738  1.00  0.00    -0.203 F 
ATOM     46  F   UNL A   1      37.801  33.830  39.886  1.00  0.00    -0.200 F 
ATOM     47  C   UNL A   1      39.340  35.337  38.921  1.00  0.00     0.200 A 
ATOM     48  F   UNL A   1      40.874  36.821  37.911  1.00  0.00    -0.200 F 
ATOM     49  F   UNL A   1      39.236  36.147  39.984  1.00  0.00    -0.200 F 
ENDBRANCH  25  39
BRANCH  26  50
ATOM     50  C   UNL A   1      40.515  27.982  28.522  1.00  0.00     0.064 A 
ATOM     51  C   UNL A   1      41.303  28.389  27.437  1.00  0.00     0.173 A 
ATOM     52  C   UNL A   1      39.875  26.736  28.436  1.00  0.00     0.173 A 
ATOM     53  F   UNL A   1      41.919  29.580  27.467  1.00  0.00    -0.203 F 
ATOM     54  C   UNL A   1      41.435  27.588  26.305  1.00  0.00     0.198 A 
ATOM     55  C   UNL A   1      40.031  25.924  27.315  1.00  0.00     0.198 A 
ATOM     56  F   UNL A   1      39.116  26.300  29.450  1.00  0.00    -0.203 F 
ATOM     57  F   UNL A   1      42.164  28.017  25.266  1.00  0.00    -0.200 F 
ATOM     58  C   UNL A   1      40.806  26.354  26.248  1.00  0.00     0.200 A 
ATOM     59  F   UNL A   1      39.435  24.725  27.271  1.00  0.00    -0.200 F 
ATOM     60  F   UNL A   1      40.941  25.580  25.163  1.00  0.00    -0.200 F 
ENDBRANCH  26  50
BRANCH  38  61
ATOM     61  C   UNL A   1      43.690  28.083  34.712  1.00  0.00     0.064 A 
ATOM     62  C   UNL A   1      45.041  28.452  34.628  1.00  0.00     0.173 A 
ATOM     63  C   UNL A   1      43.373  26.894  35.386  1.00  0.00     0.173 A 
ATOM     64  F   UNL A   1      45.395  29.572  33.980  1.00  0.00    -0.203 F 
ATOM     65  C   UNL A   1      46.036  27.645  35.170  1.00  0.00     0.198 A 
ATOM     66  C   UNL A   1      44.370  26.103  35.949  1.00  0.00     0.198 A 
ATOM     67  F   UNL A   1      42.095  26.501  35.496  1.00  0.00    -0.203 F 
ATOM     68  F   UNL A   1      47.325  27.989  35.032  1.00  0.00    -0.200 F 
ATOM     69  C   UNL A   1      45.700  26.474  35.834  1.00  0.00     0.200 A 
ATOM     70  F   UNL A   1      44.042  24.978  36.599  1.00  0.00    -0.200 F 
ATOM     71  F   UNL A   1      46.661  25.698  36.354  1.00  0.00    -0.200 F 
ENDBRANCH  38  61
ENDBRANCH  12  13
ENDBRANCH   5   7
ENDBRANCH   2   3
ENDBRANCH   1   2
BRANCH   1  72
ATOM     72  C   UNL A   1      31.671  30.470  26.345  1.00  0.00     0.023 C 
BRANCH  72  73
ATOM     73  C   UNL A   1      33.145  30.073  26.390  1.00  0.00     0.116 C 
BRANCH  73  74
ATOM     74  N   UNL A   1      33.635  29.783  25.054  1.00  0.00    -0.356 N 
ATOM     75  C   UNL A   1      33.760  28.581  24.416  1.00  0.00     0.227 C 
ATOM     76  H   UNL A   1      33.920  30.569  24.532  1.00  0.00     0.163 HD
ATOM     77  O   UNL A   1      34.402  28.543  23.366  1.00  0.00    -0.274 OA
BRANCH  75  78
ATOM     78  C   UNL A   1      33.003  27.377  24.964  1.00  0.00     0.107 C 
ATOM     79  C   UNL A   1      33.782  26.432  25.814  1.00  0.00    -0.012 C 
ATOM     80  C   UNL A   1      32.544  26.521  23.778  1.00  0.00     0.087 C 
ATOM     81  C   UNL A   1      33.802  25.197  25.302  1.00  0.00     0.033 C 
ATOM     82  C   UNL A   1      33.159  25.117  23.948  1.00  0.00     0.208 C 
BRANCH  82  83
ATOM     83  N   UNL A   1      32.330  23.918  23.792  1.00  0.00    -0.328 N 
ATOM     84  C   UNL A   1      32.507  22.957  24.891  1.00  0.00     0.275 C 
ATOM     85  C   UNL A   1      32.786  22.944  22.797  1.00  0.00     0.275 C 
ATOM     86  H   UNL A   1      31.429  24.370  23.635  1.00  0.00     0.348 HD
ATOM     87  C   UNL A   1      33.202  21.956  23.930  1.00  0.00     0.073 C 
ATOM     88  C   UNL A   1      32.529  20.588  23.732  1.00  0.00     0.047 C 
ATOM     89  C   UNL A   1      34.702  21.760  24.202  1.00  0.00     0.047 C 
ATOM     90  C   UNL A   1      32.871  19.661  24.889  1.00  0.00     0.161 C 
ATOM     91  C   UNL A   1      34.909  20.752  25.326  1.00  0.00     0.161 C 
ATOM     92  O   UNL A   1      34.288  19.512  25.000  1.00  0.00    -0.381 OA
ENDBRANCH  82  83
ENDBRANCH  75  78
ENDBRANCH  73  74
ENDBRANCH  72  73
ENDBRANCH   1  72
TORSDOF 12
ENDMDL
