MODEL 1
REMARK VINA RESULT:     -13.4      0.000      0.000
REMARK SMILES O=C(NCCCCNC(=O)[C@@H](CO)NC(=O)c1ccc2noc(-c3ccccc3)c2c1)c1ccc(-c2c3nc(c(-c4c(F)c(F)c(F)c(F)c4F)c4ccc([nH]4)c(-c4c(F)c(F)c(F)c(F)c4F)c4nc(c(-c5c(F)c(F)c(F)c(F)c5F)c5ccc2[nH]5)C=C4)C=C3)cc1
REMARK SMILES IDX 6 1 5 2 4 3 3 4 1 5 2 6 32 8 33 9 94 10 34 11 93 12 35 13
REMARK SMILES IDX 36 14 37 15 87 16 38 17 92 18 86 19 88 20 39 21 91 22 85 23
REMARK SMILES IDX 84 24 40 26 72 27 52 28 71 29 53 30 56 31 70 32 89 33 54 34
REMARK SMILES IDX 55 35 69 37 90 38 57 39 41 40 42 41 50 42 43 43 44 44 48 45
REMARK SMILES IDX 51 46 45 47 46 48 49 49 47 50 73 51 74 52 82 53 75 54 76 55
REMARK SMILES IDX 80 56 83 57 77 58 78 59 81 60 79 61 58 62 59 63 67 64 60 65
REMARK SMILES IDX 61 66 65 67 68 68 62 69 63 70 66 71 64 72 7 73 8 74 9 75
REMARK SMILES IDX 10 77 11 78 12 79 13 80 14 82 15 83 16 85 17 86 18 87 31 88
REMARK SMILES IDX 19 89 30 90 20 91 23 92 21 93 22 94 24 95 25 96 29 97 26 98
REMARK SMILES IDX 28 99 27 100
REMARK H PARENT 3 7 88 25 56 36 8 76 13 81 14 84
REMARK Flexibility Score: inf
ROOT
ATOM      1  C   UNL A   1      36.053  21.401  25.224  1.00  0.00     0.023 C 
ENDROOT
BRANCH   1   2
ATOM      2  C   UNL A   1      37.544  21.613  24.932  1.00  0.00     0.023 C 
BRANCH   2   3
ATOM      3  C   UNL A   1      38.234  22.598  25.853  1.00  0.00     0.116 C 
BRANCH   3   4
ATOM      4  N   UNL A   1      39.234  21.985  26.738  1.00  0.00    -0.352 N 
ATOM      5  O   UNL A   1      41.278  21.952  27.751  1.00  0.00    -0.269 OA
ATOM      6  C   UNL A   1      40.317  22.592  27.368  1.00  0.00     0.251 C 
ATOM      7  H   UNL A   1      39.124  21.021  26.907  1.00  0.00     0.163 HD
BRANCH   6   8
ATOM      8  C   UNL A   1      40.252  24.050  27.575  1.00  0.00     0.039 A 
ATOM      9  C   UNL A   1      39.117  24.823  27.342  1.00  0.00     0.014 A 
ATOM     10  C   UNL A   1      41.394  24.624  28.105  1.00  0.00     0.014 A 
ATOM     11  C   UNL A   1      39.178  26.171  27.686  1.00  0.00     0.010 A 
ATOM     12  C   UNL A   1      41.283  25.780  28.806  1.00  0.00     0.010 A 
ATOM     13  C   UNL A   1      40.285  26.637  28.424  1.00  0.00    -0.014 A 
BRANCH  13  14
ATOM     14  C   UNL A   1      40.448  28.020  28.832  1.00  0.00     0.031 A 
ATOM     15  C   UNL A   1      41.623  28.661  28.226  1.00  0.00     0.074 A 
ATOM     16  C   UNL A   1      39.566  28.693  29.609  1.00  0.00     0.049 A 
ATOM     17  N   UNL A   1      42.759  28.855  28.799  1.00  0.00    -0.248 NA
ATOM     18  C   UNL A   1      41.618  28.916  26.779  1.00  0.00     0.031 C 
ATOM     19  C   UNL A   1      38.218  28.311  30.063  1.00  0.00     0.029 A 
ATOM     20  N   UNL A   1      39.705  29.936  30.145  1.00  0.00    -0.354 N 
ATOM     21  C   UNL A   1      43.564  29.452  27.844  1.00  0.00     0.074 A 
ATOM     22  C   UNL A   1      42.885  29.289  26.585  1.00  0.00     0.031 C 
ATOM     23  C   UNL A   1      37.598  29.372  30.626  1.00  0.00     0.029 A 
ATOM     24  C   UNL A   1      38.560  30.449  30.746  1.00  0.00     0.049 A 
ATOM     25  H   UNL A   1      40.553  30.435  30.111  1.00  0.00     0.167 HD
ATOM     26  C   UNL A   1      44.589  30.253  28.237  1.00  0.00     0.037 A 
ATOM     27  C   UNL A   1      38.431  31.670  31.322  1.00  0.00     0.037 A 
ATOM     28  C   UNL A   1      44.906  30.034  29.630  1.00  0.00     0.049 A 
ATOM     29  C   UNL A   1      39.803  32.116  31.673  1.00  0.00     0.074 A 
ATOM     30  C   UNL A   1      45.365  28.957  30.363  1.00  0.00     0.029 A 
ATOM     31  N   UNL A   1      44.346  30.896  30.541  1.00  0.00    -0.354 N 
ATOM     32  N   UNL A   1      40.541  31.541  32.582  1.00  0.00    -0.248 NA
ATOM     33  C   UNL A   1      40.524  32.903  30.687  1.00  0.00     0.031 C 
ATOM     34  C   UNL A   1      44.660  29.020  31.604  1.00  0.00     0.029 A 
ATOM     35  C   UNL A   1      43.863  30.165  31.597  1.00  0.00     0.049 A 
ATOM     36  H   UNL A   1      44.297  31.876  30.451  1.00  0.00     0.167 HD
ATOM     37  C   UNL A   1      41.819  31.529  32.044  1.00  0.00     0.074 A 
ATOM     38  C   UNL A   1      41.763  32.460  30.918  1.00  0.00     0.031 C 
ATOM     39  C   UNL A   1      42.712  30.554  32.385  1.00  0.00     0.037 A 
BRANCH  26  40
ATOM     40  C   UNL A   1      45.007  31.497  27.498  1.00  0.00     0.064 A 
ATOM     41  C   UNL A   1      46.310  31.568  26.970  1.00  0.00     0.173 A 
ATOM     42  C   UNL A   1      44.301  32.719  27.547  1.00  0.00     0.173 A 
ATOM     43  F   UNL A   1      47.080  30.471  26.900  1.00  0.00    -0.203 F 
ATOM     44  C   UNL A   1      46.885  32.784  26.592  1.00  0.00     0.198 A 
ATOM     45  C   UNL A   1      44.859  33.920  27.119  1.00  0.00     0.198 A 
ATOM     46  F   UNL A   1      43.096  32.830  28.115  1.00  0.00    -0.203 F 
ATOM     47  F   UNL A   1      48.171  32.820  26.215  1.00  0.00    -0.200 F 
ATOM     48  C   UNL A   1      46.162  33.959  26.671  1.00  0.00     0.200 A 
ATOM     49  F   UNL A   1      44.148  35.051  27.228  1.00  0.00    -0.200 F 
ATOM     50  F   UNL A   1      46.729  35.132  26.367  1.00  0.00    -0.200 F 
ENDBRANCH  26  40
BRANCH  27  51
ATOM     51  C   UNL A   1      37.298  32.625  31.215  1.00  0.00     0.064 A 
ATOM     52  C   UNL A   1      37.026  33.278  29.999  1.00  0.00     0.173 A 
ATOM     53  C   UNL A   1      36.279  32.664  32.187  1.00  0.00     0.173 A 
ATOM     54  F   UNL A   1      37.929  33.259  29.008  1.00  0.00    -0.203 F 
ATOM     55  C   UNL A   1      35.790  33.885  29.750  1.00  0.00     0.198 A 
ATOM     56  C   UNL A   1      35.047  33.273  31.937  1.00  0.00     0.198 A 
ATOM     57  F   UNL A   1      36.420  32.023  33.356  1.00  0.00    -0.203 F 
ATOM     58  F   UNL A   1      35.541  34.427  28.550  1.00  0.00    -0.200 F 
ATOM     59  C   UNL A   1      34.796  33.866  30.713  1.00  0.00     0.200 A 
ATOM     60  F   UNL A   1      34.080  33.219  32.863  1.00  0.00    -0.200 F 
ATOM     61  F   UNL A   1      33.585  34.379  30.448  1.00  0.00    -0.200 F 
ENDBRANCH  27  51
BRANCH  39  62
ATOM     62  C   UNL A   1      42.374  29.683  33.568  1.00  0.00     0.064 A 
ATOM     63  C   UNL A   1      41.745  28.427  33.479  1.00  0.00     0.173 A 
ATOM     64  C   UNL A   1      42.837  30.079  34.830  1.00  0.00     0.173 A 
ATOM     65  F   UNL A   1      41.344  27.937  32.300  1.00  0.00    -0.203 F 
ATOM     66  C   UNL A   1      41.567  27.625  34.608  1.00  0.00     0.198 A 
ATOM     67  C   UNL A   1      42.690  29.261  35.947  1.00  0.00     0.198 A 
ATOM     68  F   UNL A   1      43.483  31.248  34.969  1.00  0.00    -0.203 F 
ATOM     69  F   UNL A   1      40.959  26.433  34.499  1.00  0.00    -0.200 F 
ATOM     70  C   UNL A   1      42.050  28.039  35.839  1.00  0.00     0.200 A 
ATOM     71  F   UNL A   1      43.198  29.649  37.125  1.00  0.00    -0.200 F 
ATOM     72  F   UNL A   1      41.921  27.249  36.914  1.00  0.00    -0.200 F 
ENDBRANCH  39  62
ENDBRANCH  13  14
ENDBRANCH   6   8
ENDBRANCH   3   4
ENDBRANCH   2   3
ENDBRANCH   1   2
BRANCH   1  73
ATOM     73  C   UNL A   1      35.252  22.611  25.731  1.00  0.00     0.116 C 
BRANCH  73  74
ATOM     74  N   UNL A   1      35.020  23.603  24.696  1.00  0.00    -0.354 N 
ATOM     75  C   UNL A   1      33.951  23.834  23.887  1.00  0.00     0.244 C 
ATOM     76  H   UNL A   1      35.774  24.220  24.555  1.00  0.00     0.163 HD
ATOM     77  O   UNL A   1      34.129  24.640  22.964  1.00  0.00    -0.273 OA
BRANCH  75  78
ATOM     78  C   UNL A   1      32.600  23.099  24.004  1.00  0.00     0.197 C 
BRANCH  78  79
ATOM     79  C   UNL A   1      32.607  21.750  23.268  1.00  0.00     0.191 C 
BRANCH  79  80
ATOM     80  O   UNL A   1      32.013  21.801  21.979  1.00  0.00    -0.394 OA
ATOM     81  H   UNL A   1      31.158  22.257  22.035  1.00  0.00     0.210 HD
ENDBRANCH  79  80
ENDBRANCH  78  79
BRANCH  78  82
ATOM     82  N   UNL A   1      32.077  23.032  25.376  1.00  0.00    -0.338 N 
ATOM     83  C   UNL A   1      31.621  24.047  26.183  1.00  0.00     0.252 C 
ATOM     84  H   UNL A   1      32.050  22.132  25.775  1.00  0.00     0.164 HD
ATOM     85  O   UNL A   1      31.478  23.857  27.387  1.00  0.00    -0.269 OA
BRANCH  83  86
ATOM     86  C   UNL A   1      31.314  25.387  25.616  1.00  0.00     0.040 A 
ATOM     87  C   UNL A   1      30.205  25.535  24.717  1.00  0.00     0.016 A 
ATOM     88  C   UNL A   1      32.120  26.469  26.039  1.00  0.00     0.028 A 
ATOM     89  C   UNL A   1      29.872  26.739  24.063  1.00  0.00     0.033 A 
ATOM     90  C   UNL A   1      31.744  27.652  25.403  1.00  0.00     0.050 A 
ATOM     91  C   UNL A   1      30.681  27.822  24.442  1.00  0.00     0.114 A 
ATOM     92  C   UNL A   1      32.261  28.902  25.609  1.00  0.00     0.174 A 
ATOM     93  N   UNL A   1      30.631  29.107  24.058  1.00  0.00    -0.079 NA
ATOM     94  O   UNL A   1      31.598  29.773  24.792  1.00  0.00    -0.355 OA
BRANCH  92  95
ATOM     95  C   UNL A   1      33.273  29.498  26.455  1.00  0.00     0.021 A 
ATOM     96  C   UNL A   1      33.036  30.743  27.053  1.00  0.00     0.012 A 
ATOM     97  C   UNL A   1      34.490  28.849  26.689  1.00  0.00     0.012 A 
ATOM     98  C   UNL A   1      34.000  31.330  27.874  1.00  0.00     0.001 A 
ATOM     99  C   UNL A   1      35.459  29.442  27.502  1.00  0.00     0.001 A 
ATOM    100  C   UNL A   1      35.213  30.679  28.095  1.00  0.00     0.000 A 
ENDBRANCH  92  95
ENDBRANCH  83  86
ENDBRANCH  78  82
ENDBRANCH  75  78
ENDBRANCH  73  74
ENDBRANCH   1  73
TORSDOF 16
ENDMDL
MODEL 2
REMARK VINA RESULT:     -13.3      1.411      2.094
REMARK SMILES O=C(NCCCCNC(=O)[C@@H](CO)NC(=O)c1ccc2noc(-c3ccccc3)c2c1)c1ccc(-c2c3nc(c(-c4c(F)c(F)c(F)c(F)c4F)c4ccc([nH]4)c(-c4c(F)c(F)c(F)c(F)c4F)c4nc(c(-c5c(F)c(F)c(F)c(F)c5F)c5ccc2[nH]5)C=C4)C=C3)cc1
REMARK SMILES IDX 6 1 5 2 4 3 3 4 1 5 2 6 32 8 33 9 94 10 34 11 93 12 35 13
REMARK SMILES IDX 36 14 37 15 87 16 38 17 92 18 86 19 88 20 39 21 91 22 85 23
REMARK SMILES IDX 84 24 40 26 72 27 52 28 71 29 53 30 56 31 70 32 89 33 54 34
REMARK SMILES IDX 55 35 69 37 90 38 57 39 41 40 42 41 50 42 43 43 44 44 48 45
REMARK SMILES IDX 51 46 45 47 46 48 49 49 47 50 73 51 74 52 82 53 75 54 76 55
REMARK SMILES IDX 80 56 83 57 77 58 78 59 81 60 79 61 58 62 59 63 67 64 60 65
REMARK SMILES IDX 61 66 65 67 68 68 62 69 63 70 66 71 64 72 7 73 8 74 9 75
REMARK SMILES IDX 10 77 11 78 12 79 13 80 14 82 15 83 16 85 17 86 18 87 31 88
REMARK SMILES IDX 19 89 30 90 20 91 23 92 21 93 22 94 24 95 25 96 29 97 26 98
REMARK SMILES IDX 28 99 27 100
REMARK H PARENT 3 7 88 25 56 36 8 76 13 81 14 84
REMARK Flexibility Score: inf
ROOT
ATOM      1  C   UNL A   1      37.641  23.077  25.584  1.00  0.00     0.023 C 
ENDROOT
BRANCH   1   2
ATOM      2  C   UNL A   1      38.661  21.961  25.836  1.00  0.00     0.023 C 
BRANCH   2   3
ATOM      3  C   UNL A   1      39.682  22.269  26.912  1.00  0.00     0.116 C 
BRANCH   3   4
ATOM      4  N   UNL A   1      41.074  22.203  26.448  1.00  0.00    -0.352 N 
ATOM      5  O   UNL A   1      42.945  23.150  25.549  1.00  0.00    -0.269 OA
ATOM      6  C   UNL A   1      41.978  23.249  26.281  1.00  0.00     0.251 C 
ATOM      7  H   UNL A   1      41.411  21.304  26.227  1.00  0.00     0.163 HD
BRANCH   6   8
ATOM      8  C   UNL A   1      41.733  24.486  27.043  1.00  0.00     0.039 A 
ATOM      9  C   UNL A   1      42.216  24.722  28.328  1.00  0.00     0.014 A 
ATOM     10  C   UNL A   1      41.038  25.471  26.365  1.00  0.00     0.014 A 
ATOM     11  C   UNL A   1      41.991  25.982  28.876  1.00  0.00     0.010 A 
ATOM     12  C   UNL A   1      41.212  26.766  26.728  1.00  0.00     0.010 A 
ATOM     13  C   UNL A   1      41.478  27.003  28.051  1.00  0.00    -0.014 A 
BRANCH  13  14
ATOM     14  C   UNL A   1      41.206  28.349  28.521  1.00  0.00     0.031 A 
ATOM     15  C   UNL A   1      42.234  29.316  28.110  1.00  0.00     0.074 A 
ATOM     16  C   UNL A   1      40.081  28.712  29.181  1.00  0.00     0.049 A 
ATOM     17  N   UNL A   1      43.190  29.762  28.848  1.00  0.00    -0.248 NA
ATOM     18  C   UNL A   1      42.351  29.658  26.687  1.00  0.00     0.031 C 
ATOM     19  C   UNL A   1      38.840  27.958  29.423  1.00  0.00     0.029 A 
ATOM     20  N   UNL A   1      39.808  29.908  29.769  1.00  0.00    -0.354 N 
ATOM     21  C   UNL A   1      43.922  30.613  28.038  1.00  0.00     0.074 A 
ATOM     22  C   UNL A   1      43.484  30.364  26.689  1.00  0.00     0.031 C 
ATOM     23  C   UNL A   1      37.887  28.779  29.923  1.00  0.00     0.029 A 
ATOM     24  C   UNL A   1      38.498  30.060  30.213  1.00  0.00     0.049 A 
ATOM     25  H   UNL A   1      40.487  30.614  29.873  1.00  0.00     0.167 HD
ATOM     26  C   UNL A   1      44.632  31.627  28.599  1.00  0.00     0.037 A 
ATOM     27  C   UNL A   1      37.970  31.162  30.801  1.00  0.00     0.037 A 
ATOM     28  C   UNL A   1      44.810  31.405  30.016  1.00  0.00     0.049 A 
ATOM     29  C   UNL A   1      39.113  31.928  31.360  1.00  0.00     0.074 A 
ATOM     30  C   UNL A   1      45.442  30.439  30.775  1.00  0.00     0.029 A 
ATOM     31  N   UNL A   1      43.924  32.025  30.862  1.00  0.00    -0.354 N 
ATOM     32  N   UNL A   1      39.852  31.507  32.349  1.00  0.00    -0.248 NA
ATOM     33  C   UNL A   1      39.718  32.942  30.514  1.00  0.00     0.031 C 
ATOM     34  C   UNL A   1      44.590  30.230  31.902  1.00  0.00     0.029 A 
ATOM     35  C   UNL A   1      43.521  31.124  31.814  1.00  0.00     0.049 A 
ATOM     36  H   UNL A   1      43.625  32.962  30.796  1.00  0.00     0.167 HD
ATOM     37  C   UNL A   1      41.144  31.868  32.001  1.00  0.00     0.074 A 
ATOM     38  C   UNL A   1      40.988  32.825  30.908  1.00  0.00     0.031 C 
ATOM     39  C   UNL A   1      42.215  31.141  32.439  1.00  0.00     0.037 A 
BRANCH  26  40
ATOM     40  C   UNL A   1      44.792  32.984  27.967  1.00  0.00     0.064 A 
ATOM     41  C   UNL A   1      46.063  33.370  27.499  1.00  0.00     0.173 A 
ATOM     42  C   UNL A   1      43.840  34.022  28.071  1.00  0.00     0.173 A 
ATOM     43  F   UNL A   1      47.051  32.470  27.384  1.00  0.00    -0.203 F 
ATOM     44  C   UNL A   1      46.373  34.706  27.230  1.00  0.00     0.198 A 
ATOM     45  C   UNL A   1      44.138  35.343  27.752  1.00  0.00     0.198 A 
ATOM     46  F   UNL A   1      42.624  33.831  28.596  1.00  0.00    -0.203 F 
ATOM     47  F   UNL A   1      47.629  35.043  26.910  1.00  0.00    -0.200 F 
ATOM     48  C   UNL A   1      45.412  35.691  27.361  1.00  0.00     0.200 A 
ATOM     49  F   UNL A   1      43.198  36.286  27.910  1.00  0.00    -0.200 F 
ATOM     50  F   UNL A   1      45.723  36.978  27.163  1.00  0.00    -0.200 F 
ENDBRANCH  26  40
BRANCH  27  51
ATOM     51  C   UNL A   1      36.646  31.790  30.560  1.00  0.00     0.064 A 
ATOM     52  C   UNL A   1      35.798  32.106  31.638  1.00  0.00     0.173 A 
ATOM     53  C   UNL A   1      36.332  32.384  29.323  1.00  0.00     0.173 A 
ATOM     54  F   UNL A   1      36.047  31.609  32.859  1.00  0.00    -0.203 F 
ATOM     55  C   UNL A   1      34.734  33.005  31.499  1.00  0.00     0.198 A 
ATOM     56  C   UNL A   1      35.267  33.279  29.186  1.00  0.00     0.198 A 
ATOM     57  F   UNL A   1      37.111  32.191  28.250  1.00  0.00    -0.203 F 
ATOM     58  F   UNL A   1      33.999  33.342  32.567  1.00  0.00    -0.200 F 
ATOM     59  C   UNL A   1      34.481  33.604  30.276  1.00  0.00     0.200 A 
ATOM     60  F   UNL A   1      35.052  33.879  28.006  1.00  0.00    -0.200 F 
ATOM     61  F   UNL A   1      33.513  34.523  30.159  1.00  0.00    -0.200 F 
ENDBRANCH  27  51
BRANCH  39  62
ATOM     62  C   UNL A   1      41.973  30.134  33.533  1.00  0.00     0.064 A 
ATOM     63  C   UNL A   1      41.627  28.787  33.314  1.00  0.00     0.173 A 
ATOM     64  C   UNL A   1      42.242  30.520  34.853  1.00  0.00     0.173 A 
ATOM     65  F   UNL A   1      41.431  28.316  32.077  1.00  0.00    -0.203 F 
ATOM     66  C   UNL A   1      41.530  27.883  34.374  1.00  0.00     0.198 A 
ATOM     67  C   UNL A   1      42.179  29.607  35.903  1.00  0.00     0.198 A 
ATOM     68  F   UNL A   1      42.618  31.781  35.118  1.00  0.00    -0.203 F 
ATOM     69  F   UNL A   1      41.193  26.605  34.142  1.00  0.00    -0.200 F 
ATOM     70  C   UNL A   1      41.817  28.292  35.666  1.00  0.00     0.200 A 
ATOM     71  F   UNL A   1      42.501  30.000  37.144  1.00  0.00    -0.200 F 
ATOM     72  F   UNL A   1      41.770  27.415  36.678  1.00  0.00    -0.200 F 
ENDBRANCH  39  62
ENDBRANCH  13  14
ENDBRANCH   6   8
ENDBRANCH   3   4
ENDBRANCH   2   3
ENDBRANCH   1   2
BRANCH   1  73
ATOM     73  C   UNL A   1      36.173  22.665  25.391  1.00  0.00     0.116 C 
BRANCH  73  74
ATOM     74  N   UNL A   1      35.592  22.086  26.588  1.00  0.00    -0.354 N 
ATOM     75  C   UNL A   1      34.307  21.771  26.910  1.00  0.00     0.244 C 
ATOM     76  H   UNL A   1      36.246  21.884  27.296  1.00  0.00     0.163 HD
ATOM     77  O   UNL A   1      34.100  21.465  28.092  1.00  0.00    -0.273 OA
BRANCH  75  78
ATOM     78  C   UNL A   1      33.121  21.859  25.928  1.00  0.00     0.197 C 
BRANCH  78  79
ATOM     79  C   UNL A   1      33.101  20.684  24.936  1.00  0.00     0.191 C 
BRANCH  79  80
ATOM     80  O   UNL A   1      33.929  19.597  25.324  1.00  0.00    -0.394 OA
ATOM     81  H   UNL A   1      33.631  18.789  24.879  1.00  0.00     0.210 HD
ENDBRANCH  79  80
ENDBRANCH  78  79
BRANCH  78  82
ATOM     82  N   UNL A   1      31.829  22.118  26.578  1.00  0.00    -0.338 N 
ATOM     83  C   UNL A   1      31.013  23.221  26.484  1.00  0.00     0.252 C 
ATOM     84  H   UNL A   1      31.500  21.400  27.167  1.00  0.00     0.164 HD
ATOM     85  O   UNL A   1      30.112  23.389  27.299  1.00  0.00    -0.269 OA
BRANCH  83  86
ATOM     86  C   UNL A   1      31.223  24.228  25.410  1.00  0.00     0.040 A 
ATOM     87  C   UNL A   1      30.806  23.928  24.070  1.00  0.00     0.016 A 
ATOM     88  C   UNL A   1      31.790  25.467  25.787  1.00  0.00     0.028 A 
ATOM     89  C   UNL A   1      31.025  24.776  22.965  1.00  0.00     0.033 A 
ATOM     90  C   UNL A   1      31.961  26.297  24.680  1.00  0.00     0.050 A 
ATOM     91  C   UNL A   1      31.618  26.000  23.309  1.00  0.00     0.114 A 
ATOM     92  C   UNL A   1      32.426  27.584  24.675  1.00  0.00     0.174 A 
ATOM     93  N   UNL A   1      31.936  27.049  22.535  1.00  0.00    -0.079 NA
ATOM     94  O   UNL A   1      32.419  28.030  23.383  1.00  0.00    -0.355 OA
BRANCH  92  95
ATOM     95  C   UNL A   1      32.878  28.546  25.658  1.00  0.00     0.021 A 
ATOM     96  C   UNL A   1      34.086  28.334  26.336  1.00  0.00     0.012 A 
ATOM     97  C   UNL A   1      32.127  29.692  25.942  1.00  0.00     0.012 A 
ATOM     98  C   UNL A   1      34.537  29.253  27.283  1.00  0.00     0.001 A 
ATOM     99  C   UNL A   1      32.575  30.607  26.898  1.00  0.00     0.001 A 
ATOM    100  C   UNL A   1      33.779  30.388  27.566  1.00  0.00     0.000 A 
ENDBRANCH  92  95
ENDBRANCH  83  86
ENDBRANCH  78  82
ENDBRANCH  75  78
ENDBRANCH  73  74
ENDBRANCH   1  73
TORSDOF 16
ENDMDL
MODEL 3
REMARK VINA RESULT:     -13.2      3.044      8.779
REMARK SMILES O=C(NCCCCNC(=O)[C@@H](CO)NC(=O)c1ccc2noc(-c3ccccc3)c2c1)c1ccc(-c2c3nc(c(-c4c(F)c(F)c(F)c(F)c4F)c4ccc([nH]4)c(-c4c(F)c(F)c(F)c(F)c4F)c4nc(c(-c5c(F)c(F)c(F)c(F)c5F)c5ccc2[nH]5)C=C4)C=C3)cc1
REMARK SMILES IDX 6 1 5 2 4 3 3 4 1 5 2 6 32 8 33 9 94 10 34 11 93 12 35 13
REMARK SMILES IDX 36 14 37 15 87 16 38 17 92 18 86 19 88 20 39 21 91 22 85 23
REMARK SMILES IDX 84 24 40 26 72 27 52 28 71 29 53 30 56 31 70 32 89 33 54 34
REMARK SMILES IDX 55 35 69 37 90 38 57 39 41 40 42 41 50 42 43 43 44 44 48 45
REMARK SMILES IDX 51 46 45 47 46 48 49 49 47 50 73 51 74 52 82 53 75 54 76 55
REMARK SMILES IDX 80 56 83 57 77 58 78 59 81 60 79 61 58 62 59 63 67 64 60 65
REMARK SMILES IDX 61 66 65 67 68 68 62 69 63 70 66 71 64 72 7 73 8 74 9 75
REMARK SMILES IDX 10 77 11 78 12 79 13 80 14 82 15 83 16 85 17 86 18 87 31 88
REMARK SMILES IDX 19 89 30 90 20 91 23 92 21 93 22 94 24 95 25 96 29 97 26 98
REMARK SMILES IDX 28 99 27 100
REMARK H PARENT 3 7 88 25 56 36 8 76 13 81 14 84
REMARK Flexibility Score: inf
ROOT
ATOM      1  C   UNL A   1      32.561  28.988  27.239  1.00  0.00     0.023 C 
ENDROOT
BRANCH   1   2
ATOM      2  C   UNL A   1      32.980  30.440  26.980  1.00  0.00     0.023 C 
BRANCH   2   3
ATOM      3  C   UNL A   1      34.412  30.761  27.356  1.00  0.00     0.116 C 
BRANCH   3   4
ATOM      4  N   UNL A   1      34.536  31.737  28.446  1.00  0.00    -0.352 N 
ATOM      5  O   UNL A   1      35.154  32.328  30.562  1.00  0.00    -0.269 OA
ATOM      6  C   UNL A   1      35.388  31.698  29.548  1.00  0.00     0.251 C 
ATOM      7  H   UNL A   1      33.942  32.521  28.391  1.00  0.00     0.163 HD
BRANCH   6   8
ATOM      8  C   UNL A   1      36.604  30.873  29.437  1.00  0.00     0.039 A 
ATOM      9  C   UNL A   1      37.822  31.338  28.945  1.00  0.00     0.014 A 
ATOM     10  C   UNL A   1      36.494  29.587  29.934  1.00  0.00     0.014 A 
ATOM     11  C   UNL A   1      38.909  30.469  29.002  1.00  0.00     0.010 A 
ATOM     12  C   UNL A   1      37.612  28.951  30.363  1.00  0.00     0.010 A 
ATOM     13  C   UNL A   1      38.782  29.263  29.721  1.00  0.00    -0.014 A 
BRANCH  13  14
ATOM     14  C   UNL A   1      39.850  28.289  29.842  1.00  0.00     0.031 A 
ATOM     15  C   UNL A   1      40.295  28.097  31.229  1.00  0.00     0.074 A 
ATOM     16  C   UNL A   1      40.329  27.553  28.810  1.00  0.00     0.049 A 
ATOM     17  N   UNL A   1      41.347  28.611  31.764  1.00  0.00    -0.248 NA
ATOM     18  C   UNL A   1      39.378  27.455  32.180  1.00  0.00     0.031 C 
ATOM     19  C   UNL A   1      39.823  27.405  27.436  1.00  0.00     0.029 A 
ATOM     20  N   UNL A   1      41.408  26.724  28.808  1.00  0.00    -0.354 N 
ATOM     21  C   UNL A   1      41.341  28.188  33.082  1.00  0.00     0.074 A 
ATOM     22  C   UNL A   1      40.028  27.651  33.329  1.00  0.00     0.031 C 
ATOM     23  C   UNL A   1      40.469  26.396  26.808  1.00  0.00     0.029 A 
ATOM     24  C   UNL A   1      41.555  25.953  27.659  1.00  0.00     0.049 A 
ATOM     25  H   UNL A   1      42.038  26.673  29.563  1.00  0.00     0.167 HD
ATOM     26  C   UNL A   1      42.516  28.087  33.759  1.00  0.00     0.037 A 
ATOM     27  C   UNL A   1      42.524  25.034  27.424  1.00  0.00     0.037 A 
ATOM     28  C   UNL A   1      43.561  28.823  33.084  1.00  0.00     0.049 A 
ATOM     29  C   UNL A   1      43.654  25.376  28.324  1.00  0.00     0.074 A 
ATOM     30  C   UNL A   1      43.765  30.153  32.773  1.00  0.00     0.029 A 
ATOM     31  N   UNL A   1      44.385  28.111  32.247  1.00  0.00    -0.354 N 
ATOM     32  N   UNL A   1      44.372  26.459  28.206  1.00  0.00    -0.248 NA
ATOM     33  C   UNL A   1      43.683  24.746  29.633  1.00  0.00     0.031 C 
ATOM     34  C   UNL A   1      44.356  30.148  31.472  1.00  0.00     0.029 A 
ATOM     35  C   UNL A   1      44.549  28.821  31.085  1.00  0.00     0.049 A 
ATOM     36  H   UNL A   1      44.791  27.236  32.447  1.00  0.00     0.167 HD
ATOM     37  C   UNL A   1      44.585  26.884  29.508  1.00  0.00     0.074 A 
ATOM     38  C   UNL A   1      44.215  25.743  30.343  1.00  0.00     0.031 C 
ATOM     39  C   UNL A   1      44.765  28.208  29.790  1.00  0.00     0.037 A 
BRANCH  26  40
ATOM     40  C   UNL A   1      42.808  27.008  34.767  1.00  0.00     0.064 A 
ATOM     41  C   UNL A   1      42.909  27.358  36.127  1.00  0.00     0.173 A 
ATOM     42  C   UNL A   1      43.285  25.721  34.431  1.00  0.00     0.173 A 
ATOM     43  F   UNL A   1      42.509  28.565  36.553  1.00  0.00    -0.203 F 
ATOM     44  C   UNL A   1      43.511  26.511  37.062  1.00  0.00     0.198 A 
ATOM     45  C   UNL A   1      43.836  24.860  35.376  1.00  0.00     0.198 A 
ATOM     46  F   UNL A   1      43.351  25.286  33.168  1.00  0.00    -0.203 F 
ATOM     47  F   UNL A   1      43.699  26.938  38.318  1.00  0.00    -0.200 F 
ATOM     48  C   UNL A   1      43.978  25.266  36.685  1.00  0.00     0.200 A 
ATOM     49  F   UNL A   1      44.304  23.667  34.983  1.00  0.00    -0.200 F 
ATOM     50  F   UNL A   1      44.608  24.478  37.564  1.00  0.00    -0.200 F 
ENDBRANCH  26  40
BRANCH  27  51
ATOM     51  C   UNL A   1      42.388  23.688  26.809  1.00  0.00     0.064 A 
ATOM     52  C   UNL A   1      43.301  23.255  25.831  1.00  0.00     0.173 A 
ATOM     53  C   UNL A   1      41.580  22.695  27.394  1.00  0.00     0.173 A 
ATOM     54  F   UNL A   1      44.133  24.132  25.249  1.00  0.00    -0.203 F 
ATOM     55  C   UNL A   1      43.435  21.902  25.497  1.00  0.00     0.198 A 
ATOM     56  C   UNL A   1      41.713  21.345  27.057  1.00  0.00     0.198 A 
ATOM     57  F   UNL A   1      40.719  22.998  28.375  1.00  0.00    -0.203 F 
ATOM     58  F   UNL A   1      44.372  21.519  24.618  1.00  0.00    -0.200 F 
ATOM     59  C   UNL A   1      42.653  20.947  26.124  1.00  0.00     0.200 A 
ATOM     60  F   UNL A   1      40.975  20.425  27.694  1.00  0.00    -0.200 F 
ATOM     61  F   UNL A   1      42.834  19.644  25.863  1.00  0.00    -0.200 F 
ENDBRANCH  27  51
BRANCH  39  62
ATOM     62  C   UNL A   1      45.019  29.140  28.633  1.00  0.00     0.064 A 
ATOM     63  C   UNL A   1      44.013  29.832  27.932  1.00  0.00     0.173 A 
ATOM     64  C   UNL A   1      46.349  29.447  28.316  1.00  0.00     0.173 A 
ATOM     65  F   UNL A   1      42.720  29.657  28.227  1.00  0.00    -0.203 F 
ATOM     66  C   UNL A   1      44.332  30.766  26.944  1.00  0.00     0.198 A 
ATOM     67  C   UNL A   1      46.663  30.406  27.356  1.00  0.00     0.198 A 
ATOM     68  F   UNL A   1      47.350  28.850  28.981  1.00  0.00    -0.203 F 
ATOM     69  F   UNL A   1      43.356  31.410  26.286  1.00  0.00    -0.200 F 
ATOM     70  C   UNL A   1      45.657  31.059  26.665  1.00  0.00     0.200 A 
ATOM     71  F   UNL A   1      47.946  30.715  27.122  1.00  0.00    -0.200 F 
ATOM     72  F   UNL A   1      45.964  31.989  25.750  1.00  0.00    -0.200 F 
ENDBRANCH  39  62
ENDBRANCH  13  14
ENDBRANCH   6   8
ENDBRANCH   3   4
ENDBRANCH   2   3
ENDBRANCH   1   2
BRANCH   1  73
ATOM     73  C   UNL A   1      32.798  27.970  26.112  1.00  0.00     0.116 C 
BRANCH  73  74
ATOM     74  N   UNL A   1      33.593  28.513  25.026  1.00  0.00    -0.354 N 
ATOM     75  C   UNL A   1      33.425  28.479  23.676  1.00  0.00     0.244 C 
ATOM     76  H   UNL A   1      34.402  28.992  25.320  1.00  0.00     0.163 HD
ATOM     77  O   UNL A   1      34.383  28.870  22.996  1.00  0.00    -0.273 OA
BRANCH  75  78
ATOM     78  C   UNL A   1      32.173  27.914  22.972  1.00  0.00     0.197 C 
BRANCH  78  79
ATOM     79  C   UNL A   1      31.086  28.983  22.776  1.00  0.00     0.191 C 
BRANCH  79  80
ATOM     80  O   UNL A   1      30.280  28.771  21.627  1.00  0.00    -0.394 OA
ATOM     81  H   UNL A   1      30.511  27.920  21.222  1.00  0.00     0.210 HD
ENDBRANCH  79  80
ENDBRANCH  78  79
BRANCH  78  82
ATOM     82  N   UNL A   1      32.473  27.133  21.764  1.00  0.00    -0.338 N 
ATOM     83  C   UNL A   1      32.794  25.801  21.647  1.00  0.00     0.252 C 
ATOM     84  H   UNL A   1      32.440  27.635  20.917  1.00  0.00     0.164 HD
ATOM     85  O   UNL A   1      33.278  25.376  20.603  1.00  0.00    -0.269 OA
BRANCH  83  86
ATOM     86  C   UNL A   1      32.578  24.867  22.783  1.00  0.00     0.040 A 
ATOM     87  C   UNL A   1      31.242  24.470  23.125  1.00  0.00     0.016 A 
ATOM     88  C   UNL A   1      33.726  24.377  23.447  1.00  0.00     0.028 A 
ATOM     89  C   UNL A   1      30.917  23.652  24.228  1.00  0.00     0.033 A 
ATOM     90  C   UNL A   1      33.375  23.544  24.508  1.00  0.00     0.050 A 
ATOM     91  C   UNL A   1      32.041  23.180  24.923  1.00  0.00     0.114 A 
ATOM     92  C   UNL A   1      34.222  22.850  25.330  1.00  0.00     0.174 A 
ATOM     93  N   UNL A   1      32.115  22.363  25.985  1.00  0.00    -0.079 NA
ATOM     94  O   UNL A   1      33.462  22.149  26.222  1.00  0.00    -0.355 OA
BRANCH  92  95
ATOM     95  C   UNL A   1      35.652  22.670  25.461  1.00  0.00     0.021 A 
ATOM     96  C   UNL A   1      36.438  23.704  25.988  1.00  0.00     0.012 A 
ATOM     97  C   UNL A   1      36.266  21.475  25.072  1.00  0.00     0.012 A 
ATOM     98  C   UNL A   1      37.818  23.545  26.125  1.00  0.00     0.001 A 
ATOM     99  C   UNL A   1      37.649  21.321  25.200  1.00  0.00     0.001 A 
ATOM    100  C   UNL A   1      38.422  22.354  25.727  1.00  0.00     0.000 A 
ENDBRANCH  92  95
ENDBRANCH  83  86
ENDBRANCH  78  82
ENDBRANCH  75  78
ENDBRANCH  73  74
ENDBRANCH   1  73
TORSDOF 16
ENDMDL
