MODEL 1
REMARK VINA RESULT:     -12.9      0.000      0.000
REMARK SMILES CC(=O)N[C@H]1[C@@H](Oc2ccc(C)c(C)c2)O[C@H]2CO[C@H](c3ccco3)O[C@@H]2[C@H]1OCC(=O)NCCCCNC(=O)c1ccc(-c2c3nc(c(-c4c(F)c(F)c(F)c(F)c4F)c4ccc([nH]4)c(-c4c(F)c(F)c(F)c(F)c4F)c4nc(c(-c5c(F)c(F)c(F)c(F)c5F)c5ccc2[nH]5)C=C4)C=C3)cc1
REMARK SMILES IDX 34 1 33 2 31 3 32 4 30 6 29 7 28 8 5 9 6 10 16 11 27 12
REMARK SMILES IDX 17 13 26 14 18 15 20 16 19 17 4 18 1 19 2 20 3 21 7 23 8 24
REMARK SMILES IDX 9 25 15 26 10 27 13 28 11 29 14 30 12 31 21 32 22 33 25 34
REMARK SMILES IDX 23 35 24 36 35 37 36 38 37 39 38 40 39 41 40 43 41 44 42 45
REMARK SMILES IDX 103 46 43 47 102 48 44 49 45 50 46 51 96 52 47 53 101 54
REMARK SMILES IDX 95 55 97 56 48 57 100 58 94 59 93 60 49 62 81 63 61 64 80 65
REMARK SMILES IDX 62 66 65 67 79 68 98 69 63 70 64 71 78 73 99 74 66 75 50 76
REMARK SMILES IDX 51 77 59 78 52 79 53 80 57 81 60 82 54 83 55 84 58 85 56 86
REMARK SMILES IDX 82 87 83 88 91 89 84 90 85 91 89 92 92 93 86 94 87 95 90 96
REMARK SMILES IDX 88 97 67 98 68 99 76 100 69 101 70 102 74 103 77 104 71 105
REMARK SMILES IDX 72 106 75 107 73 108
REMARK H PARENT 33 5 4 22 38 42 97 61 65 72
REMARK Flexibility Score: inf
ROOT
ATOM      1  C   UNL A   1      34.643  31.312  27.901  1.00  0.00     0.116 C 
ENDROOT
BRANCH   1   2
ATOM      2  N   UNL A   1      33.289  31.099  27.442  1.00  0.00    -0.354 N 
ATOM      3  C   UNL A   1      32.745  29.978  26.896  1.00  0.00     0.246 C 
ATOM      4  O   UNL A   1      31.567  30.039  26.549  1.00  0.00    -0.272 OA
ATOM      5  H   UNL A   1      32.680  31.866  27.538  1.00  0.00     0.163 HD
BRANCH   3   6
ATOM      6  C   UNL A   1      33.607  28.716  26.784  1.00  0.00     0.260 C 
BRANCH   6   7
ATOM      7  O   UNL A   1      32.961  27.508  26.411  1.00  0.00    -0.363 OA
BRANCH   7   8
ATOM      8  C   UNL A   1      33.262  26.965  25.105  1.00  0.00     0.179 C 
ATOM      9  C   UNL A   1      33.892  25.544  25.335  1.00  0.00     0.182 C 
ATOM     10  C   UNL A   1      33.931  24.708  23.993  1.00  0.00     0.333 C 
ATOM     11  O   UNL A   1      32.780  24.826  23.155  1.00  0.00    -0.332 OA
ATOM     12  C   UNL A   1      32.028  26.868  24.182  1.00  0.00     0.184 C 
ATOM     13  C   UNL A   1      32.418  26.167  22.888  1.00  0.00     0.180 C 
ATOM     14  O   UNL A   1      31.534  28.159  23.852  1.00  0.00    -0.337 OA
ATOM     15  C   UNL A   1      31.228  26.193  21.925  1.00  0.00     0.199 C 
ATOM     16  C   UNL A   1      30.375  28.073  23.028  1.00  0.00     0.319 C 
ATOM     17  O   UNL A   1      30.710  27.510  21.763  1.00  0.00    -0.343 OA
BRANCH   9  18
ATOM     18  N   UNL A   1      33.220  24.893  26.481  1.00  0.00    -0.345 N 
ATOM     19  C   UNL A   1      31.237  23.976  25.296  1.00  0.00     0.114 C 
ATOM     20  C   UNL A   1      32.077  24.155  26.532  1.00  0.00     0.217 C 
ATOM     21  O   UNL A   1      31.772  23.607  27.593  1.00  0.00    -0.275 OA
ATOM     22  H   UNL A   1      33.672  25.013  27.348  1.00  0.00     0.164 HD
ENDBRANCH   9  18
BRANCH  10  23
ATOM     23  O   UNL A   1      34.328  23.334  24.138  1.00  0.00    -0.463 OA
BRANCH  23  24
ATOM     24  C   UNL A   1      35.487  23.020  24.798  1.00  0.00     0.123 A 
ATOM     25  C   UNL A   1      36.342  23.912  25.437  1.00  0.00     0.047 A 
ATOM     26  C   UNL A   1      35.858  21.675  24.724  1.00  0.00     0.050 A 
ATOM     27  C   UNL A   1      37.613  23.502  25.842  1.00  0.00     0.007 A 
ATOM     28  C   UNL A   1      37.126  21.238  25.153  1.00  0.00    -0.045 A 
ATOM     29  C   UNL A   1      38.038  22.181  25.656  1.00  0.00    -0.048 A 
ATOM     30  C   UNL A   1      37.454  19.778  25.005  1.00  0.00     0.045 C 
ATOM     31  C   UNL A   1      39.464  21.833  25.980  1.00  0.00     0.044 C 
ENDBRANCH  23  24
ENDBRANCH  10  23
BRANCH  16  32
ATOM     32  C   UNL A   1      29.841  29.445  22.796  1.00  0.00     0.159 A 
ATOM     33  C   UNL A   1      29.503  30.143  21.650  1.00  0.00     0.051 A 
ATOM     34  O   UNL A   1      29.548  30.213  23.888  1.00  0.00    -0.464 OA
ATOM     35  C   UNL A   1      29.001  31.400  22.071  1.00  0.00     0.042 A 
ATOM     36  C   UNL A   1      29.061  31.395  23.443  1.00  0.00     0.195 A 
ENDBRANCH  16  32
ENDBRANCH   7   8
ENDBRANCH   6   7
ENDBRANCH   3   6
ENDBRANCH   1   2
BRANCH   1  37
ATOM     37  C   UNL A   1      34.839  32.746  28.382  1.00  0.00     0.023 C 
BRANCH  37  38
ATOM     38  C   UNL A   1      33.583  33.620  28.306  1.00  0.00     0.023 C 
BRANCH  38  39
ATOM     39  C   UNL A   1      33.787  35.091  28.651  1.00  0.00     0.116 C 
BRANCH  39  40
ATOM     40  N   UNL A   1      32.904  35.548  29.710  1.00  0.00    -0.352 N 
ATOM     41  C   UNL A   1      32.994  35.340  31.063  1.00  0.00     0.251 C 
ATOM     42  H   UNL A   1      32.132  36.084  29.416  1.00  0.00     0.163 HD
ATOM     43  O   UNL A   1      32.077  35.687  31.802  1.00  0.00    -0.269 OA
BRANCH  41  44
ATOM     44  C   UNL A   1      34.180  34.663  31.626  1.00  0.00     0.039 A 
ATOM     45  C   UNL A   1      34.062  33.328  32.017  1.00  0.00     0.014 A 
ATOM     46  C   UNL A   1      35.401  35.330  31.755  1.00  0.00     0.014 A 
ATOM     47  C   UNL A   1      35.187  32.642  32.476  1.00  0.00     0.010 A 
ATOM     48  C   UNL A   1      36.538  34.624  32.137  1.00  0.00     0.010 A 
ATOM     49  C   UNL A   1      36.443  33.272  32.502  1.00  0.00    -0.014 A 
BRANCH  49  50
ATOM     50  C   UNL A   1      37.663  32.519  32.894  1.00  0.00     0.031 A 
ATOM     51  C   UNL A   1      38.370  32.829  34.182  1.00  0.00     0.074 A 
ATOM     52  C   UNL A   1      38.159  31.584  32.059  1.00  0.00     0.049 A 
ATOM     53  N   UNL A   1      39.457  32.292  34.680  1.00  0.00    -0.248 NA
ATOM     54  C   UNL A   1      37.799  33.900  35.012  1.00  0.00     0.031 C 
ATOM     55  C   UNL A   1      37.594  31.231  30.756  1.00  0.00     0.029 A 
ATOM     56  N   UNL A   1      39.252  30.762  32.181  1.00  0.00    -0.354 N 
ATOM     57  C   UNL A   1      39.700  32.963  35.871  1.00  0.00     0.074 A 
ATOM     58  C   UNL A   1      38.685  33.986  35.994  1.00  0.00     0.031 C 
ATOM     59  C   UNL A   1      38.324  30.243  30.213  1.00  0.00     0.029 A 
ATOM     60  C   UNL A   1      39.431  29.922  31.108  1.00  0.00     0.049 A 
ATOM     61  H   UNL A   1      39.851  30.773  32.962  1.00  0.00     0.167 HD
ATOM     62  C   UNL A   1      40.666  32.729  36.791  1.00  0.00     0.037 A 
ATOM     63  C   UNL A   1      40.384  29.001  30.871  1.00  0.00     0.037 A 
ATOM     64  C   UNL A   1      41.666  31.700  36.671  1.00  0.00     0.049 A 
ATOM     65  C   UNL A   1      41.454  28.770  31.904  1.00  0.00     0.074 A 
ATOM     66  C   UNL A   1      42.654  31.346  37.574  1.00  0.00     0.029 A 
ATOM     67  N   UNL A   1      41.812  30.864  35.573  1.00  0.00    -0.354 N 
ATOM     68  N   UNL A   1      41.626  29.357  33.063  1.00  0.00    -0.248 NA
ATOM     69  C   UNL A   1      42.457  27.741  31.598  1.00  0.00     0.031 C 
ATOM     70  C   UNL A   1      43.433  30.338  36.998  1.00  0.00     0.029 A 
ATOM     71  C   UNL A   1      42.891  30.014  35.766  1.00  0.00     0.049 A 
ATOM     72  H   UNL A   1      41.235  30.872  34.776  1.00  0.00     0.167 HD
ATOM     73  C   UNL A   1      42.733  28.747  33.639  1.00  0.00     0.074 A 
ATOM     74  C   UNL A   1      43.182  27.734  32.707  1.00  0.00     0.031 C 
ATOM     75  C   UNL A   1      43.323  29.004  34.833  1.00  0.00     0.037 A 
BRANCH  62  76
ATOM     76  C   UNL A   1      40.689  33.604  38.013  1.00  0.00     0.064 A 
ATOM     77  C   UNL A   1      39.878  33.338  39.127  1.00  0.00     0.173 A 
ATOM     78  C   UNL A   1      41.564  34.698  38.089  1.00  0.00     0.173 A 
ATOM     79  F   UNL A   1      39.017  32.309  39.105  1.00  0.00    -0.203 F 
ATOM     80  C   UNL A   1      39.917  34.152  40.255  1.00  0.00     0.198 A 
ATOM     81  C   UNL A   1      41.625  35.491  39.232  1.00  0.00     0.198 A 
ATOM     82  F   UNL A   1      42.368  34.996  37.057  1.00  0.00    -0.203 F 
ATOM     83  F   UNL A   1      39.093  33.909  41.284  1.00  0.00    -0.200 F 
ATOM     84  C   UNL A   1      40.796  35.224  40.311  1.00  0.00     0.200 A 
ATOM     85  F   UNL A   1      42.488  36.515  39.290  1.00  0.00    -0.200 F 
ATOM     86  F   UNL A   1      40.840  36.001  41.401  1.00  0.00    -0.200 F 
ENDBRANCH  62  76
BRANCH  63  87
ATOM     87  C   UNL A   1      40.354  28.208  29.613  1.00  0.00     0.064 A 
ATOM     88  C   UNL A   1      39.598  27.032  29.519  1.00  0.00     0.173 A 
ATOM     89  C   UNL A   1      41.087  28.604  28.483  1.00  0.00     0.173 A 
ATOM     90  F   UNL A   1      38.896  26.600  30.577  1.00  0.00    -0.203 F 
ATOM     91  C   UNL A   1      39.594  26.268  28.353  1.00  0.00     0.198 A 
ATOM     92  C   UNL A   1      41.056  27.857  27.308  1.00  0.00     0.198 A 
ATOM     93  F   UNL A   1      41.822  29.724  28.518  1.00  0.00    -0.203 F 
ATOM     94  F   UNL A   1      38.903  25.121  28.309  1.00  0.00    -0.200 F 
ATOM     95  C   UNL A   1      40.318  26.684  27.246  1.00  0.00     0.200 A 
ATOM     96  F   UNL A   1      41.743  28.272  26.234  1.00  0.00    -0.200 F 
ATOM     97  F   UNL A   1      40.310  25.953  26.124  1.00  0.00    -0.200 F 
ENDBRANCH  63  87
BRANCH  75  98
ATOM     98  C   UNL A   1      44.493  28.144  35.223  1.00  0.00     0.064 A 
ATOM     99  C   UNL A   1      44.325  26.935  35.914  1.00  0.00     0.173 A 
ATOM    100  C   UNL A   1      45.798  28.522  34.870  1.00  0.00     0.173 A 
ATOM    101  F   UNL A   1      43.101  26.534  36.288  1.00  0.00    -0.203 F 
ATOM    102  C   UNL A   1      45.423  26.153  36.264  1.00  0.00     0.198 A 
ATOM    103  C   UNL A   1      46.889  27.720  35.191  1.00  0.00     0.198 A 
ATOM    104  F   UNL A   1      46.014  29.666  34.202  1.00  0.00    -0.203 F 
ATOM    105  F   UNL A   1      45.244  25.029  36.973  1.00  0.00    -0.200 F 
ATOM    106  C   UNL A   1      46.702  26.542  35.896  1.00  0.00     0.200 A 
ATOM    107  F   UNL A   1      48.122  28.090  34.818  1.00  0.00    -0.200 F 
ATOM    108  F   UNL A   1      47.756  25.783  36.227  1.00  0.00    -0.200 F 
ENDBRANCH  75  98
ENDBRANCH  49  50
ENDBRANCH  41  44
ENDBRANCH  39  40
ENDBRANCH  38  39
ENDBRANCH  37  38
ENDBRANCH   1  37
TORSDOF 17
ENDMDL
MODEL 2
REMARK VINA RESULT:     -12.6      1.092      2.120
REMARK SMILES CC(=O)N[C@H]1[C@@H](Oc2ccc(C)c(C)c2)O[C@H]2CO[C@H](c3ccco3)O[C@@H]2[C@H]1OCC(=O)NCCCCNC(=O)c1ccc(-c2c3nc(c(-c4c(F)c(F)c(F)c(F)c4F)c4ccc([nH]4)c(-c4c(F)c(F)c(F)c(F)c4F)c4nc(c(-c5c(F)c(F)c(F)c(F)c5F)c5ccc2[nH]5)C=C4)C=C3)cc1
REMARK SMILES IDX 34 1 33 2 31 3 32 4 30 6 29 7 28 8 5 9 6 10 16 11 27 12
REMARK SMILES IDX 17 13 26 14 18 15 20 16 19 17 4 18 1 19 2 20 3 21 7 23 8 24
REMARK SMILES IDX 9 25 15 26 10 27 13 28 11 29 14 30 12 31 21 32 22 33 25 34
REMARK SMILES IDX 23 35 24 36 35 37 36 38 37 39 38 40 39 41 40 43 41 44 42 45
REMARK SMILES IDX 103 46 43 47 102 48 44 49 45 50 46 51 96 52 47 53 101 54
REMARK SMILES IDX 95 55 97 56 48 57 100 58 94 59 93 60 49 62 81 63 61 64 80 65
REMARK SMILES IDX 62 66 65 67 79 68 98 69 63 70 64 71 78 73 99 74 66 75 50 76
REMARK SMILES IDX 51 77 59 78 52 79 53 80 57 81 60 82 54 83 55 84 58 85 56 86
REMARK SMILES IDX 82 87 83 88 91 89 84 90 85 91 89 92 92 93 86 94 87 95 90 96
REMARK SMILES IDX 88 97 67 98 68 99 76 100 69 101 70 102 74 103 77 104 71 105
REMARK SMILES IDX 72 106 75 107 73 108
REMARK H PARENT 33 5 4 22 38 42 97 61 65 72
REMARK Flexibility Score: inf
ROOT
ATOM      1  C   UNL A   1      34.374  31.366  28.175  1.00  0.00     0.116 C 
ENDROOT
BRANCH   1   2
ATOM      2  N   UNL A   1      33.173  31.344  27.370  1.00  0.00    -0.354 N 
ATOM      3  C   UNL A   1      32.480  30.269  26.909  1.00  0.00     0.246 C 
ATOM      4  O   UNL A   1      31.495  30.495  26.210  1.00  0.00    -0.272 OA
ATOM      5  H   UNL A   1      32.810  32.225  27.123  1.00  0.00     0.163 HD
BRANCH   3   6
ATOM      6  C   UNL A   1      32.939  28.864  27.315  1.00  0.00     0.260 C 
BRANCH   6   7
ATOM      7  O   UNL A   1      32.350  27.759  26.646  1.00  0.00    -0.363 OA
BRANCH   7   8
ATOM      8  C   UNL A   1      32.902  27.382  25.363  1.00  0.00     0.179 C 
ATOM      9  C   UNL A   1      33.778  26.101  25.601  1.00  0.00     0.182 C 
ATOM     10  C   UNL A   1      34.140  25.389  24.237  1.00  0.00     0.333 C 
ATOM     11  O   UNL A   1      33.092  25.339  23.266  1.00  0.00    -0.332 OA
ATOM     12  C   UNL A   1      31.827  27.112  24.288  1.00  0.00     0.184 C 
ATOM     13  C   UNL A   1      32.498  26.598  23.021  1.00  0.00     0.180 C 
ATOM     14  O   UNL A   1      31.121  28.301  23.961  1.00  0.00    -0.337 OA
ATOM     15  C   UNL A   1      31.444  26.459  21.917  1.00  0.00     0.199 C 
ATOM     16  C   UNL A   1      30.105  28.049  22.995  1.00  0.00     0.319 C 
ATOM     17  O   UNL A   1      30.690  27.657  21.756  1.00  0.00    -0.343 OA
BRANCH   9  18
ATOM     18  N   UNL A   1      33.127  25.248  26.621  1.00  0.00    -0.345 N 
ATOM     19  C   UNL A   1      31.026  24.724  25.401  1.00  0.00     0.114 C 
ATOM     20  C   UNL A   1      31.941  24.579  26.586  1.00  0.00     0.217 C 
ATOM     21  O   UNL A   1      31.659  23.827  27.520  1.00  0.00    -0.275 OA
ATOM     22  H   UNL A   1      33.633  25.148  27.460  1.00  0.00     0.164 HD
ENDBRANCH   9  18
BRANCH  10  23
ATOM     23  O   UNL A   1      34.790  24.113  24.364  1.00  0.00    -0.463 OA
BRANCH  23  24
ATOM     24  C   UNL A   1      34.043  22.969  24.459  1.00  0.00     0.123 A 
ATOM     25  C   UNL A   1      34.044  22.065  25.516  1.00  0.00     0.047 A 
ATOM     26  C   UNL A   1      33.283  22.669  23.325  1.00  0.00     0.050 A 
ATOM     27  C   UNL A   1      33.439  20.815  25.376  1.00  0.00     0.007 A 
ATOM     28  C   UNL A   1      32.642  21.424  23.177  1.00  0.00    -0.045 A 
ATOM     29  C   UNL A   1      32.782  20.461  24.192  1.00  0.00    -0.048 A 
ATOM     30  C   UNL A   1      31.874  21.173  21.910  1.00  0.00     0.045 C 
ATOM     31  C   UNL A   1      32.274  19.054  24.045  1.00  0.00     0.044 C 
ENDBRANCH  23  24
ENDBRANCH  10  23
BRANCH  16  32
ATOM     32  C   UNL A   1      29.332  29.302  22.763  1.00  0.00     0.159 A 
ATOM     33  C   UNL A   1      29.174  30.461  23.502  1.00  0.00     0.051 A 
ATOM     34  O   UNL A   1      28.660  29.432  21.581  1.00  0.00    -0.464 OA
ATOM     35  C   UNL A   1      28.350  31.324  22.736  1.00  0.00     0.042 A 
ATOM     36  C   UNL A   1      28.056  30.644  21.580  1.00  0.00     0.195 A 
ENDBRANCH  16  32
ENDBRANCH   7   8
ENDBRANCH   6   7
ENDBRANCH   3   6
ENDBRANCH   1   2
BRANCH   1  37
ATOM     37  C   UNL A   1      34.605  32.748  28.777  1.00  0.00     0.023 C 
BRANCH  37  38
ATOM     38  C   UNL A   1      33.477  33.752  28.517  1.00  0.00     0.023 C 
BRANCH  38  39
ATOM     39  C   UNL A   1      33.730  35.166  29.026  1.00  0.00     0.116 C 
BRANCH  39  40
ATOM     40  N   UNL A   1      32.837  35.543  30.108  1.00  0.00    -0.352 N 
ATOM     41  C   UNL A   1      32.949  35.291  31.451  1.00  0.00     0.251 C 
ATOM     42  H   UNL A   1      32.037  36.052  29.839  1.00  0.00     0.163 HD
ATOM     43  O   UNL A   1      32.023  35.567  32.210  1.00  0.00    -0.269 OA
BRANCH  41  44
ATOM     44  C   UNL A   1      34.171  34.651  31.981  1.00  0.00     0.039 A 
ATOM     45  C   UNL A   1      34.081  33.348  32.472  1.00  0.00     0.014 A 
ATOM     46  C   UNL A   1      35.397  35.321  31.979  1.00  0.00     0.014 A 
ATOM     47  C   UNL A   1      35.235  32.692  32.903  1.00  0.00     0.010 A 
ATOM     48  C   UNL A   1      36.558  34.639  32.333  1.00  0.00     0.010 A 
ATOM     49  C   UNL A   1      36.489  33.317  32.799  1.00  0.00    -0.014 A 
BRANCH  49  50
ATOM     50  C   UNL A   1      37.733  32.589  33.160  1.00  0.00     0.031 A 
ATOM     51  C   UNL A   1      38.452  32.896  34.443  1.00  0.00     0.074 A 
ATOM     52  C   UNL A   1      38.240  31.680  32.304  1.00  0.00     0.049 A 
ATOM     53  N   UNL A   1      39.560  32.380  34.916  1.00  0.00    -0.248 NA
ATOM     54  C   UNL A   1      37.866  33.940  35.299  1.00  0.00     0.031 C 
ATOM     55  C   UNL A   1      37.664  31.333  31.004  1.00  0.00     0.029 A 
ATOM     56  N   UNL A   1      39.355  30.884  32.396  1.00  0.00    -0.354 N 
ATOM     57  C   UNL A   1      39.803  33.038  36.114  1.00  0.00     0.074 A 
ATOM     58  C   UNL A   1      38.765  34.034  36.268  1.00  0.00     0.031 C 
ATOM     59  C   UNL A   1      38.410  30.373  30.434  1.00  0.00     0.029 A 
ATOM     60  C   UNL A   1      39.539  30.066  31.308  1.00  0.00     0.049 A 
ATOM     61  H   UNL A   1      39.965  30.898  33.169  1.00  0.00     0.167 HD
ATOM     62  C   UNL A   1      40.789  32.814  37.016  1.00  0.00     0.037 A 
ATOM     63  C   UNL A   1      40.511  29.173  31.042  1.00  0.00     0.037 A 
ATOM     64  C   UNL A   1      41.813  31.813  36.864  1.00  0.00     0.049 A 
ATOM     65  C   UNL A   1      41.602  28.953  32.056  1.00  0.00     0.074 A 
ATOM     66  C   UNL A   1      42.822  31.470  37.747  1.00  0.00     0.029 A 
ATOM     67  N   UNL A   1      41.963  30.998  35.751  1.00  0.00    -0.354 N 
ATOM     68  N   UNL A   1      41.776  29.526  33.221  1.00  0.00    -0.248 NA
ATOM     69  C   UNL A   1      42.625  27.954  31.718  1.00  0.00     0.031 C 
ATOM     70  C   UNL A   1      43.618  30.491  37.144  1.00  0.00     0.029 A 
ATOM     71  C   UNL A   1      43.065  30.173  35.915  1.00  0.00     0.049 A 
ATOM     72  H   UNL A   1      41.374  31.004  34.964  1.00  0.00     0.167 HD
ATOM     73  C   UNL A   1      42.907  28.936  33.771  1.00  0.00     0.074 A 
ATOM     74  C   UNL A   1      43.367  27.949  32.816  1.00  0.00     0.031 C 
ATOM     75  C   UNL A   1      43.508  29.188  34.960  1.00  0.00     0.037 A 
BRANCH  62  76
ATOM     76  C   UNL A   1      40.809  33.670  38.251  1.00  0.00     0.064 A 
ATOM     77  C   UNL A   1      39.983  33.397  39.352  1.00  0.00     0.173 A 
ATOM     78  C   UNL A   1      41.695  34.754  38.352  1.00  0.00     0.173 A 
ATOM     79  F   UNL A   1      39.111  32.378  39.306  1.00  0.00    -0.203 F 
ATOM     80  C   UNL A   1      40.019  34.194  40.493  1.00  0.00     0.198 A 
ATOM     81  C   UNL A   1      41.753  35.529  39.509  1.00  0.00     0.198 A 
ATOM     82  F   UNL A   1      42.513  35.058  37.334  1.00  0.00    -0.203 F 
ATOM     83  F   UNL A   1      39.182  33.945  41.509  1.00  0.00    -0.200 F 
ATOM     84  C   UNL A   1      40.909  35.254  40.574  1.00  0.00     0.200 A 
ATOM     85  F   UNL A   1      42.626  36.542  39.591  1.00  0.00    -0.200 F 
ATOM     86  F   UNL A   1      40.950  36.014  41.676  1.00  0.00    -0.200 F 
ENDBRANCH  62  76
BRANCH  63  87
ATOM     87  C   UNL A   1      40.481  28.398  29.772  1.00  0.00     0.064 A 
ATOM     88  C   UNL A   1      41.212  28.820  28.653  1.00  0.00     0.173 A 
ATOM     89  C   UNL A   1      39.718  27.227  29.649  1.00  0.00     0.173 A 
ATOM     90  F   UNL A   1      41.942  29.943  28.714  1.00  0.00    -0.203 F 
ATOM     91  C   UNL A   1      41.160  28.115  27.452  1.00  0.00     0.198 A 
ATOM     92  C   UNL A   1      39.693  26.506  28.458  1.00  0.00     0.198 A 
ATOM     93  F   UNL A   1      39.006  26.777  30.692  1.00  0.00    -0.203 F 
ATOM     94  F   UNL A   1      41.827  28.570  26.382  1.00  0.00    -0.200 F 
ATOM     95  C   UNL A   1      40.406  26.956  27.357  1.00  0.00     0.200 A 
ATOM     96  F   UNL A   1      38.977  25.376  28.376  1.00  0.00    -0.200 F 
ATOM     97  F   UNL A   1      40.361  26.276  26.203  1.00  0.00    -0.200 F 
ENDBRANCH  63  87
BRANCH  75  98
ATOM     98  C   UNL A   1      44.705  28.353  35.319  1.00  0.00     0.064 A 
ATOM     99  C   UNL A   1      46.011  28.753  35.001  1.00  0.00     0.173 A 
ATOM    100  C   UNL A   1      44.542  27.149  36.022  1.00  0.00     0.173 A 
ATOM    101  F   UNL A   1      46.222  29.889  34.317  1.00  0.00    -0.203 F 
ATOM    102  C   UNL A   1      47.106  27.965  35.345  1.00  0.00     0.198 A 
ATOM    103  C   UNL A   1      45.641  26.381  36.396  1.00  0.00     0.198 A 
ATOM    104  F   UNL A   1      43.315  26.722  36.358  1.00  0.00    -0.203 F 
ATOM    105  F   UNL A   1      48.340  28.340  34.982  1.00  0.00    -0.200 F 
ATOM    106  C   UNL A   1      46.921  26.784  36.049  1.00  0.00     0.200 A 
ATOM    107  F   UNL A   1      45.460  25.249  37.090  1.00  0.00    -0.200 F 
ATOM    108  F   UNL A   1      47.977  26.031  36.386  1.00  0.00    -0.200 F 
ENDBRANCH  75  98
ENDBRANCH  49  50
ENDBRANCH  41  44
ENDBRANCH  39  40
ENDBRANCH  38  39
ENDBRANCH  37  38
ENDBRANCH   1  37
TORSDOF 17
ENDMDL
MODEL 3
REMARK VINA RESULT:     -12.4      1.244      7.056
REMARK SMILES CC(=O)N[C@H]1[C@@H](Oc2ccc(C)c(C)c2)O[C@H]2CO[C@H](c3ccco3)O[C@@H]2[C@H]1OCC(=O)NCCCCNC(=O)c1ccc(-c2c3nc(c(-c4c(F)c(F)c(F)c(F)c4F)c4ccc([nH]4)c(-c4c(F)c(F)c(F)c(F)c4F)c4nc(c(-c5c(F)c(F)c(F)c(F)c5F)c5ccc2[nH]5)C=C4)C=C3)cc1
REMARK SMILES IDX 34 1 33 2 31 3 32 4 30 6 29 7 28 8 5 9 6 10 16 11 27 12
REMARK SMILES IDX 17 13 26 14 18 15 20 16 19 17 4 18 1 19 2 20 3 21 7 23 8 24
REMARK SMILES IDX 9 25 15 26 10 27 13 28 11 29 14 30 12 31 21 32 22 33 25 34
REMARK SMILES IDX 23 35 24 36 35 37 36 38 37 39 38 40 39 41 40 43 41 44 42 45
REMARK SMILES IDX 103 46 43 47 102 48 44 49 45 50 46 51 96 52 47 53 101 54
REMARK SMILES IDX 95 55 97 56 48 57 100 58 94 59 93 60 49 62 81 63 61 64 80 65
REMARK SMILES IDX 62 66 65 67 79 68 98 69 63 70 64 71 78 73 99 74 66 75 50 76
REMARK SMILES IDX 51 77 59 78 52 79 53 80 57 81 60 82 54 83 55 84 58 85 56 86
REMARK SMILES IDX 82 87 83 88 91 89 84 90 85 91 89 92 92 93 86 94 87 95 90 96
REMARK SMILES IDX 88 97 67 98 68 99 76 100 69 101 70 102 74 103 77 104 71 105
REMARK SMILES IDX 72 106 75 107 73 108
REMARK H PARENT 33 5 4 22 38 42 97 61 65 72
REMARK Flexibility Score: inf
ROOT
ATOM      1  C   UNL A   1      34.188  31.369  28.102  1.00  0.00     0.116 C 
ENDROOT
BRANCH   1   2
ATOM      2  N   UNL A   1      33.071  31.405  27.186  1.00  0.00    -0.354 N 
ATOM      3  C   UNL A   1      32.322  30.369  26.720  1.00  0.00     0.246 C 
ATOM      4  O   UNL A   1      31.432  30.638  25.917  1.00  0.00    -0.272 OA
ATOM      5  H   UNL A   1      32.818  32.297  26.857  1.00  0.00     0.163 HD
BRANCH   3   6
ATOM      6  C   UNL A   1      32.604  28.958  27.246  1.00  0.00     0.260 C 
BRANCH   6   7
ATOM      7  O   UNL A   1      32.046  27.864  26.532  1.00  0.00    -0.363 OA
BRANCH   7   8
ATOM      8  C   UNL A   1      32.682  27.482  25.291  1.00  0.00     0.179 C 
ATOM      9  C   UNL A   1      33.605  26.252  25.611  1.00  0.00     0.182 C 
ATOM     10  C   UNL A   1      34.073  25.524  24.287  1.00  0.00     0.333 C 
ATOM     11  O   UNL A   1      33.081  25.396  23.267  1.00  0.00    -0.332 OA
ATOM     12  C   UNL A   1      31.679  27.130  24.170  1.00  0.00     0.184 C 
ATOM     13  C   UNL A   1      32.440  26.617  22.955  1.00  0.00     0.180 C 
ATOM     14  O   UNL A   1      30.935  28.274  23.774  1.00  0.00    -0.337 OA
ATOM     15  C   UNL A   1      31.454  26.398  21.803  1.00  0.00     0.199 C 
ATOM     16  C   UNL A   1      29.985  27.947  22.764  1.00  0.00     0.319 C 
ATOM     17  O   UNL A   1      30.652  27.552  21.569  1.00  0.00    -0.343 OA
BRANCH   9  18
ATOM     18  N   UNL A   1      32.944  25.396  26.620  1.00  0.00    -0.345 N 
ATOM     19  C   UNL A   1      30.937  24.737  25.309  1.00  0.00     0.114 C 
ATOM     20  C   UNL A   1      31.795  24.668  26.544  1.00  0.00     0.217 C 
ATOM     21  O   UNL A   1      31.500  23.927  27.483  1.00  0.00    -0.275 OA
ATOM     22  H   UNL A   1      33.409  25.343  27.486  1.00  0.00     0.164 HD
ENDBRANCH   9  18
BRANCH  10  23
ATOM     23  O   UNL A   1      34.776  24.285  24.484  1.00  0.00    -0.463 OA
BRANCH  23  24
ATOM     24  C   UNL A   1      34.079  23.110  24.591  1.00  0.00     0.123 A 
ATOM     25  C   UNL A   1      34.132  22.210  25.649  1.00  0.00     0.047 A 
ATOM     26  C   UNL A   1      33.320  22.776  23.467  1.00  0.00     0.050 A 
ATOM     27  C   UNL A   1      33.579  20.935  25.519  1.00  0.00     0.007 A 
ATOM     28  C   UNL A   1      32.731  21.504  23.329  1.00  0.00    -0.045 A 
ATOM     29  C   UNL A   1      32.924  20.550  24.343  1.00  0.00    -0.048 A 
ATOM     30  C   UNL A   1      31.960  21.217  22.070  1.00  0.00     0.045 C 
ATOM     31  C   UNL A   1      32.475  19.123  24.205  1.00  0.00     0.044 C 
ENDBRANCH  23  24
ENDBRANCH  10  23
BRANCH  16  32
ATOM     32  C   UNL A   1      29.165  29.154  22.458  1.00  0.00     0.159 A 
ATOM     33  C   UNL A   1      28.100  29.758  23.102  1.00  0.00     0.051 A 
ATOM     34  O   UNL A   1      29.506  29.900  21.365  1.00  0.00    -0.464 OA
ATOM     35  C   UNL A   1      27.770  30.914  22.350  1.00  0.00     0.042 A 
ATOM     36  C   UNL A   1      28.650  30.947  21.297  1.00  0.00     0.195 A 
ENDBRANCH  16  32
ENDBRANCH   7   8
ENDBRANCH   6   7
ENDBRANCH   3   6
ENDBRANCH   1   2
BRANCH   1  37
ATOM     37  C   UNL A   1      34.557  32.772  28.572  1.00  0.00     0.023 C 
BRANCH  37  38
ATOM     38  C   UNL A   1      33.433  33.804  28.438  1.00  0.00     0.023 C 
BRANCH  38  39
ATOM     39  C   UNL A   1      33.730  35.176  29.032  1.00  0.00     0.116 C 
BRANCH  39  40
ATOM     40  N   UNL A   1      32.789  35.556  30.071  1.00  0.00    -0.352 N 
ATOM     41  C   UNL A   1      32.853  35.326  31.422  1.00  0.00     0.251 C 
ATOM     42  H   UNL A   1      31.993  36.047  29.764  1.00  0.00     0.163 HD
ATOM     43  O   UNL A   1      31.894  35.599  32.140  1.00  0.00    -0.269 OA
BRANCH  41  44
ATOM     44  C   UNL A   1      34.062  34.713  32.009  1.00  0.00     0.039 A 
ATOM     45  C   UNL A   1      34.030  33.357  32.338  1.00  0.00     0.014 A 
ATOM     46  C   UNL A   1      35.224  35.463  32.218  1.00  0.00     0.014 A 
ATOM     47  C   UNL A   1      35.184  32.736  32.818  1.00  0.00     0.010 A 
ATOM     48  C   UNL A   1      36.395  34.825  32.621  1.00  0.00     0.010 A 
ATOM     49  C   UNL A   1      36.387  33.455  32.925  1.00  0.00    -0.014 A 
BRANCH  49  50
ATOM     50  C   UNL A   1      37.643  32.777  33.338  1.00  0.00     0.031 A 
ATOM     51  C   UNL A   1      38.291  31.759  32.443  1.00  0.00     0.074 A 
ATOM     52  C   UNL A   1      38.175  33.049  34.547  1.00  0.00     0.049 A 
ATOM     53  N   UNL A   1      39.374  31.051  32.643  1.00  0.00    -0.248 NA
ATOM     54  C   UNL A   1      37.620  31.477  31.164  1.00  0.00     0.031 C 
ATOM     55  C   UNL A   1      37.610  33.976  35.527  1.00  0.00     0.029 A 
ATOM     56  N   UNL A   1      39.306  32.568  35.158  1.00  0.00    -0.354 N 
ATOM     57  C   UNL A   1      39.510  30.240  31.524  1.00  0.00     0.074 A 
ATOM     58  C   UNL A   1      38.367  30.497  30.676  1.00  0.00     0.031 C 
ATOM     59  C   UNL A   1      38.413  34.023  36.603  1.00  0.00     0.029 A 
ATOM     60  C   UNL A   1      39.525  33.098  36.406  1.00  0.00     0.049 A 
ATOM     61  H   UNL A   1      39.904  31.906  34.741  1.00  0.00     0.167 HD
ATOM     62  C   UNL A   1      40.511  29.380  31.220  1.00  0.00     0.037 A 
ATOM     63  C   UNL A   1      40.509  32.862  37.294  1.00  0.00     0.037 A 
ATOM     64  C   UNL A   1      41.654  29.137  32.061  1.00  0.00     0.049 A 
ATOM     65  C   UNL A   1      41.602  31.890  36.936  1.00  0.00     0.074 A 
ATOM     66  C   UNL A   1      42.748  28.326  31.818  1.00  0.00     0.029 A 
ATOM     67  N   UNL A   1      41.844  29.698  33.316  1.00  0.00    -0.354 N 
ATOM     68  N   UNL A   1      41.760  31.190  35.840  1.00  0.00    -0.248 NA
ATOM     69  C   UNL A   1      42.657  31.685  37.938  1.00  0.00     0.031 C 
ATOM     70  C   UNL A   1      43.572  28.350  32.948  1.00  0.00     0.029 A 
ATOM     71  C   UNL A   1      43.026  29.229  33.868  1.00  0.00     0.049 A 
ATOM     72  H   UNL A   1      41.232  30.335  33.749  1.00  0.00     0.167 HD
ATOM     73  C   UNL A   1      42.947  30.488  36.005  1.00  0.00     0.074 A 
ATOM     74  C   UNL A   1      43.475  30.860  37.301  1.00  0.00     0.031 C 
ATOM     75  C   UNL A   1      43.546  29.614  35.157  1.00  0.00     0.037 A 
BRANCH  62  76
ATOM     76  C   UNL A   1      40.415  28.633  29.919  1.00  0.00     0.064 A 
ATOM     77  C   UNL A   1      41.031  29.104  28.750  1.00  0.00     0.173 A 
ATOM     78  C   UNL A   1      39.732  27.409  29.849  1.00  0.00     0.173 A 
ATOM     79  F   UNL A   1      41.690  30.274  28.758  1.00  0.00    -0.203 F 
ATOM     80  C   UNL A   1      40.940  28.398  27.554  1.00  0.00     0.198 A 
ATOM     81  C   UNL A   1      39.672  26.687  28.659  1.00  0.00     0.198 A 
ATOM     82  F   UNL A   1      39.129  26.906  30.936  1.00  0.00    -0.203 F 
ATOM     83  F   UNL A   1      41.492  28.896  26.439  1.00  0.00    -0.200 F 
ATOM     84  C   UNL A   1      40.268  27.185  27.511  1.00  0.00     0.200 A 
ATOM     85  F   UNL A   1      39.036  25.508  28.624  1.00  0.00    -0.200 F 
ATOM     86  F   UNL A   1      40.190  26.501  26.362  1.00  0.00    -0.200 F 
ENDBRANCH  62  76
BRANCH  63  87
ATOM     87  C   UNL A   1      40.521  33.578  38.598  1.00  0.00     0.064 A 
ATOM     88  C   UNL A   1      39.703  33.163  39.657  1.00  0.00     0.173 A 
ATOM     89  C   UNL A   1      41.344  34.695  38.809  1.00  0.00     0.173 A 
ATOM     90  F   UNL A   1      38.885  32.112  39.500  1.00  0.00    -0.203 F 
ATOM     91  C   UNL A   1      39.688  33.851  40.869  1.00  0.00     0.198 A 
ATOM     92  C   UNL A   1      41.351  35.363  40.031  1.00  0.00     0.198 A 
ATOM     93  F   UNL A   1      42.151  35.130  37.830  1.00  0.00    -0.203 F 
ATOM     94  F   UNL A   1      38.857  33.464  41.847  1.00  0.00    -0.200 F 
ATOM     95  C   UNL A   1      40.516  34.947  41.057  1.00  0.00     0.200 A 
ATOM     96  F   UNL A   1      42.167  36.410  40.215  1.00  0.00    -0.200 F 
ATOM     97  F   UNL A   1      40.505  35.606  42.223  1.00  0.00    -0.200 F 
ENDBRANCH  63  87
BRANCH  75  98
ATOM     98  C   UNL A   1      44.865  29.034  35.583  1.00  0.00     0.064 A 
ATOM     99  C   UNL A   1      46.083  29.662  35.282  1.00  0.00     0.173 A 
ATOM    100  C   UNL A   1      44.907  27.847  36.333  1.00  0.00     0.173 A 
ATOM    101  F   UNL A   1      46.099  30.791  34.556  1.00  0.00    -0.203 F 
ATOM    102  C   UNL A   1      47.294  29.109  35.688  1.00  0.00     0.198 A 
ATOM    103  C   UNL A   1      46.118  27.316  36.767  1.00  0.00     0.198 A 
ATOM    104  F   UNL A   1      43.772  27.209  36.655  1.00  0.00    -0.203 F 
ATOM    105  F   UNL A   1      48.447  29.696  35.341  1.00  0.00    -0.200 F 
ATOM    106  C   UNL A   1      47.310  27.941  36.437  1.00  0.00     0.200 A 
ATOM    107  F   UNL A   1      46.130  26.197  37.505  1.00  0.00    -0.200 F 
ATOM    108  F   UNL A   1      48.477  27.414  36.833  1.00  0.00    -0.200 F 
ENDBRANCH  75  98
ENDBRANCH  49  50
ENDBRANCH  41  44
ENDBRANCH  39  40
ENDBRANCH  38  39
ENDBRANCH  37  38
ENDBRANCH   1  37
TORSDOF 17
ENDMDL
