MODEL 1
REMARK VINA RESULT:     -13.9      0.000      0.000
REMARK SMILES COc1ccc(-c2cc(CC3(C(=O)NCCCCNC(=O)c4ccc(-c5c6nc(c(-c7c(F)c(F)c(F)c(F)c7F)c7ccc([nH]7)c(-c7c(F)c(F)c(F)c(F)c7F)c7nc(c(-c8c(F)c(F)c(F)c(F)c8F)c8ccc5[nH]8)C=C7)C=C6)cc4)CCN(C(=O)C4CCCC4)CC3)on2)cc1
REMARK SMILES IDX 15 1 14 2 12 3 13 4 11 6 85 7 96 8 86 9 95 10 87 11 88 12
REMARK SMILES IDX 89 13 10 14 9 15 7 16 8 17 98 18 97 19 6 20 3 21 4 22 100 23
REMARK SMILES IDX 5 24 99 25 2 26 1 27 90 28 91 29 94 30 92 31 93 32 16 33
REMARK SMILES IDX 17 34 18 35 19 36 20 37 21 39 22 40 23 41 84 42 24 43 83 44
REMARK SMILES IDX 25 45 26 46 27 47 77 48 28 49 82 50 76 51 78 52 29 53 81 54
REMARK SMILES IDX 75 55 74 56 30 58 62 59 42 60 61 61 43 62 46 63 60 64 79 65
REMARK SMILES IDX 44 66 45 67 59 69 80 70 47 71 31 72 32 73 40 74 33 75 34 76
REMARK SMILES IDX 38 77 41 78 35 79 36 80 39 81 37 82 63 83 64 84 72 85 65 86
REMARK SMILES IDX 66 87 70 88 73 89 67 90 68 91 71 92 69 93 48 94 49 95 57 96
REMARK SMILES IDX 50 97 51 98 55 99 58 100 52 101 53 102 56 103 54 104
REMARK H PARENT 14 5 19 38 78 57 46 68
REMARK Flexibility Score: inf
ROOT
ATOM      1  C   UNL A   1      34.482  29.502  27.417  1.00  0.00     0.116 C 
ENDROOT
BRANCH   1   2
ATOM      2  N   UNL A   1      33.249  28.925  27.932  1.00  0.00    -0.356 N 
ATOM      3  C   UNL A   1      32.270  28.191  27.331  1.00  0.00     0.226 C 
ATOM      4  O   UNL A   1      31.337  27.839  28.057  1.00  0.00    -0.274 OA
ATOM      5  H   UNL A   1      33.094  29.096  28.889  1.00  0.00     0.163 HD
BRANCH   3   6
ATOM      6  C   UNL A   1      32.335  27.786  25.835  1.00  0.00     0.060 C 
ATOM      7  C   UNL A   1      31.104  26.892  25.513  1.00  0.00     0.039 C 
ATOM      8  C   UNL A   1      32.431  29.096  25.004  1.00  0.00     0.039 C 
ATOM      9  C   UNL A   1      30.506  27.037  24.116  1.00  0.00     0.120 C 
ATOM     10  C   UNL A   1      31.818  29.031  23.612  1.00  0.00     0.120 C 
ATOM     11  N   UNL A   1      30.503  28.414  23.635  1.00  0.00    -0.342 N 
ATOM     12  C   UNL A   1      29.335  28.909  23.073  1.00  0.00     0.225 C 
ATOM     13  O   UNL A   1      28.293  28.243  23.086  1.00  0.00    -0.275 OA
BRANCH   6  14
ATOM     14  C   UNL A   1      33.653  26.957  25.667  1.00  0.00     0.095 C 
BRANCH  14  15
ATOM     15  C   UNL A   1      33.475  25.623  25.043  1.00  0.00     0.138 A 
ATOM     16  C   UNL A   1      33.242  23.533  24.383  1.00  0.00     0.114 A 
ATOM     17  C   UNL A   1      33.154  24.375  25.518  1.00  0.00     0.077 A 
ATOM     18  N   UNL A   1      33.555  24.238  23.288  1.00  0.00    -0.080 NA
ATOM     19  O   UNL A   1      33.657  25.551  23.698  1.00  0.00    -0.361 OA
BRANCH  16  20
ATOM     20  C   UNL A   1      33.021  22.104  24.320  1.00  0.00     0.004 A 
ATOM     21  C   UNL A   1      32.528  19.354  24.268  1.00  0.00     0.118 A 
ATOM     22  C   UNL A   1      32.201  20.143  23.164  1.00  0.00     0.047 A 
ATOM     23  C   UNL A   1      33.145  19.930  25.379  1.00  0.00     0.047 A 
ATOM     24  C   UNL A   1      32.432  21.520  23.192  1.00  0.00     0.014 A 
ATOM     25  C   UNL A   1      33.390  21.303  25.406  1.00  0.00     0.014 A 
BRANCH  21  26
ATOM     26  O   UNL A   1      32.251  18.018  24.161  1.00  0.00    -0.497 OA
ATOM     27  C   UNL A   1      32.651  17.260  25.301  1.00  0.00     0.278 C 
ENDBRANCH  21  26
ENDBRANCH  16  20
ENDBRANCH  14  15
ENDBRANCH   6  14
BRANCH  12  28
ATOM     28  C   UNL A   1      29.271  30.299  22.447  1.00  0.00     0.078 C 
ATOM     29  C   UNL A   1      28.259  30.444  21.316  1.00  0.00     0.013 C 
ATOM     30  C   UNL A   1      29.028  31.462  23.409  1.00  0.00     0.013 C 
ATOM     31  C   UNL A   1      28.028  31.942  21.221  1.00  0.00     0.001 C 
ATOM     32  C   UNL A   1      28.184  32.478  22.640  1.00  0.00     0.001 C 
ENDBRANCH  12  28
ENDBRANCH   3   6
ENDBRANCH   1   2
BRANCH   1  33
ATOM     33  C   UNL A   1      34.720  30.914  27.950  1.00  0.00     0.023 C 
BRANCH  33  34
ATOM     34  C   UNL A   1      33.474  31.797  27.999  1.00  0.00     0.023 C 
BRANCH  34  35
ATOM     35  C   UNL A   1      33.487  32.991  27.052  1.00  0.00     0.116 C 
BRANCH  35  36
ATOM     36  N   UNL A   1      32.885  34.184  27.628  1.00  0.00    -0.352 N 
ATOM     37  C   UNL A   1      33.216  34.859  28.780  1.00  0.00     0.251 C 
ATOM     38  H   UNL A   1      32.132  34.564  27.119  1.00  0.00     0.163 HD
ATOM     39  O   UNL A   1      32.523  35.784  29.180  1.00  0.00    -0.269 OA
BRANCH  37  40
ATOM     40  C   UNL A   1      34.399  34.432  29.556  1.00  0.00     0.039 A 
ATOM     41  C   UNL A   1      34.206  33.842  30.807  1.00  0.00     0.014 A 
ATOM     42  C   UNL A   1      35.687  34.577  29.034  1.00  0.00     0.014 A 
ATOM     43  C   UNL A   1      35.297  33.312  31.495  1.00  0.00     0.010 A 
ATOM     44  C   UNL A   1      36.764  33.984  29.686  1.00  0.00     0.010 A 
ATOM     45  C   UNL A   1      36.577  33.333  30.915  1.00  0.00    -0.014 A 
BRANCH  45  46
ATOM     46  C   UNL A   1      37.724  32.644  31.556  1.00  0.00     0.031 A 
ATOM     47  C   UNL A   1      38.374  31.469  30.888  1.00  0.00     0.074 A 
ATOM     48  C   UNL A   1      38.116  33.022  32.789  1.00  0.00     0.049 A 
ATOM     49  N   UNL A   1      39.320  30.682  31.334  1.00  0.00    -0.248 NA
ATOM     50  C   UNL A   1      37.872  31.111  29.553  1.00  0.00     0.031 C 
ATOM     51  C   UNL A   1      37.521  34.109  33.568  1.00  0.00     0.029 A 
ATOM     52  N   UNL A   1      39.091  32.517  33.612  1.00  0.00    -0.354 N 
ATOM     53  C   UNL A   1      39.519  29.732  30.341  1.00  0.00     0.074 A 
ATOM     54  C   UNL A   1      38.556  30.006  29.296  1.00  0.00     0.031 C 
ATOM     55  C   UNL A   1      38.147  34.194  34.752  1.00  0.00     0.029 A 
ATOM     56  C   UNL A   1      39.159  33.145  34.832  1.00  0.00     0.049 A 
ATOM     57  H   UNL A   1      39.685  31.776  33.353  1.00  0.00     0.167 HD
ATOM     58  C   UNL A   1      40.435  28.735  30.296  1.00  0.00     0.037 A 
ATOM     59  C   UNL A   1      39.935  32.894  35.903  1.00  0.00     0.037 A 
ATOM     60  C   UNL A   1      41.399  28.476  31.335  1.00  0.00     0.049 A 
ATOM     61  C   UNL A   1      40.941  31.779  35.835  1.00  0.00     0.074 A 
ATOM     62  C   UNL A   1      42.417  27.539  31.352  1.00  0.00     0.029 A 
ATOM     63  N   UNL A   1      41.455  29.148  32.547  1.00  0.00    -0.354 N 
ATOM     64  N   UNL A   1      41.179  30.939  34.857  1.00  0.00    -0.248 NA
ATOM     65  C   UNL A   1      41.792  31.580  37.017  1.00  0.00     0.031 C 
ATOM     66  C   UNL A   1      43.055  27.609  32.596  1.00  0.00     0.029 A 
ATOM     67  C   UNL A   1      42.470  28.626  33.334  1.00  0.00     0.049 A 
ATOM     68  H   UNL A   1      40.861  29.889  32.810  1.00  0.00     0.167 HD
ATOM     69  C   UNL A   1      42.211  30.122  35.297  1.00  0.00     0.074 A 
ATOM     70  C   UNL A   1      42.570  30.581  36.623  1.00  0.00     0.031 C 
ATOM     71  C   UNL A   1      42.806  29.084  34.658  1.00  0.00     0.037 A 
BRANCH  58  72
ATOM     72  C   UNL A   1      40.433  27.851  29.082  1.00  0.00     0.064 A 
ATOM     73  C   UNL A   1      41.200  28.156  27.948  1.00  0.00     0.173 A 
ATOM     74  C   UNL A   1      39.665  26.678  29.058  1.00  0.00     0.173 A 
ATOM     75  F   UNL A   1      41.944  29.272  27.915  1.00  0.00    -0.203 F 
ATOM     76  C   UNL A   1      41.165  27.343  26.818  1.00  0.00     0.198 A 
ATOM     77  C   UNL A   1      39.658  25.848  27.938  1.00  0.00     0.198 A 
ATOM     78  F   UNL A   1      38.918  26.334  30.117  1.00  0.00    -0.203 F 
ATOM     79  F   UNL A   1      41.857  27.689  25.724  1.00  0.00    -0.200 F 
ATOM     80  C   UNL A   1      40.399  26.188  26.815  1.00  0.00     0.200 A 
ATOM     81  F   UNL A   1      38.927  24.725  27.943  1.00  0.00    -0.200 F 
ATOM     82  F   UNL A   1      40.366  25.405  25.728  1.00  0.00    -0.200 F 
ENDBRANCH  58  72
BRANCH  59  83
ATOM     83  C   UNL A   1      39.788  33.726  37.125  1.00  0.00     0.064 A 
ATOM     84  C   UNL A   1      40.537  34.897  37.295  1.00  0.00     0.173 A 
ATOM     85  C   UNL A   1      38.875  33.380  38.132  1.00  0.00     0.173 A 
ATOM     86  F   UNL A   1      41.436  35.257  36.369  1.00  0.00    -0.203 F 
ATOM     87  C   UNL A   1      40.385  35.688  38.433  1.00  0.00     0.198 A 
ATOM     88  C   UNL A   1      38.704  34.186  39.256  1.00  0.00     0.198 A 
ATOM     89  F   UNL A   1      38.130  32.271  38.012  1.00  0.00    -0.203 F 
ATOM     90  F   UNL A   1      41.136  36.786  38.586  1.00  0.00    -0.200 F 
ATOM     91  C   UNL A   1      39.463  35.337  39.407  1.00  0.00     0.200 A 
ATOM     92  F   UNL A   1      37.801  33.851  40.187  1.00  0.00    -0.200 F 
ATOM     93  F   UNL A   1      39.308  36.105  40.494  1.00  0.00    -0.200 F 
ENDBRANCH  59  83
BRANCH  71  94
ATOM     94  C   UNL A   1      43.912  28.376  35.384  1.00  0.00     0.064 A 
ATOM     95  C   UNL A   1      45.251  28.769  35.242  1.00  0.00     0.173 A 
ATOM     96  C   UNL A   1      43.627  27.322  36.266  1.00  0.00     0.173 A 
ATOM     97  F   UNL A   1      45.578  29.760  34.398  1.00  0.00    -0.203 F 
ATOM     98  C   UNL A   1      46.266  28.120  35.941  1.00  0.00     0.198 A 
ATOM     99  C   UNL A   1      44.641  26.695  36.985  1.00  0.00     0.198 A 
ATOM    100  F   UNL A   1      42.363  26.910  36.441  1.00  0.00    -0.203 F 
ATOM    101  F   UNL A   1      47.543  28.484  35.758  1.00  0.00    -0.200 F 
ATOM    102  C   UNL A   1      45.959  27.090  36.818  1.00  0.00     0.200 A 
ATOM    103  F   UNL A   1      44.341  25.708  37.841  1.00  0.00    -0.200 F 
ATOM    104  F   UNL A   1      46.936  26.473  37.498  1.00  0.00    -0.200 F 
ENDBRANCH  71  94
ENDBRANCH  45  46
ENDBRANCH  37  40
ENDBRANCH  35  36
ENDBRANCH  34  35
ENDBRANCH  33  34
ENDBRANCH   1  33
TORSDOF 16
ENDMDL
MODEL 2
REMARK VINA RESULT:     -13.9      5.466     11.576
REMARK SMILES COc1ccc(-c2cc(CC3(C(=O)NCCCCNC(=O)c4ccc(-c5c6nc(c(-c7c(F)c(F)c(F)c(F)c7F)c7ccc([nH]7)c(-c7c(F)c(F)c(F)c(F)c7F)c7nc(c(-c8c(F)c(F)c(F)c(F)c8F)c8ccc5[nH]8)C=C7)C=C6)cc4)CCN(C(=O)C4CCCC4)CC3)on2)cc1
REMARK SMILES IDX 15 1 14 2 12 3 13 4 11 6 85 7 96 8 86 9 95 10 87 11 88 12
REMARK SMILES IDX 89 13 10 14 9 15 7 16 8 17 98 18 97 19 6 20 3 21 4 22 100 23
REMARK SMILES IDX 5 24 99 25 2 26 1 27 90 28 91 29 94 30 92 31 93 32 16 33
REMARK SMILES IDX 17 34 18 35 19 36 20 37 21 39 22 40 23 41 84 42 24 43 83 44
REMARK SMILES IDX 25 45 26 46 27 47 77 48 28 49 82 50 76 51 78 52 29 53 81 54
REMARK SMILES IDX 75 55 74 56 30 58 62 59 42 60 61 61 43 62 46 63 60 64 79 65
REMARK SMILES IDX 44 66 45 67 59 69 80 70 47 71 31 72 32 73 40 74 33 75 34 76
REMARK SMILES IDX 38 77 41 78 35 79 36 80 39 81 37 82 63 83 64 84 72 85 65 86
REMARK SMILES IDX 66 87 70 88 73 89 67 90 68 91 71 92 69 93 48 94 49 95 57 96
REMARK SMILES IDX 50 97 51 98 55 99 58 100 52 101 53 102 56 103 54 104
REMARK H PARENT 14 5 19 38 78 57 46 68
REMARK Flexibility Score: inf
ROOT
ATOM      1  C   UNL A   1      38.036  23.499  26.089  1.00  0.00     0.116 C 
ENDROOT
BRANCH   1   2
ATOM      2  N   UNL A   1      37.742  23.470  24.664  1.00  0.00    -0.356 N 
ATOM      3  C   UNL A   1      36.576  23.287  23.981  1.00  0.00     0.226 C 
ATOM      4  O   UNL A   1      36.659  23.324  22.751  1.00  0.00    -0.274 OA
ATOM      5  H   UNL A   1      38.528  23.608  24.088  1.00  0.00     0.163 HD
BRANCH   3   6
ATOM      6  C   UNL A   1      35.216  23.082  24.699  1.00  0.00     0.060 C 
ATOM      7  C   UNL A   1      34.109  22.914  23.620  1.00  0.00     0.039 C 
ATOM      8  C   UNL A   1      35.380  21.876  25.666  1.00  0.00     0.039 C 
ATOM      9  C   UNL A   1      32.968  21.959  23.961  1.00  0.00     0.120 C 
ATOM     10  C   UNL A   1      34.115  21.069  25.921  1.00  0.00     0.120 C 
ATOM     11  N   UNL A   1      33.411  20.773  24.685  1.00  0.00    -0.342 N 
ATOM     12  C   UNL A   1      32.955  19.535  24.255  1.00  0.00     0.225 C 
ATOM     13  O   UNL A   1      32.289  19.429  23.218  1.00  0.00    -0.275 OA
BRANCH   6  14
ATOM     14  C   UNL A   1      34.960  24.389  25.524  1.00  0.00     0.095 C 
BRANCH  14  15
ATOM     15  C   UNL A   1      33.624  25.002  25.323  1.00  0.00     0.138 A 
ATOM     16  C   UNL A   1      31.780  26.119  24.870  1.00  0.00     0.114 A 
ATOM     17  C   UNL A   1      33.115  25.924  24.441  1.00  0.00     0.077 A 
ATOM     18  N   UNL A   1      31.494  25.333  25.916  1.00  0.00    -0.080 NA
ATOM     19  O   UNL A   1      32.638  24.605  26.168  1.00  0.00    -0.361 OA
BRANCH  16  20
ATOM     20  C   UNL A   1      30.787  27.008  24.303  1.00  0.00     0.004 A 
ATOM     21  C   UNL A   1      28.920  28.720  23.126  1.00  0.00     0.118 A 
ATOM     22  C   UNL A   1      28.543  27.430  23.501  1.00  0.00     0.047 A 
ATOM     23  C   UNL A   1      30.215  29.172  23.381  1.00  0.00     0.047 A 
ATOM     24  C   UNL A   1      29.478  26.566  24.076  1.00  0.00     0.014 A 
ATOM     25  C   UNL A   1      31.148  28.316  23.968  1.00  0.00     0.014 A 
BRANCH  21  26
ATOM     26  O   UNL A   1      27.946  29.493  22.554  1.00  0.00    -0.497 OA
ATOM     27  C   UNL A   1      27.653  30.679  23.290  1.00  0.00     0.278 C 
ENDBRANCH  21  26
ENDBRANCH  16  20
ENDBRANCH  14  15
ENDBRANCH   6  14
BRANCH  12  28
ATOM     28  C   UNL A   1      33.279  18.252  25.015  1.00  0.00     0.078 C 
ATOM     29  C   UNL A   1      32.171  17.205  25.001  1.00  0.00     0.013 C 
ATOM     30  C   UNL A   1      34.568  17.536  24.613  1.00  0.00     0.013 C 
ATOM     31  C   UNL A   1      32.885  15.911  25.350  1.00  0.00     0.001 C 
ATOM     32  C   UNL A   1      34.290  16.042  24.772  1.00  0.00     0.001 C 
ENDBRANCH  12  28
ENDBRANCH   3   6
ENDBRANCH   1   2
BRANCH   1  33
ATOM     33  C   UNL A   1      39.319  22.741  26.424  1.00  0.00     0.023 C 
BRANCH  33  34
ATOM     34  C   UNL A   1      39.448  21.375  25.750  1.00  0.00     0.023 C 
BRANCH  34  35
ATOM     35  C   UNL A   1      39.611  20.195  26.702  1.00  0.00     0.116 C 
BRANCH  35  36
ATOM     36  N   UNL A   1      40.562  19.203  26.224  1.00  0.00    -0.352 N 
ATOM     37  C   UNL A   1      41.908  19.334  25.975  1.00  0.00     0.251 C 
ATOM     38  H   UNL A   1      40.188  18.307  26.056  1.00  0.00     0.163 HD
ATOM     39  O   UNL A   1      42.537  18.420  25.459  1.00  0.00    -0.269 OA
BRANCH  37  40
ATOM     40  C   UNL A   1      42.585  20.607  26.299  1.00  0.00     0.039 A 
ATOM     41  C   UNL A   1      43.081  21.390  25.253  1.00  0.00     0.014 A 
ATOM     42  C   UNL A   1      42.693  21.042  27.621  1.00  0.00     0.014 A 
ATOM     43  C   UNL A   1      43.603  22.654  25.528  1.00  0.00     0.010 A 
ATOM     44  C   UNL A   1      43.145  22.332  27.886  1.00  0.00     0.010 A 
ATOM     45  C   UNL A   1      43.591  23.155  26.840  1.00  0.00    -0.014 A 
BRANCH  45  46
ATOM     46  C   UNL A   1      43.998  24.551  27.135  1.00  0.00     0.031 A 
ATOM     47  C   UNL A   1      42.988  25.553  27.610  1.00  0.00     0.074 A 
ATOM     48  C   UNL A   1      45.264  24.936  26.881  1.00  0.00     0.049 A 
ATOM     49  N   UNL A   1      43.133  26.836  27.827  1.00  0.00    -0.248 NA
ATOM     50  C   UNL A   1      41.626  25.053  27.843  1.00  0.00     0.031 C 
ATOM     51  C   UNL A   1      46.322  24.070  26.358  1.00  0.00     0.029 A 
ATOM     52  N   UNL A   1      45.869  26.162  27.005  1.00  0.00    -0.354 N 
ATOM     53  C   UNL A   1      41.882  27.297  28.210  1.00  0.00     0.074 A 
ATOM     54  C   UNL A   1      40.977  26.170  28.141  1.00  0.00     0.031 C 
ATOM     55  C   UNL A   1      47.446  24.789  26.212  1.00  0.00     0.029 A 
ATOM     56  C   UNL A   1      47.179  26.172  26.594  1.00  0.00     0.049 A 
ATOM     57  H   UNL A   1      45.408  26.958  27.357  1.00  0.00     0.167 HD
ATOM     58  C   UNL A   1      41.524  28.543  28.605  1.00  0.00     0.037 A 
ATOM     59  C   UNL A   1      48.063  27.185  26.514  1.00  0.00     0.037 A 
ATOM     60  C   UNL A   1      42.433  29.658  28.684  1.00  0.00     0.049 A 
ATOM     61  C   UNL A   1      47.644  28.561  26.950  1.00  0.00     0.074 A 
ATOM     62  C   UNL A   1      42.186  30.940  29.142  1.00  0.00     0.029 A 
ATOM     63  N   UNL A   1      43.760  29.626  28.282  1.00  0.00    -0.354 N 
ATOM     64  N   UNL A   1      46.479  28.969  27.392  1.00  0.00    -0.248 NA
ATOM     65  C   UNL A   1      48.664  29.618  26.883  1.00  0.00     0.031 C 
ATOM     66  C   UNL A   1      43.351  31.698  28.968  1.00  0.00     0.029 A 
ATOM     67  C   UNL A   1      44.338  30.874  28.451  1.00  0.00     0.049 A 
ATOM     68  H   UNL A   1      44.223  28.832  27.929  1.00  0.00     0.167 HD
ATOM     69  C   UNL A   1      46.627  30.321  27.667  1.00  0.00     0.074 A 
ATOM     70  C   UNL A   1      48.002  30.661  27.363  1.00  0.00     0.031 C 
ATOM     71  C   UNL A   1      45.705  31.202  28.130  1.00  0.00     0.037 A 
BRANCH  58  72
ATOM     72  C   UNL A   1      40.086  28.761  28.979  1.00  0.00     0.064 A 
ATOM     73  C   UNL A   1      39.635  28.598  30.297  1.00  0.00     0.173 A 
ATOM     74  C   UNL A   1      39.150  29.151  28.009  1.00  0.00     0.173 A 
ATOM     75  F   UNL A   1      40.487  28.216  31.260  1.00  0.00    -0.203 F 
ATOM     76  C   UNL A   1      38.292  28.775  30.623  1.00  0.00     0.198 A 
ATOM     77  C   UNL A   1      37.814  29.359  28.346  1.00  0.00     0.198 A 
ATOM     78  F   UNL A   1      39.527  29.328  26.735  1.00  0.00    -0.203 F 
ATOM     79  F   UNL A   1      37.875  28.552  31.877  1.00  0.00    -0.200 F 
ATOM     80  C   UNL A   1      37.385  29.160  29.650  1.00  0.00     0.200 A 
ATOM     81  F   UNL A   1      36.940  29.745  27.406  1.00  0.00    -0.200 F 
ATOM     82  F   UNL A   1      36.093  29.330  29.965  1.00  0.00    -0.200 F 
ENDBRANCH  58  72
BRANCH  59  83
ATOM     83  C   UNL A   1      49.434  26.922  26.004  1.00  0.00     0.064 A 
ATOM     84  C   UNL A   1      50.455  26.498  26.864  1.00  0.00     0.173 A 
ATOM     85  C   UNL A   1      49.740  27.062  24.642  1.00  0.00     0.173 A 
ATOM     86  F   UNL A   1      50.213  26.368  28.176  1.00  0.00    -0.203 F 
ATOM     87  C   UNL A   1      51.735  26.232  26.382  1.00  0.00     0.198 A 
ATOM     88  C   UNL A   1      51.014  26.770  24.158  1.00  0.00     0.198 A 
ATOM     89  F   UNL A   1      48.795  27.460  23.778  1.00  0.00    -0.203 F 
ATOM     90  F   UNL A   1      52.702  25.858  27.230  1.00  0.00    -0.200 F 
ATOM     91  C   UNL A   1      52.012  26.360  25.029  1.00  0.00     0.200 A 
ATOM     92  F   UNL A   1      51.271  26.881  22.848  1.00  0.00    -0.200 F 
ATOM     93  F   UNL A   1      53.239  26.091  24.565  1.00  0.00    -0.200 F 
ENDBRANCH  59  83
BRANCH  71  94
ATOM     94  C   UNL A   1      46.153  32.617  28.341  1.00  0.00     0.064 A 
ATOM     95  C   UNL A   1      46.728  33.032  29.552  1.00  0.00     0.173 A 
ATOM     96  C   UNL A   1      46.050  33.560  27.306  1.00  0.00     0.173 A 
ATOM     97  F   UNL A   1      46.834  32.173  30.577  1.00  0.00    -0.203 F 
ATOM     98  C   UNL A   1      47.164  34.343  29.726  1.00  0.00     0.198 A 
ATOM     99  C   UNL A   1      46.514  34.863  27.475  1.00  0.00     0.198 A 
ATOM    100  F   UNL A   1      45.512  33.214  26.128  1.00  0.00    -0.203 F 
ATOM    101  F   UNL A   1      47.671  34.728  30.905  1.00  0.00    -0.200 F 
ATOM    102  C   UNL A   1      47.064  35.254  28.685  1.00  0.00     0.200 A 
ATOM    103  F   UNL A   1      46.428  35.737  26.463  1.00  0.00    -0.200 F 
ATOM    104  F   UNL A   1      47.494  36.513  28.851  1.00  0.00    -0.200 F 
ENDBRANCH  71  94
ENDBRANCH  45  46
ENDBRANCH  37  40
ENDBRANCH  35  36
ENDBRANCH  34  35
ENDBRANCH  33  34
ENDBRANCH   1  33
TORSDOF 16
ENDMDL
MODEL 3
REMARK VINA RESULT:     -13.7      5.005     10.447
REMARK SMILES COc1ccc(-c2cc(CC3(C(=O)NCCCCNC(=O)c4ccc(-c5c6nc(c(-c7c(F)c(F)c(F)c(F)c7F)c7ccc([nH]7)c(-c7c(F)c(F)c(F)c(F)c7F)c7nc(c(-c8c(F)c(F)c(F)c(F)c8F)c8ccc5[nH]8)C=C7)C=C6)cc4)CCN(C(=O)C4CCCC4)CC3)on2)cc1
REMARK SMILES IDX 15 1 14 2 12 3 13 4 11 6 85 7 96 8 86 9 95 10 87 11 88 12
REMARK SMILES IDX 89 13 10 14 9 15 7 16 8 17 98 18 97 19 6 20 3 21 4 22 100 23
REMARK SMILES IDX 5 24 99 25 2 26 1 27 90 28 91 29 94 30 92 31 93 32 16 33
REMARK SMILES IDX 17 34 18 35 19 36 20 37 21 39 22 40 23 41 84 42 24 43 83 44
REMARK SMILES IDX 25 45 26 46 27 47 77 48 28 49 82 50 76 51 78 52 29 53 81 54
REMARK SMILES IDX 75 55 74 56 30 58 62 59 42 60 61 61 43 62 46 63 60 64 79 65
REMARK SMILES IDX 44 66 45 67 59 69 80 70 47 71 31 72 32 73 40 74 33 75 34 76
REMARK SMILES IDX 38 77 41 78 35 79 36 80 39 81 37 82 63 83 64 84 72 85 65 86
REMARK SMILES IDX 66 87 70 88 73 89 67 90 68 91 71 92 69 93 48 94 49 95 57 96
REMARK SMILES IDX 50 97 51 98 55 99 58 100 52 101 53 102 56 103 54 104
REMARK H PARENT 14 5 19 38 78 57 46 68
REMARK Flexibility Score: inf
ROOT
ATOM      1  C   UNL A   1      38.145  23.527  26.074  1.00  0.00     0.116 C 
ENDROOT
BRANCH   1   2
ATOM      2  N   UNL A   1      37.781  23.501  24.665  1.00  0.00    -0.356 N 
ATOM      3  C   UNL A   1      36.591  23.277  24.039  1.00  0.00     0.226 C 
ATOM      4  O   UNL A   1      36.611  23.330  22.806  1.00  0.00    -0.274 OA
ATOM      5  H   UNL A   1      38.531  23.677  24.053  1.00  0.00     0.163 HD
BRANCH   3   6
ATOM      6  C   UNL A   1      35.278  23.009  24.820  1.00  0.00     0.060 C 
ATOM      7  C   UNL A   1      34.109  22.907  23.800  1.00  0.00     0.039 C 
ATOM      8  C   UNL A   1      35.507  21.739  25.687  1.00  0.00     0.039 C 
ATOM      9  C   UNL A   1      32.995  21.921  24.140  1.00  0.00     0.120 C 
ATOM     10  C   UNL A   1      34.263  20.905  25.959  1.00  0.00     0.120 C 
ATOM     11  N   UNL A   1      33.487  20.691  24.750  1.00  0.00    -0.342 N 
ATOM     12  C   UNL A   1      33.012  19.482  24.261  1.00  0.00     0.225 C 
ATOM     13  O   UNL A   1      32.285  19.444  23.261  1.00  0.00    -0.275 OA
BRANCH   6  14
ATOM     14  C   UNL A   1      35.066  24.252  25.750  1.00  0.00     0.095 C 
BRANCH  14  15
ATOM     15  C   UNL A   1      33.840  25.039  25.470  1.00  0.00     0.138 A 
ATOM     16  C   UNL A   1      32.198  26.411  24.945  1.00  0.00     0.114 A 
ATOM     17  C   UNL A   1      33.551  26.107  24.656  1.00  0.00     0.077 A 
ATOM     18  N   UNL A   1      31.696  25.554  25.843  1.00  0.00    -0.080 NA
ATOM     19  O   UNL A   1      32.715  24.671  26.135  1.00  0.00    -0.361 OA
BRANCH  16  20
ATOM     20  C   UNL A   1      31.388  27.469  24.379  1.00  0.00     0.004 A 
ATOM     21  C   UNL A   1      29.903  29.553  23.257  1.00  0.00     0.118 A 
ATOM     22  C   UNL A   1      29.809  28.266  22.726  1.00  0.00     0.047 A 
ATOM     23  C   UNL A   1      30.701  29.791  24.377  1.00  0.00     0.047 A 
ATOM     24  C   UNL A   1      30.561  27.224  23.275  1.00  0.00     0.014 A 
ATOM     25  C   UNL A   1      31.444  28.750  24.936  1.00  0.00     0.014 A 
BRANCH  21  26
ATOM     26  O   UNL A   1      29.146  30.516  22.647  1.00  0.00    -0.497 OA
ATOM     27  C   UNL A   1      28.166  29.990  21.754  1.00  0.00     0.278 C 
ENDBRANCH  21  26
ENDBRANCH  16  20
ENDBRANCH  14  15
ENDBRANCH   6  14
BRANCH  12  28
ATOM     28  C   UNL A   1      33.388  18.151  24.907  1.00  0.00     0.078 C 
ATOM     29  C   UNL A   1      32.237  17.160  25.041  1.00  0.00     0.013 C 
ATOM     30  C   UNL A   1      34.551  17.394  24.266  1.00  0.00     0.013 C 
ATOM     31  C   UNL A   1      32.928  15.819  25.215  1.00  0.00     0.001 C 
ATOM     32  C   UNL A   1      34.221  15.910  24.414  1.00  0.00     0.001 C 
ENDBRANCH  12  28
ENDBRANCH   3   6
ENDBRANCH   1   2
BRANCH   1  33
ATOM     33  C   UNL A   1      39.395  22.696  26.358  1.00  0.00     0.023 C 
BRANCH  33  34
ATOM     34  C   UNL A   1      39.405  21.314  25.705  1.00  0.00     0.023 C 
BRANCH  34  35
ATOM     35  C   UNL A   1      39.750  20.158  26.637  1.00  0.00     0.116 C 
BRANCH  35  36
ATOM     36  N   UNL A   1      40.792  19.290  26.110  1.00  0.00    -0.352 N 
ATOM     37  C   UNL A   1      42.123  19.557  25.895  1.00  0.00     0.251 C 
ATOM     38  H   UNL A   1      40.501  18.379  25.874  1.00  0.00     0.163 HD
ATOM     39  O   UNL A   1      42.838  18.741  25.329  1.00  0.00    -0.269 OA
BRANCH  37  40
ATOM     40  C   UNL A   1      42.680  20.859  26.318  1.00  0.00     0.039 A 
ATOM     41  C   UNL A   1      43.153  21.737  25.340  1.00  0.00     0.014 A 
ATOM     42  C   UNL A   1      42.695  21.225  27.665  1.00  0.00     0.014 A 
ATOM     43  C   UNL A   1      43.558  23.021  25.706  1.00  0.00     0.010 A 
ATOM     44  C   UNL A   1      43.029  22.529  28.019  1.00  0.00     0.010 A 
ATOM     45  C   UNL A   1      43.449  23.444  27.041  1.00  0.00    -0.014 A 
BRANCH  45  46
ATOM     46  C   UNL A   1      43.729  24.848  27.429  1.00  0.00     0.031 A 
ATOM     47  C   UNL A   1      45.141  25.319  27.615  1.00  0.00     0.074 A 
ATOM     48  C   UNL A   1      42.700  25.673  27.708  1.00  0.00     0.049 A 
ATOM     49  N   UNL A   1      45.579  26.476  28.043  1.00  0.00    -0.248 NA
ATOM     50  C   UNL A   1      46.203  24.349  27.307  1.00  0.00     0.031 C 
ATOM     51  C   UNL A   1      41.284  25.313  27.627  1.00  0.00     0.029 A 
ATOM     52  N   UNL A   1      42.689  26.975  28.141  1.00  0.00    -0.354 N 
ATOM     53  C   UNL A   1      46.962  26.370  28.066  1.00  0.00     0.074 A 
ATOM     54  C   UNL A   1      47.289  25.018  27.665  1.00  0.00     0.031 C 
ATOM     55  C   UNL A   1      40.541  26.370  27.991  1.00  0.00     0.029 A 
ATOM     56  C   UNL A   1      41.426  27.467  28.368  1.00  0.00     0.049 A 
ATOM     57  H   UNL A   1      43.506  27.506  28.276  1.00  0.00     0.167 HD
ATOM     58  C   UNL A   1      47.878  27.320  28.373  1.00  0.00     0.037 A 
ATOM     59  C   UNL A   1      41.026  28.661  28.844  1.00  0.00     0.037 A 
ATOM     60  C   UNL A   1      47.546  28.668  28.760  1.00  0.00     0.049 A 
ATOM     61  C   UNL A   1      42.058  29.699  29.185  1.00  0.00     0.074 A 
ATOM     62  C   UNL A   1      48.400  29.725  29.019  1.00  0.00     0.029 A 
ATOM     63  N   UNL A   1      46.256  29.139  28.955  1.00  0.00    -0.354 N 
ATOM     64  N   UNL A   1      43.365  29.617  29.123  1.00  0.00    -0.248 NA
ATOM     65  C   UNL A   1      41.560  31.000  29.658  1.00  0.00     0.031 C 
ATOM     66  C   UNL A   1      47.628  30.821  29.422  1.00  0.00     0.029 A 
ATOM     67  C   UNL A   1      46.291  30.463  29.363  1.00  0.00     0.049 A 
ATOM     68  H   UNL A   1      45.436  28.610  28.823  1.00  0.00     0.167 HD
ATOM     69  C   UNL A   1      43.845  30.852  29.534  1.00  0.00     0.074 A 
ATOM     70  C   UNL A   1      42.689  31.675  29.823  1.00  0.00     0.031 C 
ATOM     71  C   UNL A   1      45.131  31.266  29.661  1.00  0.00     0.037 A 
BRANCH  58  72
ATOM     72  C   UNL A   1      49.326  26.929  28.305  1.00  0.00     0.064 A 
ATOM     73  C   UNL A   1      50.038  26.537  29.449  1.00  0.00     0.173 A 
ATOM     74  C   UNL A   1      50.008  26.934  27.079  1.00  0.00     0.173 A 
ATOM     75  F   UNL A   1      49.436  26.525  30.647  1.00  0.00    -0.203 F 
ATOM     76  C   UNL A   1      51.389  26.206  29.375  1.00  0.00     0.198 A 
ATOM     77  C   UNL A   1      51.352  26.570  27.004  1.00  0.00     0.198 A 
ATOM     78  F   UNL A   1      49.376  27.294  25.953  1.00  0.00    -0.203 F 
ATOM     79  F   UNL A   1      52.061  25.896  30.492  1.00  0.00    -0.200 F 
ATOM     80  C   UNL A   1      52.043  26.218  28.153  1.00  0.00     0.200 A 
ATOM     81  F   UNL A   1      51.978  26.569  25.820  1.00  0.00    -0.200 F 
ATOM     82  F   UNL A   1      53.342  25.899  28.084  1.00  0.00    -0.200 F 
ENDBRANCH  58  72
BRANCH  59  83
ATOM     83  C   UNL A   1      39.575  28.932  29.015  1.00  0.00     0.064 A 
ATOM     84  C   UNL A   1      38.951  28.768  30.258  1.00  0.00     0.173 A 
ATOM     85  C   UNL A   1      38.791  29.387  27.944  1.00  0.00     0.173 A 
ATOM     86  F   UNL A   1      39.656  28.315  31.305  1.00  0.00    -0.203 F 
ATOM     87  C   UNL A   1      37.594  29.041  30.423  1.00  0.00     0.198 A 
ATOM     88  C   UNL A   1      37.441  29.686  28.117  1.00  0.00     0.198 A 
ATOM     89  F   UNL A   1      39.343  29.566  26.735  1.00  0.00    -0.203 F 
ATOM     90  F   UNL A   1      37.015  28.845  31.615  1.00  0.00    -0.200 F 
ATOM     91  C   UNL A   1      36.842  29.508  29.355  1.00  0.00     0.200 A 
ATOM     92  F   UNL A   1      36.723  30.151  27.086  1.00  0.00    -0.200 F 
ATOM     93  F   UNL A   1      35.542  29.782  29.518  1.00  0.00    -0.200 F 
ENDBRANCH  59  83
BRANCH  71  94
ATOM     94  C   UNL A   1      45.356  32.674  30.128  1.00  0.00     0.064 A 
ATOM     95  C   UNL A   1      45.542  32.975  31.485  1.00  0.00     0.173 A 
ATOM     96  C   UNL A   1      45.431  33.728  29.204  1.00  0.00     0.173 A 
ATOM     97  F   UNL A   1      45.463  32.005  32.409  1.00  0.00    -0.203 F 
ATOM     98  C   UNL A   1      45.776  34.283  31.903  1.00  0.00     0.198 A 
ATOM     99  C   UNL A   1      45.694  35.030  29.623  1.00  0.00     0.198 A 
ATOM    100  F   UNL A   1      45.264  33.493  27.894  1.00  0.00    -0.203 F 
ATOM    101  F   UNL A   1      45.910  34.554  33.208  1.00  0.00    -0.200 F 
ATOM    102  C   UNL A   1      45.860  35.307  30.970  1.00  0.00     0.200 A 
ATOM    103  F   UNL A   1      45.787  36.016  28.720  1.00  0.00    -0.200 F 
ATOM    104  F   UNL A   1      46.096  36.564  31.373  1.00  0.00    -0.200 F 
ENDBRANCH  71  94
ENDBRANCH  45  46
ENDBRANCH  37  40
ENDBRANCH  35  36
ENDBRANCH  34  35
ENDBRANCH  33  34
ENDBRANCH   1  33
TORSDOF 16
ENDMDL
