MODEL 1
REMARK VINA RESULT:     -11.8      0.000      0.000
REMARK SMILES O=C(C[C@H]1C[C@H]2CC[C@@H](C1)[N@H+]2[C@@H]1CCCSC1)NCCCCNC(=O)c1ccc(-c2c3nc(c(-c4c(F)c(F)c(F)c(F)c4F)c4ccc([nH]4)c(-c4c(F)c(F)c(F)c(F)c4F)c4nc(c(-c5c(F)c(F)c(F)c(F)c5F)c5ccc2[nH]5)C=C4)C=C3)cc1
REMARK SMILES IDX 20 1 19 2 18 3 1 4 2 5 3 7 4 8 5 9 10 10 6 11 9 12 7 13
REMARK SMILES IDX 11 14 8 15 12 17 13 18 17 19 14 20 16 21 15 22 21 23 22 24
REMARK SMILES IDX 23 25 24 26 25 28 26 29 27 30 88 31 28 32 87 33 29 34 30 35
REMARK SMILES IDX 31 36 81 37 32 38 86 39 80 40 82 41 33 42 85 43 79 44 78 45
REMARK SMILES IDX 34 47 66 48 46 49 65 50 47 51 50 52 64 53 83 54 48 55 49 56
REMARK SMILES IDX 63 58 84 59 51 60 35 61 36 62 44 63 37 64 38 65 42 66 45 67
REMARK SMILES IDX 39 68 40 69 43 70 41 71 67 72 68 73 76 74 69 75 70 76 74 77
REMARK SMILES IDX 77 78 71 79 72 80 75 81 73 82 52 83 53 84 61 85 54 86 55 87
REMARK SMILES IDX 59 88 62 89 56 90 57 91 60 92 58 93
REMARK H PARENT 18 6 11 16 23 27 82 46 50 57
REMARK Flexibility Score: inf
ROOT
ATOM      1  C   UNL A   1      34.711  34.581  28.783  1.00  0.00     0.023 C 
ENDROOT
BRANCH   1   2
ATOM      2  C   UNL A   1      34.704  33.125  29.264  1.00  0.00     0.116 C 
BRANCH   2   3
ATOM      3  N   UNL A   1      33.970  32.296  28.339  1.00  0.00    -0.356 N 
ATOM      4  O   UNL A   1      35.574  30.721  27.880  1.00  0.00    -0.275 OA
ATOM      5  C   UNL A   1      34.433  31.141  27.757  1.00  0.00     0.220 C 
ATOM      6  H   UNL A   1      33.057  32.582  28.104  1.00  0.00     0.163 HD
BRANCH   5   7
ATOM      7  C   UNL A   1      33.363  30.439  26.927  1.00  0.00     0.104 C 
BRANCH   7   8
ATOM      8  C   UNL A   1      33.238  28.910  27.145  1.00  0.00     0.010 C 
ATOM      9  C   UNL A   1      31.804  28.330  27.176  1.00  0.00     0.069 C 
ATOM     10  C   UNL A   1      34.153  28.141  26.148  1.00  0.00     0.069 C 
ATOM     11  C   UNL A   1      31.312  27.734  25.851  1.00  0.00     0.185 C 
ATOM     12  C   UNL A   1      33.433  27.433  24.978  1.00  0.00     0.185 C 
ATOM     13  C   UNL A   1      31.391  28.691  24.655  1.00  0.00     0.071 C 
ATOM     14  N   UNL A   1      32.234  26.713  25.378  1.00  0.00    -0.327 N 
ATOM     15  C   UNL A   1      32.775  28.455  24.044  1.00  0.00     0.071 C 
ATOM     16  H   UNL A   1      31.889  26.214  24.557  1.00  0.00     0.348 HD
BRANCH  14  17
ATOM     17  C   UNL A   1      32.262  25.410  26.037  1.00  0.00     0.194 C 
ATOM     18  C   UNL A   1      33.531  24.558  25.867  1.00  0.00     0.067 C 
ATOM     19  C   UNL A   1      31.024  24.609  25.570  1.00  0.00     0.134 C 
ATOM     20  C   UNL A   1      33.506  23.314  26.753  1.00  0.00     0.017 C 
ATOM     21  S   UNL A   1      30.768  23.060  26.500  1.00  0.00    -0.156 SA
ATOM     22  C   UNL A   1      32.422  22.337  26.327  1.00  0.00     0.070 C 
ENDBRANCH  14  17
ENDBRANCH   7   8
ENDBRANCH   5   7
ENDBRANCH   2   3
ENDBRANCH   1   2
BRANCH   1  23
ATOM     23  C   UNL A   1      33.363  35.321  28.855  1.00  0.00     0.023 C 
BRANCH  23  24
ATOM     24  C   UNL A   1      33.330  36.579  29.719  1.00  0.00     0.116 C 
BRANCH  24  25
ATOM     25  N   UNL A   1      32.417  36.450  30.840  1.00  0.00    -0.352 N 
ATOM     26  C   UNL A   1      32.501  35.704  31.990  1.00  0.00     0.251 C 
ATOM     27  H   UNL A   1      31.597  36.988  30.762  1.00  0.00     0.163 HD
ATOM     28  O   UNL A   1      31.506  35.602  32.704  1.00  0.00    -0.269 OA
BRANCH  26  29
ATOM     29  C   UNL A   1      33.750  35.010  32.386  1.00  0.00     0.039 A 
ATOM     30  C   UNL A   1      33.655  33.693  32.850  1.00  0.00     0.014 A 
ATOM     31  C   UNL A   1      34.992  35.650  32.385  1.00  0.00     0.014 A 
ATOM     32  C   UNL A   1      34.802  33.004  33.261  1.00  0.00     0.010 A 
ATOM     33  C   UNL A   1      36.147  34.941  32.735  1.00  0.00     0.010 A 
ATOM     34  C   UNL A   1      36.065  33.611  33.178  1.00  0.00    -0.014 A 
BRANCH  34  35
ATOM     35  C   UNL A   1      37.300  32.862  33.536  1.00  0.00     0.031 A 
ATOM     36  C   UNL A   1      38.036  33.156  34.816  1.00  0.00     0.074 A 
ATOM     37  C   UNL A   1      37.791  31.941  32.683  1.00  0.00     0.049 A 
ATOM     38  N   UNL A   1      39.160  32.650  35.261  1.00  0.00    -0.248 NA
ATOM     39  C   UNL A   1      37.442  34.167  35.702  1.00  0.00     0.031 C 
ATOM     40  C   UNL A   1      37.194  31.582  31.396  1.00  0.00     0.029 A 
ATOM     41  N   UNL A   1      38.911  31.148  32.762  1.00  0.00    -0.354 N 
ATOM     42  C   UNL A   1      39.411  33.285  36.471  1.00  0.00     0.074 A 
ATOM     43  C   UNL A   1      38.349  34.250  36.666  1.00  0.00     0.031 C 
ATOM     44  C   UNL A   1      37.944  30.631  30.814  1.00  0.00     0.029 A 
ATOM     45  C   UNL A   1      39.097  30.346  31.663  1.00  0.00     0.049 A 
ATOM     46  H   UNL A   1      39.521  31.155  33.534  1.00  0.00     0.167 HD
ATOM     47  C   UNL A   1      40.422  33.070  37.349  1.00  0.00     0.037 A 
ATOM     48  C   UNL A   1      40.090  29.487  31.362  1.00  0.00     0.037 A 
ATOM     49  C   UNL A   1      41.473  32.102  37.161  1.00  0.00     0.049 A 
ATOM     50  C   UNL A   1      41.216  29.287  32.341  1.00  0.00     0.074 A 
ATOM     51  C   UNL A   1      42.513  31.781  38.016  1.00  0.00     0.029 A 
ATOM     52  N   UNL A   1      41.622  31.302  36.037  1.00  0.00    -0.354 N 
ATOM     53  N   UNL A   1      41.408  29.849  33.510  1.00  0.00    -0.248 NA
ATOM     54  C   UNL A   1      42.261  28.326  31.962  1.00  0.00     0.031 C 
ATOM     55  C   UNL A   1      43.321  30.827  37.388  1.00  0.00     0.029 A 
ATOM     56  C   UNL A   1      42.751  30.508  36.167  1.00  0.00     0.049 A 
ATOM     57  H   UNL A   1      41.016  31.300  35.261  1.00  0.00     0.167 HD
ATOM     58  C   UNL A   1      42.574  29.292  34.016  1.00  0.00     0.074 A 
ATOM     59  C   UNL A   1      43.038  28.333  33.035  1.00  0.00     0.031 C 
ATOM     60  C   UNL A   1      43.203  29.551  35.189  1.00  0.00     0.037 A 
BRANCH  47  61
ATOM     61  C   UNL A   1      40.445  33.900  38.601  1.00  0.00     0.064 A 
ATOM     62  C   UNL A   1      41.158  35.108  38.671  1.00  0.00     0.173 A 
ATOM     63  C   UNL A   1      39.708  33.510  39.730  1.00  0.00     0.173 A 
ATOM     64  F   UNL A   1      41.885  35.525  37.624  1.00  0.00    -0.203 F 
ATOM     65  C   UNL A   1      41.158  35.875  39.834  1.00  0.00     0.198 A 
ATOM     66  C   UNL A   1      39.684  34.297  40.879  1.00  0.00     0.198 A 
ATOM     67  F   UNL A   1      38.999  32.371  39.715  1.00  0.00    -0.203 F 
ATOM     68  F   UNL A   1      41.887  36.997  39.893  1.00  0.00    -0.200 F 
ATOM     69  C   UNL A   1      40.416  35.473  40.934  1.00  0.00     0.200 A 
ATOM     70  F   UNL A   1      38.952  33.915  41.935  1.00  0.00    -0.200 F 
ATOM     71  F   UNL A   1      40.409  36.216  42.048  1.00  0.00    -0.200 F 
ENDBRANCH  47  61
BRANCH  48  72
ATOM     72  C   UNL A   1      40.061  28.741  30.076  1.00  0.00     0.064 A 
ATOM     73  C   UNL A   1      39.450  27.483  29.984  1.00  0.00     0.173 A 
ATOM     74  C   UNL A   1      40.653  29.265  28.917  1.00  0.00     0.173 A 
ATOM     75  F   UNL A   1      38.891  26.929  31.070  1.00  0.00    -0.203 F 
ATOM     76  C   UNL A   1      39.451  26.767  28.788  1.00  0.00     0.198 A 
ATOM     77  C   UNL A   1      40.625  28.563  27.714  1.00  0.00     0.198 A 
ATOM     78  F   UNL A   1      41.246  30.467  28.949  1.00  0.00    -0.203 F 
ATOM     79  F   UNL A   1      38.905  25.545  28.741  1.00  0.00    -0.200 F 
ATOM     80  C   UNL A   1      40.033  27.311  27.653  1.00  0.00     0.200 A 
ATOM     81  F   UNL A   1      41.173  29.099  26.614  1.00  0.00    -0.200 F 
ATOM     82  F   UNL A   1      40.029  26.624  26.502  1.00  0.00    -0.200 F 
ENDBRANCH  48  72
BRANCH  60  83
ATOM     83  C   UNL A   1      44.442  28.760  35.499  1.00  0.00     0.064 A 
ATOM     84  C   UNL A   1      45.720  29.218  35.145  1.00  0.00     0.173 A 
ATOM     85  C   UNL A   1      44.351  27.542  36.192  1.00  0.00     0.173 A 
ATOM     86  F   UNL A   1      45.862  30.366  34.467  1.00  0.00    -0.203 F 
ATOM     87  C   UNL A   1      46.858  28.473  35.449  1.00  0.00     0.198 A 
ATOM     88  C   UNL A   1      45.492  26.817  36.524  1.00  0.00     0.198 A 
ATOM     89  F   UNL A   1      43.154  27.061  36.560  1.00  0.00    -0.203 F 
ATOM     90  F   UNL A   1      48.064  28.905  35.055  1.00  0.00    -0.200 F 
ATOM     91  C   UNL A   1      46.744  27.278  36.144  1.00  0.00     0.200 A 
ATOM     92  F   UNL A   1      45.381  25.671  37.209  1.00  0.00    -0.200 F 
ATOM     93  F   UNL A   1      47.840  26.568  36.443  1.00  0.00    -0.200 F 
ENDBRANCH  60  83
ENDBRANCH  34  35
ENDBRANCH  26  29
ENDBRANCH  24  25
ENDBRANCH  23  24
ENDBRANCH   1  23
TORSDOF 13
ENDMDL
MODEL 2
REMARK VINA RESULT:     -11.7      7.163     12.781
REMARK SMILES O=C(C[C@H]1C[C@H]2CC[C@@H](C1)[N@H+]2[C@@H]1CCCSC1)NCCCCNC(=O)c1ccc(-c2c3nc(c(-c4c(F)c(F)c(F)c(F)c4F)c4ccc([nH]4)c(-c4c(F)c(F)c(F)c(F)c4F)c4nc(c(-c5c(F)c(F)c(F)c(F)c5F)c5ccc2[nH]5)C=C4)C=C3)cc1
REMARK SMILES IDX 20 1 19 2 18 3 1 4 2 5 3 7 4 8 5 9 10 10 6 11 9 12 7 13
REMARK SMILES IDX 11 14 8 15 12 17 13 18 17 19 14 20 16 21 15 22 21 23 22 24
REMARK SMILES IDX 23 25 24 26 25 28 26 29 27 30 88 31 28 32 87 33 29 34 30 35
REMARK SMILES IDX 31 36 81 37 32 38 86 39 80 40 82 41 33 42 85 43 79 44 78 45
REMARK SMILES IDX 34 47 66 48 46 49 65 50 47 51 50 52 64 53 83 54 48 55 49 56
REMARK SMILES IDX 63 58 84 59 51 60 35 61 36 62 44 63 37 64 38 65 42 66 45 67
REMARK SMILES IDX 39 68 40 69 43 70 41 71 67 72 68 73 76 74 69 75 70 76 74 77
REMARK SMILES IDX 77 78 71 79 72 80 75 81 73 82 52 83 53 84 61 85 54 86 55 87
REMARK SMILES IDX 59 88 62 89 56 90 57 91 60 92 58 93
REMARK H PARENT 18 6 11 16 23 27 82 46 50 57
REMARK Flexibility Score: inf
ROOT
ATOM      1  C   UNL A   1      42.063  20.507  26.883  1.00  0.00     0.023 C 
ENDROOT
BRANCH   1   2
ATOM      2  C   UNL A   1      41.561  21.737  26.120  1.00  0.00     0.116 C 
BRANCH   2   3
ATOM      3  N   UNL A   1      40.165  21.585  25.786  1.00  0.00    -0.356 N 
ATOM      4  O   UNL A   1      39.287  23.317  27.006  1.00  0.00    -0.275 OA
ATOM      5  C   UNL A   1      39.146  22.403  26.207  1.00  0.00     0.220 C 
ATOM      6  H   UNL A   1      39.922  20.828  25.204  1.00  0.00     0.163 HD
BRANCH   5   7
ATOM      7  C   UNL A   1      37.808  22.039  25.573  1.00  0.00     0.104 C 
BRANCH   7   8
ATOM      8  C   UNL A   1      37.040  23.207  24.905  1.00  0.00     0.010 C 
ATOM      9  C   UNL A   1      36.337  22.896  23.562  1.00  0.00     0.069 C 
ATOM     10  C   UNL A   1      36.071  23.875  25.925  1.00  0.00     0.069 C 
ATOM     11  C   UNL A   1      34.845  22.561  23.668  1.00  0.00     0.185 C 
ATOM     12  C   UNL A   1      34.569  23.563  25.733  1.00  0.00     0.185 C 
ATOM     13  C   UNL A   1      34.518  21.411  24.629  1.00  0.00     0.071 C 
ATOM     14  N   UNL A   1      34.129  23.628  24.348  1.00  0.00    -0.327 N 
ATOM     15  C   UNL A   1      34.284  22.079  25.986  1.00  0.00     0.071 C 
ATOM     16  H   UNL A   1      33.117  23.496  24.344  1.00  0.00     0.348 HD
BRANCH  14  17
ATOM     17  C   UNL A   1      33.872  24.882  23.645  1.00  0.00     0.194 C 
ATOM     18  C   UNL A   1      33.653  26.141  24.502  1.00  0.00     0.067 C 
ATOM     19  C   UNL A   1      32.660  24.666  22.709  1.00  0.00     0.134 C 
ATOM     20  C   UNL A   1      33.582  27.405  23.647  1.00  0.00     0.017 C 
ATOM     21  S   UNL A   1      32.371  26.058  21.564  1.00  0.00    -0.156 SA
ATOM     22  C   UNL A   1      32.348  27.422  22.760  1.00  0.00     0.070 C 
ENDBRANCH  14  17
ENDBRANCH   7   8
ENDBRANCH   5   7
ENDBRANCH   2   3
ENDBRANCH   1   2
BRANCH   1  23
ATOM     23  C   UNL A   1      42.259  19.229  26.048  1.00  0.00     0.023 C 
BRANCH  23  24
ATOM     24  C   UNL A   1      43.620  18.547  26.171  1.00  0.00     0.116 C 
BRANCH  24  25
ATOM     25  N   UNL A   1      44.303  18.455  24.893  1.00  0.00    -0.352 N 
ATOM     26  C   UNL A   1      44.815  19.428  24.072  1.00  0.00     0.251 C 
ATOM     27  H   UNL A   1      44.419  17.537  24.558  1.00  0.00     0.163 HD
ATOM     28  O   UNL A   1      45.173  19.120  22.938  1.00  0.00    -0.269 OA
BRANCH  26  29
ATOM     29  C   UNL A   1      44.934  20.841  24.508  1.00  0.00     0.039 A 
ATOM     30  C   UNL A   1      45.527  21.101  25.749  1.00  0.00     0.014 A 
ATOM     31  C   UNL A   1      44.407  21.899  23.763  1.00  0.00     0.014 A 
ATOM     32  C   UNL A   1      45.637  22.415  26.217  1.00  0.00     0.010 A 
ATOM     33  C   UNL A   1      44.576  23.217  24.200  1.00  0.00     0.010 A 
ATOM     34  C   UNL A   1      45.191  23.491  25.432  1.00  0.00    -0.014 A 
BRANCH  34  35
ATOM     35  C   UNL A   1      45.377  24.897  25.884  1.00  0.00     0.031 A 
ATOM     36  C   UNL A   1      46.728  25.556  25.815  1.00  0.00     0.074 A 
ATOM     37  C   UNL A   1      44.333  25.572  26.404  1.00  0.00     0.049 A 
ATOM     38  N   UNL A   1      47.090  26.749  26.221  1.00  0.00    -0.248 NA
ATOM     39  C   UNL A   1      47.821  24.765  25.231  1.00  0.00     0.031 C 
ATOM     40  C   UNL A   1      42.978  25.041  26.558  1.00  0.00     0.029 A 
ATOM     41  N   UNL A   1      44.249  26.847  26.912  1.00  0.00    -0.354 N 
ATOM     42  C   UNL A   1      48.450  26.846  25.950  1.00  0.00     0.074 A 
ATOM     43  C   UNL A   1      48.858  25.575  25.392  1.00  0.00     0.031 C 
ATOM     44  C   UNL A   1      42.196  25.984  27.108  1.00  0.00     0.029 A 
ATOM     45  C   UNL A   1      43.001  27.170  27.385  1.00  0.00     0.049 A 
ATOM     46  H   UNL A   1      45.012  27.468  26.934  1.00  0.00     0.167 HD
ATOM     47  C   UNL A   1      49.277  27.905  26.132  1.00  0.00     0.037 A 
ATOM     48  C   UNL A   1      42.555  28.288  27.990  1.00  0.00     0.037 A 
ATOM     49  C   UNL A   1      48.869  29.175  26.676  1.00  0.00     0.049 A 
ATOM     50  C   UNL A   1      43.502  29.439  28.206  1.00  0.00     0.074 A 
ATOM     51  C   UNL A   1      49.625  30.321  26.855  1.00  0.00     0.029 A 
ATOM     52  N   UNL A   1      47.593  29.466  27.138  1.00  0.00    -0.354 N 
ATOM     53  N   UNL A   1      44.769  29.540  27.888  1.00  0.00    -0.248 NA
ATOM     54  C   UNL A   1      42.951  30.636  28.857  1.00  0.00     0.031 C 
ATOM     55  C   UNL A   1      48.823  31.286  27.473  1.00  0.00     0.029 A 
ATOM     56  C   UNL A   1      47.550  30.765  27.624  1.00  0.00     0.049 A 
ATOM     57  H   UNL A   1      46.832  28.842  27.124  1.00  0.00     0.167 HD
ATOM     58  C   UNL A   1      45.160  30.815  28.273  1.00  0.00     0.074 A 
ATOM     59  C   UNL A   1      43.989  31.460  28.832  1.00  0.00     0.031 C 
ATOM     60  C   UNL A   1      46.379  31.400  28.172  1.00  0.00     0.037 A 
BRANCH  47  61
ATOM     61  C   UNL A   1      50.718  27.738  25.737  1.00  0.00     0.064 A 
ATOM     62  C   UNL A   1      51.143  27.918  24.411  1.00  0.00     0.173 A 
ATOM     63  C   UNL A   1      51.693  27.439  26.701  1.00  0.00     0.173 A 
ATOM     64  F   UNL A   1      50.252  28.198  23.448  1.00  0.00    -0.203 F 
ATOM     65  C   UNL A   1      52.484  27.774  24.062  1.00  0.00     0.198 A 
ATOM     66  C   UNL A   1      53.037  27.329  26.353  1.00  0.00     0.198 A 
ATOM     67  F   UNL A   1      51.345  27.266  27.985  1.00  0.00    -0.203 F 
ATOM     68  F   UNL A   1      52.858  27.902  22.781  1.00  0.00    -0.200 F 
ATOM     69  C   UNL A   1      53.430  27.487  25.034  1.00  0.00     0.200 A 
ATOM     70  F   UNL A   1      53.952  27.067  27.297  1.00  0.00    -0.200 F 
ATOM     71  F   UNL A   1      54.721  27.358  24.697  1.00  0.00    -0.200 F 
ENDBRANCH  47  61
BRANCH  48  72
ATOM     72  C   UNL A   1      41.138  28.379  28.430  1.00  0.00     0.064 A 
ATOM     73  C   UNL A   1      40.149  28.896  27.580  1.00  0.00     0.173 A 
ATOM     74  C   UNL A   1      40.744  27.961  29.710  1.00  0.00     0.173 A 
ATOM     75  F   UNL A   1      40.480  29.330  26.355  1.00  0.00    -0.203 F 
ATOM     76  C   UNL A   1      38.826  29.013  28.002  1.00  0.00     0.198 A 
ATOM     77  C   UNL A   1      39.415  28.048  30.119  1.00  0.00     0.198 A 
ATOM     78  F   UNL A   1      41.648  27.454  30.559  1.00  0.00    -0.203 F 
ATOM     79  F   UNL A   1      37.912  29.559  27.189  1.00  0.00    -0.200 F 
ATOM     80  C   UNL A   1      38.459  28.583  29.268  1.00  0.00     0.200 A 
ATOM     81  F   UNL A   1      39.061  27.615  31.337  1.00  0.00    -0.200 F 
ATOM     82  F   UNL A   1      37.186  28.691  29.671  1.00  0.00    -0.200 F 
ENDBRANCH  48  72
BRANCH  60  83
ATOM     83  C   UNL A   1      46.505  32.823  28.639  1.00  0.00     0.064 A 
ATOM     84  C   UNL A   1      46.875  33.139  29.955  1.00  0.00     0.173 A 
ATOM     85  C   UNL A   1      46.285  33.884  27.747  1.00  0.00     0.173 A 
ATOM     86  F   UNL A   1      47.081  32.164  30.852  1.00  0.00    -0.203 F 
ATOM     87  C   UNL A   1      46.995  34.466  30.366  1.00  0.00     0.198 A 
ATOM     88  C   UNL A   1      46.438  35.207  28.152  1.00  0.00     0.198 A 
ATOM     89  F   UNL A   1      45.935  33.638  26.476  1.00  0.00    -0.203 F 
ATOM     90  F   UNL A   1      47.299  34.744  31.641  1.00  0.00    -0.200 F 
ATOM     91  C   UNL A   1      46.784  35.497  29.463  1.00  0.00     0.200 A 
ATOM     92  F   UNL A   1      46.249  36.202  27.274  1.00  0.00    -0.200 F 
ATOM     93  F   UNL A   1      46.907  36.771  29.859  1.00  0.00    -0.200 F 
ENDBRANCH  60  83
ENDBRANCH  34  35
ENDBRANCH  26  29
ENDBRANCH  24  25
ENDBRANCH  23  24
ENDBRANCH   1  23
TORSDOF 13
ENDMDL
MODEL 3
REMARK VINA RESULT:     -11.6      1.827      7.793
REMARK SMILES O=C(C[C@H]1C[C@H]2CC[C@@H](C1)[N@H+]2[C@@H]1CCCSC1)NCCCCNC(=O)c1ccc(-c2c3nc(c(-c4c(F)c(F)c(F)c(F)c4F)c4ccc([nH]4)c(-c4c(F)c(F)c(F)c(F)c4F)c4nc(c(-c5c(F)c(F)c(F)c(F)c5F)c5ccc2[nH]5)C=C4)C=C3)cc1
REMARK SMILES IDX 20 1 19 2 18 3 1 4 2 5 3 7 4 8 5 9 10 10 6 11 9 12 7 13
REMARK SMILES IDX 11 14 8 15 12 17 13 18 17 19 14 20 16 21 15 22 21 23 22 24
REMARK SMILES IDX 23 25 24 26 25 28 26 29 27 30 88 31 28 32 87 33 29 34 30 35
REMARK SMILES IDX 31 36 81 37 32 38 86 39 80 40 82 41 33 42 85 43 79 44 78 45
REMARK SMILES IDX 34 47 66 48 46 49 65 50 47 51 50 52 64 53 83 54 48 55 49 56
REMARK SMILES IDX 63 58 84 59 51 60 35 61 36 62 44 63 37 64 38 65 42 66 45 67
REMARK SMILES IDX 39 68 40 69 43 70 41 71 67 72 68 73 76 74 69 75 70 76 74 77
REMARK SMILES IDX 77 78 71 79 72 80 75 81 73 82 52 83 53 84 61 85 54 86 55 87
REMARK SMILES IDX 59 88 62 89 56 90 57 91 60 92 58 93
REMARK H PARENT 18 6 11 16 23 27 82 46 50 57
REMARK Flexibility Score: inf
ROOT
ATOM      1  C   UNL A   1      31.258  31.056  25.688  1.00  0.00     0.023 C 
ENDROOT
BRANCH   1   2
ATOM      2  C   UNL A   1      32.216  29.978  26.204  1.00  0.00     0.116 C 
BRANCH   2   3
ATOM      3  N   UNL A   1      31.705  28.664  25.894  1.00  0.00    -0.356 N 
ATOM      4  O   UNL A   1      31.442  27.842  28.019  1.00  0.00    -0.275 OA
ATOM      5  C   UNL A   1      31.314  27.719  26.810  1.00  0.00     0.220 C 
ATOM      6  H   UNL A   1      31.630  28.424  24.942  1.00  0.00     0.163 HD
BRANCH   5   7
ATOM      7  C   UNL A   1      30.705  26.486  26.150  1.00  0.00     0.104 C 
BRANCH   7   8
ATOM      8  C   UNL A   1      31.548  25.189  26.242  1.00  0.00     0.010 C 
ATOM      9  C   UNL A   1      30.813  23.863  25.929  1.00  0.00     0.069 C 
ATOM     10  C   UNL A   1      32.860  25.332  25.417  1.00  0.00     0.069 C 
ATOM     11  C   UNL A   1      30.983  23.344  24.496  1.00  0.00     0.185 C 
ATOM     12  C   UNL A   1      32.905  24.560  24.079  1.00  0.00     0.185 C 
ATOM     13  C   UNL A   1      30.591  24.349  23.406  1.00  0.00     0.071 C 
ATOM     14  N   UNL A   1      32.392  23.202  24.169  1.00  0.00    -0.327 N 
ATOM     15  C   UNL A   1      31.876  25.120  23.091  1.00  0.00     0.071 C 
ATOM     16  H   UNL A   1      32.549  22.756  23.264  1.00  0.00     0.348 HD
BRANCH  14  17
ATOM     17  C   UNL A   1      33.153  22.092  24.737  1.00  0.00     0.194 C 
ATOM     18  C   UNL A   1      34.641  21.991  24.365  1.00  0.00     0.067 C 
ATOM     19  C   UNL A   1      32.428  20.776  24.370  1.00  0.00     0.134 C 
ATOM     20  C   UNL A   1      35.357  20.906  25.168  1.00  0.00     0.017 C 
ATOM     21  S   UNL A   1      33.103  19.312  25.225  1.00  0.00    -0.156 SA
ATOM     22  C   UNL A   1      34.858  19.515  24.813  1.00  0.00     0.070 C 
ENDBRANCH  14  17
ENDBRANCH   7   8
ENDBRANCH   5   7
ENDBRANCH   2   3
ENDBRANCH   1   2
BRANCH   1  23
ATOM     23  C   UNL A   1      31.156  32.333  26.541  1.00  0.00     0.023 C 
BRANCH  23  24
ATOM     24  C   UNL A   1      32.458  32.828  27.170  1.00  0.00     0.116 C 
BRANCH  24  25
ATOM     25  N   UNL A   1      32.357  34.202  27.626  1.00  0.00    -0.352 N 
ATOM     26  C   UNL A   1      33.032  34.877  28.612  1.00  0.00     0.251 C 
ATOM     27  H   UNL A   1      31.689  34.743  27.147  1.00  0.00     0.163 HD
ATOM     28  O   UNL A   1      32.632  35.988  28.953  1.00  0.00    -0.269 OA
BRANCH  26  29
ATOM     29  C   UNL A   1      34.221  34.300  29.286  1.00  0.00     0.039 A 
ATOM     30  C   UNL A   1      34.026  33.594  30.479  1.00  0.00     0.014 A 
ATOM     31  C   UNL A   1      35.520  34.504  28.814  1.00  0.00     0.014 A 
ATOM     32  C   UNL A   1      35.119  33.053  31.166  1.00  0.00     0.010 A 
ATOM     33  C   UNL A   1      36.605  33.909  29.465  1.00  0.00     0.010 A 
ATOM     34  C   UNL A   1      36.418  33.178  30.649  1.00  0.00    -0.014 A 
BRANCH  34  35
ATOM     35  C   UNL A   1      37.578  32.539  31.329  1.00  0.00     0.031 A 
ATOM     36  C   UNL A   1      38.314  31.395  30.684  1.00  0.00     0.074 A 
ATOM     37  C   UNL A   1      37.944  32.959  32.556  1.00  0.00     0.049 A 
ATOM     38  N   UNL A   1      39.304  30.676  31.155  1.00  0.00    -0.248 NA
ATOM     39  C   UNL A   1      37.866  30.993  29.343  1.00  0.00     0.031 C 
ATOM     40  C   UNL A   1      37.296  34.035  33.307  1.00  0.00     0.029 A 
ATOM     41  N   UNL A   1      38.941  32.522  33.395  1.00  0.00    -0.354 N 
ATOM     42  C   UNL A   1      39.590  29.734  30.174  1.00  0.00     0.074 A 
ATOM     43  C   UNL A   1      38.636  29.941  29.104  1.00  0.00     0.031 C 
ATOM     44  C   UNL A   1      37.920  34.185  34.487  1.00  0.00     0.029 A 
ATOM     45  C   UNL A   1      38.982  33.189  34.596  1.00  0.00     0.049 A 
ATOM     46  H   UNL A   1      39.566  31.801  33.158  1.00  0.00     0.167 HD
ATOM     47  C   UNL A   1      40.569  28.797  30.158  1.00  0.00     0.037 A 
ATOM     48  C   UNL A   1      39.773  33.010  35.671  1.00  0.00     0.037 A 
ATOM     49  C   UNL A   1      41.526  28.599  31.217  1.00  0.00     0.049 A 
ATOM     50  C   UNL A   1      40.834  31.943  35.639  1.00  0.00     0.074 A 
ATOM     51  C   UNL A   1      42.583  27.706  31.269  1.00  0.00     0.029 A 
ATOM     52  N   UNL A   1      41.539  29.299  32.414  1.00  0.00    -0.354 N 
ATOM     53  N   UNL A   1      41.134  31.101  34.680  1.00  0.00    -0.248 NA
ATOM     54  C   UNL A   1      41.675  31.808  36.837  1.00  0.00     0.031 C 
ATOM     55  C   UNL A   1      43.201  27.828  32.518  1.00  0.00     0.029 A 
ATOM     56  C   UNL A   1      42.569  28.840  33.221  1.00  0.00     0.049 A 
ATOM     57  H   UNL A   1      40.909  30.016  32.656  1.00  0.00     0.167 HD
ATOM     58  C   UNL A   1      42.211  30.358  35.146  1.00  0.00     0.074 A 
ATOM     59  C   UNL A   1      42.525  30.861  36.467  1.00  0.00     0.031 C 
ATOM     60  C   UNL A   1      42.879  29.351  34.532  1.00  0.00     0.037 A 
BRANCH  47  61
ATOM     61  C   UNL A   1      40.660  27.906  28.951  1.00  0.00     0.064 A 
ATOM     62  C   UNL A   1      39.875  26.748  28.829  1.00  0.00     0.173 A 
ATOM     63  C   UNL A   1      41.507  28.237  27.881  1.00  0.00     0.173 A 
ATOM     64  F   UNL A   1      39.054  26.382  29.825  1.00  0.00    -0.203 F 
ATOM     65  C   UNL A   1      39.959  25.940  27.698  1.00  0.00     0.198 A 
ATOM     66  C   UNL A   1      41.563  27.444  26.737  1.00  0.00     0.198 A 
ATOM     67  F   UNL A   1      42.272  29.337  27.938  1.00  0.00    -0.203 F 
ATOM     68  F   UNL A   1      39.237  24.813  27.628  1.00  0.00    -0.200 F 
ATOM     69  C   UNL A   1      40.796  26.292  26.651  1.00  0.00     0.200 A 
ATOM     70  F   UNL A   1      42.360  27.794  25.719  1.00  0.00    -0.200 F 
ATOM     71  F   UNL A   1      40.869  25.518  25.559  1.00  0.00    -0.200 F 
ENDBRANCH  47  61
BRANCH  48  72
ATOM     72  C   UNL A   1      39.597  33.869  36.872  1.00  0.00     0.064 A 
ATOM     73  C   UNL A   1      38.837  33.433  37.967  1.00  0.00     0.173 A 
ATOM     74  C   UNL A   1      40.175  35.145  36.946  1.00  0.00     0.173 A 
ATOM     75  F   UNL A   1      38.246  32.230  37.935  1.00  0.00    -0.203 F 
ATOM     76  C   UNL A   1      38.644  34.249  39.080  1.00  0.00     0.198 A 
ATOM     77  C   UNL A   1      40.007  35.948  38.072  1.00  0.00     0.198 A 
ATOM     78  F   UNL A   1      40.915  35.608  35.929  1.00  0.00    -0.203 F 
ATOM     79  F   UNL A   1      37.871  33.829  40.090  1.00  0.00    -0.200 F 
ATOM     80  C   UNL A   1      39.234  35.503  39.134  1.00  0.00     0.200 A 
ATOM     81  F   UNL A   1      40.594  37.151  38.129  1.00  0.00    -0.200 F 
ATOM     82  F   UNL A   1      39.052  36.285  40.207  1.00  0.00    -0.200 F 
ENDBRANCH  48  72
BRANCH  60  83
ATOM     83  C   UNL A   1      44.044  28.747  35.265  1.00  0.00     0.064 A 
ATOM     84  C   UNL A   1      45.355  29.215  35.083  1.00  0.00     0.173 A 
ATOM     85  C   UNL A   1      43.841  27.709  36.187  1.00  0.00     0.173 A 
ATOM     86  F   UNL A   1      45.607  30.193  34.201  1.00  0.00    -0.203 F 
ATOM     87  C   UNL A   1      46.421  28.647  35.778  1.00  0.00     0.198 A 
ATOM     88  C   UNL A   1      44.904  27.167  36.905  1.00  0.00     0.198 A 
ATOM     89  F   UNL A   1      42.607  27.229  36.404  1.00  0.00    -0.203 F 
ATOM     90  F   UNL A   1      47.670  29.075  35.549  1.00  0.00    -0.200 F 
ATOM     91  C   UNL A   1      46.194  27.630  36.693  1.00  0.00     0.200 A 
ATOM     92  F   UNL A   1      44.680  26.195  37.800  1.00  0.00    -0.200 F 
ATOM     93  F   UNL A   1      47.219  27.091  37.366  1.00  0.00    -0.200 F 
ENDBRANCH  60  83
ENDBRANCH  34  35
ENDBRANCH  26  29
ENDBRANCH  24  25
ENDBRANCH  23  24
ENDBRANCH   1  23
TORSDOF 13
ENDMDL
