MODEL 1
REMARK VINA RESULT:     -11.5      0.000      0.000
REMARK SMILES CCC[C@H]([NH2+]Cc1nc(C(C)(C)C)cs1)C(=O)NCCCCNC(=O)c1ccc(-c2c3nc(c(-c4c(F)c(F)c(F)c(F)c4F)c4ccc([nH]4)c(-c4c(F)c(F)c(F)c(F)c4F)c4nc(c(-c5c(F)c(F)c(F)c(F)c5F)c5ccc2[nH]5)C=C4)C=C3)cc1
REMARK SMILES IDX 19 1 18 2 16 3 17 4 4 6 3 7 2 8 1 9 5 10 6 13 7 14 8 15
REMARK SMILES IDX 15 16 9 17 14 18 10 19 11 20 12 21 13 22 20 23 21 24 22 25
REMARK SMILES IDX 23 26 24 27 25 29 26 30 27 31 88 32 28 33 87 34 29 35 30 36
REMARK SMILES IDX 31 37 81 38 32 39 86 40 80 41 82 42 33 43 85 44 79 45 78 46
REMARK SMILES IDX 34 48 66 49 46 50 65 51 47 52 50 53 64 54 83 55 48 56 49 57
REMARK SMILES IDX 63 59 84 60 51 61 35 62 36 63 44 64 37 65 38 66 42 67 45 68
REMARK SMILES IDX 39 69 40 70 43 71 41 72 67 73 68 74 76 75 69 76 70 77 74 78
REMARK SMILES IDX 77 79 71 80 72 81 75 82 73 83 52 84 53 85 61 86 54 87 55 88
REMARK SMILES IDX 59 89 62 90 56 91 57 92 60 93 58 94
REMARK H PARENT 18 5 5 11 5 12 23 28 82 47 50 58
REMARK Flexibility Score: inf
ROOT
ATOM      1  C   UNL A   1      33.180  26.963  24.125  1.00  0.00     0.116 C 
ENDROOT
BRANCH   1   2
ATOM      2  N   UNL A   1      33.286  26.684  22.706  1.00  0.00    -0.351 N 
ATOM      3  C   UNL A   1      33.338  25.497  22.039  1.00  0.00     0.278 C 
ATOM      4  O   UNL A   1      33.278  25.549  20.804  1.00  0.00    -0.268 OA
ATOM      5  H   UNL A   1      33.325  27.483  22.130  1.00  0.00     0.163 HD
BRANCH   3   6
ATOM      6  C   UNL A   1      33.450  24.123  22.740  1.00  0.00     0.272 C 
BRANCH   6   7
ATOM      7  C   UNL A   1      34.886  23.557  22.753  1.00  0.00     0.075 C 
BRANCH   7   8
ATOM      8  C   UNL A   1      35.574  23.392  24.112  1.00  0.00     0.003 C 
ATOM      9  C   UNL A   1      36.593  22.261  24.129  1.00  0.00     0.004 C 
ENDBRANCH   7   8
ENDBRANCH   6   7
BRANCH   6  10
ATOM     10  N   UNL A   1      32.449  23.141  22.275  1.00  0.00    -0.330 N 
ATOM     11  H   UNL A   1      32.934  22.342  21.868  1.00  0.00     0.347 HD
ATOM     12  H   UNL A   1      31.853  23.599  21.586  1.00  0.00     0.347 HD
BRANCH  10  13
ATOM     13  C   UNL A   1      31.594  22.669  23.379  1.00  0.00     0.330 C 
BRANCH  13  14
ATOM     14  C   UNL A   1      32.223  21.524  24.131  1.00  0.00     0.147 A 
ATOM     15  N   UNL A   1      32.403  20.318  23.633  1.00  0.00    -0.240 NA
ATOM     16  S   UNL A   1      32.735  21.724  25.761  1.00  0.00    -0.121 S 
ATOM     17  C   UNL A   1      32.986  19.478  24.573  1.00  0.00     0.057 A 
ATOM     18  C   UNL A   1      33.248  20.092  25.786  1.00  0.00     0.091 A 
BRANCH  17  19
ATOM     19  C   UNL A   1      33.269  18.027  24.207  1.00  0.00     0.005 C 
ATOM     20  C   UNL A   1      32.559  17.083  25.195  1.00  0.00     0.017 C 
ATOM     21  C   UNL A   1      32.766  17.733  22.779  1.00  0.00     0.017 C 
ATOM     22  C   UNL A   1      34.780  17.717  24.251  1.00  0.00     0.017 C 
ENDBRANCH  17  19
ENDBRANCH  13  14
ENDBRANCH  10  13
ENDBRANCH   6  10
ENDBRANCH   3   6
ENDBRANCH   1   2
BRANCH   1  23
ATOM     23  C   UNL A   1      33.799  28.296  24.530  1.00  0.00     0.023 C 
BRANCH  23  24
ATOM     24  C   UNL A   1      32.814  29.431  24.808  1.00  0.00     0.023 C 
BRANCH  24  25
ATOM     25  C   UNL A   1      32.529  29.740  26.277  1.00  0.00     0.116 C 
BRANCH  25  26
ATOM     26  N   UNL A   1      32.428  31.161  26.570  1.00  0.00    -0.352 N 
ATOM     27  C   UNL A   1      33.266  31.985  27.279  1.00  0.00     0.251 C 
ATOM     28  H   UNL A   1      31.629  31.602  26.199  1.00  0.00     0.163 HD
ATOM     29  O   UNL A   1      32.945  33.157  27.472  1.00  0.00    -0.269 OA
BRANCH  27  30
ATOM     30  C   UNL A   1      34.529  31.473  27.855  1.00  0.00     0.039 A 
ATOM     31  C   UNL A   1      35.533  32.391  28.171  1.00  0.00     0.014 A 
ATOM     32  C   UNL A   1      34.740  30.110  28.079  1.00  0.00     0.014 A 
ATOM     33  C   UNL A   1      36.711  31.954  28.782  1.00  0.00     0.010 A 
ATOM     34  C   UNL A   1      35.881  29.684  28.759  1.00  0.00     0.010 A 
ATOM     35  C   UNL A   1      36.879  30.601  29.121  1.00  0.00    -0.014 A 
BRANCH  35  36
ATOM     36  C   UNL A   1      38.080  30.157  29.875  1.00  0.00     0.031 A 
ATOM     37  C   UNL A   1      38.318  30.614  31.288  1.00  0.00     0.074 A 
ATOM     38  C   UNL A   1      38.983  29.361  29.269  1.00  0.00     0.049 A 
ATOM     39  N   UNL A   1      39.292  30.300  32.106  1.00  0.00    -0.248 NA
ATOM     40  C   UNL A   1      37.350  31.567  31.849  1.00  0.00     0.031 C 
ATOM     41  C   UNL A   1      38.909  28.907  27.880  1.00  0.00     0.029 A 
ATOM     42  N   UNL A   1      40.138  28.789  29.743  1.00  0.00    -0.354 N 
ATOM     43  C   UNL A   1      39.058  31.019  33.271  1.00  0.00     0.074 A 
ATOM     44  C   UNL A   1      37.884  31.832  33.033  1.00  0.00     0.031 C 
ATOM     45  C   UNL A   1      39.949  28.097  27.625  1.00  0.00     0.029 A 
ATOM     46  C   UNL A   1      40.777  27.994  28.822  1.00  0.00     0.049 A 
ATOM     47  H   UNL A   1      40.477  28.935  30.655  1.00  0.00     0.167 HD
ATOM     48  C   UNL A   1      39.743  30.987  34.440  1.00  0.00     0.037 A 
ATOM     49  C   UNL A   1      41.897  27.256  28.935  1.00  0.00     0.037 A 
ATOM     50  C   UNL A   1      40.900  30.163  34.681  1.00  0.00     0.049 A 
ATOM     51  C   UNL A   1      42.621  27.213  30.252  1.00  0.00     0.074 A 
ATOM     52  C   UNL A   1      41.628  30.017  35.849  1.00  0.00     0.029 A 
ATOM     53  N   UNL A   1      41.501  29.348  33.733  1.00  0.00    -0.354 N 
ATOM     54  N   UNL A   1      42.338  27.828  31.374  1.00  0.00    -0.248 NA
ATOM     55  C   UNL A   1      43.812  26.354  30.324  1.00  0.00     0.031 C 
ATOM     56  C   UNL A   1      42.694  29.146  35.597  1.00  0.00     0.029 A 
ATOM     57  C   UNL A   1      42.600  28.710  34.286  1.00  0.00     0.049 A 
ATOM     58  H   UNL A   1      41.193  29.240  32.805  1.00  0.00     0.167 HD
ATOM     59  C   UNL A   1      43.294  27.411  32.291  1.00  0.00     0.074 A 
ATOM     60  C   UNL A   1      44.154  26.474  31.599  1.00  0.00     0.031 C 
ATOM     61  C   UNL A   1      43.445  27.774  33.588  1.00  0.00     0.037 A 
BRANCH  48  62
ATOM     62  C   UNL A   1      39.248  31.861  35.556  1.00  0.00     0.064 A 
ATOM     63  C   UNL A   1      39.626  33.211  35.653  1.00  0.00     0.173 A 
ATOM     64  C   UNL A   1      38.359  31.360  36.518  1.00  0.00     0.173 A 
ATOM     65  F   UNL A   1      40.482  33.738  34.765  1.00  0.00    -0.203 F 
ATOM     66  C   UNL A   1      39.157  34.014  36.688  1.00  0.00     0.198 A 
ATOM     67  C   UNL A   1      37.867  32.174  37.535  1.00  0.00     0.198 A 
ATOM     68  F   UNL A   1      37.960  30.080  36.468  1.00  0.00    -0.203 F 
ATOM     69  F   UNL A   1      39.570  35.285  36.789  1.00  0.00    -0.200 F 
ATOM     70  C   UNL A   1      38.272  33.498  37.624  1.00  0.00     0.200 A 
ATOM     71  F   UNL A   1      37.002  31.678  38.429  1.00  0.00    -0.200 F 
ATOM     72  F   UNL A   1      37.816  34.275  38.616  1.00  0.00    -0.200 F 
ENDBRANCH  48  62
BRANCH  49  73
ATOM     73  C   UNL A   1      42.374  26.452  27.779  1.00  0.00     0.064 A 
ATOM     74  C   UNL A   1      43.353  26.954  26.909  1.00  0.00     0.173 A 
ATOM     75  C   UNL A   1      41.862  25.174  27.517  1.00  0.00     0.173 A 
ATOM     76  F   UNL A   1      43.859  28.180  27.107  1.00  0.00    -0.203 F 
ATOM     77  C   UNL A   1      43.784  26.217  25.807  1.00  0.00     0.198 A 
ATOM     78  C   UNL A   1      42.314  24.427  26.432  1.00  0.00     0.198 A 
ATOM     79  F   UNL A   1      40.929  24.646  28.323  1.00  0.00    -0.203 F 
ATOM     80  F   UNL A   1      44.684  26.741  24.966  1.00  0.00    -0.200 F 
ATOM     81  C   UNL A   1      43.268  24.951  25.573  1.00  0.00     0.200 A 
ATOM     82  F   UNL A   1      41.824  23.197  26.216  1.00  0.00    -0.200 F 
ATOM     83  F   UNL A   1      43.684  24.242  24.515  1.00  0.00    -0.200 F 
ENDBRANCH  49  73
BRANCH  61  84
ATOM     84  C   UNL A   1      44.560  27.123  34.355  1.00  0.00     0.064 A 
ATOM     85  C   UNL A   1      44.391  25.889  35.001  1.00  0.00     0.173 A 
ATOM     86  C   UNL A   1      45.820  27.737  34.434  1.00  0.00     0.173 A 
ATOM     87  F   UNL A   1      43.202  25.267  34.968  1.00  0.00    -0.203 F 
ATOM     88  C   UNL A   1      45.429  25.313  35.728  1.00  0.00     0.198 A 
ATOM     89  C   UNL A   1      46.865  27.142  35.135  1.00  0.00     0.198 A 
ATOM     90  F   UNL A   1      46.038  28.914  33.827  1.00  0.00    -0.203 F 
ATOM     91  F   UNL A   1      45.227  24.164  36.386  1.00  0.00    -0.200 F 
ATOM     92  C   UNL A   1      46.666  25.938  35.790  1.00  0.00     0.200 A 
ATOM     93  F   UNL A   1      48.063  27.741  35.182  1.00  0.00    -0.200 F 
ATOM     94  F   UNL A   1      47.664  25.382  36.491  1.00  0.00    -0.200 F 
ENDBRANCH  61  84
ENDBRANCH  35  36
ENDBRANCH  27  30
ENDBRANCH  25  26
ENDBRANCH  24  25
ENDBRANCH  23  24
ENDBRANCH   1  23
TORSDOF 17
ENDMDL
MODEL 2
REMARK VINA RESULT:     -11.4      2.174      3.630
REMARK SMILES CCC[C@H]([NH2+]Cc1nc(C(C)(C)C)cs1)C(=O)NCCCCNC(=O)c1ccc(-c2c3nc(c(-c4c(F)c(F)c(F)c(F)c4F)c4ccc([nH]4)c(-c4c(F)c(F)c(F)c(F)c4F)c4nc(c(-c5c(F)c(F)c(F)c(F)c5F)c5ccc2[nH]5)C=C4)C=C3)cc1
REMARK SMILES IDX 19 1 18 2 16 3 17 4 4 6 3 7 2 8 1 9 5 10 6 13 7 14 8 15
REMARK SMILES IDX 15 16 9 17 14 18 10 19 11 20 12 21 13 22 20 23 21 24 22 25
REMARK SMILES IDX 23 26 24 27 25 29 26 30 27 31 88 32 28 33 87 34 29 35 30 36
REMARK SMILES IDX 31 37 81 38 32 39 86 40 80 41 82 42 33 43 85 44 79 45 78 46
REMARK SMILES IDX 34 48 66 49 46 50 65 51 47 52 50 53 64 54 83 55 48 56 49 57
REMARK SMILES IDX 63 59 84 60 51 61 35 62 36 63 44 64 37 65 38 66 42 67 45 68
REMARK SMILES IDX 39 69 40 70 43 71 41 72 67 73 68 74 76 75 69 76 70 77 74 78
REMARK SMILES IDX 77 79 71 80 72 81 75 82 73 83 52 84 53 85 61 86 54 87 55 88
REMARK SMILES IDX 59 89 62 90 56 91 57 92 60 93 58 94
REMARK H PARENT 18 5 5 11 5 12 23 28 82 47 50 58
REMARK Flexibility Score: inf
ROOT
ATOM      1  C   UNL A   1      32.133  29.974  25.365  1.00  0.00     0.116 C 
ENDROOT
BRANCH   1   2
ATOM      2  N   UNL A   1      31.026  29.939  24.429  1.00  0.00    -0.351 N 
ATOM      3  C   UNL A   1      30.475  28.895  23.749  1.00  0.00     0.278 C 
ATOM      4  O   UNL A   1      29.433  29.126  23.123  1.00  0.00    -0.268 OA
ATOM      5  H   UNL A   1      30.603  30.812  24.258  1.00  0.00     0.163 HD
BRANCH   3   6
ATOM      6  C   UNL A   1      31.070  27.467  23.739  1.00  0.00     0.272 C 
BRANCH   6   7
ATOM      7  C   UNL A   1      31.293  26.906  22.318  1.00  0.00     0.075 C 
BRANCH   7   8
ATOM      8  C   UNL A   1      32.641  26.243  22.017  1.00  0.00     0.003 C 
ATOM      9  C   UNL A   1      32.618  24.734  22.214  1.00  0.00     0.004 C 
ENDBRANCH   7   8
ENDBRANCH   6   7
BRANCH   6  10
ATOM     10  N   UNL A   1      30.357  26.525  24.624  1.00  0.00    -0.330 N 
ATOM     11  H   UNL A   1      30.294  25.619  24.161  1.00  0.00     0.347 HD
ATOM     12  H   UNL A   1      29.430  26.906  24.812  1.00  0.00     0.347 HD
BRANCH  10  13
ATOM     13  C   UNL A   1      31.050  26.355  25.913  1.00  0.00     0.330 C 
BRANCH  13  14
ATOM     14  C   UNL A   1      32.227  25.418  25.803  1.00  0.00     0.147 A 
ATOM     15  N   UNL A   1      32.133  24.104  25.811  1.00  0.00    -0.240 NA
ATOM     16  S   UNL A   1      33.829  26.034  25.686  1.00  0.00    -0.121 S 
ATOM     17  C   UNL A   1      33.388  23.519  25.715  1.00  0.00     0.057 A 
ATOM     18  C   UNL A   1      34.426  24.432  25.622  1.00  0.00     0.091 A 
BRANCH  17  19
ATOM     19  C   UNL A   1      33.510  22.001  25.721  1.00  0.00     0.005 C 
ATOM     20  C   UNL A   1      34.672  21.559  24.812  1.00  0.00     0.017 C 
ATOM     21  C   UNL A   1      33.771  21.496  27.154  1.00  0.00     0.017 C 
ATOM     22  C   UNL A   1      32.219  21.328  25.208  1.00  0.00     0.017 C 
ENDBRANCH  17  19
ENDBRANCH  13  14
ENDBRANCH  10  13
ENDBRANCH   6  10
ENDBRANCH   3   6
ENDBRANCH   1   2
BRANCH   1  23
ATOM     23  C   UNL A   1      31.739  30.463  26.754  1.00  0.00     0.023 C 
BRANCH  23  24
ATOM     24  C   UNL A   1      31.461  31.962  26.879  1.00  0.00     0.023 C 
BRANCH  24  25
ATOM     25  C   UNL A   1      32.679  32.868  27.044  1.00  0.00     0.116 C 
BRANCH  25  26
ATOM     26  N   UNL A   1      32.367  34.177  27.596  1.00  0.00    -0.352 N 
ATOM     27  C   UNL A   1      32.986  34.893  28.591  1.00  0.00     0.251 C 
ATOM     28  H   UNL A   1      31.587  34.620  27.190  1.00  0.00     0.163 HD
ATOM     29  O   UNL A   1      32.503  35.963  28.958  1.00  0.00    -0.269 OA
BRANCH  27  30
ATOM     30  C   UNL A   1      34.200  34.375  29.260  1.00  0.00     0.039 A 
ATOM     31  C   UNL A   1      34.041  33.603  30.414  1.00  0.00     0.014 A 
ATOM     32  C   UNL A   1      35.482  34.643  28.775  1.00  0.00     0.014 A 
ATOM     33  C   UNL A   1      35.159  33.037  31.033  1.00  0.00     0.010 A 
ATOM     34  C   UNL A   1      36.589  34.015  29.347  1.00  0.00     0.010 A 
ATOM     35  C   UNL A   1      36.440  33.203  30.481  1.00  0.00    -0.014 A 
BRANCH  35  36
ATOM     36  C   UNL A   1      37.611  32.505  31.073  1.00  0.00     0.031 A 
ATOM     37  C   UNL A   1      38.121  32.875  32.439  1.00  0.00     0.074 A 
ATOM     38  C   UNL A   1      38.242  31.552  30.360  1.00  0.00     0.049 A 
ATOM     39  N   UNL A   1      39.107  32.350  33.124  1.00  0.00    -0.248 NA
ATOM     40  C   UNL A   1      37.453  33.996  33.116  1.00  0.00     0.031 C 
ATOM     41  C   UNL A   1      37.896  31.151  28.996  1.00  0.00     0.029 A 
ATOM     42  N   UNL A   1      39.305  30.745  30.682  1.00  0.00    -0.354 N 
ATOM     43  C   UNL A   1      39.181  33.079  34.304  1.00  0.00     0.074 A 
ATOM     44  C   UNL A   1      38.180  34.121  34.217  1.00  0.00     0.031 C 
ATOM     45  C   UNL A   1      38.703  30.148  28.612  1.00  0.00     0.029 A 
ATOM     46  C   UNL A   1      39.640  29.854  29.691  1.00  0.00     0.049 A 
ATOM     47  H   UNL A   1      39.783  30.800  31.541  1.00  0.00     0.167 HD
ATOM     48  C   UNL A   1      39.990  32.883  35.373  1.00  0.00     0.037 A 
ATOM     49  C   UNL A   1      40.588  28.898  29.661  1.00  0.00     0.037 A 
ATOM     50  C   UNL A   1      40.973  31.833  35.466  1.00  0.00     0.049 A 
ATOM     51  C   UNL A   1      41.452  28.680  30.872  1.00  0.00     0.074 A 
ATOM     52  C   UNL A   1      41.801  31.517  36.529  1.00  0.00     0.029 A 
ATOM     53  N   UNL A   1      41.263  30.931  34.454  1.00  0.00    -0.354 N 
ATOM     54  N   UNL A   1      41.451  29.318  32.016  1.00  0.00    -0.248 NA
ATOM     55  C   UNL A   1      42.438  27.592  30.792  1.00  0.00     0.031 C 
ATOM     56  C   UNL A   1      42.621  30.450  36.145  1.00  0.00     0.029 A 
ATOM     57  C   UNL A   1      42.268  30.068  34.862  1.00  0.00     0.049 A 
ATOM     58  H   UNL A   1      40.821  30.907  33.574  1.00  0.00     0.167 HD
ATOM     59  C   UNL A   1      42.411  28.694  32.802  1.00  0.00     0.074 A 
ATOM     60  C   UNL A   1      42.961  27.614  32.011  1.00  0.00     0.031 C 
ATOM     61  C   UNL A   1      42.802  28.992  34.066  1.00  0.00     0.037 A 
BRANCH  48  62
ATOM     62  C   UNL A   1      39.838  33.818  36.538  1.00  0.00     0.064 A 
ATOM     63  C   UNL A   1      38.976  33.525  37.607  1.00  0.00     0.173 A 
ATOM     64  C   UNL A   1      40.586  35.003  36.607  1.00  0.00     0.173 A 
ATOM     65  F   UNL A   1      38.230  32.410  37.586  1.00  0.00    -0.203 F 
ATOM     66  C   UNL A   1      38.847  34.396  38.684  1.00  0.00     0.198 A 
ATOM     67  C   UNL A   1      40.478  35.857  37.701  1.00  0.00     0.198 A 
ATOM     68  F   UNL A   1      41.430  35.329  35.616  1.00  0.00    -0.203 F 
ATOM     69  F   UNL A   1      37.981  34.119  39.670  1.00  0.00    -0.200 F 
ATOM     70  C   UNL A   1      39.603  35.557  38.735  1.00  0.00     0.200 A 
ATOM     71  F   UNL A   1      41.220  36.972  37.755  1.00  0.00    -0.200 F 
ATOM     72  F   UNL A   1      39.483  36.392  39.776  1.00  0.00    -0.200 F 
ENDBRANCH  48  62
BRANCH  49  73
ATOM     73  C   UNL A   1      40.733  28.035  28.459  1.00  0.00     0.064 A 
ATOM     74  C   UNL A   1      40.073  26.801  28.375  1.00  0.00     0.173 A 
ATOM     75  C   UNL A   1      41.534  28.421  27.375  1.00  0.00     0.173 A 
ATOM     76  F   UNL A   1      39.311  26.379  29.396  1.00  0.00    -0.203 F 
ATOM     77  C   UNL A   1      40.227  25.974  27.264  1.00  0.00     0.198 A 
ATOM     78  C   UNL A   1      41.665  27.607  26.252  1.00  0.00     0.198 A 
ATOM     79  F   UNL A   1      42.180  29.595  27.402  1.00  0.00    -0.203 F 
ATOM     80  F   UNL A   1      39.624  24.779  27.232  1.00  0.00    -0.200 F 
ATOM     81  C   UNL A   1      41.019  26.381  26.200  1.00  0.00     0.200 A 
ATOM     82  F   UNL A   1      42.419  28.010  25.219  1.00  0.00    -0.200 F 
ATOM     83  F   UNL A   1      41.165  25.588  25.131  1.00  0.00    -0.200 F 
ENDBRANCH  49  73
BRANCH  61  84
ATOM     84  C   UNL A   1      43.849  28.109  34.684  1.00  0.00     0.064 A 
ATOM     85  C   UNL A   1      45.213  28.433  34.632  1.00  0.00     0.173 A 
ATOM     86  C   UNL A   1      43.480  26.929  35.347  1.00  0.00     0.173 A 
ATOM     87  F   UNL A   1      45.619  29.545  33.997  1.00  0.00    -0.203 F 
ATOM     88  C   UNL A   1      46.171  27.591  35.188  1.00  0.00     0.198 A 
ATOM     89  C   UNL A   1      44.438  26.104  35.930  1.00  0.00     0.198 A 
ATOM     90  F   UNL A   1      42.188  26.576  35.431  1.00  0.00    -0.203 F 
ATOM     91  F   UNL A   1      47.472  27.890  35.074  1.00  0.00    -0.200 F 
ATOM     92  C   UNL A   1      45.782  26.430  35.841  1.00  0.00     0.200 A 
ATOM     93  F   UNL A   1      44.060  24.990  36.571  1.00  0.00    -0.200 F 
ATOM     94  F   UNL A   1      46.706  25.618  36.375  1.00  0.00    -0.200 F 
ENDBRANCH  61  84
ENDBRANCH  35  36
ENDBRANCH  27  30
ENDBRANCH  25  26
ENDBRANCH  24  25
ENDBRANCH  23  24
ENDBRANCH   1  23
TORSDOF 17
ENDMDL
MODEL 3
REMARK VINA RESULT:     -11.3      0.988      2.237
REMARK SMILES CCC[C@H]([NH2+]Cc1nc(C(C)(C)C)cs1)C(=O)NCCCCNC(=O)c1ccc(-c2c3nc(c(-c4c(F)c(F)c(F)c(F)c4F)c4ccc([nH]4)c(-c4c(F)c(F)c(F)c(F)c4F)c4nc(c(-c5c(F)c(F)c(F)c(F)c5F)c5ccc2[nH]5)C=C4)C=C3)cc1
REMARK SMILES IDX 19 1 18 2 16 3 17 4 4 6 3 7 2 8 1 9 5 10 6 13 7 14 8 15
REMARK SMILES IDX 15 16 9 17 14 18 10 19 11 20 12 21 13 22 20 23 21 24 22 25
REMARK SMILES IDX 23 26 24 27 25 29 26 30 27 31 88 32 28 33 87 34 29 35 30 36
REMARK SMILES IDX 31 37 81 38 32 39 86 40 80 41 82 42 33 43 85 44 79 45 78 46
REMARK SMILES IDX 34 48 66 49 46 50 65 51 47 52 50 53 64 54 83 55 48 56 49 57
REMARK SMILES IDX 63 59 84 60 51 61 35 62 36 63 44 64 37 65 38 66 42 67 45 68
REMARK SMILES IDX 39 69 40 70 43 71 41 72 67 73 68 74 76 75 69 76 70 77 74 78
REMARK SMILES IDX 77 79 71 80 72 81 75 82 73 83 52 84 53 85 61 86 54 87 55 88
REMARK SMILES IDX 59 89 62 90 56 91 57 92 60 93 58 94
REMARK H PARENT 18 5 5 11 5 12 23 28 82 47 50 58
REMARK Flexibility Score: inf
ROOT
ATOM      1  C   UNL A   1      33.593  27.117  25.114  1.00  0.00     0.116 C 
ENDROOT
BRANCH   1   2
ATOM      2  N   UNL A   1      33.579  26.295  23.919  1.00  0.00    -0.351 N 
ATOM      3  C   UNL A   1      32.632  25.437  23.448  1.00  0.00     0.278 C 
ATOM      4  O   UNL A   1      32.816  24.972  22.316  1.00  0.00    -0.268 OA
ATOM      5  H   UNL A   1      34.384  26.371  23.357  1.00  0.00     0.163 HD
BRANCH   3   6
ATOM      6  C   UNL A   1      31.363  25.040  24.238  1.00  0.00     0.272 C 
BRANCH   6   7
ATOM      7  C   UNL A   1      30.394  26.218  24.474  1.00  0.00     0.075 C 
BRANCH   7   8
ATOM      8  C   UNL A   1      30.197  27.219  23.332  1.00  0.00     0.003 C 
ATOM      9  C   UNL A   1      28.800  27.822  23.304  1.00  0.00     0.004 C 
ENDBRANCH   7   8
ENDBRANCH   6   7
BRANCH   6  10
ATOM     10  N   UNL A   1      31.651  24.276  25.468  1.00  0.00    -0.330 N 
ATOM     11  H   UNL A   1      31.221  24.751  26.261  1.00  0.00     0.347 HD
ATOM     12  H   UNL A   1      32.663  24.222  25.579  1.00  0.00     0.347 HD
BRANCH  10  13
ATOM     13  C   UNL A   1      31.125  22.901  25.394  1.00  0.00     0.330 C 
BRANCH  13  14
ATOM     14  C   UNL A   1      32.227  21.880  25.267  1.00  0.00     0.147 A 
ATOM     15  N   UNL A   1      32.039  20.626  24.911  1.00  0.00    -0.240 NA
ATOM     16  S   UNL A   1      33.856  22.301  25.626  1.00  0.00    -0.121 S 
ATOM     17  C   UNL A   1      33.241  19.930  24.906  1.00  0.00     0.057 A 
ATOM     18  C   UNL A   1      34.336  20.701  25.257  1.00  0.00     0.091 A 
BRANCH  17  19
ATOM     19  C   UNL A   1      33.249  18.453  24.535  1.00  0.00     0.005 C 
ATOM     20  C   UNL A   1      32.600  17.621  25.657  1.00  0.00     0.017 C 
ATOM     21  C   UNL A   1      32.465  18.232  23.226  1.00  0.00     0.017 C 
ATOM     22  C   UNL A   1      34.686  17.931  24.322  1.00  0.00     0.017 C 
ENDBRANCH  17  19
ENDBRANCH  13  14
ENDBRANCH  10  13
ENDBRANCH   6  10
ENDBRANCH   3   6
ENDBRANCH   1   2
BRANCH   1  23
ATOM     23  C   UNL A   1      33.564  28.614  24.822  1.00  0.00     0.023 C 
BRANCH  23  24
ATOM     24  C   UNL A   1      32.345  29.372  25.351  1.00  0.00     0.023 C 
BRANCH  24  25
ATOM     25  C   UNL A   1      32.430  29.876  26.790  1.00  0.00     0.116 C 
BRANCH  25  26
ATOM     26  N   UNL A   1      32.462  31.326  26.903  1.00  0.00    -0.352 N 
ATOM     27  C   UNL A   1      33.416  32.155  27.438  1.00  0.00     0.251 C 
ATOM     28  H   UNL A   1      31.671  31.785  26.538  1.00  0.00     0.163 HD
ATOM     29  O   UNL A   1      33.203  33.365  27.501  1.00  0.00    -0.269 OA
BRANCH  27  30
ATOM     30  C   UNL A   1      34.680  31.611  27.983  1.00  0.00     0.039 A 
ATOM     31  C   UNL A   1      35.762  32.480  28.141  1.00  0.00     0.014 A 
ATOM     32  C   UNL A   1      34.815  30.264  28.329  1.00  0.00     0.014 A 
ATOM     33  C   UNL A   1      36.948  32.020  28.718  1.00  0.00     0.010 A 
ATOM     34  C   UNL A   1      35.971  29.824  28.976  1.00  0.00     0.010 A 
ATOM     35  C   UNL A   1      37.049  30.697  29.180  1.00  0.00    -0.014 A 
BRANCH  35  36
ATOM     36  C   UNL A   1      38.268  30.241  29.898  1.00  0.00     0.031 A 
ATOM     37  C   UNL A   1      38.551  30.693  31.305  1.00  0.00     0.074 A 
ATOM     38  C   UNL A   1      39.147  29.440  29.265  1.00  0.00     0.049 A 
ATOM     39  N   UNL A   1      39.545  30.369  32.094  1.00  0.00    -0.248 NA
ATOM     40  C   UNL A   1      37.607  31.652  31.896  1.00  0.00     0.031 C 
ATOM     41  C   UNL A   1      39.030  28.990  27.877  1.00  0.00     0.029 A 
ATOM     42  N   UNL A   1      40.311  28.858  29.704  1.00  0.00    -0.354 N 
ATOM     43  C   UNL A   1      39.350  31.088  33.266  1.00  0.00     0.074 A 
ATOM     44  C   UNL A   1      38.176  31.910  33.065  1.00  0.00     0.031 C 
ATOM     45  C   UNL A   1      40.056  28.172  27.591  1.00  0.00     0.029 A 
ATOM     46  C   UNL A   1      40.916  28.061  28.764  1.00  0.00     0.049 A 
ATOM     47  H   UNL A   1      40.677  28.999  30.607  1.00  0.00     0.167 HD
ATOM     48  C   UNL A   1      40.068  31.047  34.415  1.00  0.00     0.037 A 
ATOM     49  C   UNL A   1      42.034  27.313  28.842  1.00  0.00     0.037 A 
ATOM     50  C   UNL A   1      41.225  30.214  34.621  1.00  0.00     0.049 A 
ATOM     51  C   UNL A   1      42.794  27.261  30.138  1.00  0.00     0.074 A 
ATOM     52  C   UNL A   1      41.985  30.059  35.768  1.00  0.00     0.029 A 
ATOM     53  N   UNL A   1      41.792  29.397  33.655  1.00  0.00    -0.354 N 
ATOM     54  N   UNL A   1      42.548  27.876  31.269  1.00  0.00    -0.248 NA
ATOM     55  C   UNL A   1      43.980  26.393  30.174  1.00  0.00     0.031 C 
ATOM     56  C   UNL A   1      43.036  29.181  35.483  1.00  0.00     0.029 A 
ATOM     57  C   UNL A   1      42.902  28.748  34.175  1.00  0.00     0.049 A 
ATOM     58  H   UNL A   1      41.457  29.293  32.735  1.00  0.00     0.167 HD
ATOM     59  C   UNL A   1      43.527  27.449  32.157  1.00  0.00     0.074 A 
ATOM     60  C   UNL A   1      44.359  26.507  31.439  1.00  0.00     0.031 C 
ATOM     61  C   UNL A   1      43.718  27.807  33.450  1.00  0.00     0.037 A 
BRANCH  48  62
ATOM     62  C   UNL A   1      39.613  31.923  35.547  1.00  0.00     0.064 A 
ATOM     63  C   UNL A   1      40.140  33.211  35.737  1.00  0.00     0.173 A 
ATOM     64  C   UNL A   1      38.613  31.489  36.431  1.00  0.00     0.173 A 
ATOM     65  F   UNL A   1      41.105  33.671  34.926  1.00  0.00    -0.203 F 
ATOM     66  C   UNL A   1      39.706  34.016  36.785  1.00  0.00     0.198 A 
ATOM     67  C   UNL A   1      38.159  32.309  37.460  1.00  0.00     0.198 A 
ATOM     68  F   UNL A   1      38.069  30.270  36.291  1.00  0.00    -0.203 F 
ATOM     69  F   UNL A   1      40.260  35.222  36.976  1.00  0.00    -0.200 F 
ATOM     70  C   UNL A   1      38.711  33.569  37.641  1.00  0.00     0.200 A 
ATOM     71  F   UNL A   1      37.188  31.881  38.277  1.00  0.00    -0.200 F 
ATOM     72  F   UNL A   1      38.290  34.348  38.647  1.00  0.00    -0.200 F 
ENDBRANCH  48  62
BRANCH  49  73
ATOM     73  C   UNL A   1      42.471  26.508  27.672  1.00  0.00     0.064 A 
ATOM     74  C   UNL A   1      41.917  25.244  27.421  1.00  0.00     0.173 A 
ATOM     75  C   UNL A   1      43.449  26.979  26.786  1.00  0.00     0.173 A 
ATOM     76  F   UNL A   1      40.992  24.742  28.252  1.00  0.00    -0.203 F 
ATOM     77  C   UNL A   1      42.343  24.471  26.342  1.00  0.00     0.198 A 
ATOM     78  C   UNL A   1      43.854  26.218  25.691  1.00  0.00     0.198 A 
ATOM     79  F   UNL A   1      44.005  28.184  26.977  1.00  0.00    -0.203 F 
ATOM     80  F   UNL A   1      41.832  23.248  26.155  1.00  0.00    -0.200 F 
ATOM     81  C   UNL A   1      43.308  24.962  25.475  1.00  0.00     0.200 A 
ATOM     82  F   UNL A   1      44.776  26.701  24.845  1.00  0.00    -0.200 F 
ATOM     83  F   UNL A   1      43.715  24.221  24.436  1.00  0.00    -0.200 F 
ENDBRANCH  49  73
BRANCH  61  84
ATOM     84  C   UNL A   1      44.850  27.146  34.183  1.00  0.00     0.064 A 
ATOM     85  C   UNL A   1      46.135  27.709  34.221  1.00  0.00     0.173 A 
ATOM     86  C   UNL A   1      44.644  25.937  34.865  1.00  0.00     0.173 A 
ATOM     87  F   UNL A   1      46.389  28.856  33.572  1.00  0.00    -0.203 F 
ATOM     88  C   UNL A   1      47.178  27.068  34.884  1.00  0.00     0.198 A 
ATOM     89  C   UNL A   1      45.682  25.315  35.554  1.00  0.00     0.198 A 
ATOM     90  F   UNL A   1      43.433  25.359  34.867  1.00  0.00    -0.203 F 
ATOM     91  F   UNL A   1      48.410  27.594  34.857  1.00  0.00    -0.200 F 
ATOM     92  C   UNL A   1      46.949  25.875  35.554  1.00  0.00     0.200 A 
ATOM     93  F   UNL A   1      45.455  24.170  36.212  1.00  0.00    -0.200 F 
ATOM     94  F   UNL A   1      47.955  25.259  36.191  1.00  0.00    -0.200 F 
ENDBRANCH  61  84
ENDBRANCH  35  36
ENDBRANCH  27  30
ENDBRANCH  25  26
ENDBRANCH  24  25
ENDBRANCH  23  24
ENDBRANCH   1  23
TORSDOF 17
ENDMDL
