MODEL 1
REMARK VINA RESULT:     -11.4      0.000      0.000
REMARK SMILES Nc1nn(-c2ccc(Cl)cc2)nc1C(=O)NCCCCNC(=O)c1ccc(-c2c3nc(c(-c4c(F)c(F)c(F)c(F)c4F)c4ccc([nH]4)c(-c4c(F)c(F)c(F)c(F)c4F)c4nc(c(-c5c(F)c(F)c(F)c(F)c5F)c5ccc2[nH]5)C=C4)C=C3)cc1
REMARK SMILES IDX 19 1 18 2 17 3 16 4 14 5 15 6 13 8 2 9 3 10 4 11 12 12 1 13
REMARK SMILES IDX 5 16 6 17 11 18 7 19 10 20 8 21 9 22 20 23 21 24 22 25 23 27
REMARK SMILES IDX 24 28 25 29 86 30 26 31 85 32 27 33 28 34 29 35 79 36 30 37
REMARK SMILES IDX 84 38 78 39 80 40 31 41 83 42 77 43 76 44 32 46 64 47 44 48
REMARK SMILES IDX 63 49 45 50 48 51 62 52 81 53 46 54 47 55 61 57 82 58 49 59
REMARK SMILES IDX 33 60 34 61 42 62 35 63 36 64 40 65 43 66 37 67 38 68 41 69
REMARK SMILES IDX 39 70 65 71 66 72 74 73 67 74 68 75 72 76 75 77 69 78 70 79
REMARK SMILES IDX 73 80 71 81 50 82 51 83 59 84 52 85 53 86 57 87 60 88 54 89
REMARK SMILES IDX 55 90 58 91 56 92
REMARK H PARENT 16 7 1 14 1 15 21 26 80 45 48 56
REMARK Flexibility Score: inf
ROOT
ATOM      1  C   UNL A   1      43.419  23.272  24.626  1.00  0.00     0.023 C 
ENDROOT
BRANCH   1   2
ATOM      2  C   UNL A   1      44.528  22.578  23.828  1.00  0.00     0.023 C 
BRANCH   2   3
ATOM      3  C   UNL A   1      45.916  22.469  24.465  1.00  0.00     0.116 C 
BRANCH   3   4
ATOM      4  N   UNL A   1      46.813  23.557  24.137  1.00  0.00    -0.351 N 
ATOM      5  C   UNL A   1      46.899  24.840  24.640  1.00  0.00     0.275 C 
ATOM      6  O   UNL A   1      47.727  25.572  24.090  1.00  0.00    -0.267 OA
ATOM      7  H   UNL A   1      47.471  23.346  23.436  1.00  0.00     0.163 HD
BRANCH   5   8
ATOM      8  C   UNL A   1      46.073  25.319  25.758  1.00  0.00     0.194 A 
ATOM      9  C   UNL A   1      44.956  26.204  25.815  1.00  0.00     0.179 A 
ATOM     10  N   UNL A   1      44.433  26.200  27.036  1.00  0.00    -0.130 NA
ATOM     11  N   UNL A   1      45.197  25.293  27.680  1.00  0.00    -0.149 N 
ATOM     12  N   UNL A   1      46.274  24.832  27.005  1.00  0.00    -0.141 NA
BRANCH   9  13
ATOM     13  N   UNL A   1      44.393  26.942  24.851  1.00  0.00    -0.380 N 
ATOM     14  H   UNL A   1      43.673  26.562  24.297  1.00  0.00     0.158 HD
ATOM     15  H   UNL A   1      44.698  27.864  24.695  1.00  0.00     0.158 HD
ENDBRANCH   9  13
BRANCH  11  16
ATOM     16  C   UNL A   1      44.835  24.807  28.962  1.00  0.00     0.086 A 
ATOM     17  C   UNL A   1      44.883  25.645  30.084  1.00  0.00     0.032 A 
ATOM     18  C   UNL A   1      44.459  23.462  29.107  1.00  0.00     0.032 A 
ATOM     19  C   UNL A   1      44.527  25.142  31.340  1.00  0.00     0.023 A 
ATOM     20  C   UNL A   1      44.153  22.953  30.372  1.00  0.00     0.023 A 
ATOM     21  C   UNL A   1      44.177  23.798  31.480  1.00  0.00     0.041 A 
ATOM     22  Cl  UNL A   1      43.777  23.174  33.033  1.00  0.00    -0.084 Cl
ENDBRANCH  11  16
ENDBRANCH   5   8
ENDBRANCH   3   4
ENDBRANCH   2   3
ENDBRANCH   1   2
BRANCH   1  23
ATOM     23  C   UNL A   1      42.910  22.498  25.829  1.00  0.00     0.116 C 
BRANCH  23  24
ATOM     24  N   UNL A   1      41.479  22.167  25.789  1.00  0.00    -0.352 N 
ATOM     25  C   UNL A   1      40.425  22.839  26.412  1.00  0.00     0.251 C 
ATOM     26  H   UNL A   1      41.233  21.375  25.259  1.00  0.00     0.163 HD
ATOM     27  O   UNL A   1      39.336  22.328  26.566  1.00  0.00    -0.269 OA
BRANCH  25  28
ATOM     28  C   UNL A   1      40.675  24.226  26.856  1.00  0.00     0.039 A 
ATOM     29  C   UNL A   1      40.312  25.364  26.126  1.00  0.00     0.014 A 
ATOM     30  C   UNL A   1      41.244  24.343  28.112  1.00  0.00     0.014 A 
ATOM     31  C   UNL A   1      40.481  26.617  26.721  1.00  0.00     0.010 A 
ATOM     32  C   UNL A   1      41.103  25.508  28.791  1.00  0.00     0.010 A 
ATOM     33  C   UNL A   1      40.879  26.666  28.062  1.00  0.00    -0.014 A 
BRANCH  33  34
ATOM     34  C   UNL A   1      41.105  27.886  28.816  1.00  0.00     0.031 A 
ATOM     35  C   UNL A   1      42.260  28.700  28.365  1.00  0.00     0.074 A 
ATOM     36  C   UNL A   1      40.096  28.389  29.568  1.00  0.00     0.049 A 
ATOM     37  N   UNL A   1      43.317  29.016  29.035  1.00  0.00    -0.248 NA
ATOM     38  C   UNL A   1      42.308  29.109  26.951  1.00  0.00     0.031 C 
ATOM     39  C   UNL A   1      38.744  27.833  29.767  1.00  0.00     0.029 A 
ATOM     40  N   UNL A   1      40.008  29.588  30.198  1.00  0.00    -0.354 N 
ATOM     41  C   UNL A   1      44.069  29.834  28.193  1.00  0.00     0.074 A 
ATOM     42  C   UNL A   1      43.522  29.657  26.876  1.00  0.00     0.031 C 
ATOM     43  C   UNL A   1      37.924  28.785  30.260  1.00  0.00     0.029 A 
ATOM     44  C   UNL A   1      38.719  29.956  30.570  1.00  0.00     0.049 A 
ATOM     45  H   UNL A   1      40.794  30.153  30.376  1.00  0.00     0.167 HD
ATOM     46  C   UNL A   1      44.889  30.797  28.703  1.00  0.00     0.037 A 
ATOM     47  C   UNL A   1      38.335  31.157  31.068  1.00  0.00     0.037 A 
ATOM     48  C   UNL A   1      45.093  30.587  30.118  1.00  0.00     0.049 A 
ATOM     49  C   UNL A   1      39.566  31.840  31.545  1.00  0.00     0.074 A 
ATOM     50  C   UNL A   1      45.623  29.568  30.885  1.00  0.00     0.029 A 
ATOM     51  N   UNL A   1      44.363  31.363  30.986  1.00  0.00    -0.354 N 
ATOM     52  N   UNL A   1      40.282  31.414  32.550  1.00  0.00    -0.248 NA
ATOM     53  C   UNL A   1      40.265  32.699  30.601  1.00  0.00     0.031 C 
ATOM     54  C   UNL A   1      44.794  29.512  32.046  1.00  0.00     0.029 A 
ATOM     55  C   UNL A   1      43.857  30.543  31.960  1.00  0.00     0.049 A 
ATOM     56  H   UNL A   1      44.226  32.336  30.918  1.00  0.00     0.167 HD
ATOM     57  C   UNL A   1      41.600  31.587  32.146  1.00  0.00     0.074 A 
ATOM     58  C   UNL A   1      41.526  32.460  30.976  1.00  0.00     0.031 C 
ATOM     59  C   UNL A   1      42.587  30.765  32.612  1.00  0.00     0.037 A 
BRANCH  46  60
ATOM     60  C   UNL A   1      45.172  32.141  28.057  1.00  0.00     0.064 A 
ATOM     61  C   UNL A   1      44.085  33.008  27.818  1.00  0.00     0.173 A 
ATOM     62  C   UNL A   1      46.369  32.486  27.393  1.00  0.00     0.173 A 
ATOM     63  F   UNL A   1      42.900  32.800  28.411  1.00  0.00    -0.203 F 
ATOM     64  C   UNL A   1      44.153  34.046  26.885  1.00  0.00     0.198 A 
ATOM     65  C   UNL A   1      46.448  33.556  26.501  1.00  0.00     0.198 A 
ATOM     66  F   UNL A   1      47.485  31.757  27.482  1.00  0.00    -0.203 F 
ATOM     67  F   UNL A   1      43.048  34.742  26.582  1.00  0.00    -0.200 F 
ATOM     68  C   UNL A   1      45.331  34.308  26.214  1.00  0.00     0.200 A 
ATOM     69  F   UNL A   1      47.602  33.792  25.860  1.00  0.00    -0.200 F 
ATOM     70  F   UNL A   1      45.381  35.248  25.262  1.00  0.00    -0.200 F 
ENDBRANCH  46  60
BRANCH  47  71
ATOM     71  C   UNL A   1      37.043  31.856  30.874  1.00  0.00     0.064 A 
ATOM     72  C   UNL A   1      36.106  31.975  31.913  1.00  0.00     0.173 A 
ATOM     73  C   UNL A   1      36.811  32.643  29.728  1.00  0.00     0.173 A 
ATOM     74  F   UNL A   1      36.280  31.297  33.056  1.00  0.00    -0.203 F 
ATOM     75  C   UNL A   1      35.009  32.841  31.815  1.00  0.00     0.198 A 
ATOM     76  C   UNL A   1      35.716  33.502  29.630  1.00  0.00     0.198 A 
ATOM     77  F   UNL A   1      37.695  32.659  28.719  1.00  0.00    -0.203 F 
ATOM     78  F   UNL A   1      34.161  32.966  32.846  1.00  0.00    -0.200 F 
ATOM     79  C   UNL A   1      34.820  33.609  30.677  1.00  0.00     0.200 A 
ATOM     80  F   UNL A   1      35.566  34.266  28.538  1.00  0.00    -0.200 F 
ATOM     81  F   UNL A   1      33.800  34.475  30.604  1.00  0.00    -0.200 F 
ENDBRANCH  47  71
BRANCH  59  82
ATOM     82  C   UNL A   1      42.248  29.844  33.753  1.00  0.00     0.064 A 
ATOM     83  C   UNL A   1      41.797  28.523  33.592  1.00  0.00     0.173 A 
ATOM     84  C   UNL A   1      42.538  30.266  35.056  1.00  0.00     0.173 A 
ATOM     85  F   UNL A   1      41.596  28.007  32.376  1.00  0.00    -0.203 F 
ATOM     86  C   UNL A   1      41.604  27.679  34.684  1.00  0.00     0.198 A 
ATOM     87  C   UNL A   1      42.378  29.411  36.144  1.00  0.00     0.198 A 
ATOM     88  F   UNL A   1      43.029  31.496  35.268  1.00  0.00    -0.203 F 
ATOM     89  F   UNL A   1      41.166  26.425  34.496  1.00  0.00    -0.200 F 
ATOM     90  C   UNL A   1      41.903  28.122  35.959  1.00  0.00     0.200 A 
ATOM     91  F   UNL A   1      42.718  29.828  37.371  1.00  0.00    -0.200 F 
ATOM     92  F   UNL A   1      41.759  27.300  37.008  1.00  0.00    -0.200 F 
ENDBRANCH  59  82
ENDBRANCH  33  34
ENDBRANCH  25  28
ENDBRANCH  23  24
ENDBRANCH   1  23
TORSDOF 13
ENDMDL
MODEL 2
REMARK VINA RESULT:     -11.2      3.792     10.518
REMARK SMILES Nc1nn(-c2ccc(Cl)cc2)nc1C(=O)NCCCCNC(=O)c1ccc(-c2c3nc(c(-c4c(F)c(F)c(F)c(F)c4F)c4ccc([nH]4)c(-c4c(F)c(F)c(F)c(F)c4F)c4nc(c(-c5c(F)c(F)c(F)c(F)c5F)c5ccc2[nH]5)C=C4)C=C3)cc1
REMARK SMILES IDX 19 1 18 2 17 3 16 4 14 5 15 6 13 8 2 9 3 10 4 11 12 12 1 13
REMARK SMILES IDX 5 16 6 17 11 18 7 19 10 20 8 21 9 22 20 23 21 24 22 25 23 27
REMARK SMILES IDX 24 28 25 29 86 30 26 31 85 32 27 33 28 34 29 35 79 36 30 37
REMARK SMILES IDX 84 38 78 39 80 40 31 41 83 42 77 43 76 44 32 46 64 47 44 48
REMARK SMILES IDX 63 49 45 50 48 51 62 52 81 53 46 54 47 55 61 57 82 58 49 59
REMARK SMILES IDX 33 60 34 61 42 62 35 63 36 64 40 65 43 66 37 67 38 68 41 69
REMARK SMILES IDX 39 70 65 71 66 72 74 73 67 74 68 75 72 76 75 77 69 78 70 79
REMARK SMILES IDX 73 80 71 81 50 82 51 83 59 84 52 85 53 86 57 87 60 88 54 89
REMARK SMILES IDX 55 90 58 91 56 92
REMARK H PARENT 16 7 1 14 1 15 21 26 80 45 48 56
REMARK Flexibility Score: inf
ROOT
ATOM      1  C   UNL A   1      35.478  33.904  31.380  1.00  0.00     0.023 C 
ENDROOT
BRANCH   1   2
ATOM      2  C   UNL A   1      35.205  34.629  32.702  1.00  0.00     0.023 C 
BRANCH   2   3
ATOM      3  C   UNL A   1      34.731  33.797  33.898  1.00  0.00     0.116 C 
BRANCH   3   4
ATOM      4  N   UNL A   1      35.580  33.889  35.065  1.00  0.00    -0.351 N 
ATOM      5  C   UNL A   1      36.895  33.513  35.258  1.00  0.00     0.275 C 
ATOM      6  O   UNL A   1      37.323  33.645  36.409  1.00  0.00    -0.267 OA
ATOM      7  H   UNL A   1      35.148  34.286  35.856  1.00  0.00     0.163 HD
BRANCH   5   8
ATOM      8  C   UNL A   1      37.746  32.992  34.178  1.00  0.00     0.194 A 
ATOM      9  C   UNL A   1      37.790  31.731  33.514  1.00  0.00     0.179 A 
ATOM     10  N   UNL A   1      38.622  31.788  32.481  1.00  0.00    -0.130 NA
ATOM     11  N   UNL A   1      39.029  33.074  32.502  1.00  0.00    -0.149 N 
ATOM     12  N   UNL A   1      38.642  33.806  33.571  1.00  0.00    -0.141 NA
BRANCH   9  13
ATOM     13  N   UNL A   1      37.113  30.603  33.764  1.00  0.00    -0.380 N 
ATOM     14  H   UNL A   1      37.016  29.922  33.060  1.00  0.00     0.158 HD
ATOM     15  H   UNL A   1      36.712  30.456  34.650  1.00  0.00     0.158 HD
ENDBRANCH   9  13
BRANCH  11  16
ATOM     16  C   UNL A   1      39.760  33.631  31.421  1.00  0.00     0.086 A 
ATOM     17  C   UNL A   1      41.127  33.365  31.270  1.00  0.00     0.032 A 
ATOM     18  C   UNL A   1      39.106  34.483  30.516  1.00  0.00     0.032 A 
ATOM     19  C   UNL A   1      41.828  33.931  30.200  1.00  0.00     0.023 A 
ATOM     20  C   UNL A   1      39.823  35.084  29.478  1.00  0.00     0.023 A 
ATOM     21  C   UNL A   1      41.177  34.796  29.318  1.00  0.00     0.041 A 
ATOM     22  Cl  UNL A   1      42.053  35.518  28.024  1.00  0.00    -0.084 Cl
ENDBRANCH  11  16
ENDBRANCH   5   8
ENDBRANCH   3   4
ENDBRANCH   2   3
ENDBRANCH   1   2
BRANCH   1  23
ATOM     23  C   UNL A   1      34.766  32.574  31.216  1.00  0.00     0.116 C 
BRANCH  23  24
ATOM     24  N   UNL A   1      34.347  32.264  29.841  1.00  0.00    -0.352 N 
ATOM     25  C   UNL A   1      35.109  31.691  28.821  1.00  0.00     0.251 C 
ATOM     26  H   UNL A   1      33.417  32.488  29.612  1.00  0.00     0.163 HD
ATOM     27  O   UNL A   1      34.776  31.750  27.657  1.00  0.00    -0.269 OA
BRANCH  25  28
ATOM     28  C   UNL A   1      36.338  30.972  29.216  1.00  0.00     0.039 A 
ATOM     29  C   UNL A   1      36.372  29.632  29.619  1.00  0.00     0.014 A 
ATOM     30  C   UNL A   1      37.507  31.704  29.093  1.00  0.00     0.014 A 
ATOM     31  C   UNL A   1      37.617  29.035  29.834  1.00  0.00     0.010 A 
ATOM     32  C   UNL A   1      38.686  31.044  28.987  1.00  0.00     0.010 A 
ATOM     33  C   UNL A   1      38.767  29.762  29.509  1.00  0.00    -0.014 A 
BRANCH  33  34
ATOM     34  C   UNL A   1      40.128  29.284  29.681  1.00  0.00     0.031 A 
ATOM     35  C   UNL A   1      40.574  29.149  31.089  1.00  0.00     0.074 A 
ATOM     36  C   UNL A   1      40.735  28.649  28.650  1.00  0.00     0.049 A 
ATOM     37  N   UNL A   1      41.545  29.763  31.676  1.00  0.00    -0.248 NA
ATOM     38  C   UNL A   1      39.759  28.323  31.997  1.00  0.00     0.031 C 
ATOM     39  C   UNL A   1      40.202  28.387  27.300  1.00  0.00     0.029 A 
ATOM     40  N   UNL A   1      41.907  27.964  28.633  1.00  0.00    -0.354 N 
ATOM     41  C   UNL A   1      41.593  29.250  32.971  1.00  0.00     0.074 A 
ATOM     42  C   UNL A   1      40.346  28.563  33.170  1.00  0.00     0.031 C 
ATOM     43  C   UNL A   1      40.931  27.424  26.697  1.00  0.00     0.029 A 
ATOM     44  C   UNL A   1      42.074  27.124  27.536  1.00  0.00     0.049 A 
ATOM     45  H   UNL A   1      42.585  28.053  29.341  1.00  0.00     0.167 HD
ATOM     46  C   UNL A   1      42.768  29.195  33.659  1.00  0.00     0.037 A 
ATOM     47  C   UNL A   1      43.070  26.223  27.354  1.00  0.00     0.037 A 
ATOM     48  C   UNL A   1      43.768  30.015  33.014  1.00  0.00     0.049 A 
ATOM     49  C   UNL A   1      44.160  26.588  28.295  1.00  0.00     0.074 A 
ATOM     50  C   UNL A   1      43.878  31.357  32.708  1.00  0.00     0.029 A 
ATOM     51  N   UNL A   1      44.700  29.378  32.229  1.00  0.00    -0.354 N 
ATOM     52  N   UNL A   1      44.853  27.691  28.201  1.00  0.00    -0.248 NA
ATOM     53  C   UNL A   1      44.141  25.976  29.615  1.00  0.00     0.031 C 
ATOM     54  C   UNL A   1      44.509  31.392  31.427  1.00  0.00     0.029 A 
ATOM     55  C   UNL A   1      44.816  30.081  31.060  1.00  0.00     0.049 A 
ATOM     56  H   UNL A   1      45.195  28.560  32.466  1.00  0.00     0.167 HD
ATOM     57  C   UNL A   1      44.994  28.135  29.509  1.00  0.00     0.074 A 
ATOM     58  C   UNL A   1      44.611  26.996  30.340  1.00  0.00     0.031 C 
ATOM     59  C   UNL A   1      45.112  29.469  29.785  1.00  0.00     0.037 A 
BRANCH  46  60
ATOM     60  C   UNL A   1      43.156  28.111  34.648  1.00  0.00     0.064 A 
ATOM     61  C   UNL A   1      43.512  28.500  35.957  1.00  0.00     0.173 A 
ATOM     62  C   UNL A   1      43.494  26.784  34.307  1.00  0.00     0.173 A 
ATOM     63  F   UNL A   1      43.223  29.730  36.409  1.00  0.00    -0.203 F 
ATOM     64  C   UNL A   1      44.265  27.676  36.800  1.00  0.00     0.198 A 
ATOM     65  C   UNL A   1      44.201  25.945  35.171  1.00  0.00     0.198 A 
ATOM     66  F   UNL A   1      43.260  26.263  33.100  1.00  0.00    -0.203 F 
ATOM     67  F   UNL A   1      44.707  28.152  37.972  1.00  0.00    -0.200 F 
ATOM     68  C   UNL A   1      44.624  26.405  36.397  1.00  0.00     0.200 A 
ATOM     69  F   UNL A   1      44.540  24.715  34.759  1.00  0.00    -0.200 F 
ATOM     70  F   UNL A   1      45.412  25.643  37.166  1.00  0.00    -0.200 F 
ENDBRANCH  46  60
BRANCH  47  71
ATOM     71  C   UNL A   1      43.004  24.917  26.656  1.00  0.00     0.064 A 
ATOM     72  C   UNL A   1      43.685  24.692  25.450  1.00  0.00     0.173 A 
ATOM     73  C   UNL A   1      42.471  23.781  27.296  1.00  0.00     0.173 A 
ATOM     74  F   UNL A   1      44.263  25.713  24.803  1.00  0.00    -0.203 F 
ATOM     75  C   UNL A   1      43.834  23.403  24.921  1.00  0.00     0.198 A 
ATOM     76  C   UNL A   1      42.615  22.497  26.767  1.00  0.00     0.198 A 
ATOM     77  F   UNL A   1      41.876  23.886  28.494  1.00  0.00    -0.203 F 
ATOM     78  F   UNL A   1      44.532  23.219  23.792  1.00  0.00    -0.200 F 
ATOM     79  C   UNL A   1      43.305  22.307  25.585  1.00  0.00     0.200 A 
ATOM     80  F   UNL A   1      42.131  21.443  27.439  1.00  0.00    -0.200 F 
ATOM     81  F   UNL A   1      43.493  21.068  25.107  1.00  0.00    -0.200 F 
ENDBRANCH  47  71
BRANCH  59  82
ATOM     82  C   UNL A   1      45.338  30.403  28.627  1.00  0.00     0.064 A 
ATOM     83  C   UNL A   1      44.314  31.115  27.978  1.00  0.00     0.173 A 
ATOM     84  C   UNL A   1      46.655  30.706  28.265  1.00  0.00     0.173 A 
ATOM     85  F   UNL A   1      43.036  30.963  28.336  1.00  0.00    -0.203 F 
ATOM     86  C   UNL A   1      44.594  32.051  26.984  1.00  0.00     0.198 A 
ATOM     87  C   UNL A   1      46.935  31.667  27.296  1.00  0.00     0.198 A 
ATOM     88  F   UNL A   1      47.678  30.104  28.891  1.00  0.00    -0.203 F 
ATOM     89  F   UNL A   1      43.593  32.708  26.378  1.00  0.00    -0.200 F 
ATOM     90  C   UNL A   1      45.905  32.332  26.650  1.00  0.00     0.200 A 
ATOM     91  F   UNL A   1      48.209  31.973  27.012  1.00  0.00    -0.200 F 
ATOM     92  F   UNL A   1      46.179  33.262  25.724  1.00  0.00    -0.200 F 
ENDBRANCH  59  82
ENDBRANCH  33  34
ENDBRANCH  25  28
ENDBRANCH  23  24
ENDBRANCH   1  23
TORSDOF 13
ENDMDL
MODEL 3
REMARK VINA RESULT:     -11.2      3.753     10.589
REMARK SMILES Nc1nn(-c2ccc(Cl)cc2)nc1C(=O)NCCCCNC(=O)c1ccc(-c2c3nc(c(-c4c(F)c(F)c(F)c(F)c4F)c4ccc([nH]4)c(-c4c(F)c(F)c(F)c(F)c4F)c4nc(c(-c5c(F)c(F)c(F)c(F)c5F)c5ccc2[nH]5)C=C4)C=C3)cc1
REMARK SMILES IDX 19 1 18 2 17 3 16 4 14 5 15 6 13 8 2 9 3 10 4 11 12 12 1 13
REMARK SMILES IDX 5 16 6 17 11 18 7 19 10 20 8 21 9 22 20 23 21 24 22 25 23 27
REMARK SMILES IDX 24 28 25 29 86 30 26 31 85 32 27 33 28 34 29 35 79 36 30 37
REMARK SMILES IDX 84 38 78 39 80 40 31 41 83 42 77 43 76 44 32 46 64 47 44 48
REMARK SMILES IDX 63 49 45 50 48 51 62 52 81 53 46 54 47 55 61 57 82 58 49 59
REMARK SMILES IDX 33 60 34 61 42 62 35 63 36 64 40 65 43 66 37 67 38 68 41 69
REMARK SMILES IDX 39 70 65 71 66 72 74 73 67 74 68 75 72 76 75 77 69 78 70 79
REMARK SMILES IDX 73 80 71 81 50 82 51 83 59 84 52 85 53 86 57 87 60 88 54 89
REMARK SMILES IDX 55 90 58 91 56 92
REMARK H PARENT 16 7 1 14 1 15 21 26 80 45 48 56
REMARK Flexibility Score: inf
ROOT
ATOM      1  C   UNL A   1      35.400  34.061  31.062  1.00  0.00     0.023 C 
ENDROOT
BRANCH   1   2
ATOM      2  C   UNL A   1      35.107  34.688  32.429  1.00  0.00     0.023 C 
BRANCH   2   3
ATOM      3  C   UNL A   1      34.552  33.784  33.534  1.00  0.00     0.116 C 
BRANCH   3   4
ATOM      4  N   UNL A   1      35.296  33.829  34.774  1.00  0.00    -0.351 N 
ATOM      5  C   UNL A   1      36.586  33.434  35.068  1.00  0.00     0.275 C 
ATOM      6  O   UNL A   1      36.912  33.524  36.255  1.00  0.00    -0.267 OA
ATOM      7  H   UNL A   1      34.799  34.203  35.536  1.00  0.00     0.163 HD
BRANCH   5   8
ATOM      8  C   UNL A   1      37.525  32.942  34.049  1.00  0.00     0.194 A 
ATOM      9  C   UNL A   1      37.667  31.677  33.405  1.00  0.00     0.179 A 
ATOM     10  N   UNL A   1      38.558  31.762  32.425  1.00  0.00    -0.130 NA
ATOM     11  N   UNL A   1      38.906  33.065  32.455  1.00  0.00    -0.149 N 
ATOM     12  N   UNL A   1      38.420  33.789  33.488  1.00  0.00    -0.141 NA
BRANCH   9  13
ATOM     13  N   UNL A   1      37.026  30.523  33.627  1.00  0.00    -0.380 N 
ATOM     14  H   UNL A   1      36.592  30.361  34.495  1.00  0.00     0.158 HD
ATOM     15  H   UNL A   1      36.991  29.837  32.922  1.00  0.00     0.158 HD
ENDBRANCH   9  13
BRANCH  11  16
ATOM     16  C   UNL A   1      39.677  33.643  31.414  1.00  0.00     0.086 A 
ATOM     17  C   UNL A   1      39.102  34.559  30.523  1.00  0.00     0.032 A 
ATOM     18  C   UNL A   1      41.020  33.263  31.261  1.00  0.00     0.032 A 
ATOM     19  C   UNL A   1      39.881  35.111  29.500  1.00  0.00     0.023 A 
ATOM     20  C   UNL A   1      41.778  33.781  30.208  1.00  0.00     0.023 A 
ATOM     21  C   UNL A   1      41.209  34.711  29.340  1.00  0.00     0.041 A 
ATOM     22  Cl  UNL A   1      42.152  35.365  28.058  1.00  0.00    -0.084 Cl
ENDBRANCH  11  16
ENDBRANCH   5   8
ENDBRANCH   3   4
ENDBRANCH   2   3
ENDBRANCH   1   2
BRANCH   1  23
ATOM     23  C   UNL A   1      34.768  32.701  30.828  1.00  0.00     0.116 C 
BRANCH  23  24
ATOM     24  N   UNL A   1      34.353  32.443  29.442  1.00  0.00    -0.352 N 
ATOM     25  C   UNL A   1      35.097  31.850  28.419  1.00  0.00     0.251 C 
ATOM     26  H   UNL A   1      33.441  32.724  29.205  1.00  0.00     0.163 HD
ATOM     27  O   UNL A   1      34.785  31.952  27.252  1.00  0.00    -0.269 OA
BRANCH  25  28
ATOM     28  C   UNL A   1      36.278  31.055  28.815  1.00  0.00     0.039 A 
ATOM     29  C   UNL A   1      36.289  29.659  28.920  1.00  0.00     0.014 A 
ATOM     30  C   UNL A   1      37.434  31.789  29.015  1.00  0.00     0.014 A 
ATOM     31  C   UNL A   1      37.507  29.022  29.170  1.00  0.00     0.010 A 
ATOM     32  C   UNL A   1      38.633  31.160  28.932  1.00  0.00     0.010 A 
ATOM     33  C   UNL A   1      38.673  29.795  29.171  1.00  0.00    -0.014 A 
BRANCH  33  34
ATOM     34  C   UNL A   1      40.008  29.282  29.421  1.00  0.00     0.031 A 
ATOM     35  C   UNL A   1      40.332  29.041  30.848  1.00  0.00     0.074 A 
ATOM     36  C   UNL A   1      40.693  28.711  28.402  1.00  0.00     0.049 A 
ATOM     37  N   UNL A   1      41.258  29.597  31.556  1.00  0.00    -0.248 NA
ATOM     38  C   UNL A   1      39.435  28.168  31.624  1.00  0.00     0.031 C 
ATOM     39  C   UNL A   1      40.272  28.554  26.997  1.00  0.00     0.029 A 
ATOM     40  N   UNL A   1      41.854  28.009  28.433  1.00  0.00    -0.354 N 
ATOM     41  C   UNL A   1      41.191  28.993  32.811  1.00  0.00     0.074 A 
ATOM     42  C   UNL A   1      39.924  28.315  32.856  1.00  0.00     0.031 C 
ATOM     43  C   UNL A   1      41.039  27.623  26.390  1.00  0.00     0.029 A 
ATOM     44  C   UNL A   1      42.103  27.245  27.297  1.00  0.00     0.049 A 
ATOM     45  H   UNL A   1      42.471  28.037  29.199  1.00  0.00     0.167 HD
ATOM     46  C   UNL A   1      42.303  28.869  33.588  1.00  0.00     0.037 A 
ATOM     47  C   UNL A   1      43.101  26.342  27.135  1.00  0.00     0.037 A 
ATOM     48  C   UNL A   1      43.363  29.715  33.089  1.00  0.00     0.049 A 
ATOM     49  C   UNL A   1      44.112  26.622  28.187  1.00  0.00     0.074 A 
ATOM     50  C   UNL A   1      43.514  31.073  32.889  1.00  0.00     0.029 A 
ATOM     51  N   UNL A   1      44.351  29.118  32.341  1.00  0.00    -0.354 N 
ATOM     52  N   UNL A   1      44.823  27.715  28.230  1.00  0.00    -0.248 NA
ATOM     53  C   UNL A   1      43.975  25.918  29.454  1.00  0.00     0.031 C 
ATOM     54  C   UNL A   1      44.251  31.187  31.672  1.00  0.00     0.029 A 
ATOM     55  C   UNL A   1      44.573  29.900  31.238  1.00  0.00     0.049 A 
ATOM     56  H   UNL A   1      44.814  28.278  32.559  1.00  0.00     0.167 HD
ATOM     57  C   UNL A   1      44.858  28.065  29.573  1.00  0.00     0.074 A 
ATOM     58  C   UNL A   1      44.394  26.877  30.286  1.00  0.00     0.031 C 
ATOM     59  C   UNL A   1      44.968  29.373  29.953  1.00  0.00     0.037 A 
BRANCH  46  60
ATOM     60  C   UNL A   1      42.595  27.713  34.527  1.00  0.00     0.064 A 
ATOM     61  C   UNL A   1      43.119  26.523  33.977  1.00  0.00     0.173 A 
ATOM     62  C   UNL A   1      42.108  27.596  35.847  1.00  0.00     0.173 A 
ATOM     63  F   UNL A   1      43.634  26.511  32.738  1.00  0.00    -0.203 F 
ATOM     64  C   UNL A   1      43.035  25.296  34.640  1.00  0.00     0.198 A 
ATOM     65  C   UNL A   1      42.073  26.377  36.527  1.00  0.00     0.198 A 
ATOM     66  F   UNL A   1      41.549  28.614  36.507  1.00  0.00    -0.203 F 
ATOM     67  F   UNL A   1      43.407  24.173  34.010  1.00  0.00    -0.200 F 
ATOM     68  C   UNL A   1      42.494  25.222  35.909  1.00  0.00     0.200 A 
ATOM     69  F   UNL A   1      41.543  26.328  37.758  1.00  0.00    -0.200 F 
ATOM     70  F   UNL A   1      42.338  24.039  36.516  1.00  0.00    -0.200 F 
ENDBRANCH  46  60
BRANCH  47  71
ATOM     71  C   UNL A   1      43.080  25.090  26.342  1.00  0.00     0.064 A 
ATOM     72  C   UNL A   1      44.040  24.827  25.354  1.00  0.00     0.173 A 
ATOM     73  C   UNL A   1      42.256  24.010  26.718  1.00  0.00     0.173 A 
ATOM     74  F   UNL A   1      44.894  25.788  24.973  1.00  0.00    -0.203 F 
ATOM     75  C   UNL A   1      44.177  23.555  24.784  1.00  0.00     0.198 A 
ATOM     76  C   UNL A   1      42.390  22.743  26.148  1.00  0.00     0.198 A 
ATOM     77  F   UNL A   1      41.365  24.141  27.713  1.00  0.00    -0.203 F 
ATOM     78  F   UNL A   1      45.138  23.327  23.877  1.00  0.00    -0.200 F 
ATOM     79  C   UNL A   1      43.357  22.513  25.187  1.00  0.00     0.200 A 
ATOM     80  F   UNL A   1      41.615  21.736  26.574  1.00  0.00    -0.200 F 
ATOM     81  F   UNL A   1      43.523  21.283  24.681  1.00  0.00    -0.200 F 
ENDBRANCH  47  71
BRANCH  59  82
ATOM     82  C   UNL A   1      45.301  30.383  28.887  1.00  0.00     0.064 A 
ATOM     83  C   UNL A   1      44.342  31.140  28.192  1.00  0.00     0.173 A 
ATOM     84  C   UNL A   1      46.646  30.704  28.673  1.00  0.00     0.173 A 
ATOM     85  F   UNL A   1      43.036  30.969  28.415  1.00  0.00    -0.203 F 
ATOM     86  C   UNL A   1      44.713  32.140  27.294  1.00  0.00     0.198 A 
ATOM     87  C   UNL A   1      47.015  31.727  27.803  1.00  0.00     0.198 A 
ATOM     88  F   UNL A   1      47.606  30.058  29.353  1.00  0.00    -0.203 F 
ATOM     89  F   UNL A   1      43.773  32.840  26.641  1.00  0.00    -0.200 F 
ATOM     90  C   UNL A   1      46.050  32.437  27.107  1.00  0.00     0.200 A 
ATOM     91  F   UNL A   1      48.309  32.046  27.663  1.00  0.00    -0.200 F 
ATOM     92  F   UNL A   1      46.409  33.427  26.276  1.00  0.00    -0.200 F 
ENDBRANCH  59  82
ENDBRANCH  33  34
ENDBRANCH  25  28
ENDBRANCH  23  24
ENDBRANCH   1  23
TORSDOF 13
ENDMDL
