MODEL 1
REMARK VINA RESULT:     -14.0      0.000      0.000
REMARK SMILES COc1cc2c(cc1OC)[C@H](C(=O)NCCCCNC(=O)c1ccc(-c3c4nc(c(-c5c(F)c(F)c(F)c(F)c5F)c5ccc([nH]5)c(-c5c(F)c(F)c(F)c(F)c5F)c5nc(c(-c6c(F)c(F)c(F)c(F)c6F)c6ccc3[nH]6)C=C5)C=C4)cc1)[C@H](c1cccc(Cl)c1)N(C)C2=O
REMARK SMILES IDX 17 1 16 2 15 3 14 4 12 5 13 6 11 8 3 9 4 10 8 11 5 12 7 13
REMARK SMILES IDX 6 14 95 15 93 16 96 17 85 18 94 19 2 20 1 21 9 22 10 23
REMARK SMILES IDX 86 24 87 25 92 26 88 27 90 28 89 29 91 30 18 31 19 32 20 33
REMARK SMILES IDX 21 35 22 36 23 37 84 38 24 39 83 40 25 41 26 42 27 43 77 44
REMARK SMILES IDX 28 45 82 46 76 47 78 48 29 49 81 50 75 51 74 52 30 54 62 55
REMARK SMILES IDX 42 56 61 57 43 58 46 59 60 60 79 61 44 62 45 63 59 65 80 66
REMARK SMILES IDX 47 67 31 68 32 69 40 70 33 71 34 72 38 73 41 74 35 75 36 76
REMARK SMILES IDX 39 77 37 78 63 79 64 80 72 81 65 82 66 83 70 84 73 85 67 86
REMARK SMILES IDX 68 87 71 88 69 89 48 90 49 91 57 92 50 93 51 94 55 95 58 96
REMARK SMILES IDX 52 97 53 98 56 99 54 100
REMARK H PARENT 14 7 19 34 78 53 46 64
REMARK Flexibility Score: inf
ROOT
ATOM      1  C   UNL A   1      31.384  32.541  26.642  1.00  0.00     0.023 C 
ENDROOT
BRANCH   1   2
ATOM      2  C   UNL A   1      31.583  31.132  26.070  1.00  0.00     0.023 C 
BRANCH   2   3
ATOM      3  C   UNL A   1      32.762  30.362  26.664  1.00  0.00     0.116 C 
BRANCH   3   4
ATOM      4  N   UNL A   1      32.283  29.257  27.471  1.00  0.00    -0.355 N 
ATOM      5  C   UNL A   1      32.082  27.948  27.153  1.00  0.00     0.230 C 
ATOM      6  O   UNL A   1      31.427  27.312  27.974  1.00  0.00    -0.274 OA
ATOM      7  H   UNL A   1      32.065  29.492  28.401  1.00  0.00     0.163 HD
BRANCH   5   8
ATOM      8  C   UNL A   1      32.636  27.381  25.850  1.00  0.00     0.136 C 
ATOM      9  C   UNL A   1      31.993  23.162  24.991  1.00  0.00     0.161 A 
ATOM     10  C   UNL A   1      32.597  24.021  24.062  1.00  0.00     0.064 A 
ATOM     11  C   UNL A   1      31.621  23.665  26.247  1.00  0.00     0.161 A 
ATOM     12  C   UNL A   1      32.813  25.372  24.375  1.00  0.00     0.048 A 
ATOM     13  C   UNL A   1      31.818  25.025  26.536  1.00  0.00     0.056 A 
ATOM     14  C   UNL A   1      32.409  25.895  25.612  1.00  0.00    -0.016 A 
ATOM     15  C   UNL A   1      33.408  26.278  23.342  1.00  0.00     0.254 C 
ATOM     16  N   UNL A   1      33.154  27.646  23.486  1.00  0.00    -0.333 N 
ATOM     17  O   UNL A   1      34.053  25.800  22.414  1.00  0.00    -0.269 OA
ATOM     18  C   UNL A   1      32.236  28.144  24.546  1.00  0.00     0.132 C 
ATOM     19  C   UNL A   1      33.633  28.561  22.468  1.00  0.00     0.147 C 
BRANCH   9  20
ATOM     20  O   UNL A   1      31.656  21.873  24.675  1.00  0.00    -0.493 OA
ATOM     21  C   UNL A   1      32.595  20.866  25.030  1.00  0.00     0.278 C 
ENDBRANCH   9  20
BRANCH  11  22
ATOM     22  O   UNL A   1      31.048  22.995  27.298  1.00  0.00    -0.493 OA
ATOM     23  C   UNL A   1      29.639  22.821  27.304  1.00  0.00     0.278 C 
ENDBRANCH  11  22
BRANCH  18  24
ATOM     24  C   UNL A   1      30.760  28.066  24.112  1.00  0.00    -0.023 A 
ATOM     25  C   UNL A   1      29.996  26.924  24.410  1.00  0.00     0.006 A 
ATOM     26  C   UNL A   1      30.109  29.091  23.402  1.00  0.00     0.026 A 
ATOM     27  C   UNL A   1      28.711  26.740  23.893  1.00  0.00     0.002 A 
ATOM     28  C   UNL A   1      28.809  28.924  22.916  1.00  0.00     0.041 A 
ATOM     29  C   UNL A   1      28.120  27.737  23.128  1.00  0.00     0.020 A 
ATOM     30  Cl  UNL A   1      28.058  30.200  22.039  1.00  0.00    -0.084 Cl
ENDBRANCH  18  24
ENDBRANCH   5   8
ENDBRANCH   3   4
ENDBRANCH   2   3
ENDBRANCH   1   2
BRANCH   1  31
ATOM     31  C   UNL A   1      32.576  33.103  27.408  1.00  0.00     0.116 C 
BRANCH  31  32
ATOM     32  N   UNL A   1      32.383  34.492  27.788  1.00  0.00    -0.352 N 
ATOM     33  C   UNL A   1      33.003  35.217  28.772  1.00  0.00     0.251 C 
ATOM     34  H   UNL A   1      31.709  34.983  27.262  1.00  0.00     0.163 HD
ATOM     35  O   UNL A   1      32.581  36.332  29.073  1.00  0.00    -0.269 OA
BRANCH  33  36
ATOM     36  C   UNL A   1      34.160  34.648  29.495  1.00  0.00     0.039 A 
ATOM     37  C   UNL A   1      33.959  34.112  30.768  1.00  0.00     0.014 A 
ATOM     38  C   UNL A   1      35.436  34.643  28.925  1.00  0.00     0.014 A 
ATOM     39  C   UNL A   1      35.026  33.518  31.445  1.00  0.00     0.010 A 
ATOM     40  C   UNL A   1      36.480  33.979  29.565  1.00  0.00     0.010 A 
ATOM     41  C   UNL A   1      36.287  33.413  30.835  1.00  0.00    -0.014 A 
BRANCH  41  42
ATOM     42  C   UNL A   1      37.404  32.706  31.513  1.00  0.00     0.031 A 
ATOM     43  C   UNL A   1      38.080  31.536  30.854  1.00  0.00     0.074 A 
ATOM     44  C   UNL A   1      37.780  33.092  32.749  1.00  0.00     0.049 A 
ATOM     45  N   UNL A   1      39.059  30.786  31.299  1.00  0.00    -0.248 NA
ATOM     46  C   UNL A   1      37.576  31.138  29.531  1.00  0.00     0.031 C 
ATOM     47  C   UNL A   1      37.167  34.176  33.517  1.00  0.00     0.029 A 
ATOM     48  N   UNL A   1      38.765  32.615  33.577  1.00  0.00    -0.354 N 
ATOM     49  C   UNL A   1      39.278  29.828  30.319  1.00  0.00     0.074 A 
ATOM     50  C   UNL A   1      38.292  30.051  29.283  1.00  0.00     0.031 C 
ATOM     51  C   UNL A   1      37.809  34.303  34.689  1.00  0.00     0.029 A 
ATOM     52  C   UNL A   1      38.852  33.285  34.773  1.00  0.00     0.049 A 
ATOM     53  H   UNL A   1      39.356  31.865  33.336  1.00  0.00     0.167 HD
ATOM     54  C   UNL A   1      40.232  28.867  30.273  1.00  0.00     0.037 A 
ATOM     55  C   UNL A   1      39.676  33.098  35.822  1.00  0.00     0.037 A 
ATOM     56  C   UNL A   1      41.220  28.659  31.299  1.00  0.00     0.049 A 
ATOM     57  C   UNL A   1      40.718  32.015  35.752  1.00  0.00     0.074 A 
ATOM     58  C   UNL A   1      42.265  27.751  31.319  1.00  0.00     0.029 A 
ATOM     59  N   UNL A   1      41.280  29.362  32.494  1.00  0.00    -0.354 N 
ATOM     60  N   UNL A   1      40.970  31.169  34.783  1.00  0.00    -0.248 NA
ATOM     61  C   UNL A   1      41.599  31.868  36.919  1.00  0.00     0.031 C 
ATOM     62  C   UNL A   1      42.919  27.864  32.551  1.00  0.00     0.029 A 
ATOM     63  C   UNL A   1      42.326  28.888  33.271  1.00  0.00     0.049 A 
ATOM     64  H   UNL A   1      40.670  30.090  32.753  1.00  0.00     0.167 HD
ATOM     65  C   UNL A   1      42.054  30.413  35.207  1.00  0.00     0.074 A 
ATOM     66  C   UNL A   1      42.422  30.910  36.517  1.00  0.00     0.031 C 
ATOM     67  C   UNL A   1      42.687  29.397  34.570  1.00  0.00     0.037 A 
BRANCH  54  68
ATOM     68  C   UNL A   1      40.251  27.963  29.073  1.00  0.00     0.064 A 
ATOM     69  C   UNL A   1      40.995  28.276  27.924  1.00  0.00     0.173 A 
ATOM     70  C   UNL A   1      39.547  26.750  29.082  1.00  0.00     0.173 A 
ATOM     71  F   UNL A   1      41.681  29.428  27.857  1.00  0.00    -0.203 F 
ATOM     72  C   UNL A   1      41.004  27.428  26.819  1.00  0.00     0.198 A 
ATOM     73  C   UNL A   1      39.587  25.887  27.990  1.00  0.00     0.198 A 
ATOM     74  F   UNL A   1      38.825  26.395  30.156  1.00  0.00    -0.203 F 
ATOM     75  F   UNL A   1      41.677  27.777  25.714  1.00  0.00    -0.200 F 
ATOM     76  C   UNL A   1      40.306  26.231  26.856  1.00  0.00     0.200 A 
ATOM     77  F   UNL A   1      38.925  24.722  28.034  1.00  0.00    -0.200 F 
ATOM     78  F   UNL A   1      40.322  25.412  25.796  1.00  0.00    -0.200 F 
ENDBRANCH  54  68
BRANCH  55  79
ATOM     79  C   UNL A   1      39.565  33.974  37.018  1.00  0.00     0.064 A 
ATOM     80  C   UNL A   1      38.813  33.581  38.134  1.00  0.00     0.173 A 
ATOM     81  C   UNL A   1      40.204  35.222  37.072  1.00  0.00     0.173 A 
ATOM     82  F   UNL A   1      38.167  32.405  38.125  1.00  0.00    -0.203 F 
ATOM     83  C   UNL A   1      38.685  34.409  39.247  1.00  0.00     0.198 A 
ATOM     84  C   UNL A   1      40.103  36.036  38.198  1.00  0.00     0.198 A 
ATOM     85  F   UNL A   1      40.942  35.644  36.034  1.00  0.00    -0.203 F 
ATOM     86  F   UNL A   1      37.920  34.029  40.279  1.00  0.00    -0.200 F 
ATOM     87  C   UNL A   1      39.336  35.634  39.281  1.00  0.00     0.200 A 
ATOM     88  F   UNL A   1      40.747  37.210  38.233  1.00  0.00    -0.200 F 
ATOM     89  F   UNL A   1      39.218  36.429  40.352  1.00  0.00    -0.200 F 
ENDBRANCH  55  79
BRANCH  67  90
ATOM     90  C   UNL A   1      43.875  28.782  35.257  1.00  0.00     0.064 A 
ATOM     91  C   UNL A   1      45.178  29.258  35.049  1.00  0.00     0.173 A 
ATOM     92  C   UNL A   1      43.698  27.728  36.165  1.00  0.00     0.173 A 
ATOM     93  F   UNL A   1      45.404  30.255  34.180  1.00  0.00    -0.203 F 
ATOM     94  C   UNL A   1      46.263  28.680  35.704  1.00  0.00     0.198 A 
ATOM     95  C   UNL A   1      44.780  27.176  36.844  1.00  0.00     0.198 A 
ATOM     96  F   UNL A   1      42.472  27.240  36.405  1.00  0.00    -0.203 F 
ATOM     97  F   UNL A   1      47.504  29.114  35.450  1.00  0.00    -0.200 F 
ATOM     98  C   UNL A   1      46.063  27.646  36.606  1.00  0.00     0.200 A 
ATOM     99  F   UNL A   1      44.582  26.189  37.729  1.00  0.00    -0.200 F 
ATOM    100  F   UNL A   1      47.107  27.097  37.243  1.00  0.00    -0.200 F 
ENDBRANCH  67  90
ENDBRANCH  41  42
ENDBRANCH  33  36
ENDBRANCH  31  32
ENDBRANCH   1  31
TORSDOF 14
ENDMDL
MODEL 2
REMARK VINA RESULT:     -13.9      5.433      9.895
REMARK SMILES COc1cc2c(cc1OC)[C@H](C(=O)NCCCCNC(=O)c1ccc(-c3c4nc(c(-c5c(F)c(F)c(F)c(F)c5F)c5ccc([nH]5)c(-c5c(F)c(F)c(F)c(F)c5F)c5nc(c(-c6c(F)c(F)c(F)c(F)c6F)c6ccc3[nH]6)C=C5)C=C4)cc1)[C@H](c1cccc(Cl)c1)N(C)C2=O
REMARK SMILES IDX 17 1 16 2 15 3 14 4 12 5 13 6 11 8 3 9 4 10 8 11 5 12 7 13
REMARK SMILES IDX 6 14 95 15 93 16 96 17 85 18 94 19 2 20 1 21 9 22 10 23
REMARK SMILES IDX 86 24 87 25 92 26 88 27 90 28 89 29 91 30 18 31 19 32 20 33
REMARK SMILES IDX 21 35 22 36 23 37 84 38 24 39 83 40 25 41 26 42 27 43 77 44
REMARK SMILES IDX 28 45 82 46 76 47 78 48 29 49 81 50 75 51 74 52 30 54 62 55
REMARK SMILES IDX 42 56 61 57 43 58 46 59 60 60 79 61 44 62 45 63 59 65 80 66
REMARK SMILES IDX 47 67 31 68 32 69 40 70 33 71 34 72 38 73 41 74 35 75 36 76
REMARK SMILES IDX 39 77 37 78 63 79 64 80 72 81 65 82 66 83 70 84 73 85 67 86
REMARK SMILES IDX 68 87 71 88 69 89 48 90 49 91 57 92 50 93 51 94 55 95 58 96
REMARK SMILES IDX 52 97 53 98 56 99 54 100
REMARK H PARENT 14 7 19 34 78 53 46 64
REMARK Flexibility Score: inf
ROOT
ATOM      1  C   UNL A   1      39.294  21.091  25.563  1.00  0.00     0.023 C 
ENDROOT
BRANCH   1   2
ATOM      2  C   UNL A   1      39.279  22.482  26.207  1.00  0.00     0.023 C 
BRANCH   2   3
ATOM      3  C   UNL A   1      37.965  23.246  26.048  1.00  0.00     0.116 C 
BRANCH   3   4
ATOM      4  N   UNL A   1      37.562  23.264  24.655  1.00  0.00    -0.355 N 
ATOM      5  C   UNL A   1      36.323  23.281  24.090  1.00  0.00     0.230 C 
ATOM      6  O   UNL A   1      36.300  23.034  22.888  1.00  0.00    -0.274 OA
ATOM      7  H   UNL A   1      38.306  23.262  24.012  1.00  0.00     0.163 HD
BRANCH   5   8
ATOM      8  C   UNL A   1      35.093  23.569  24.945  1.00  0.00     0.136 C 
ATOM      9  C   UNL A   1      31.805  25.794  23.160  1.00  0.00     0.161 A 
ATOM     10  C   UNL A   1      31.716  25.254  24.451  1.00  0.00     0.064 A 
ATOM     11  C   UNL A   1      32.999  25.648  22.438  1.00  0.00     0.161 A 
ATOM     12  C   UNL A   1      32.801  24.561  25.010  1.00  0.00     0.048 A 
ATOM     13  C   UNL A   1      34.066  24.928  23.000  1.00  0.00     0.056 A 
ATOM     14  C   UNL A   1      33.985  24.375  24.282  1.00  0.00    -0.016 A 
ATOM     15  C   UNL A   1      32.657  23.947  26.368  1.00  0.00     0.254 C 
ATOM     16  N   UNL A   1      33.518  22.888  26.672  1.00  0.00    -0.333 N 
ATOM     17  O   UNL A   1      31.792  24.361  27.134  1.00  0.00    -0.269 OA
ATOM     18  C   UNL A   1      34.438  22.333  25.643  1.00  0.00     0.132 C 
ATOM     19  C   UNL A   1      33.366  22.199  27.940  1.00  0.00     0.147 C 
BRANCH   9  20
ATOM     20  O   UNL A   1      30.727  26.366  22.537  1.00  0.00    -0.493 OA
ATOM     21  C   UNL A   1      30.581  27.773  22.687  1.00  0.00     0.278 C 
ENDBRANCH   9  20
BRANCH  11  22
ATOM     22  O   UNL A   1      33.301  26.118  21.185  1.00  0.00    -0.493 OA
ATOM     23  C   UNL A   1      32.699  25.491  20.062  1.00  0.00     0.278 C 
ENDBRANCH  11  22
BRANCH  18  24
ATOM     24  C   UNL A   1      33.735  21.307  24.735  1.00  0.00    -0.023 A 
ATOM     25  C   UNL A   1      32.971  21.741  23.638  1.00  0.00     0.006 A 
ATOM     26  C   UNL A   1      33.798  19.917  24.947  1.00  0.00     0.026 A 
ATOM     27  C   UNL A   1      32.183  20.860  22.892  1.00  0.00     0.002 A 
ATOM     28  C   UNL A   1      33.040  19.030  24.178  1.00  0.00     0.041 A 
ATOM     29  C   UNL A   1      32.204  19.500  23.173  1.00  0.00     0.020 A 
ATOM     30  Cl  UNL A   1      33.137  17.340  24.484  1.00  0.00    -0.084 Cl
ENDBRANCH  18  24
ENDBRANCH   5   8
ENDBRANCH   3   4
ENDBRANCH   2   3
ENDBRANCH   1   2
BRANCH   1  31
ATOM     31  C   UNL A   1      39.725  19.954  26.484  1.00  0.00     0.116 C 
BRANCH  31  32
ATOM     32  N   UNL A   1      40.876  19.234  25.971  1.00  0.00    -0.352 N 
ATOM     33  C   UNL A   1      42.160  19.675  25.777  1.00  0.00     0.251 C 
ATOM     34  H   UNL A   1      40.711  18.294  25.726  1.00  0.00     0.163 HD
ATOM     35  O   UNL A   1      42.963  18.979  25.160  1.00  0.00    -0.269 OA
BRANCH  33  36
ATOM     36  C   UNL A   1      42.573  21.001  26.284  1.00  0.00     0.039 A 
ATOM     37  C   UNL A   1      42.930  21.989  25.365  1.00  0.00     0.014 A 
ATOM     38  C   UNL A   1      42.610  21.270  27.655  1.00  0.00     0.014 A 
ATOM     39  C   UNL A   1      43.268  23.266  25.819  1.00  0.00     0.010 A 
ATOM     40  C   UNL A   1      42.868  22.564  28.102  1.00  0.00     0.010 A 
ATOM     41  C   UNL A   1      43.204  23.575  27.188  1.00  0.00    -0.014 A 
BRANCH  41  42
ATOM     42  C   UNL A   1      43.479  24.954  27.670  1.00  0.00     0.031 A 
ATOM     43  C   UNL A   1      44.891  25.416  27.902  1.00  0.00     0.074 A 
ATOM     44  C   UNL A   1      42.448  25.778  27.945  1.00  0.00     0.049 A 
ATOM     45  N   UNL A   1      45.322  26.575  28.336  1.00  0.00    -0.248 NA
ATOM     46  C   UNL A   1      45.959  24.442  27.636  1.00  0.00     0.031 C 
ATOM     47  C   UNL A   1      41.031  25.429  27.814  1.00  0.00     0.029 A 
ATOM     48  N   UNL A   1      42.429  27.075  28.392  1.00  0.00    -0.354 N 
ATOM     49  C   UNL A   1      46.704  26.464  28.402  1.00  0.00     0.074 A 
ATOM     50  C   UNL A   1      47.037  25.107  28.024  1.00  0.00     0.031 C 
ATOM     51  C   UNL A   1      40.284  26.495  28.142  1.00  0.00     0.029 A 
ATOM     52  C   UNL A   1      41.165  27.588  28.545  1.00  0.00     0.049 A 
ATOM     53  H   UNL A   1      43.246  27.590  28.585  1.00  0.00     0.167 HD
ATOM     54  C   UNL A   1      47.615  27.414  28.723  1.00  0.00     0.037 A 
ATOM     55  C   UNL A   1      40.758  28.801  28.966  1.00  0.00     0.037 A 
ATOM     56  C   UNL A   1      47.279  28.766  29.085  1.00  0.00     0.049 A 
ATOM     57  C   UNL A   1      41.789  29.835  29.329  1.00  0.00     0.074 A 
ATOM     58  C   UNL A   1      48.131  29.820  29.369  1.00  0.00     0.029 A 
ATOM     59  N   UNL A   1      45.987  29.252  29.222  1.00  0.00    -0.354 N 
ATOM     60  N   UNL A   1      43.097  29.744  29.307  1.00  0.00    -0.248 NA
ATOM     61  C   UNL A   1      41.288  31.145  29.766  1.00  0.00     0.031 C 
ATOM     62  C   UNL A   1      47.355  30.924  29.737  1.00  0.00     0.029 A 
ATOM     63  C   UNL A   1      46.018  30.580  29.616  1.00  0.00     0.049 A 
ATOM     64  H   UNL A   1      45.167  28.729  29.063  1.00  0.00     0.167 HD
ATOM     65  C   UNL A   1      43.573  30.989  29.695  1.00  0.00     0.074 A 
ATOM     66  C   UNL A   1      42.414  31.824  29.932  1.00  0.00     0.031 C 
ATOM     67  C   UNL A   1      44.856  31.403  29.841  1.00  0.00     0.037 A 
BRANCH  54  68
ATOM     68  C   UNL A   1      49.066  27.023  28.700  1.00  0.00     0.064 A 
ATOM     69  C   UNL A   1      49.836  27.110  27.530  1.00  0.00     0.173 A 
ATOM     70  C   UNL A   1      49.706  26.588  29.871  1.00  0.00     0.173 A 
ATOM     71  F   UNL A   1      49.273  27.512  26.379  1.00  0.00    -0.203 F 
ATOM     72  C   UNL A   1      51.180  26.745  27.524  1.00  0.00     0.198 A 
ATOM     73  C   UNL A   1      51.059  26.257  29.870  1.00  0.00     0.198 A 
ATOM     74  F   UNL A   1      49.021  26.492  31.020  1.00  0.00    -0.203 F 
ATOM     75  F   UNL A   1      51.879  26.784  26.381  1.00  0.00    -0.200 F 
ATOM     76  C   UNL A   1      51.792  26.326  28.695  1.00  0.00     0.200 A 
ATOM     77  F   UNL A   1      51.652  25.868  31.007  1.00  0.00    -0.200 F 
ATOM     78  F   UNL A   1      53.087  25.982  28.691  1.00  0.00    -0.200 F 
ENDBRANCH  54  68
BRANCH  55  79
ATOM     79  C   UNL A   1      39.306  29.112  29.041  1.00  0.00     0.064 A 
ATOM     80  C   UNL A   1      38.621  29.068  30.263  1.00  0.00     0.173 A 
ATOM     81  C   UNL A   1      38.572  29.459  27.896  1.00  0.00     0.173 A 
ATOM     82  F   UNL A   1      39.272  28.724  31.384  1.00  0.00    -0.203 F 
ATOM     83  C   UNL A   1      37.254  29.334  30.335  1.00  0.00     0.198 A 
ATOM     84  C   UNL A   1      37.214  29.757  27.973  1.00  0.00     0.198 A 
ATOM     85  F   UNL A   1      39.182  29.524  26.703  1.00  0.00    -0.203 F 
ATOM     86  F   UNL A   1      36.615  29.235  31.508  1.00  0.00    -0.200 F 
ATOM     87  C   UNL A   1      36.553  29.685  29.190  1.00  0.00     0.200 A 
ATOM     88  F   UNL A   1      36.545  30.112  26.868  1.00  0.00    -0.200 F 
ATOM     89  F   UNL A   1      35.242  29.946  29.259  1.00  0.00    -0.200 F 
ENDBRANCH  55  79
BRANCH  67  90
ATOM     90  C   UNL A   1      45.080  32.837  30.234  1.00  0.00     0.064 A 
ATOM     91  C   UNL A   1      45.221  33.223  31.576  1.00  0.00     0.173 A 
ATOM     92  C   UNL A   1      45.193  33.831  29.250  1.00  0.00     0.173 A 
ATOM     93  F   UNL A   1      45.108  32.314  32.556  1.00  0.00    -0.203 F 
ATOM     94  C   UNL A   1      45.439  34.555  31.917  1.00  0.00     0.198 A 
ATOM     95  C   UNL A   1      45.445  35.155  29.593  1.00  0.00     0.198 A 
ATOM     96  F   UNL A   1      45.073  33.514  27.952  1.00  0.00    -0.203 F 
ATOM     97  F   UNL A   1      45.517  34.910  33.207  1.00  0.00    -0.200 F 
ATOM     98  C   UNL A   1      45.559  35.519  30.927  1.00  0.00     0.200 A 
ATOM     99  F   UNL A   1      45.579  36.081  28.633  1.00  0.00    -0.200 F 
ATOM    100  F   UNL A   1      45.777  36.799  31.257  1.00  0.00    -0.200 F 
ENDBRANCH  67  90
ENDBRANCH  41  42
ENDBRANCH  33  36
ENDBRANCH  31  32
ENDBRANCH   1  31
TORSDOF 14
ENDMDL
MODEL 3
REMARK VINA RESULT:     -13.9      5.484      9.897
REMARK SMILES COc1cc2c(cc1OC)[C@H](C(=O)NCCCCNC(=O)c1ccc(-c3c4nc(c(-c5c(F)c(F)c(F)c(F)c5F)c5ccc([nH]5)c(-c5c(F)c(F)c(F)c(F)c5F)c5nc(c(-c6c(F)c(F)c(F)c(F)c6F)c6ccc3[nH]6)C=C5)C=C4)cc1)[C@H](c1cccc(Cl)c1)N(C)C2=O
REMARK SMILES IDX 17 1 16 2 15 3 14 4 12 5 13 6 11 8 3 9 4 10 8 11 5 12 7 13
REMARK SMILES IDX 6 14 95 15 93 16 96 17 85 18 94 19 2 20 1 21 9 22 10 23
REMARK SMILES IDX 86 24 87 25 92 26 88 27 90 28 89 29 91 30 18 31 19 32 20 33
REMARK SMILES IDX 21 35 22 36 23 37 84 38 24 39 83 40 25 41 26 42 27 43 77 44
REMARK SMILES IDX 28 45 82 46 76 47 78 48 29 49 81 50 75 51 74 52 30 54 62 55
REMARK SMILES IDX 42 56 61 57 43 58 46 59 60 60 79 61 44 62 45 63 59 65 80 66
REMARK SMILES IDX 47 67 31 68 32 69 40 70 33 71 34 72 38 73 41 74 35 75 36 76
REMARK SMILES IDX 39 77 37 78 63 79 64 80 72 81 65 82 66 83 70 84 73 85 67 86
REMARK SMILES IDX 68 87 71 88 69 89 48 90 49 91 57 92 50 93 51 94 55 95 58 96
REMARK SMILES IDX 52 97 53 98 56 99 54 100
REMARK H PARENT 14 7 19 34 78 53 46 64
REMARK Flexibility Score: inf
ROOT
ATOM      1  C   UNL A   1      39.322  21.205  25.547  1.00  0.00     0.023 C 
ENDROOT
BRANCH   1   2
ATOM      2  C   UNL A   1      39.257  22.558  26.266  1.00  0.00     0.023 C 
BRANCH   2   3
ATOM      3  C   UNL A   1      37.950  23.325  26.068  1.00  0.00     0.116 C 
BRANCH   3   4
ATOM      4  N   UNL A   1      37.562  23.301  24.671  1.00  0.00    -0.355 N 
ATOM      5  C   UNL A   1      36.329  23.288  24.092  1.00  0.00     0.230 C 
ATOM      6  O   UNL A   1      36.323  23.008  22.897  1.00  0.00    -0.274 OA
ATOM      7  H   UNL A   1      38.313  23.291  24.036  1.00  0.00     0.163 HD
BRANCH   5   8
ATOM      8  C   UNL A   1      35.087  23.584  24.927  1.00  0.00     0.136 C 
ATOM      9  C   UNL A   1      31.824  25.787  23.071  1.00  0.00     0.161 A 
ATOM     10  C   UNL A   1      31.717  25.261  24.365  1.00  0.00     0.064 A 
ATOM     11  C   UNL A   1      33.028  25.635  22.367  1.00  0.00     0.161 A 
ATOM     12  C   UNL A   1      32.793  24.575  24.948  1.00  0.00     0.048 A 
ATOM     13  C   UNL A   1      34.088  24.922  22.952  1.00  0.00     0.056 A 
ATOM     14  C   UNL A   1      33.988  24.382  24.239  1.00  0.00    -0.016 A 
ATOM     15  C   UNL A   1      32.630  23.976  26.310  1.00  0.00     0.254 C 
ATOM     16  N   UNL A   1      33.487  22.920  26.638  1.00  0.00    -0.333 N 
ATOM     17  O   UNL A   1      31.754  24.397  27.059  1.00  0.00    -0.269 OA
ATOM     18  C   UNL A   1      34.423  22.355  25.628  1.00  0.00     0.132 C 
ATOM     19  C   UNL A   1      33.317  22.245  27.911  1.00  0.00     0.147 C 
BRANCH   9  20
ATOM     20  O   UNL A   1      30.755  26.353  22.426  1.00  0.00    -0.493 OA
ATOM     21  C   UNL A   1      30.625  27.765  22.531  1.00  0.00     0.278 C 
ENDBRANCH   9  20
BRANCH  11  22
ATOM     22  O   UNL A   1      33.348  26.092  21.114  1.00  0.00    -0.493 OA
ATOM     23  C   UNL A   1      32.677  25.530  19.995  1.00  0.00     0.278 C 
ENDBRANCH  11  22
BRANCH  18  24
ATOM     24  C   UNL A   1      33.733  21.319  24.720  1.00  0.00    -0.023 A 
ATOM     25  C   UNL A   1      32.982  21.741  23.610  1.00  0.00     0.006 A 
ATOM     26  C   UNL A   1      33.798  19.931  24.946  1.00  0.00     0.026 A 
ATOM     27  C   UNL A   1      32.205  20.851  22.863  1.00  0.00     0.002 A 
ATOM     28  C   UNL A   1      33.051  19.035  24.175  1.00  0.00     0.041 A 
ATOM     29  C   UNL A   1      32.226  19.494  23.156  1.00  0.00     0.020 A 
ATOM     30  Cl  UNL A   1      33.150  17.348  24.497  1.00  0.00    -0.084 Cl
ENDBRANCH  18  24
ENDBRANCH   5   8
ENDBRANCH   3   4
ENDBRANCH   2   3
ENDBRANCH   1   2
BRANCH   1  31
ATOM     31  C   UNL A   1      39.576  20.003  26.451  1.00  0.00     0.116 C 
BRANCH  31  32
ATOM     32  N   UNL A   1      40.716  19.216  26.014  1.00  0.00    -0.352 N 
ATOM     33  C   UNL A   1      42.025  19.595  25.862  1.00  0.00     0.251 C 
ATOM     34  H   UNL A   1      40.521  18.276  25.796  1.00  0.00     0.163 HD
ATOM     35  O   UNL A   1      42.822  18.843  25.305  1.00  0.00    -0.269 OA
BRANCH  33  36
ATOM     36  C   UNL A   1      42.474  20.921  26.339  1.00  0.00     0.039 A 
ATOM     37  C   UNL A   1      42.869  21.874  25.398  1.00  0.00     0.014 A 
ATOM     38  C   UNL A   1      42.507  21.224  27.703  1.00  0.00     0.014 A 
ATOM     39  C   UNL A   1      43.241  23.151  25.823  1.00  0.00     0.010 A 
ATOM     40  C   UNL A   1      42.800  22.521  28.119  1.00  0.00     0.010 A 
ATOM     41  C   UNL A   1      43.175  23.497  27.183  1.00  0.00    -0.014 A 
BRANCH  41  42
ATOM     42  C   UNL A   1      43.487  24.879  27.632  1.00  0.00     0.031 A 
ATOM     43  C   UNL A   1      44.913  25.330  27.786  1.00  0.00     0.074 A 
ATOM     44  C   UNL A   1      42.479  25.717  27.949  1.00  0.00     0.049 A 
ATOM     45  N   UNL A   1      45.377  26.490  28.182  1.00  0.00    -0.248 NA
ATOM     46  C   UNL A   1      45.957  24.342  27.477  1.00  0.00     0.031 C 
ATOM     47  C   UNL A   1      41.055  25.381  27.896  1.00  0.00     0.029 A 
ATOM     48  N   UNL A   1      42.496  27.019  28.380  1.00  0.00    -0.354 N 
ATOM     49  C   UNL A   1      46.759  26.366  28.179  1.00  0.00     0.074 A 
ATOM     50  C   UNL A   1      47.059  25.001  27.801  1.00  0.00     0.031 C 
ATOM     51  C   UNL A   1      40.335  26.458  28.248  1.00  0.00     0.029 A 
ATOM     52  C   UNL A   1      41.246  27.547  28.591  1.00  0.00     0.049 A 
ATOM     53  H   UNL A   1      43.326  27.529  28.524  1.00  0.00     0.167 HD
ATOM     54  C   UNL A   1      47.695  27.310  28.439  1.00  0.00     0.037 A 
ATOM     55  C   UNL A   1      40.873  28.769  29.016  1.00  0.00     0.037 A 
ATOM     56  C   UNL A   1      47.391  28.670  28.801  1.00  0.00     0.049 A 
ATOM     57  C   UNL A   1      41.931  29.797  29.312  1.00  0.00     0.074 A 
ATOM     58  C   UNL A   1      48.266  29.719  29.028  1.00  0.00     0.029 A 
ATOM     59  N   UNL A   1      46.112  29.170  28.997  1.00  0.00    -0.354 N 
ATOM     60  N   UNL A   1      43.235  29.693  29.225  1.00  0.00    -0.248 NA
ATOM     61  C   UNL A   1      41.465  31.118  29.758  1.00  0.00     0.031 C 
ATOM     62  C   UNL A   1      47.520  30.835  29.421  1.00  0.00     0.029 A 
ATOM     63  C   UNL A   1      46.176  30.503  29.373  1.00  0.00     0.049 A 
ATOM     64  H   UNL A   1      45.280  28.654  28.888  1.00  0.00     0.167 HD
ATOM     65  C   UNL A   1      43.743  30.938  29.571  1.00  0.00     0.074 A 
ATOM     66  C   UNL A   1      42.605  31.787  29.857  1.00  0.00     0.031 C 
ATOM     67  C   UNL A   1      45.035  31.341  29.646  1.00  0.00     0.037 A 
BRANCH  54  68
ATOM     68  C   UNL A   1      49.139  26.904  28.347  1.00  0.00     0.064 A 
ATOM     69  C   UNL A   1      49.836  26.927  27.129  1.00  0.00     0.173 A 
ATOM     70  C   UNL A   1      49.846  26.520  29.496  1.00  0.00     0.173 A 
ATOM     71  F   UNL A   1      49.206  27.278  25.997  1.00  0.00    -0.203 F 
ATOM     72  C   UNL A   1      51.175  26.549  27.059  1.00  0.00     0.198 A 
ATOM     73  C   UNL A   1      51.195  26.177  29.429  1.00  0.00     0.198 A 
ATOM     74  F   UNL A   1      49.233  26.487  30.689  1.00  0.00    -0.203 F 
ATOM     75  F   UNL A   1      51.802  26.526  25.875  1.00  0.00    -0.200 F 
ATOM     76  C   UNL A   1      51.855  26.181  28.210  1.00  0.00     0.200 A 
ATOM     77  F   UNL A   1      51.854  25.837  30.546  1.00  0.00    -0.200 F 
ATOM     78  F   UNL A   1      53.144  25.825  28.143  1.00  0.00    -0.200 F 
ENDBRANCH  54  68
BRANCH  55  79
ATOM     79  C   UNL A   1      39.430  29.096  29.162  1.00  0.00     0.064 A 
ATOM     80  C   UNL A   1      38.657  29.464  28.052  1.00  0.00     0.173 A 
ATOM     81  C   UNL A   1      38.792  29.051  30.412  1.00  0.00     0.173 A 
ATOM     82  F   UNL A   1      39.223  29.540  26.838  1.00  0.00    -0.203 F 
ATOM     83  C   UNL A   1      37.310  29.795  28.187  1.00  0.00     0.198 A 
ATOM     84  C   UNL A   1      37.439  29.351  30.542  1.00  0.00     0.198 A 
ATOM     85  F   UNL A   1      39.484  28.699  31.506  1.00  0.00    -0.203 F 
ATOM     86  F   UNL A   1      36.608  30.190  27.117  1.00  0.00    -0.200 F 
ATOM     87  C   UNL A   1      36.700  29.732  29.432  1.00  0.00     0.200 A 
ATOM     88  F   UNL A   1      36.850  29.272  31.743  1.00  0.00    -0.200 F 
ATOM     89  F   UNL A   1      35.405  30.046  29.562  1.00  0.00    -0.200 F 
ENDBRANCH  55  79
BRANCH  67  90
ATOM     90  C   UNL A   1      45.292  32.776  30.009  1.00  0.00     0.064 A 
ATOM     91  C   UNL A   1      45.341  33.788  29.038  1.00  0.00     0.173 A 
ATOM     92  C   UNL A   1      45.454  33.148  31.353  1.00  0.00     0.173 A 
ATOM     93  F   UNL A   1      45.206  33.484  27.739  1.00  0.00    -0.203 F 
ATOM     94  C   UNL A   1      45.569  35.114  29.398  1.00  0.00     0.198 A 
ATOM     95  C   UNL A   1      45.648  34.479  31.711  1.00  0.00     0.198 A 
ATOM     96  F   UNL A   1      45.410  32.221  32.321  1.00  0.00    -0.203 F 
ATOM     97  F   UNL A   1      45.665  36.055  28.450  1.00  0.00    -0.200 F 
ATOM     98  C   UNL A   1      45.715  35.460  30.733  1.00  0.00     0.200 A 
ATOM     99  F   UNL A   1      45.770  34.812  33.003  1.00  0.00    -0.200 F 
ATOM    100  F   UNL A   1      45.926  36.738  31.078  1.00  0.00    -0.200 F 
ENDBRANCH  67  90
ENDBRANCH  41  42
ENDBRANCH  33  36
ENDBRANCH  31  32
ENDBRANCH   1  31
TORSDOF 14
ENDMDL
