MODEL 1
REMARK VINA RESULT:     -11.8      0.000      0.000
REMARK SMILES COc1ccc(/C=C2/SC(=S)N(NS(=O)(=O)c3ccccc3)C2=O)c(C(=O)NCCCCNC(=O)c2ccc(-c3c4nc(c(-c5c(F)c(F)c(F)c(F)c5F)c5ccc([nH]5)c(-c5c(F)c(F)c(F)c(F)c5F)c5nc(c(-c6c(F)c(F)c(F)c(F)c6F)c6ccc3[nH]6)C=C5)C=C4)cc2)c1OC
REMARK SMILES IDX 29 1 28 2 26 3 27 4 25 6 3 7 4 8 99 9 5 10 6 11 2 12 1 13
REMARK SMILES IDX 100 14 101 15 7 16 8 17 9 18 23 19 10 20 12 21 24 22 11 23
REMARK SMILES IDX 13 24 14 26 15 27 16 28 17 29 18 30 22 31 19 32 21 33 20 34
REMARK SMILES IDX 30 35 31 36 32 37 33 38 34 39 35 41 36 42 37 43 98 44 38 45
REMARK SMILES IDX 97 46 39 47 40 48 41 49 91 50 42 51 96 52 90 53 92 54 43 55
REMARK SMILES IDX 95 56 89 57 88 58 44 60 76 61 56 62 75 63 57 64 60 65 74 66
REMARK SMILES IDX 93 67 58 68 59 69 73 71 94 72 61 73 45 74 46 75 54 76 47 77
REMARK SMILES IDX 48 78 52 79 55 80 49 81 50 82 53 83 51 84 77 85 78 86 86 87
REMARK SMILES IDX 79 88 80 89 84 90 87 91 81 92 82 93 85 94 83 95 62 96 63 97
REMARK SMILES IDX 71 98 64 99 65 100 69 101 72 102 66 103 67 104 70 105 68 106
REMARK H PARENT 28 5 13 25 33 40 92 59 60 70
REMARK Flexibility Score: inf
ROOT
ATOM      1  C   UNL A   1      32.124  29.461  27.044  1.00  0.00     0.116 C 
ENDROOT
BRANCH   1   2
ATOM      2  N   UNL A   1      33.030  28.369  26.774  1.00  0.00    -0.352 N 
ATOM      3  C   UNL A   1      33.075  27.595  25.621  1.00  0.00     0.255 C 
ATOM      4  O   UNL A   1      34.023  26.823  25.475  1.00  0.00    -0.269 OA
ATOM      5  H   UNL A   1      33.681  28.153  27.480  1.00  0.00     0.163 HD
BRANCH   3   6
ATOM      6  C   UNL A   1      31.937  27.572  24.637  1.00  0.00     0.092 A 
ATOM      7  C   UNL A   1      30.580  28.621  22.907  1.00  0.00     0.161 A 
ATOM      8  C   UNL A   1      29.607  27.633  23.084  1.00  0.00     0.051 A 
ATOM      9  C   UNL A   1      31.790  28.562  23.625  1.00  0.00     0.174 A 
ATOM     10  C   UNL A   1      29.802  26.593  23.992  1.00  0.00     0.013 A 
ATOM     11  C   UNL A   1      30.944  26.567  24.806  1.00  0.00    -0.007 A 
BRANCH   7  12
ATOM     12  O   UNL A   1      30.155  29.716  22.201  1.00  0.00    -0.493 OA
ATOM     13  C   UNL A   1      28.747  29.827  22.038  1.00  0.00     0.278 C 
ENDBRANCH   7  12
BRANCH   9  14
ATOM     14  O   UNL A   1      32.891  29.343  23.365  1.00  0.00    -0.492 OA
ATOM     15  C   UNL A   1      33.908  28.842  22.502  1.00  0.00     0.278 C 
ENDBRANCH   9  14
BRANCH  11  16
ATOM     16  C   UNL A   1      30.966  25.494  25.829  1.00  0.00     0.030 C 
ATOM     17  C   UNL A   1      31.727  24.389  25.783  1.00  0.00     0.082 C 
ATOM     18  S   UNL A   1      31.786  23.188  27.028  1.00  0.00    -0.053 SA
ATOM     19  C   UNL A   1      32.647  24.013  24.681  1.00  0.00     0.281 C 
ATOM     20  C   UNL A   1      32.999  22.226  26.182  1.00  0.00     0.164 C 
ATOM     21  N   UNL A   1      33.358  22.882  25.026  1.00  0.00    -0.209 N 
ATOM     22  O   UNL A   1      32.702  24.582  23.603  1.00  0.00    -0.267 OA
ATOM     23  S   UNL A   1      33.588  20.766  26.728  1.00  0.00    -0.050 S 
BRANCH  21  24
ATOM     24  N   UNL A   1      34.351  22.336  24.075  1.00  0.00    -0.114 NA
ATOM     25  H   UNL A   1      33.979  22.452  23.134  1.00  0.00     0.168 HD
BRANCH  24  26
ATOM     26  S   UNL A   1      35.906  23.062  24.119  1.00  0.00     0.257 S 
ATOM     27  O   UNL A   1      36.256  23.332  22.738  1.00  0.00    -0.205 OA
ATOM     28  O   UNL A   1      35.824  24.134  25.086  1.00  0.00    -0.205 OA
BRANCH  26  29
ATOM     29  C   UNL A   1      37.031  21.846  24.746  1.00  0.00     0.084 A 
ATOM     30  C   UNL A   1      36.769  20.484  24.563  1.00  0.00     0.022 A 
ATOM     31  C   UNL A   1      38.186  22.265  25.419  1.00  0.00     0.022 A 
ATOM     32  C   UNL A   1      37.706  19.544  24.999  1.00  0.00     0.001 A 
ATOM     33  C   UNL A   1      39.117  21.318  25.847  1.00  0.00     0.001 A 
ATOM     34  C   UNL A   1      38.883  19.962  25.625  1.00  0.00     0.000 A 
ENDBRANCH  26  29
ENDBRANCH  24  26
ENDBRANCH  21  24
ENDBRANCH  11  16
ENDBRANCH   3   6
ENDBRANCH   1   2
BRANCH   1  35
ATOM     35  C   UNL A   1      32.683  30.833  27.375  1.00  0.00     0.023 C 
BRANCH  35  36
ATOM     36  C   UNL A   1      31.759  32.024  27.170  1.00  0.00     0.023 C 
BRANCH  36  37
ATOM     37  C   UNL A   1      32.402  33.344  26.759  1.00  0.00     0.116 C 
BRANCH  37  38
ATOM     38  N   UNL A   1      32.199  34.445  27.693  1.00  0.00    -0.352 N 
ATOM     39  C   UNL A   1      32.942  34.822  28.790  1.00  0.00     0.251 C 
ATOM     40  H   UNL A   1      31.408  35.003  27.513  1.00  0.00     0.163 HD
ATOM     41  O   UNL A   1      32.581  35.769  29.485  1.00  0.00    -0.269 OA
BRANCH  39  42
ATOM     42  C   UNL A   1      34.146  34.050  29.171  1.00  0.00     0.039 A 
ATOM     43  C   UNL A   1      35.403  34.522  28.782  1.00  0.00     0.014 A 
ATOM     44  C   UNL A   1      34.047  32.904  29.960  1.00  0.00     0.014 A 
ATOM     45  C   UNL A   1      36.557  33.912  29.282  1.00  0.00     0.010 A 
ATOM     46  C   UNL A   1      35.191  32.366  30.542  1.00  0.00     0.010 A 
ATOM     47  C   UNL A   1      36.460  32.870  30.218  1.00  0.00    -0.014 A 
BRANCH  47  48
ATOM     48  C   UNL A   1      37.665  32.305  30.883  1.00  0.00     0.031 A 
ATOM     49  C   UNL A   1      38.453  31.209  30.216  1.00  0.00     0.074 A 
ATOM     50  C   UNL A   1      38.009  32.721  32.118  1.00  0.00     0.049 A 
ATOM     51  N   UNL A   1      39.475  30.526  30.671  1.00  0.00    -0.248 NA
ATOM     52  C   UNL A   1      38.015  30.804  28.871  1.00  0.00     0.031 C 
ATOM     53  C   UNL A   1      37.297  33.735  32.900  1.00  0.00     0.029 A 
ATOM     54  N   UNL A   1      39.037  32.333  32.944  1.00  0.00    -0.354 N 
ATOM     55  C   UNL A   1      39.790  29.611  29.676  1.00  0.00     0.074 A 
ATOM     56  C   UNL A   1      38.813  29.777  28.623  1.00  0.00     0.031 C 
ATOM     57  C   UNL A   1      37.920  33.903  34.077  1.00  0.00     0.029 A 
ATOM     58  C   UNL A   1      39.049  32.981  34.157  1.00  0.00     0.049 A 
ATOM     59  H   UNL A   1      39.703  31.653  32.690  1.00  0.00     0.167 HD
ATOM     60  C   UNL A   1      40.821  28.734  29.629  1.00  0.00     0.037 A 
ATOM     61  C   UNL A   1      39.868  32.839  35.217  1.00  0.00     0.037 A 
ATOM     62  C   UNL A   1      41.804  28.582  30.669  1.00  0.00     0.049 A 
ATOM     63  C   UNL A   1      40.996  31.843  35.144  1.00  0.00     0.074 A 
ATOM     64  C   UNL A   1      42.912  27.754  30.694  1.00  0.00     0.029 A 
ATOM     65  N   UNL A   1      41.796  29.276  31.870  1.00  0.00    -0.354 N 
ATOM     66  N   UNL A   1      41.326  31.034  34.167  1.00  0.00    -0.248 NA
ATOM     67  C   UNL A   1      41.873  31.749  36.321  1.00  0.00     0.031 C 
ATOM     68  C   UNL A   1      43.546  27.908  31.930  1.00  0.00     0.029 A 
ATOM     69  C   UNL A   1      42.869  28.878  32.651  1.00  0.00     0.049 A 
ATOM     70  H   UNL A   1      41.127  29.950  32.129  1.00  0.00     0.167 HD
ATOM     71  C   UNL A   1      42.462  30.359  34.596  1.00  0.00     0.074 A 
ATOM     72  C   UNL A   1      42.776  30.867  35.915  1.00  0.00     0.031 C 
ATOM     73  C   UNL A   1      43.177  29.403  33.957  1.00  0.00     0.037 A 
BRANCH  60  74
ATOM     74  C   UNL A   1      40.946  27.874  28.402  1.00  0.00     0.064 A 
ATOM     75  C   UNL A   1      40.301  26.632  28.308  1.00  0.00     0.173 A 
ATOM     76  C   UNL A   1      41.680  28.317  27.291  1.00  0.00     0.173 A 
ATOM     77  F   UNL A   1      39.596  26.157  29.347  1.00  0.00    -0.203 F 
ATOM     78  C   UNL A   1      40.409  25.853  27.160  1.00  0.00     0.198 A 
ATOM     79  C   UNL A   1      41.758  27.550  26.132  1.00  0.00     0.198 A 
ATOM     80  F   UNL A   1      42.312  29.500  27.324  1.00  0.00    -0.203 F 
ATOM     81  F   UNL A   1      39.825  24.647  27.114  1.00  0.00    -0.200 F 
ATOM     82  C   UNL A   1      41.129  26.315  26.070  1.00  0.00     0.200 A 
ATOM     83  F   UNL A   1      42.441  28.005  25.074  1.00  0.00    -0.200 F 
ATOM     84  F   UNL A   1      41.222  25.569  24.960  1.00  0.00    -0.200 F 
ENDBRANCH  60  74
BRANCH  61  85
ATOM     85  C   UNL A   1      39.662  33.664  36.440  1.00  0.00     0.064 A 
ATOM     86  C   UNL A   1      38.880  33.194  37.505  1.00  0.00     0.173 A 
ATOM     87  C   UNL A   1      40.218  34.945  36.557  1.00  0.00     0.173 A 
ATOM     88  F   UNL A   1      38.308  31.983  37.433  1.00  0.00    -0.203 F 
ATOM     89  C   UNL A   1      38.635  33.988  38.625  1.00  0.00     0.198 A 
ATOM     90  C   UNL A   1      40.001  35.724  37.693  1.00  0.00     0.198 A 
ATOM     91  F   UNL A   1      40.979  35.442  35.570  1.00  0.00    -0.203 F 
ATOM     92  F   UNL A   1      37.834  33.537  39.599  1.00  0.00    -0.200 F 
ATOM     93  C   UNL A   1      39.200  35.250  38.720  1.00  0.00     0.200 A 
ATOM     94  F   UNL A   1      40.562  36.938  37.786  1.00  0.00    -0.200 F 
ATOM     95  F   UNL A   1      38.963  36.013  39.796  1.00  0.00    -0.200 F 
ENDBRANCH  61  85
BRANCH  73  96
ATOM     96  C   UNL A   1      44.399  28.873  34.652  1.00  0.00     0.064 A 
ATOM     97  C   UNL A   1      44.385  27.654  35.346  1.00  0.00     0.173 A 
ATOM     98  C   UNL A   1      45.612  29.575  34.586  1.00  0.00     0.173 A 
ATOM     99  F   UNL A   1      43.247  26.950  35.451  1.00  0.00    -0.203 F 
ATOM    100  C   UNL A   1      45.532  27.174  35.973  1.00  0.00     0.198 A 
ATOM    101  C   UNL A   1      46.765  29.075  35.184  1.00  0.00     0.198 A 
ATOM    102  F   UNL A   1      45.683  30.742  33.928  1.00  0.00    -0.203 F 
ATOM    103  F   UNL A   1      45.481  26.033  36.675  1.00  0.00    -0.200 F 
ATOM    104  C   UNL A   1      46.722  27.880  35.884  1.00  0.00     0.200 A 
ATOM    105  F   UNL A   1      47.918  29.752  35.083  1.00  0.00    -0.200 F 
ATOM    106  F   UNL A   1      47.827  27.411  36.481  1.00  0.00    -0.200 F 
ENDBRANCH  73  96
ENDBRANCH  47  48
ENDBRANCH  39  42
ENDBRANCH  37  38
ENDBRANCH  36  37
ENDBRANCH  35  36
ENDBRANCH   1  35
TORSDOF 17
ENDMDL
MODEL 2
REMARK VINA RESULT:     -11.8      0.808      6.902
REMARK SMILES COc1ccc(/C=C2/SC(=S)N(NS(=O)(=O)c3ccccc3)C2=O)c(C(=O)NCCCCNC(=O)c2ccc(-c3c4nc(c(-c5c(F)c(F)c(F)c(F)c5F)c5ccc([nH]5)c(-c5c(F)c(F)c(F)c(F)c5F)c5nc(c(-c6c(F)c(F)c(F)c(F)c6F)c6ccc3[nH]6)C=C5)C=C4)cc2)c1OC
REMARK SMILES IDX 29 1 28 2 26 3 27 4 25 6 3 7 4 8 99 9 5 10 6 11 2 12 1 13
REMARK SMILES IDX 100 14 101 15 7 16 8 17 9 18 23 19 10 20 12 21 24 22 11 23
REMARK SMILES IDX 13 24 14 26 15 27 16 28 17 29 18 30 22 31 19 32 21 33 20 34
REMARK SMILES IDX 30 35 31 36 32 37 33 38 34 39 35 41 36 42 37 43 98 44 38 45
REMARK SMILES IDX 97 46 39 47 40 48 41 49 91 50 42 51 96 52 90 53 92 54 43 55
REMARK SMILES IDX 95 56 89 57 88 58 44 60 76 61 56 62 75 63 57 64 60 65 74 66
REMARK SMILES IDX 93 67 58 68 59 69 73 71 94 72 61 73 45 74 46 75 54 76 47 77
REMARK SMILES IDX 48 78 52 79 55 80 49 81 50 82 53 83 51 84 77 85 78 86 86 87
REMARK SMILES IDX 79 88 80 89 84 90 87 91 81 92 82 93 85 94 83 95 62 96 63 97
REMARK SMILES IDX 71 98 64 99 65 100 69 101 72 102 66 103 67 104 70 105 68 106
REMARK H PARENT 28 5 13 25 33 40 92 59 60 70
REMARK Flexibility Score: inf
ROOT
ATOM      1  C   UNL A   1      31.902  29.314  27.092  1.00  0.00     0.116 C 
ENDROOT
BRANCH   1   2
ATOM      2  N   UNL A   1      32.871  28.284  26.801  1.00  0.00    -0.352 N 
ATOM      3  C   UNL A   1      32.979  27.555  25.622  1.00  0.00     0.255 C 
ATOM      4  O   UNL A   1      33.971  26.843  25.466  1.00  0.00    -0.269 OA
ATOM      5  H   UNL A   1      33.522  28.079  27.510  1.00  0.00     0.163 HD
BRANCH   3   6
ATOM      6  C   UNL A   1      31.860  27.505  24.617  1.00  0.00     0.092 A 
ATOM      7  C   UNL A   1      30.505  28.523  22.867  1.00  0.00     0.161 A 
ATOM      8  C   UNL A   1      29.557  27.507  23.022  1.00  0.00     0.051 A 
ATOM      9  C   UNL A   1      31.703  28.495  23.607  1.00  0.00     0.174 A 
ATOM     10  C   UNL A   1      29.767  26.468  23.928  1.00  0.00     0.013 A 
ATOM     11  C   UNL A   1      30.893  26.470  24.763  1.00  0.00    -0.007 A 
BRANCH   7  12
ATOM     12  O   UNL A   1      30.061  29.610  22.160  1.00  0.00    -0.493 OA
ATOM     13  C   UNL A   1      28.651  29.698  21.999  1.00  0.00     0.278 C 
ENDBRANCH   7  12
BRANCH   9  14
ATOM     14  O   UNL A   1      32.785  29.309  23.372  1.00  0.00    -0.492 OA
ATOM     15  C   UNL A   1      33.787  28.882  22.454  1.00  0.00     0.278 C 
ENDBRANCH   9  14
BRANCH  11  16
ATOM     16  C   UNL A   1      30.928  25.393  25.781  1.00  0.00     0.030 C 
ATOM     17  C   UNL A   1      31.712  24.304  25.736  1.00  0.00     0.082 C 
ATOM     18  S   UNL A   1      31.784  23.098  26.976  1.00  0.00    -0.053 SA
ATOM     19  C   UNL A   1      32.651  23.953  24.642  1.00  0.00     0.281 C 
ATOM     20  C   UNL A   1      33.025  22.166  26.137  1.00  0.00     0.164 C 
ATOM     21  N   UNL A   1      33.382  22.835  24.988  1.00  0.00    -0.209 N 
ATOM     22  O   UNL A   1      32.704  24.528  23.567  1.00  0.00    -0.267 OA
ATOM     23  S   UNL A   1      33.639  20.715  26.682  1.00  0.00    -0.050 S 
BRANCH  21  24
ATOM     24  N   UNL A   1      34.394  22.315  24.043  1.00  0.00    -0.114 NA
ATOM     25  H   UNL A   1      34.035  22.441  23.099  1.00  0.00     0.168 HD
BRANCH  24  26
ATOM     26  S   UNL A   1      35.941  23.057  24.122  1.00  0.00     0.257 S 
ATOM     27  O   UNL A   1      36.316  23.338  22.750  1.00  0.00    -0.205 OA
ATOM     28  O   UNL A   1      35.828  24.122  25.093  1.00  0.00    -0.205 OA
BRANCH  26  29
ATOM     29  C   UNL A   1      37.065  21.849  24.765  1.00  0.00     0.084 A 
ATOM     30  C   UNL A   1      36.832  20.486  24.554  1.00  0.00     0.022 A 
ATOM     31  C   UNL A   1      38.192  22.276  25.481  1.00  0.00     0.022 A 
ATOM     32  C   UNL A   1      37.770  19.554  25.005  1.00  0.00     0.001 A 
ATOM     33  C   UNL A   1      39.124  21.337  25.923  1.00  0.00     0.001 A 
ATOM     34  C   UNL A   1      38.920  19.981  25.674  1.00  0.00     0.000 A 
ENDBRANCH  26  29
ENDBRANCH  24  26
ENDBRANCH  21  24
ENDBRANCH  11  16
ENDBRANCH   3   6
ENDBRANCH   1   2
BRANCH   1  35
ATOM     35  C   UNL A   1      32.376  30.683  27.543  1.00  0.00     0.023 C 
BRANCH  35  36
ATOM     36  C   UNL A   1      31.668  31.891  26.948  1.00  0.00     0.023 C 
BRANCH  36  37
ATOM     37  C   UNL A   1      32.529  33.098  26.589  1.00  0.00     0.116 C 
BRANCH  37  38
ATOM     38  N   UNL A   1      32.449  34.210  27.529  1.00  0.00    -0.352 N 
ATOM     39  C   UNL A   1      33.256  34.521  28.602  1.00  0.00     0.251 C 
ATOM     40  H   UNL A   1      31.704  34.834  27.373  1.00  0.00     0.163 HD
ATOM     41  O   UNL A   1      32.999  35.493  29.306  1.00  0.00    -0.269 OA
BRANCH  39  42
ATOM     42  C   UNL A   1      34.401  33.648  28.946  1.00  0.00     0.039 A 
ATOM     43  C   UNL A   1      35.700  34.133  28.766  1.00  0.00     0.014 A 
ATOM     44  C   UNL A   1      34.202  32.383  29.500  1.00  0.00     0.014 A 
ATOM     45  C   UNL A   1      36.786  33.401  29.252  1.00  0.00     0.010 A 
ATOM     46  C   UNL A   1      35.273  31.707  30.077  1.00  0.00     0.010 A 
ATOM     47  C   UNL A   1      36.577  32.213  29.969  1.00  0.00    -0.014 A 
BRANCH  47  48
ATOM     48  C   UNL A   1      37.700  31.492  30.628  1.00  0.00     0.031 A 
ATOM     49  C   UNL A   1      38.088  31.826  32.044  1.00  0.00     0.074 A 
ATOM     50  C   UNL A   1      38.422  30.592  29.930  1.00  0.00     0.049 A 
ATOM     51  N   UNL A   1      39.089  31.377  32.758  1.00  0.00    -0.248 NA
ATOM     52  C   UNL A   1      37.256  32.822  32.739  1.00  0.00     0.031 C 
ATOM     53  C   UNL A   1      38.189  30.218  28.533  1.00  0.00     0.029 A 
ATOM     54  N   UNL A   1      39.510  29.836  30.295  1.00  0.00    -0.354 N 
ATOM     55  C   UNL A   1      39.012  32.041  33.976  1.00  0.00     0.074 A 
ATOM     56  C   UNL A   1      37.909  32.971  33.881  1.00  0.00     0.031 C 
ATOM     57  C   UNL A   1      39.089  29.291  28.168  1.00  0.00     0.029 A 
ATOM     58  C   UNL A   1      39.992  29.035  29.286  1.00  0.00     0.049 A 
ATOM     59  H   UNL A   1      39.908  29.865  31.195  1.00  0.00     0.167 HD
ATOM     60  C   UNL A   1      39.771  31.867  35.084  1.00  0.00     0.037 A 
ATOM     61  C   UNL A   1      41.049  28.200  29.260  1.00  0.00     0.037 A 
ATOM     62  C   UNL A   1      40.856  30.927  35.183  1.00  0.00     0.049 A 
ATOM     63  C   UNL A   1      41.887  28.039  30.502  1.00  0.00     0.074 A 
ATOM     64  C   UNL A   1      41.654  30.645  36.278  1.00  0.00     0.029 A 
ATOM     65  N   UNL A   1      41.296  30.116  34.148  1.00  0.00    -0.354 N 
ATOM     66  N   UNL A   1      41.758  28.621  31.670  1.00  0.00    -0.248 NA
ATOM     67  C   UNL A   1      43.012  27.095  30.424  1.00  0.00     0.031 C 
ATOM     68  C   UNL A   1      42.610  29.700  35.890  1.00  0.00     0.029 A 
ATOM     69  C   UNL A   1      42.368  29.348  34.573  1.00  0.00     0.049 A 
ATOM     70  H   UNL A   1      40.905  30.090  33.244  1.00  0.00     0.167 HD
ATOM     71  C   UNL A   1      42.763  28.093  32.472  1.00  0.00     0.074 A 
ATOM     72  C   UNL A   1      43.481  27.131  31.664  1.00  0.00     0.031 C 
ATOM     73  C   UNL A   1      43.064  28.383  33.761  1.00  0.00     0.037 A 
BRANCH  60  74
ATOM     74  C   UNL A   1      39.445  32.705  36.288  1.00  0.00     0.064 A 
ATOM     75  C   UNL A   1      38.480  32.301  37.223  1.00  0.00     0.173 A 
ATOM     76  C   UNL A   1      40.135  33.902  36.535  1.00  0.00     0.173 A 
ATOM     77  F   UNL A   1      37.783  31.171  37.028  1.00  0.00    -0.203 F 
ATOM     78  C   UNL A   1      38.199  33.076  38.344  1.00  0.00     0.198 A 
ATOM     79  C   UNL A   1      39.875  34.657  37.674  1.00  0.00     0.198 A 
ATOM     80  F   UNL A   1      41.072  34.333  35.676  1.00  0.00    -0.203 F 
ATOM     81  F   UNL A   1      37.237  32.694  39.197  1.00  0.00    -0.200 F 
ATOM     82  C   UNL A   1      38.902  34.248  38.575  1.00  0.00     0.200 A 
ATOM     83  F   UNL A   1      40.566  35.782  37.903  1.00  0.00    -0.200 F 
ATOM     84  F   UNL A   1      38.638  34.987  39.661  1.00  0.00    -0.200 F 
ENDBRANCH  60  74
BRANCH  61  85
ATOM     85  C   UNL A   1      41.376  27.442  28.021  1.00  0.00     0.064 A 
ATOM     86  C   UNL A   1      40.876  26.149  27.812  1.00  0.00     0.173 A 
ATOM     87  C   UNL A   1      42.216  27.982  27.036  1.00  0.00     0.173 A 
ATOM     88  F   UNL A   1      40.086  25.579  28.734  1.00  0.00    -0.203 F 
ATOM     89  C   UNL A   1      41.230  25.413  26.682  1.00  0.00     0.198 A 
ATOM     90  C   UNL A   1      42.541  27.257  25.890  1.00  0.00     0.198 A 
ATOM     91  F   UNL A   1      42.718  29.217  27.183  1.00  0.00    -0.203 F 
ATOM     92  F   UNL A   1      40.786  24.157  26.539  1.00  0.00    -0.200 F 
ATOM     93  C   UNL A   1      42.057  25.969  25.720  1.00  0.00     0.200 A 
ATOM     94  F   UNL A   1      43.329  27.806  24.956  1.00  0.00    -0.200 F 
ATOM     95  F   UNL A   1      42.398  25.261  24.635  1.00  0.00    -0.200 F 
ENDBRANCH  61  85
BRANCH  73  96
ATOM     96  C   UNL A   1      44.191  27.620  34.396  1.00  0.00     0.064 A 
ATOM     97  C   UNL A   1      45.507  28.105  34.394  1.00  0.00     0.173 A 
ATOM     98  C   UNL A   1      43.942  26.404  35.051  1.00  0.00     0.173 A 
ATOM     99  F   UNL A   1      45.802  29.255  33.769  1.00  0.00    -0.203 F 
ATOM    100  C   UNL A   1      46.536  27.387  35.000  1.00  0.00     0.198 A 
ATOM    101  C   UNL A   1      44.966  25.707  35.686  1.00  0.00     0.198 A 
ATOM    102  F   UNL A   1      42.700  25.898  35.089  1.00  0.00    -0.203 F 
ATOM    103  F   UNL A   1      47.794  27.845  34.940  1.00  0.00    -0.200 F 
ATOM    104  C   UNL A   1      46.263  26.194  35.652  1.00  0.00     0.200 A 
ATOM    105  F   UNL A   1      44.697  24.562  36.329  1.00  0.00    -0.200 F 
ATOM    106  F   UNL A   1      47.253  25.510  36.242  1.00  0.00    -0.200 F 
ENDBRANCH  73  96
ENDBRANCH  47  48
ENDBRANCH  39  42
ENDBRANCH  37  38
ENDBRANCH  36  37
ENDBRANCH  35  36
ENDBRANCH   1  35
TORSDOF 17
ENDMDL
MODEL 3
REMARK VINA RESULT:     -11.2      5.012     11.257
REMARK SMILES COc1ccc(/C=C2/SC(=S)N(NS(=O)(=O)c3ccccc3)C2=O)c(C(=O)NCCCCNC(=O)c2ccc(-c3c4nc(c(-c5c(F)c(F)c(F)c(F)c5F)c5ccc([nH]5)c(-c5c(F)c(F)c(F)c(F)c5F)c5nc(c(-c6c(F)c(F)c(F)c(F)c6F)c6ccc3[nH]6)C=C5)C=C4)cc2)c1OC
REMARK SMILES IDX 29 1 28 2 26 3 27 4 25 6 3 7 4 8 99 9 5 10 6 11 2 12 1 13
REMARK SMILES IDX 100 14 101 15 7 16 8 17 9 18 23 19 10 20 12 21 24 22 11 23
REMARK SMILES IDX 13 24 14 26 15 27 16 28 17 29 18 30 22 31 19 32 21 33 20 34
REMARK SMILES IDX 30 35 31 36 32 37 33 38 34 39 35 41 36 42 37 43 98 44 38 45
REMARK SMILES IDX 97 46 39 47 40 48 41 49 91 50 42 51 96 52 90 53 92 54 43 55
REMARK SMILES IDX 95 56 89 57 88 58 44 60 76 61 56 62 75 63 57 64 60 65 74 66
REMARK SMILES IDX 93 67 58 68 59 69 73 71 94 72 61 73 45 74 46 75 54 76 47 77
REMARK SMILES IDX 48 78 52 79 55 80 49 81 50 82 53 83 51 84 77 85 78 86 86 87
REMARK SMILES IDX 79 88 80 89 84 90 87 91 81 92 82 93 85 94 83 95 62 96 63 97
REMARK SMILES IDX 71 98 64 99 65 100 69 101 72 102 66 103 67 104 70 105 68 106
REMARK H PARENT 28 5 13 25 33 40 92 59 60 70
REMARK Flexibility Score: inf
ROOT
ATOM      1  C   UNL A   1      37.140  33.757  32.438  1.00  0.00     0.116 C 
ENDROOT
BRANCH   1   2
ATOM      2  N   UNL A   1      38.571  33.901  32.563  1.00  0.00    -0.352 N 
ATOM      3  C   UNL A   1      39.373  33.377  33.570  1.00  0.00     0.255 C 
ATOM      4  O   UNL A   1      40.595  33.437  33.433  1.00  0.00    -0.269 OA
ATOM      5  H   UNL A   1      39.024  34.423  31.862  1.00  0.00     0.163 HD
BRANCH   3   6
ATOM      6  C   UNL A   1      38.792  32.880  34.866  1.00  0.00     0.092 A 
ATOM      7  C   UNL A   1      38.233  33.181  37.218  1.00  0.00     0.161 A 
ATOM      8  C   UNL A   1      38.039  31.802  37.339  1.00  0.00     0.051 A 
ATOM      9  C   UNL A   1      38.538  33.747  35.966  1.00  0.00     0.174 A 
ATOM     10  C   UNL A   1      38.170  30.962  36.233  1.00  0.00     0.013 A 
ATOM     11  C   UNL A   1      38.585  31.478  34.997  1.00  0.00    -0.007 A 
BRANCH   7  12
ATOM     12  O   UNL A   1      38.344  33.845  38.413  1.00  0.00    -0.493 OA
ATOM     13  C   UNL A   1      39.628  33.798  39.020  1.00  0.00     0.278 C 
ENDBRANCH   7  12
BRANCH   9  14
ATOM     14  O   UNL A   1      38.528  35.095  35.695  1.00  0.00    -0.492 OA
ATOM     15  C   UNL A   1      39.699  35.863  35.957  1.00  0.00     0.278 C 
ENDBRANCH   9  14
BRANCH  11  16
ATOM     16  C   UNL A   1      38.828  30.467  33.940  1.00  0.00     0.030 C 
ATOM     17  C   UNL A   1      39.962  29.769  33.775  1.00  0.00     0.082 C 
ATOM     18  S   UNL A   1      40.192  28.542  32.576  1.00  0.00    -0.053 SA
ATOM     19  C   UNL A   1      41.198  29.913  34.585  1.00  0.00     0.281 C 
ATOM     20  C   UNL A   1      41.832  28.180  33.115  1.00  0.00     0.164 C 
ATOM     21  N   UNL A   1      42.117  28.953  34.218  1.00  0.00    -0.209 N 
ATOM     22  O   UNL A   1      41.389  30.803  35.398  1.00  0.00    -0.267 OA
ATOM     23  S   UNL A   1      42.840  27.074  32.381  1.00  0.00    -0.050 S 
BRANCH  21  24
ATOM     24  N   UNL A   1      43.423  28.902  34.912  1.00  0.00    -0.114 NA
ATOM     25  H   UNL A   1      43.673  29.853  35.178  1.00  0.00     0.168 HD
BRANCH  24  26
ATOM     26  S   UNL A   1      43.481  27.928  36.325  1.00  0.00     0.257 S 
ATOM     27  O   UNL A   1      44.757  28.215  36.952  1.00  0.00    -0.205 OA
ATOM     28  O   UNL A   1      42.240  28.163  37.029  1.00  0.00    -0.205 OA
BRANCH  26  29
ATOM     29  C   UNL A   1      43.495  26.239  35.792  1.00  0.00     0.084 A 
ATOM     30  C   UNL A   1      42.329  25.468  35.863  1.00  0.00     0.022 A 
ATOM     31  C   UNL A   1      44.684  25.688  35.295  1.00  0.00     0.022 A 
ATOM     32  C   UNL A   1      42.343  24.161  35.367  1.00  0.00     0.001 A 
ATOM     33  C   UNL A   1      44.685  24.384  34.799  1.00  0.00     0.001 A 
ATOM     34  C   UNL A   1      43.514  23.628  34.824  1.00  0.00     0.000 A 
ENDBRANCH  26  29
ENDBRANCH  24  26
ENDBRANCH  21  24
ENDBRANCH  11  16
ENDBRANCH   3   6
ENDBRANCH   1   2
BRANCH   1  35
ATOM     35  C   UNL A   1      36.567  32.533  31.746  1.00  0.00     0.023 C 
BRANCH  35  36
ATOM     36  C   UNL A   1      35.251  32.710  31.005  1.00  0.00     0.023 C 
BRANCH  36  37
ATOM     37  C   UNL A   1      35.317  32.843  29.487  1.00  0.00     0.116 C 
BRANCH  37  38
ATOM     38  N   UNL A   1      34.415  31.963  28.754  1.00  0.00    -0.352 N 
ATOM     39  C   UNL A   1      34.637  30.711  28.223  1.00  0.00     0.251 C 
ATOM     40  H   UNL A   1      33.507  32.319  28.616  1.00  0.00     0.163 HD
ATOM     41  O   UNL A   1      33.749  30.139  27.598  1.00  0.00    -0.269 OA
BRANCH  39  42
ATOM     42  C   UNL A   1      35.968  30.076  28.355  1.00  0.00     0.039 A 
ATOM     43  C   UNL A   1      36.869  30.169  27.290  1.00  0.00     0.014 A 
ATOM     44  C   UNL A   1      36.352  29.448  29.539  1.00  0.00     0.014 A 
ATOM     45  C   UNL A   1      38.188  29.738  27.460  1.00  0.00     0.010 A 
ATOM     46  C   UNL A   1      37.690  29.119  29.743  1.00  0.00     0.010 A 
ATOM     47  C   UNL A   1      38.626  29.270  28.709  1.00  0.00    -0.014 A 
BRANCH  47  48
ATOM     48  C   UNL A   1      40.057  28.948  28.963  1.00  0.00     0.031 A 
ATOM     49  C   UNL A   1      40.958  29.964  29.613  1.00  0.00     0.074 A 
ATOM     50  C   UNL A   1      40.566  27.773  28.540  1.00  0.00     0.049 A 
ATOM     51  N   UNL A   1      42.247  29.908  29.835  1.00  0.00    -0.248 NA
ATOM     52  C   UNL A   1      40.331  31.224  30.043  1.00  0.00     0.031 C 
ATOM     53  C   UNL A   1      39.816  26.725  27.844  1.00  0.00     0.029 A 
ATOM     54  N   UNL A   1      41.842  27.266  28.619  1.00  0.00    -0.354 N 
ATOM     55  C   UNL A   1      42.583  31.123  30.418  1.00  0.00     0.074 A 
ATOM     56  C   UNL A   1      41.378  31.922  30.453  1.00  0.00     0.031 C 
ATOM     57  C   UNL A   1      40.637  25.695  27.581  1.00  0.00     0.029 A 
ATOM     58  C   UNL A   1      41.980  26.023  28.047  1.00  0.00     0.049 A 
ATOM     59  H   UNL A   1      42.587  27.749  29.045  1.00  0.00     0.167 HD
ATOM     60  C   UNL A   1      43.780  31.524  30.908  1.00  0.00     0.037 A 
ATOM     61  C   UNL A   1      43.069  25.243  27.902  1.00  0.00     0.037 A 
ATOM     62  C   UNL A   1      44.973  30.721  30.890  1.00  0.00     0.049 A 
ATOM     63  C   UNL A   1      44.392  25.721  28.442  1.00  0.00     0.074 A 
ATOM     64  C   UNL A   1      46.222  31.021  31.404  1.00  0.00     0.029 A 
ATOM     65  N   UNL A   1      45.066  29.457  30.325  1.00  0.00    -0.354 N 
ATOM     66  N   UNL A   1      44.679  26.844  29.055  1.00  0.00    -0.248 NA
ATOM     67  C   UNL A   1      45.540  24.818  28.279  1.00  0.00     0.031 C 
ATOM     68  C   UNL A   1      47.084  29.961  31.106  1.00  0.00     0.029 A 
ATOM     69  C   UNL A   1      46.357  28.974  30.461  1.00  0.00     0.049 A 
ATOM     70  H   UNL A   1      44.324  28.975  29.892  1.00  0.00     0.167 HD
ATOM     71  C   UNL A   1      46.029  26.769  29.377  1.00  0.00     0.074 A 
ATOM     72  C   UNL A   1      46.499  25.483  28.908  1.00  0.00     0.031 C 
ATOM     73  C   UNL A   1      46.808  27.685  30.002  1.00  0.00     0.037 A 
BRANCH  60  74
ATOM     74  C   UNL A   1      43.855  32.894  31.522  1.00  0.00     0.064 A 
ATOM     75  C   UNL A   1      43.903  34.050  30.729  1.00  0.00     0.173 A 
ATOM     76  C   UNL A   1      43.830  33.056  32.915  1.00  0.00     0.173 A 
ATOM     77  F   UNL A   1      43.940  33.952  29.391  1.00  0.00    -0.203 F 
ATOM     78  C   UNL A   1      43.954  35.315  31.308  1.00  0.00     0.198 A 
ATOM     79  C   UNL A   1      43.847  34.323  33.491  1.00  0.00     0.198 A 
ATOM     80  F   UNL A   1      43.778  31.984  33.721  1.00  0.00    -0.203 F 
ATOM     81  F   UNL A   1      44.051  36.403  30.530  1.00  0.00    -0.200 F 
ATOM     82  C   UNL A   1      43.917  35.452  32.687  1.00  0.00     0.200 A 
ATOM     83  F   UNL A   1      43.795  34.454  34.823  1.00  0.00    -0.200 F 
ATOM     84  F   UNL A   1      43.953  36.671  33.243  1.00  0.00    -0.200 F 
ENDBRANCH  60  74
BRANCH  61  85
ATOM     85  C   UNL A   1      42.961  23.922  27.224  1.00  0.00     0.064 A 
ATOM     86  C   UNL A   1      42.489  22.794  27.910  1.00  0.00     0.173 A 
ATOM     87  C   UNL A   1      43.351  23.754  25.888  1.00  0.00     0.173 A 
ATOM     88  F   UNL A   1      42.123  22.897  29.197  1.00  0.00    -0.203 F 
ATOM     89  C   UNL A   1      42.444  21.543  27.296  1.00  0.00     0.198 A 
ATOM     90  C   UNL A   1      43.272  22.509  25.265  1.00  0.00     0.198 A 
ATOM     91  F   UNL A   1      43.805  24.801  25.182  1.00  0.00    -0.203 F 
ATOM     92  F   UNL A   1      42.047  20.471  27.996  1.00  0.00    -0.200 F 
ATOM     93  C   UNL A   1      42.831  21.403  25.973  1.00  0.00     0.200 A 
ATOM     94  F   UNL A   1      43.633  22.383  23.980  1.00  0.00    -0.200 F 
ATOM     95  F   UNL A   1      42.788  20.200  25.384  1.00  0.00    -0.200 F 
ENDBRANCH  61  85
BRANCH  73  96
ATOM     96  C   UNL A   1      48.241  27.314  30.257  1.00  0.00     0.064 A 
ATOM     97  C   UNL A   1      49.269  27.682  29.376  1.00  0.00     0.173 A 
ATOM     98  C   UNL A   1      48.595  26.616  31.422  1.00  0.00     0.173 A 
ATOM     99  F   UNL A   1      48.983  28.338  28.241  1.00  0.00    -0.203 F 
ATOM    100  C   UNL A   1      50.593  27.339  29.639  1.00  0.00     0.198 A 
ATOM    101  C   UNL A   1      49.923  26.306  31.698  1.00  0.00     0.198 A 
ATOM    102  F   UNL A   1      47.652  26.246  32.302  1.00  0.00    -0.203 F 
ATOM    103  F   UNL A   1      51.551  27.656  28.757  1.00  0.00    -0.200 F 
ATOM    104  C   UNL A   1      50.920  26.659  30.802  1.00  0.00     0.200 A 
ATOM    105  F   UNL A   1      50.238  25.663  32.832  1.00  0.00    -0.200 F 
ATOM    106  F   UNL A   1      52.196  26.339  31.056  1.00  0.00    -0.200 F 
ENDBRANCH  73  96
ENDBRANCH  47  48
ENDBRANCH  39  42
ENDBRANCH  37  38
ENDBRANCH  36  37
ENDBRANCH  35  36
ENDBRANCH   1  35
TORSDOF 17
ENDMDL
