MODEL 1
REMARK VINA RESULT:     -12.8      0.000      0.000
REMARK SMILES O=C(CC1(NC(=O)C2(c3ccccc3)CC2)CCC1)NCCCCNC(=O)c1ccc(-c2c3nc(c(-c4c(F)c(F)c(F)c(F)c4F)c4ccc([nH]4)c(-c4c(F)c(F)c(F)c(F)c4F)c4nc(c(-c5c(F)c(F)c(F)c(F)c5F)c5ccc2[nH]5)C=C4)C=C3)cc1
REMARK SMILES IDX 21 1 20 2 1 3 2 4 3 6 4 7 17 8 19 9 18 10 5 11 6 12 7 14
REMARK SMILES IDX 8 15 15 16 16 17 9 18 10 19 14 20 11 21 13 22 12 23 22 24
REMARK SMILES IDX 23 25 24 26 25 27 26 28 27 30 28 31 29 32 90 33 30 34 89 35
REMARK SMILES IDX 31 36 32 37 33 38 83 39 34 40 88 41 82 42 84 43 35 44 87 45
REMARK SMILES IDX 81 46 80 47 36 49 68 50 48 51 67 52 49 53 52 54 66 55 85 56
REMARK SMILES IDX 50 57 51 58 65 60 86 61 53 62 37 63 38 64 46 65 39 66 40 67
REMARK SMILES IDX 44 68 47 69 41 70 42 71 45 72 43 73 69 74 70 75 78 76 71 77
REMARK SMILES IDX 72 78 76 79 79 80 73 81 74 82 77 83 75 84 54 85 55 86 63 87
REMARK SMILES IDX 56 88 57 89 61 90 64 91 58 92 59 93 62 94 60 95
REMARK H PARENT 20 5 5 13 25 29 84 48 52 59
REMARK Flexibility Score: inf
ROOT
ATOM      1  C   UNL A   1      36.769  21.581  24.742  1.00  0.00     0.116 C 
ENDROOT
BRANCH   1   2
ATOM      2  N   UNL A   1      35.467  22.217  24.747  1.00  0.00    -0.356 N 
ATOM      3  O   UNL A   1      35.690  23.076  22.787  1.00  0.00    -0.275 OA
ATOM      4  C   UNL A   1      34.756  23.005  23.653  1.00  0.00     0.222 C 
ATOM      5  H   UNL A   1      34.964  22.126  25.588  1.00  0.00     0.163 HD
BRANCH   4   6
ATOM      6  C   UNL A   1      32.692  23.723  23.592  1.00  0.00     0.128 C 
BRANCH   6   7
ATOM      7  C   UNL A   1      31.482  24.028  24.895  1.00  0.00     0.049 C 
ATOM      8  C   UNL A   1      31.020  22.628  25.466  1.00  0.00     0.029 C 
ATOM      9  C   UNL A   1      31.941  24.362  26.386  1.00  0.00     0.029 C 
ATOM     10  C   UNL A   1      31.472  23.005  26.876  1.00  0.00     0.005 C 
BRANCH   7  11
ATOM     11  N   UNL A   1      30.208  24.817  24.537  1.00  0.00    -0.349 N 
ATOM     12  C   UNL A   1      29.911  26.089  24.065  1.00  0.00     0.231 C 
ATOM     13  H   UNL A   1      29.393  24.282  24.679  1.00  0.00     0.164 HD
ATOM     14  O   UNL A   1      28.730  26.427  24.002  1.00  0.00    -0.274 OA
BRANCH  12  15
ATOM     15  C   UNL A   1      30.998  27.046  23.659  1.00  0.00     0.074 C 
ATOM     16  C   UNL A   1      31.827  26.672  22.439  1.00  0.00     0.023 C 
ATOM     17  C   UNL A   1      30.916  27.858  22.376  1.00  0.00     0.023 C 
BRANCH  15  18
ATOM     18  C   UNL A   1      31.570  27.774  24.819  1.00  0.00    -0.032 A 
ATOM     19  C   UNL A   1      31.027  29.434  25.238  1.00  0.00     0.005 A 
ATOM     20  C   UNL A   1      33.190  27.175  25.384  1.00  0.00     0.005 A 
ATOM     21  C   UNL A   1      32.107  30.507  26.189  1.00  0.00     0.000 A 
ATOM     22  C   UNL A   1      34.240  28.274  26.403  1.00  0.00     0.000 A 
ATOM     23  C   UNL A   1      33.659  29.906  26.839  1.00  0.00     0.000 A 
ENDBRANCH  15  18
ENDBRANCH  12  15
ENDBRANCH   7  11
ENDBRANCH   6   7
ENDBRANCH   4   6
ENDBRANCH   1   2
BRANCH   1  24
ATOM     24  C   UNL A   1      36.680  20.045  24.771  1.00  0.00     0.023 C 
BRANCH  24  25
ATOM     25  C   UNL A   1      37.963  19.215  25.001  1.00  0.00     0.023 C 
BRANCH  25  26
ATOM     26  C   UNL A   1      39.131  19.843  25.771  1.00  0.00     0.116 C 
BRANCH  26  27
ATOM     27  N   UNL A   1      40.287  18.973  25.885  1.00  0.00    -0.352 N 
ATOM     28  C   UNL A   1      41.620  19.238  26.104  1.00  0.00     0.251 C 
ATOM     29  H   UNL A   1      40.081  18.016  25.789  1.00  0.00     0.163 HD
ATOM     30  O   UNL A   1      42.425  18.315  26.009  1.00  0.00    -0.269 OA
BRANCH  28  31
ATOM     31  C   UNL A   1      42.130  20.596  26.434  1.00  0.00     0.039 A 
ATOM     32  C   UNL A   1      42.469  21.449  25.375  1.00  0.00     0.014 A 
ATOM     33  C   UNL A   1      42.372  21.014  27.743  1.00  0.00     0.014 A 
ATOM     34  C   UNL A   1      42.982  22.728  25.626  1.00  0.00     0.010 A 
ATOM     35  C   UNL A   1      42.827  22.316  27.997  1.00  0.00     0.010 A 
ATOM     36  C   UNL A   1      43.131  23.194  26.942  1.00  0.00    -0.014 A 
BRANCH  36  37
ATOM     37  C   UNL A   1      43.566  24.596  27.218  1.00  0.00     0.031 A 
ATOM     38  C   UNL A   1      42.600  25.624  27.745  1.00  0.00     0.074 A 
ATOM     39  C   UNL A   1      44.837  24.963  26.949  1.00  0.00     0.049 A 
ATOM     40  N   UNL A   1      42.794  26.896  27.995  1.00  0.00    -0.248 NA
ATOM     41  C   UNL A   1      41.228  25.168  28.011  1.00  0.00     0.031 C 
ATOM     42  C   UNL A   1      45.872  24.079  26.414  1.00  0.00     0.029 A 
ATOM     43  N   UNL A   1      45.474  26.174  27.081  1.00  0.00    -0.354 N 
ATOM     44  C   UNL A   1      41.573  27.393  28.435  1.00  0.00     0.074 A 
ATOM     45  C   UNL A   1      40.631  26.296  28.369  1.00  0.00     0.031 C 
ATOM     46  C   UNL A   1      47.018  24.766  26.289  1.00  0.00     0.029 A 
ATOM     47  C   UNL A   1      46.789  26.153  26.680  1.00  0.00     0.049 A 
ATOM     48  H   UNL A   1      45.030  26.981  27.429  1.00  0.00     0.167 HD
ATOM     49  C   UNL A   1      41.269  28.643  28.868  1.00  0.00     0.037 A 
ATOM     50  C   UNL A   1      47.706  27.138  26.617  1.00  0.00     0.037 A 
ATOM     51  C   UNL A   1      42.210  29.734  28.934  1.00  0.00     0.049 A 
ATOM     52  C   UNL A   1      47.325  28.529  27.053  1.00  0.00     0.074 A 
ATOM     53  C   UNL A   1      42.005  31.019  29.406  1.00  0.00     0.029 A 
ATOM     54  N   UNL A   1      43.526  29.675  28.500  1.00  0.00    -0.354 N 
ATOM     55  N   UNL A   1      46.185  28.966  27.530  1.00  0.00    -0.248 NA
ATOM     56  C   UNL A   1      48.363  29.564  26.943  1.00  0.00     0.031 C 
ATOM     57  C   UNL A   1      43.169  31.761  29.180  1.00  0.00     0.029 A 
ATOM     58  C   UNL A   1      44.131  30.915  28.654  1.00  0.00     0.049 A 
ATOM     59  H   UNL A   1      43.966  28.873  28.136  1.00  0.00     0.167 HD
ATOM     60  C   UNL A   1      46.381  30.313  27.814  1.00  0.00     0.074 A 
ATOM     61  C   UNL A   1      47.753  30.616  27.470  1.00  0.00     0.031 C 
ATOM     62  C   UNL A   1      45.500  31.214  28.316  1.00  0.00     0.037 A 
BRANCH  49  63
ATOM     63  C   UNL A   1      39.848  28.913  29.285  1.00  0.00     0.064 A 
ATOM     64  C   UNL A   1      38.886  29.391  28.382  1.00  0.00     0.173 A 
ATOM     65  C   UNL A   1      39.430  28.642  30.599  1.00  0.00     0.173 A 
ATOM     66  F   UNL A   1      39.227  29.668  27.115  1.00  0.00    -0.203 F 
ATOM     67  C   UNL A   1      37.573  29.625  28.787  1.00  0.00     0.198 A 
ATOM     68  C   UNL A   1      38.108  28.839  30.989  1.00  0.00     0.198 A 
ATOM     69  F   UNL A   1      40.302  28.171  31.503  1.00  0.00    -0.203 F 
ATOM     70  F   UNL A   1      36.689  30.141  27.923  1.00  0.00    -0.200 F 
ATOM     71  C   UNL A   1      37.184  29.342  30.088  1.00  0.00     0.200 A 
ATOM     72  F   UNL A   1      37.730  28.543  32.241  1.00  0.00    -0.200 F 
ATOM     73  F   UNL A   1      35.920  29.560  30.474  1.00  0.00    -0.200 F 
ENDBRANCH  49  63
BRANCH  50  74
ATOM     74  C   UNL A   1      49.083  26.850  26.128  1.00  0.00     0.064 A 
ATOM     75  C   UNL A   1      49.423  27.024  24.778  1.00  0.00     0.173 A 
ATOM     76  C   UNL A   1      50.080  26.371  26.991  1.00  0.00     0.173 A 
ATOM     77  F   UNL A   1      48.500  27.459  23.907  1.00  0.00    -0.203 F 
ATOM     78  C   UNL A   1      50.693  26.702  24.306  1.00  0.00     0.198 A 
ATOM     79  C   UNL A   1      51.362  26.087  26.525  1.00  0.00     0.198 A 
ATOM     80  F   UNL A   1      49.813  26.187  28.293  1.00  0.00    -0.203 F 
ATOM     81  F   UNL A   1      50.969  26.818  23.000  1.00  0.00    -0.200 F 
ATOM     82  C   UNL A   1      51.664  26.240  25.181  1.00  0.00     0.200 A 
ATOM     83  F   UNL A   1      52.303  25.658  27.378  1.00  0.00    -0.200 F 
ATOM     84  F   UNL A   1      52.887  25.932  24.727  1.00  0.00    -0.200 F 
ENDBRANCH  50  74
BRANCH  62  85
ATOM     85  C   UNL A   1      46.003  32.607  28.579  1.00  0.00     0.064 A 
ATOM     86  C   UNL A   1      46.604  32.967  29.795  1.00  0.00     0.173 A 
ATOM     87  C   UNL A   1      45.913  33.591  27.581  1.00  0.00     0.173 A 
ATOM     88  F   UNL A   1      46.708  32.072  30.789  1.00  0.00    -0.203 F 
ATOM     89  C   UNL A   1      47.062  34.265  30.013  1.00  0.00     0.198 A 
ATOM     90  C   UNL A   1      46.411  34.875  27.786  1.00  0.00     0.198 A 
ATOM     91  F   UNL A   1      45.356  33.302  26.395  1.00  0.00    -0.203 F 
ATOM     92  F   UNL A   1      47.575  34.601  31.205  1.00  0.00    -0.200 F 
ATOM     93  C   UNL A   1      46.973  35.214  29.006  1.00  0.00     0.200 A 
ATOM     94  F   UNL A   1      46.344  35.783  26.804  1.00  0.00    -0.200 F 
ATOM     95  F   UNL A   1      47.424  36.459  29.215  1.00  0.00    -0.200 F 
ENDBRANCH  62  85
ENDBRANCH  36  37
ENDBRANCH  28  31
ENDBRANCH  26  27
ENDBRANCH  25  26
ENDBRANCH  24  25
ENDBRANCH   1  24
TORSDOF 15
ENDMDL
MODEL 2
REMARK VINA RESULT:     -12.6      1.672      7.629
REMARK SMILES O=C(CC1(NC(=O)C2(c3ccccc3)CC2)CCC1)NCCCCNC(=O)c1ccc(-c2c3nc(c(-c4c(F)c(F)c(F)c(F)c4F)c4ccc([nH]4)c(-c4c(F)c(F)c(F)c(F)c4F)c4nc(c(-c5c(F)c(F)c(F)c(F)c5F)c5ccc2[nH]5)C=C4)C=C3)cc1
REMARK SMILES IDX 21 1 20 2 1 3 2 4 3 6 4 7 17 8 19 9 18 10 5 11 6 12 7 14
REMARK SMILES IDX 8 15 15 16 16 17 9 18 10 19 14 20 11 21 13 22 12 23 22 24
REMARK SMILES IDX 23 25 24 26 25 27 26 28 27 30 28 31 29 32 90 33 30 34 89 35
REMARK SMILES IDX 31 36 32 37 33 38 83 39 34 40 88 41 82 42 84 43 35 44 87 45
REMARK SMILES IDX 81 46 80 47 36 49 68 50 48 51 67 52 49 53 52 54 66 55 85 56
REMARK SMILES IDX 50 57 51 58 65 60 86 61 53 62 37 63 38 64 46 65 39 66 40 67
REMARK SMILES IDX 44 68 47 69 41 70 42 71 45 72 43 73 69 74 70 75 78 76 71 77
REMARK SMILES IDX 72 78 76 79 79 80 73 81 74 82 77 83 75 84 54 85 55 86 63 87
REMARK SMILES IDX 56 88 57 89 61 90 64 91 58 92 59 93 62 94 60 95
REMARK H PARENT 20 5 5 13 25 29 84 48 52 59
REMARK Flexibility Score: inf
ROOT
ATOM      1  C   UNL A   1      40.497  22.072  26.128  1.00  0.00     0.116 C 
ENDROOT
BRANCH   1   2
ATOM      2  N   UNL A   1      39.076  22.207  25.881  1.00  0.00    -0.356 N 
ATOM      3  O   UNL A   1      38.937  24.171  26.748  1.00  0.00    -0.275 OA
ATOM      4  C   UNL A   1      38.144  23.388  26.126  1.00  0.00     0.222 C 
ATOM      5  H   UNL A   1      38.645  21.411  25.495  1.00  0.00     0.163 HD
BRANCH   4   6
ATOM      6  C   UNL A   1      36.067  23.658  25.502  1.00  0.00     0.128 C 
BRANCH   6   7
ATOM      7  C   UNL A   1      34.901  22.553  24.680  1.00  0.00     0.049 C 
ATOM      8  C   UNL A   1      35.552  21.113  24.626  1.00  0.00     0.029 C 
ATOM      9  C   UNL A   1      33.708  21.866  25.486  1.00  0.00     0.029 C 
ATOM     10  C   UNL A   1      34.379  20.507  25.395  1.00  0.00     0.005 C 
BRANCH   7  11
ATOM     11  N   UNL A   1      34.449  22.904  23.249  1.00  0.00    -0.349 N 
ATOM     12  C   UNL A   1      33.435  23.654  22.669  1.00  0.00     0.231 C 
ATOM     13  H   UNL A   1      35.029  22.489  22.570  1.00  0.00     0.164 HD
ATOM     14  O   UNL A   1      33.306  23.615  21.446  1.00  0.00    -0.274 OA
BRANCH  12  15
ATOM     15  C   UNL A   1      32.497  24.480  23.506  1.00  0.00     0.074 C 
ATOM     16  C   UNL A   1      31.024  24.452  23.125  1.00  0.00     0.023 C 
ATOM     17  C   UNL A   1      31.462  23.843  24.421  1.00  0.00     0.023 C 
BRANCH  15  18
ATOM     18  C   UNL A   1      33.153  25.690  24.060  1.00  0.00    -0.032 A 
ATOM     19  C   UNL A   1      33.292  25.947  25.832  1.00  0.00     0.005 A 
ATOM     20  C   UNL A   1      33.250  27.105  22.923  1.00  0.00     0.005 A 
ATOM     21  C   UNL A   1      33.494  27.612  26.474  1.00  0.00     0.000 A 
ATOM     22  C   UNL A   1      33.518  28.780  23.608  1.00  0.00     0.000 A 
ATOM     23  C   UNL A   1      33.692  29.004  25.372  1.00  0.00     0.000 A 
ENDBRANCH  15  18
ENDBRANCH  12  15
ENDBRANCH   7  11
ENDBRANCH   6   7
ENDBRANCH   4   6
ENDBRANCH   1   2
BRANCH   1  24
ATOM     24  C   UNL A   1      40.847  20.787  26.898  1.00  0.00     0.023 C 
BRANCH  24  25
ATOM     25  C   UNL A   1      41.210  19.507  26.113  1.00  0.00     0.023 C 
BRANCH  25  26
ATOM     26  C   UNL A   1      42.471  18.725  26.501  1.00  0.00     0.116 C 
BRANCH  26  27
ATOM     27  N   UNL A   1      43.404  18.544  25.403  1.00  0.00    -0.352 N 
ATOM     28  C   UNL A   1      44.168  19.439  24.690  1.00  0.00     0.251 C 
ATOM     29  H   UNL A   1      43.510  17.610  25.115  1.00  0.00     0.163 HD
ATOM     30  O   UNL A   1      44.772  19.036  23.698  1.00  0.00    -0.269 OA
BRANCH  28  31
ATOM     31  C   UNL A   1      44.283  20.876  25.056  1.00  0.00     0.039 A 
ATOM     32  C   UNL A   1      44.566  21.198  26.390  1.00  0.00     0.014 A 
ATOM     33  C   UNL A   1      44.027  21.909  24.152  1.00  0.00     0.014 A 
ATOM     34  C   UNL A   1      44.656  22.534  26.798  1.00  0.00     0.010 A 
ATOM     35  C   UNL A   1      44.179  23.246  24.544  1.00  0.00     0.010 A 
ATOM     36  C   UNL A   1      44.503  23.577  25.871  1.00  0.00    -0.014 A 
BRANCH  36  37
ATOM     37  C   UNL A   1      44.713  25.000  26.272  1.00  0.00     0.031 A 
ATOM     38  C   UNL A   1      46.069  25.648  26.173  1.00  0.00     0.074 A 
ATOM     39  C   UNL A   1      43.680  25.709  26.774  1.00  0.00     0.049 A 
ATOM     40  N   UNL A   1      46.441  26.856  26.521  1.00  0.00    -0.248 NA
ATOM     41  C   UNL A   1      47.157  24.824  25.626  1.00  0.00     0.031 C 
ATOM     42  C   UNL A   1      42.319  25.203  26.950  1.00  0.00     0.029 A 
ATOM     43  N   UNL A   1      43.612  27.002  27.237  1.00  0.00    -0.354 N 
ATOM     44  C   UNL A   1      47.802  26.933  26.248  1.00  0.00     0.074 A 
ATOM     45  C   UNL A   1      48.200  25.633  25.752  1.00  0.00     0.031 C 
ATOM     46  C   UNL A   1      41.546  26.178  27.453  1.00  0.00     0.029 A 
ATOM     47  C   UNL A   1      42.365  27.362  27.691  1.00  0.00     0.049 A 
ATOM     48  H   UNL A   1      44.384  27.614  27.244  1.00  0.00     0.167 HD
ATOM     49  C   UNL A   1      48.638  27.993  26.383  1.00  0.00     0.037 A 
ATOM     50  C   UNL A   1      41.929  28.507  28.252  1.00  0.00     0.037 A 
ATOM     51  C   UNL A   1      48.238  29.288  26.876  1.00  0.00     0.049 A 
ATOM     52  C   UNL A   1      42.892  29.650  28.441  1.00  0.00     0.074 A 
ATOM     53  C   UNL A   1      49.003  30.436  27.000  1.00  0.00     0.029 A 
ATOM     54  N   UNL A   1      46.971  29.605  27.344  1.00  0.00    -0.354 N 
ATOM     55  N   UNL A   1      44.159  29.729  28.113  1.00  0.00    -0.248 NA
ATOM     56  C   UNL A   1      42.361  30.865  29.074  1.00  0.00     0.031 C 
ATOM     57  C   UNL A   1      48.225  31.419  27.619  1.00  0.00     0.029 A 
ATOM     58  C   UNL A   1      46.947  30.916  27.797  1.00  0.00     0.049 A 
ATOM     59  H   UNL A   1      46.202  28.989  27.353  1.00  0.00     0.167 HD
ATOM     60  C   UNL A   1      44.565  31.012  28.464  1.00  0.00     0.074 A 
ATOM     61  C   UNL A   1      43.405  31.679  29.014  1.00  0.00     0.031 C 
ATOM     62  C   UNL A   1      45.789  31.582  28.339  1.00  0.00     0.037 A 
BRANCH  49  63
ATOM     63  C   UNL A   1      50.084  27.797  26.014  1.00  0.00     0.064 A 
ATOM     64  C   UNL A   1      51.076  27.580  26.984  1.00  0.00     0.173 A 
ATOM     65  C   UNL A   1      50.477  27.775  24.665  1.00  0.00     0.173 A 
ATOM     66  F   UNL A   1      50.761  27.591  28.287  1.00  0.00    -0.203 F 
ATOM     67  C   UNL A   1      52.408  27.391  26.620  1.00  0.00     0.198 A 
ATOM     68  C   UNL A   1      51.802  27.545  24.305  1.00  0.00     0.198 A 
ATOM     69  F   UNL A   1      49.571  27.963  23.695  1.00  0.00    -0.203 F 
ATOM     70  F   UNL A   1      53.345  27.248  27.567  1.00  0.00    -0.200 F 
ATOM     71  C   UNL A   1      52.768  27.366  25.282  1.00  0.00     0.200 A 
ATOM     72  F   UNL A   1      52.143  27.499  23.009  1.00  0.00    -0.200 F 
ATOM     73  F   UNL A   1      54.047  27.175  24.933  1.00  0.00    -0.200 F 
ENDBRANCH  49  63
BRANCH  50  74
ATOM     74  C   UNL A   1      40.507  28.640  28.673  1.00  0.00     0.064 A 
ATOM     75  C   UNL A   1      39.520  29.060  27.769  1.00  0.00     0.173 A 
ATOM     76  C   UNL A   1      40.107  28.378  29.993  1.00  0.00     0.173 A 
ATOM     77  F   UNL A   1      39.852  29.346  26.501  1.00  0.00    -0.203 F 
ATOM     78  C   UNL A   1      38.199  29.240  28.174  1.00  0.00     0.198 A 
ATOM     79  C   UNL A   1      38.779  28.521  30.387  1.00  0.00     0.198 A 
ATOM     80  F   UNL A   1      41.008  27.971  30.900  1.00  0.00    -0.203 F 
ATOM     81  F   UNL A   1      37.292  29.704  27.304  1.00  0.00    -0.200 F 
ATOM     82  C   UNL A   1      37.828  28.964  29.480  1.00  0.00     0.200 A 
ATOM     83  F   UNL A   1      38.421  28.234  31.646  1.00  0.00    -0.200 F 
ATOM     84  F   UNL A   1      36.557  29.136  29.869  1.00  0.00    -0.200 F 
ENDBRANCH  50  74
BRANCH  62  85
ATOM     85  C   UNL A   1      45.932  33.021  28.753  1.00  0.00     0.064 A 
ATOM     86  C   UNL A   1      46.327  33.390  30.048  1.00  0.00     0.173 A 
ATOM     87  C   UNL A   1      45.703  34.050  27.825  1.00  0.00     0.173 A 
ATOM     88  F   UNL A   1      46.549  32.450  30.980  1.00  0.00    -0.203 F 
ATOM     89  C   UNL A   1      46.452  34.730  30.407  1.00  0.00     0.198 A 
ATOM     90  C   UNL A   1      45.871  35.387  28.174  1.00  0.00     0.198 A 
ATOM     91  F   UNL A   1      45.332  33.758  26.570  1.00  0.00    -0.203 F 
ATOM     92  F   UNL A   1      46.769  35.057  31.668  1.00  0.00    -0.200 F 
ATOM     93  C   UNL A   1      46.233  35.726  29.468  1.00  0.00     0.200 A 
ATOM     94  F   UNL A   1      45.680  36.347  27.259  1.00  0.00    -0.200 F 
ATOM     95  F   UNL A   1      46.364  37.015  29.813  1.00  0.00    -0.200 F 
ENDBRANCH  62  85
ENDBRANCH  36  37
ENDBRANCH  28  31
ENDBRANCH  26  27
ENDBRANCH  25  26
ENDBRANCH  24  25
ENDBRANCH   1  24
TORSDOF 15
ENDMDL
MODEL 3
REMARK VINA RESULT:     -12.5      1.221      2.286
REMARK SMILES O=C(CC1(NC(=O)C2(c3ccccc3)CC2)CCC1)NCCCCNC(=O)c1ccc(-c2c3nc(c(-c4c(F)c(F)c(F)c(F)c4F)c4ccc([nH]4)c(-c4c(F)c(F)c(F)c(F)c4F)c4nc(c(-c5c(F)c(F)c(F)c(F)c5F)c5ccc2[nH]5)C=C4)C=C3)cc1
REMARK SMILES IDX 21 1 20 2 1 3 2 4 3 6 4 7 17 8 19 9 18 10 5 11 6 12 7 14
REMARK SMILES IDX 8 15 15 16 16 17 9 18 10 19 14 20 11 21 13 22 12 23 22 24
REMARK SMILES IDX 23 25 24 26 25 27 26 28 27 30 28 31 29 32 90 33 30 34 89 35
REMARK SMILES IDX 31 36 32 37 33 38 83 39 34 40 88 41 82 42 84 43 35 44 87 45
REMARK SMILES IDX 81 46 80 47 36 49 68 50 48 51 67 52 49 53 52 54 66 55 85 56
REMARK SMILES IDX 50 57 51 58 65 60 86 61 53 62 37 63 38 64 46 65 39 66 40 67
REMARK SMILES IDX 44 68 47 69 41 70 42 71 45 72 43 73 69 74 70 75 78 76 71 77
REMARK SMILES IDX 72 78 76 79 79 80 73 81 74 82 77 83 75 84 54 85 55 86 63 87
REMARK SMILES IDX 56 88 57 89 61 90 64 91 58 92 59 93 62 94 60 95
REMARK H PARENT 20 5 5 13 25 29 84 48 52 59
REMARK Flexibility Score: inf
ROOT
ATOM      1  C   UNL A   1      35.488  20.610  25.002  1.00  0.00     0.116 C 
ENDROOT
BRANCH   1   2
ATOM      2  N   UNL A   1      34.582  21.576  24.415  1.00  0.00    -0.356 N 
ATOM      3  O   UNL A   1      33.361  21.757  26.178  1.00  0.00    -0.275 OA
ATOM      4  C   UNL A   1      33.412  22.329  25.039  1.00  0.00     0.222 C 
ATOM      5  H   UNL A   1      34.747  21.777  23.466  1.00  0.00     0.163 HD
BRANCH   4   6
ATOM      6  C   UNL A   1      32.232  23.971  24.210  1.00  0.00     0.128 C 
BRANCH   6   7
ATOM      7  C   UNL A   1      32.687  25.390  23.192  1.00  0.00     0.049 C 
ATOM      8  C   UNL A   1      33.633  24.875  22.036  1.00  0.00     0.029 C 
ATOM      9  C   UNL A   1      31.728  25.911  22.028  1.00  0.00     0.029 C 
ATOM     10  C   UNL A   1      32.681  25.401  20.963  1.00  0.00     0.005 C 
BRANCH   7  11
ATOM     11  N   UNL A   1      33.399  26.576  23.871  1.00  0.00    -0.349 N 
ATOM     12  C   UNL A   1      33.037  27.620  24.711  1.00  0.00     0.231 C 
ATOM     13  H   UNL A   1      34.359  26.600  23.653  1.00  0.00     0.164 HD
ATOM     14  O   UNL A   1      33.878  28.480  24.971  1.00  0.00    -0.274 OA
BRANCH  12  15
ATOM     15  C   UNL A   1      31.647  27.722  25.279  1.00  0.00     0.074 C 
ATOM     16  C   UNL A   1      31.206  26.617  26.227  1.00  0.00     0.023 C 
ATOM     17  C   UNL A   1      31.399  28.006  26.752  1.00  0.00     0.023 C 
BRANCH  15  18
ATOM     18  C   UNL A   1      30.708  28.398  24.350  1.00  0.00    -0.032 A 
ATOM     19  C   UNL A   1      30.620  30.189  24.252  1.00  0.00     0.005 A 
ATOM     20  C   UNL A   1      29.301  27.385  23.801  1.00  0.00     0.005 A 
ATOM     21  C   UNL A   1      29.124  30.972  23.640  1.00  0.00     0.000 A 
ATOM     22  C   UNL A   1      27.817  28.214  23.127  1.00  0.00     0.000 A 
ATOM     23  C   UNL A   1      27.770  29.996  23.003  1.00  0.00     0.000 A 
ENDBRANCH  15  18
ENDBRANCH  12  15
ENDBRANCH   7  11
ENDBRANCH   6   7
ENDBRANCH   4   6
ENDBRANCH   1   2
BRANCH   1  24
ATOM     24  C   UNL A   1      36.966  20.935  24.721  1.00  0.00     0.023 C 
BRANCH  24  25
ATOM     25  C   UNL A   1      38.033  19.832  24.903  1.00  0.00     0.023 C 
BRANCH  25  26
ATOM     26  C   UNL A   1      38.952  19.877  26.130  1.00  0.00     0.116 C 
BRANCH  26  27
ATOM     27  N   UNL A   1      40.132  19.041  26.004  1.00  0.00    -0.352 N 
ATOM     28  C   UNL A   1      41.475  19.336  26.033  1.00  0.00     0.251 C 
ATOM     29  H   UNL A   1      39.935  18.086  25.874  1.00  0.00     0.163 HD
ATOM     30  O   UNL A   1      42.278  18.449  25.752  1.00  0.00    -0.269 OA
BRANCH  28  31
ATOM     31  C   UNL A   1      41.999  20.686  26.374  1.00  0.00     0.039 A 
ATOM     32  C   UNL A   1      42.279  21.570  25.323  1.00  0.00     0.014 A 
ATOM     33  C   UNL A   1      42.310  21.068  27.680  1.00  0.00     0.014 A 
ATOM     34  C   UNL A   1      42.802  22.844  25.583  1.00  0.00     0.010 A 
ATOM     35  C   UNL A   1      42.774  22.365  27.946  1.00  0.00     0.010 A 
ATOM     36  C   UNL A   1      43.019  23.273  26.902  1.00  0.00    -0.014 A 
BRANCH  36  37
ATOM     37  C   UNL A   1      43.464  24.668  27.194  1.00  0.00     0.031 A 
ATOM     38  C   UNL A   1      42.512  25.691  27.753  1.00  0.00     0.074 A 
ATOM     39  C   UNL A   1      44.733  25.034  26.912  1.00  0.00     0.049 A 
ATOM     40  N   UNL A   1      42.715  26.959  28.020  1.00  0.00    -0.248 NA
ATOM     41  C   UNL A   1      41.141  25.237  28.032  1.00  0.00     0.031 C 
ATOM     42  C   UNL A   1      45.756  24.154  26.346  1.00  0.00     0.029 A 
ATOM     43  N   UNL A   1      45.377  26.240  27.053  1.00  0.00    -0.354 N 
ATOM     44  C   UNL A   1      41.503  27.453  28.487  1.00  0.00     0.074 A 
ATOM     45  C   UNL A   1      40.555  26.361  28.417  1.00  0.00     0.031 C 
ATOM     46  C   UNL A   1      46.903  24.839  26.215  1.00  0.00     0.029 A 
ATOM     47  C   UNL A   1      46.686  26.220  26.633  1.00  0.00     0.049 A 
ATOM     48  H   UNL A   1      44.942  27.044  27.421  1.00  0.00     0.167 HD
ATOM     49  C   UNL A   1      41.211  28.697  28.944  1.00  0.00     0.037 A 
ATOM     50  C   UNL A   1      47.607  27.202  26.572  1.00  0.00     0.037 A 
ATOM     51  C   UNL A   1      42.157  29.783  29.014  1.00  0.00     0.049 A 
ATOM     52  C   UNL A   1      47.238  28.588  27.035  1.00  0.00     0.074 A 
ATOM     53  C   UNL A   1      41.966  31.061  29.510  1.00  0.00     0.029 A 
ATOM     54  N   UNL A   1      43.467  29.726  28.559  1.00  0.00    -0.354 N 
ATOM     55  N   UNL A   1      46.108  29.022  27.537  1.00  0.00    -0.248 NA
ATOM     56  C   UNL A   1      48.279  29.620  26.927  1.00  0.00     0.031 C 
ATOM     57  C   UNL A   1      43.129  31.801  29.279  1.00  0.00     0.029 A 
ATOM     58  C   UNL A   1      44.079  30.960  28.724  1.00  0.00     0.049 A 
ATOM     59  H   UNL A   1      43.898  28.927  28.176  1.00  0.00     0.167 HD
ATOM     60  C   UNL A   1      46.313  30.362  27.840  1.00  0.00     0.074 A 
ATOM     61  C   UNL A   1      47.682  30.665  27.480  1.00  0.00     0.031 C 
ATOM     62  C   UNL A   1      45.445  31.259  28.370  1.00  0.00     0.037 A 
BRANCH  49  63
ATOM     63  C   UNL A   1      39.797  28.966  29.388  1.00  0.00     0.064 A 
ATOM     64  C   UNL A   1      38.816  29.432  28.500  1.00  0.00     0.173 A 
ATOM     65  C   UNL A   1      39.407  28.706  30.712  1.00  0.00     0.173 A 
ATOM     66  F   UNL A   1      39.130  29.699  27.224  1.00  0.00    -0.203 F 
ATOM     67  C   UNL A   1      37.510  29.666  28.929  1.00  0.00     0.198 A 
ATOM     68  C   UNL A   1      38.093  28.903  31.127  1.00  0.00     0.198 A 
ATOM     69  F   UNL A   1      40.299  28.247  31.602  1.00  0.00    -0.203 F 
ATOM     70  F   UNL A   1      36.607  30.170  28.078  1.00  0.00    -0.200 F 
ATOM     71  C   UNL A   1      37.149  29.394  30.240  1.00  0.00     0.200 A 
ATOM     72  F   UNL A   1      37.741  28.617  32.389  1.00  0.00    -0.200 F 
ATOM     73  F   UNL A   1      35.892  29.611  30.649  1.00  0.00    -0.200 F 
ENDBRANCH  49  63
BRANCH  50  74
ATOM     74  C   UNL A   1      48.974  26.917  26.057  1.00  0.00     0.064 A 
ATOM     75  C   UNL A   1      49.271  27.025  24.690  1.00  0.00     0.173 A 
ATOM     76  C   UNL A   1      50.007  26.504  26.913  1.00  0.00     0.173 A 
ATOM     77  F   UNL A   1      48.314  27.394  23.825  1.00  0.00    -0.203 F 
ATOM     78  C   UNL A   1      50.534  26.704  24.197  1.00  0.00     0.198 A 
ATOM     79  C   UNL A   1      51.280  26.221  26.424  1.00  0.00     0.198 A 
ATOM     80  F   UNL A   1      49.781  26.385  28.230  1.00  0.00    -0.203 F 
ATOM     81  F   UNL A   1      50.769  26.756  22.879  1.00  0.00    -0.200 F 
ATOM     82  C   UNL A   1      51.539  26.309  25.065  1.00  0.00     0.200 A 
ATOM     83  F   UNL A   1      52.255  25.858  27.269  1.00  0.00    -0.200 F 
ATOM     84  F   UNL A   1      52.754  26.002  24.591  1.00  0.00    -0.200 F 
ENDBRANCH  50  74
BRANCH  62  85
ATOM     85  C   UNL A   1      45.958  32.645  28.648  1.00  0.00     0.064 A 
ATOM     86  C   UNL A   1      45.872  33.677  27.701  1.00  0.00     0.173 A 
ATOM     87  C   UNL A   1      46.515  32.956  29.899  1.00  0.00     0.173 A 
ATOM     88  F   UNL A   1      45.359  33.437  26.484  1.00  0.00    -0.203 F 
ATOM     89  C   UNL A   1      46.356  34.954  27.983  1.00  0.00     0.198 A 
ATOM     90  C   UNL A   1      46.957  34.242  30.193  1.00  0.00     0.198 A 
ATOM     91  F   UNL A   1      46.615  32.012  30.848  1.00  0.00    -0.203 F 
ATOM     92  F   UNL A   1      46.320  35.905  27.039  1.00  0.00    -0.200 F 
ATOM     93  C   UNL A   1      46.889  35.236  29.230  1.00  0.00     0.200 A 
ATOM     94  F   UNL A   1      47.452  34.519  31.408  1.00  0.00    -0.200 F 
ATOM     95  F   UNL A   1      47.344  36.468  29.503  1.00  0.00    -0.200 F 
ENDBRANCH  62  85
ENDBRANCH  36  37
ENDBRANCH  28  31
ENDBRANCH  26  27
ENDBRANCH  25  26
ENDBRANCH  24  25
ENDBRANCH   1  24
TORSDOF 15
ENDMDL
