MODEL 1
REMARK VINA RESULT:     -14.8      0.000      0.000
REMARK SMILES O=C(NCCCCNC(=O)[C@H]1[C@H]2CC[C@H](CC2)[C@@H]1C(=O)Nc1sc2c(c1C(=O)N1CCCCC1)CCCC2)c1ccc(-c2c3nc(c(-c4c(F)c(F)c(F)c(F)c4F)c4ccc([nH]4)c(-c4c(F)c(F)c(F)c(F)c4F)c4nc(c(-c5c(F)c(F)c(F)c(F)c5F)c5ccc2[nH]5)C=C4)C=C3)cc1
REMARK SMILES IDX 6 1 5 2 4 3 3 4 1 5 2 6 39 8 40 9 101 10 41 11 100 12 42 13
REMARK SMILES IDX 43 14 44 15 94 16 45 17 99 18 93 19 95 20 46 21 98 22 92 23
REMARK SMILES IDX 91 24 47 26 79 27 59 28 78 29 60 30 63 31 77 32 96 33 61 34
REMARK SMILES IDX 62 35 76 37 97 38 64 39 48 40 49 41 57 42 50 43 51 44 55 45
REMARK SMILES IDX 58 46 52 47 53 48 56 49 54 50 80 51 81 52 89 53 82 54 83 55
REMARK SMILES IDX 87 56 90 57 84 58 85 59 88 60 86 61 65 62 66 63 74 64 67 65
REMARK SMILES IDX 68 66 72 67 75 68 69 69 70 70 73 71 71 72 7 73 8 74 9 75
REMARK SMILES IDX 10 77 11 78 12 79 18 80 13 81 17 82 15 83 14 84 16 85 19 86
REMARK SMILES IDX 20 87 21 88 22 90 23 91 26 92 24 93 25 94 38 95 35 96 37 97
REMARK SMILES IDX 36 98 27 99 28 100 29 101 30 102 34 103 31 104 33 105 32 106
REMARK H PARENT 3 7 95 25 63 36 8 76 21 89
REMARK Flexibility Score: inf
ROOT
ATOM      1  C   UNL A   1      32.304  30.621  26.387  1.00  0.00     0.023 C 
ENDROOT
BRANCH   1   2
ATOM      2  C   UNL A   1      31.801  31.898  27.023  1.00  0.00     0.023 C 
BRANCH   2   3
ATOM      3  C   UNL A   1      32.906  32.804  27.522  1.00  0.00     0.116 C 
BRANCH   3   4
ATOM      4  N   UNL A   1      32.491  34.192  27.716  1.00  0.00    -0.352 N 
ATOM      5  O   UNL A   1      32.457  36.211  28.752  1.00  0.00    -0.269 OA
ATOM      6  C   UNL A   1      32.960  35.107  28.633  1.00  0.00     0.251 C 
ATOM      7  H   UNL A   1      31.786  34.516  27.111  1.00  0.00     0.163 HD
BRANCH   6   8
ATOM      8  C   UNL A   1      34.071  34.681  29.501  1.00  0.00     0.039 A 
ATOM      9  C   UNL A   1      35.362  34.678  28.977  1.00  0.00     0.014 A 
ATOM     10  C   UNL A   1      33.796  34.121  30.749  1.00  0.00     0.014 A 
ATOM     11  C   UNL A   1      36.324  33.898  29.587  1.00  0.00     0.010 A 
ATOM     12  C   UNL A   1      34.817  33.466  31.438  1.00  0.00     0.010 A 
ATOM     13  C   UNL A   1      36.073  33.299  30.835  1.00  0.00    -0.014 A 
BRANCH  13  14
ATOM     14  C   UNL A   1      37.174  32.548  31.484  1.00  0.00     0.031 A 
ATOM     15  C   UNL A   1      37.937  31.476  30.757  1.00  0.00     0.074 A 
ATOM     16  C   UNL A   1      37.526  32.912  32.732  1.00  0.00     0.049 A 
ATOM     17  N   UNL A   1      38.937  30.747  31.186  1.00  0.00    -0.248 NA
ATOM     18  C   UNL A   1      37.523  31.168  29.380  1.00  0.00     0.031 C 
ATOM     19  C   UNL A   1      36.852  33.944  33.526  1.00  0.00     0.029 A 
ATOM     20  N   UNL A   1      38.560  32.507  33.532  1.00  0.00    -0.354 N 
ATOM     21  C   UNL A   1      39.235  29.863  30.159  1.00  0.00     0.074 A 
ATOM     22  C   UNL A   1      38.312  30.144  29.079  1.00  0.00     0.031 C 
ATOM     23  C   UNL A   1      37.548  34.166  34.646  1.00  0.00     0.029 A 
ATOM     24  C   UNL A   1      38.653  33.221  34.703  1.00  0.00     0.049 A 
ATOM     25  H   UNL A   1      39.177  31.778  33.293  1.00  0.00     0.167 HD
ATOM     26  C   UNL A   1      40.191  28.902  30.129  1.00  0.00     0.037 A 
ATOM     27  C   UNL A   1      39.520  33.112  35.722  1.00  0.00     0.037 A 
ATOM     28  C   UNL A   1      41.135  28.670  31.194  1.00  0.00     0.049 A 
ATOM     29  C   UNL A   1      40.575  32.052  35.653  1.00  0.00     0.074 A 
ATOM     30  C   UNL A   1      42.165  27.747  31.250  1.00  0.00     0.029 A 
ATOM     31  N   UNL A   1      41.166  29.375  32.389  1.00  0.00    -0.354 N 
ATOM     32  N   UNL A   1      40.834  31.210  34.682  1.00  0.00    -0.248 NA
ATOM     33  C   UNL A   1      41.439  31.908  36.829  1.00  0.00     0.031 C 
ATOM     34  C   UNL A   1      42.796  27.870  32.494  1.00  0.00     0.029 A 
ATOM     35  C   UNL A   1      42.186  28.897  33.197  1.00  0.00     0.049 A 
ATOM     36  H   UNL A   1      40.553  30.108  32.628  1.00  0.00     0.167 HD
ATOM     37  C   UNL A   1      41.894  30.436  35.126  1.00  0.00     0.074 A 
ATOM     38  C   UNL A   1      42.246  30.930  36.444  1.00  0.00     0.031 C 
ATOM     39  C   UNL A   1      42.511  29.402  34.505  1.00  0.00     0.037 A 
BRANCH  26  40
ATOM     40  C   UNL A   1      40.247  28.005  28.926  1.00  0.00     0.064 A 
ATOM     41  C   UNL A   1      40.980  28.339  27.778  1.00  0.00     0.173 A 
ATOM     42  C   UNL A   1      39.591  26.763  28.944  1.00  0.00     0.173 A 
ATOM     43  F   UNL A   1      41.616  29.518  27.703  1.00  0.00    -0.203 F 
ATOM     44  C   UNL A   1      41.036  27.475  26.685  1.00  0.00     0.198 A 
ATOM     45  C   UNL A   1      39.670  25.891  27.860  1.00  0.00     0.198 A 
ATOM     46  F   UNL A   1      38.881  26.390  30.018  1.00  0.00    -0.203 F 
ATOM     47  F   UNL A   1      41.710  27.833  25.584  1.00  0.00    -0.200 F 
ATOM     48  C   UNL A   1      40.387  26.250  26.730  1.00  0.00     0.200 A 
ATOM     49  F   UNL A   1      39.051  24.703  27.912  1.00  0.00    -0.200 F 
ATOM     50  F   UNL A   1      40.449  25.418  25.681  1.00  0.00    -0.200 F 
ENDBRANCH  26  40
BRANCH  27  51
ATOM     51  C   UNL A   1      39.404  34.028  36.884  1.00  0.00     0.064 A 
ATOM     52  C   UNL A   1      38.697  33.645  38.031  1.00  0.00     0.173 A 
ATOM     53  C   UNL A   1      40.036  35.280  36.892  1.00  0.00     0.173 A 
ATOM     54  F   UNL A   1      38.063  32.464  38.065  1.00  0.00    -0.203 F 
ATOM     55  C   UNL A   1      38.626  34.482  39.143  1.00  0.00     0.198 A 
ATOM     56  C   UNL A   1      39.992  36.102  38.014  1.00  0.00     0.198 A 
ATOM     57  F   UNL A   1      40.732  35.687  35.820  1.00  0.00    -0.203 F 
ATOM     58  F   UNL A   1      37.921  34.106  40.218  1.00  0.00    -0.200 F 
ATOM     59  C   UNL A   1      39.282  35.704  39.137  1.00  0.00     0.200 A 
ATOM     60  F   UNL A   1      40.647  37.270  38.012  1.00  0.00    -0.200 F 
ATOM     61  F   UNL A   1      39.229  36.500  40.213  1.00  0.00    -0.200 F 
ENDBRANCH  27  51
BRANCH  39  62
ATOM     62  C   UNL A   1      43.641  28.758  35.248  1.00  0.00     0.064 A 
ATOM     63  C   UNL A   1      44.969  29.165  35.055  1.00  0.00     0.173 A 
ATOM     64  C   UNL A   1      43.393  27.723  36.161  1.00  0.00     0.173 A 
ATOM     65  F   UNL A   1      45.256  30.137  34.175  1.00  0.00    -0.203 F 
ATOM     66  C   UNL A   1      46.013  28.538  35.727  1.00  0.00     0.198 A 
ATOM     67  C   UNL A   1      44.437  27.116  36.852  1.00  0.00     0.198 A 
ATOM     68  F   UNL A   1      42.139  27.301  36.380  1.00  0.00    -0.203 F 
ATOM     69  F   UNL A   1      47.279  28.905  35.488  1.00  0.00    -0.200 F 
ATOM     70  C   UNL A   1      45.746  27.517  36.628  1.00  0.00     0.200 A 
ATOM     71  F   UNL A   1      44.178  26.134  37.727  1.00  0.00    -0.200 F 
ATOM     72  F   UNL A   1      46.752  26.911  37.271  1.00  0.00    -0.200 F 
ENDBRANCH  39  62
ENDBRANCH  13  14
ENDBRANCH   6   8
ENDBRANCH   3   4
ENDBRANCH   2   3
ENDBRANCH   1   2
BRANCH   1  73
ATOM     73  C   UNL A   1      31.858  29.323  27.063  1.00  0.00     0.116 C 
BRANCH  73  74
ATOM     74  N   UNL A   1      32.784  28.220  26.910  1.00  0.00    -0.356 N 
ATOM     75  C   UNL A   1      33.077  27.354  25.911  1.00  0.00     0.224 C 
ATOM     76  H   UNL A   1      33.325  28.065  27.718  1.00  0.00     0.163 HD
ATOM     77  O   UNL A   1      34.138  26.730  26.078  1.00  0.00    -0.275 OA
BRANCH  75  78
ATOM     78  C   UNL A   1      32.173  26.930  24.741  1.00  0.00     0.094 C 
ATOM     79  C   UNL A   1      32.092  28.122  23.742  1.00  0.00     0.002 C 
ATOM     80  C   UNL A   1      32.362  25.581  23.982  1.00  0.00     0.094 C 
ATOM     81  C   UNL A   1      33.357  28.219  22.880  1.00  0.00     0.005 C 
ATOM     82  C   UNL A   1      30.935  27.859  22.784  1.00  0.00     0.005 C 
ATOM     83  C   UNL A   1      32.495  25.888  22.470  1.00  0.00     0.002 C 
ATOM     84  C   UNL A   1      33.705  26.839  22.289  1.00  0.00     0.005 C 
ATOM     85  C   UNL A   1      31.328  26.698  21.884  1.00  0.00     0.005 C 
BRANCH  80  86
ATOM     86  C   UNL A   1      31.431  24.508  24.610  1.00  0.00     0.229 C 
ATOM     87  O   UNL A   1      30.209  24.736  24.525  1.00  0.00    -0.274 OA
ATOM     88  N   UNL A   1      31.749  23.292  25.125  1.00  0.00    -0.317 N 
ATOM     89  H   UNL A   1      30.980  22.703  25.302  1.00  0.00     0.170 HD
BRANCH  88  90
ATOM     90  C   UNL A   1      32.970  22.753  25.436  1.00  0.00     0.108 A 
ATOM     91  S   UNL A   1      33.893  23.536  26.628  1.00  0.00    -0.122 S 
ATOM     92  C   UNL A   1      33.519  21.536  25.027  1.00  0.00     0.078 A 
ATOM     93  C   UNL A   1      35.271  22.682  26.119  1.00  0.00     0.011 A 
ATOM     94  C   UNL A   1      34.954  21.584  25.328  1.00  0.00    -0.019 A 
ATOM     95  C   UNL A   1      36.651  23.217  26.346  1.00  0.00     0.047 C 
ATOM     96  C   UNL A   1      36.049  20.786  24.671  1.00  0.00     0.037 C 
ATOM     97  C   UNL A   1      37.538  22.826  25.154  1.00  0.00     0.006 C 
ATOM     98  C   UNL A   1      37.472  21.321  24.906  1.00  0.00     0.005 C 
BRANCH  92  99
ATOM     99  C   UNL A   1      32.741  20.647  24.135  1.00  0.00     0.257 C 
ATOM    100  O   UNL A   1      32.044  21.132  23.240  1.00  0.00    -0.269 OA
ATOM    101  N   UNL A   1      32.842  19.260  24.243  1.00  0.00    -0.339 N 
ATOM    102  C   UNL A   1      32.521  18.485  23.047  1.00  0.00     0.120 C 
ATOM    103  C   UNL A   1      32.682  18.534  25.498  1.00  0.00     0.120 C 
ATOM    104  C   UNL A   1      33.386  17.235  22.976  1.00  0.00     0.022 C 
ATOM    105  C   UNL A   1      33.479  17.224  25.493  1.00  0.00     0.022 C 
ATOM    106  C   UNL A   1      33.226  16.392  24.237  1.00  0.00     0.004 C 
ENDBRANCH  92  99
ENDBRANCH  88  90
ENDBRANCH  80  86
ENDBRANCH  75  78
ENDBRANCH  73  74
ENDBRANCH   1  73
TORSDOF 14
ENDMDL
MODEL 2
REMARK VINA RESULT:     -14.7      0.470      6.892
REMARK SMILES O=C(NCCCCNC(=O)[C@H]1[C@H]2CC[C@H](CC2)[C@@H]1C(=O)Nc1sc2c(c1C(=O)N1CCCCC1)CCCC2)c1ccc(-c2c3nc(c(-c4c(F)c(F)c(F)c(F)c4F)c4ccc([nH]4)c(-c4c(F)c(F)c(F)c(F)c4F)c4nc(c(-c5c(F)c(F)c(F)c(F)c5F)c5ccc2[nH]5)C=C4)C=C3)cc1
REMARK SMILES IDX 6 1 5 2 4 3 3 4 1 5 2 6 39 8 40 9 101 10 41 11 100 12 42 13
REMARK SMILES IDX 43 14 44 15 94 16 45 17 99 18 93 19 95 20 46 21 98 22 92 23
REMARK SMILES IDX 91 24 47 26 79 27 59 28 78 29 60 30 63 31 77 32 96 33 61 34
REMARK SMILES IDX 62 35 76 37 97 38 64 39 48 40 49 41 57 42 50 43 51 44 55 45
REMARK SMILES IDX 58 46 52 47 53 48 56 49 54 50 80 51 81 52 89 53 82 54 83 55
REMARK SMILES IDX 87 56 90 57 84 58 85 59 88 60 86 61 65 62 66 63 74 64 67 65
REMARK SMILES IDX 68 66 72 67 75 68 69 69 70 70 73 71 71 72 7 73 8 74 9 75
REMARK SMILES IDX 10 77 11 78 12 79 18 80 13 81 17 82 15 83 14 84 16 85 19 86
REMARK SMILES IDX 20 87 21 88 22 90 23 91 26 92 24 93 25 94 38 95 35 96 37 97
REMARK SMILES IDX 36 98 27 99 28 100 29 101 30 102 34 103 31 104 33 105 32 106
REMARK H PARENT 3 7 95 25 63 36 8 76 21 89
REMARK Flexibility Score: inf
ROOT
ATOM      1  C   UNL A   1      32.533  30.261  26.281  1.00  0.00     0.023 C 
ENDROOT
BRANCH   1   2
ATOM      2  C   UNL A   1      31.950  31.524  26.876  1.00  0.00     0.023 C 
BRANCH   2   3
ATOM      3  C   UNL A   1      32.987  32.443  27.486  1.00  0.00     0.116 C 
BRANCH   3   4
ATOM      4  N   UNL A   1      32.540  33.828  27.626  1.00  0.00    -0.352 N 
ATOM      5  O   UNL A   1      32.473  35.889  28.573  1.00  0.00    -0.269 OA
ATOM      6  C   UNL A   1      33.002  34.794  28.493  1.00  0.00     0.251 C 
ATOM      7  H   UNL A   1      31.816  34.107  27.022  1.00  0.00     0.163 HD
BRANCH   6   8
ATOM      8  C   UNL A   1      34.139  34.434  29.357  1.00  0.00     0.039 A 
ATOM      9  C   UNL A   1      35.431  34.623  28.872  1.00  0.00     0.014 A 
ATOM     10  C   UNL A   1      33.909  33.750  30.552  1.00  0.00     0.014 A 
ATOM     11  C   UNL A   1      36.467  33.915  29.449  1.00  0.00     0.010 A 
ATOM     12  C   UNL A   1      34.987  33.166  31.217  1.00  0.00     0.010 A 
ATOM     13  C   UNL A   1      36.265  33.196  30.639  1.00  0.00    -0.014 A 
BRANCH  13  14
ATOM     14  C   UNL A   1      37.435  32.530  31.261  1.00  0.00     0.031 A 
ATOM     15  C   UNL A   1      37.860  32.832  32.671  1.00  0.00     0.074 A 
ATOM     16  C   UNL A   1      38.066  31.580  30.545  1.00  0.00     0.049 A 
ATOM     17  N   UNL A   1      38.848  32.316  33.358  1.00  0.00    -0.248 NA
ATOM     18  C   UNL A   1      37.092  33.850  33.405  1.00  0.00     0.031 C 
ATOM     19  C   UNL A   1      37.730  31.208  29.167  1.00  0.00     0.029 A 
ATOM     20  N   UNL A   1      39.074  30.717  30.881  1.00  0.00    -0.354 N 
ATOM     21  C   UNL A   1      38.855  32.980  34.578  1.00  0.00     0.074 A 
ATOM     22  C   UNL A   1      37.770  33.937  34.542  1.00  0.00     0.031 C 
ATOM     23  C   UNL A   1      38.439  30.130  28.815  1.00  0.00     0.029 A 
ATOM     24  C   UNL A   1      39.355  29.801  29.897  1.00  0.00     0.049 A 
ATOM     25  H   UNL A   1      39.550  30.750  31.742  1.00  0.00     0.167 HD
ATOM     26  C   UNL A   1      39.698  32.803  35.624  1.00  0.00     0.037 A 
ATOM     27  C   UNL A   1      40.266  28.814  29.861  1.00  0.00     0.037 A 
ATOM     28  C   UNL A   1      40.742  31.810  35.661  1.00  0.00     0.049 A 
ATOM     29  C   UNL A   1      41.171  28.634  31.039  1.00  0.00     0.074 A 
ATOM     30  C   UNL A   1      41.628  31.523  36.686  1.00  0.00     0.029 A 
ATOM     31  N   UNL A   1      41.035  30.933  34.625  1.00  0.00    -0.354 N 
ATOM     32  N   UNL A   1      41.178  29.281  32.179  1.00  0.00    -0.248 NA
ATOM     33  C   UNL A   1      42.211  27.608  30.916  1.00  0.00     0.031 C 
ATOM     34  C   UNL A   1      42.480  30.499  36.255  1.00  0.00     0.029 A 
ATOM     35  C   UNL A   1      42.098  30.117  34.979  1.00  0.00     0.049 A 
ATOM     36  H   UNL A   1      40.556  30.896  33.765  1.00  0.00     0.167 HD
ATOM     37  C   UNL A   1      42.220  28.739  32.914  1.00  0.00     0.074 A 
ATOM     38  C   UNL A   1      42.803  27.690  32.099  1.00  0.00     0.031 C 
ATOM     39  C   UNL A   1      42.663  29.087  34.147  1.00  0.00     0.037 A 
BRANCH  26  40
ATOM     40  C   UNL A   1      39.555  33.723  36.803  1.00  0.00     0.064 A 
ATOM     41  C   UNL A   1      40.163  34.986  36.844  1.00  0.00     0.173 A 
ATOM     42  C   UNL A   1      38.754  33.348  37.894  1.00  0.00     0.173 A 
ATOM     43  F   UNL A   1      40.948  35.390  35.834  1.00  0.00    -0.203 F 
ATOM     44  C   UNL A   1      39.991  35.830  37.940  1.00  0.00     0.198 A 
ATOM     45  C   UNL A   1      38.564  34.203  38.977  1.00  0.00     0.198 A 
ATOM     46  F   UNL A   1      38.146  32.152  37.905  1.00  0.00    -0.203 F 
ATOM     47  F   UNL A   1      40.613  37.017  37.974  1.00  0.00    -0.200 F 
ATOM     48  C   UNL A   1      39.188  35.440  39.002  1.00  0.00     0.200 A 
ATOM     49  F   UNL A   1      37.779  33.828  39.996  1.00  0.00    -0.200 F 
ATOM     50  F   UNL A   1      39.018  36.257  40.051  1.00  0.00    -0.200 F 
ENDBRANCH  26  40
BRANCH  27  51
ATOM     51  C   UNL A   1      40.357  27.946  28.661  1.00  0.00     0.064 A 
ATOM     52  C   UNL A   1      41.129  28.328  27.556  1.00  0.00     0.173 A 
ATOM     53  C   UNL A   1      39.719  26.698  28.613  1.00  0.00     0.173 A 
ATOM     54  F   UNL A   1      41.745  29.520  27.549  1.00  0.00    -0.203 F 
ATOM     55  C   UNL A   1      41.257  27.495  26.447  1.00  0.00     0.198 A 
ATOM     56  C   UNL A   1      39.874  25.851  27.519  1.00  0.00     0.198 A 
ATOM     57  F   UNL A   1      38.977  26.283  29.650  1.00  0.00    -0.203 F 
ATOM     58  F   UNL A   1      41.978  27.894  25.391  1.00  0.00    -0.200 F 
ATOM     59  C   UNL A   1      40.638  26.253  26.434  1.00  0.00     0.200 A 
ATOM     60  F   UNL A   1      39.294  24.644  27.522  1.00  0.00    -0.200 F 
ATOM     61  F   UNL A   1      40.778  25.444  25.376  1.00  0.00    -0.200 F 
ENDBRANCH  27  51
BRANCH  39  62
ATOM     62  C   UNL A   1      43.822  28.305  34.683  1.00  0.00     0.064 A 
ATOM     63  C   UNL A   1      45.144  28.734  34.492  1.00  0.00     0.173 A 
ATOM     64  C   UNL A   1      43.609  27.115  35.395  1.00  0.00     0.173 A 
ATOM     65  F   UNL A   1      45.396  29.855  33.799  1.00  0.00    -0.203 F 
ATOM     66  C   UNL A   1      46.213  27.982  34.969  1.00  0.00     0.198 A 
ATOM     67  C   UNL A   1      44.680  26.381  35.893  1.00  0.00     0.198 A 
ATOM     68  F   UNL A   1      42.362  26.667  35.604  1.00  0.00    -0.203 F 
ATOM     69  F   UNL A   1      47.470  28.381  34.728  1.00  0.00    -0.200 F 
ATOM     70  C   UNL A   1      45.981  26.809  35.672  1.00  0.00     0.200 A 
ATOM     71  F   UNL A   1      44.455  25.251  36.578  1.00  0.00    -0.200 F 
ATOM     72  F   UNL A   1      47.012  26.085  36.126  1.00  0.00    -0.200 F 
ENDBRANCH  39  62
ENDBRANCH  13  14
ENDBRANCH   6   8
ENDBRANCH   3   4
ENDBRANCH   2   3
ENDBRANCH   1   2
BRANCH   1  73
ATOM     73  C   UNL A   1      32.200  28.965  27.020  1.00  0.00     0.116 C 
BRANCH  73  74
ATOM     74  N   UNL A   1      33.108  27.870  26.748  1.00  0.00    -0.356 N 
ATOM     75  C   UNL A   1      33.313  27.039  25.699  1.00  0.00     0.224 C 
ATOM     76  H   UNL A   1      33.719  27.690  27.499  1.00  0.00     0.163 HD
ATOM     77  O   UNL A   1      34.384  26.413  25.750  1.00  0.00    -0.275 OA
BRANCH  75  78
ATOM     78  C   UNL A   1      32.308  26.650  24.601  1.00  0.00     0.094 C 
ATOM     79  C   UNL A   1      32.208  27.841  23.601  1.00  0.00     0.002 C 
ATOM     80  C   UNL A   1      32.381  25.291  23.841  1.00  0.00     0.094 C 
ATOM     81  C   UNL A   1      33.410  27.877  22.649  1.00  0.00     0.005 C 
ATOM     82  C   UNL A   1      30.974  27.626  22.731  1.00  0.00     0.005 C 
ATOM     83  C   UNL A   1      32.418  25.585  22.321  1.00  0.00     0.002 C 
ATOM     84  C   UNL A   1      33.653  26.479  22.045  1.00  0.00     0.005 C 
ATOM     85  C   UNL A   1      31.249  26.444  21.814  1.00  0.00     0.005 C 
BRANCH  80  86
ATOM     86  C   UNL A   1      31.451  24.264  24.543  1.00  0.00     0.229 C 
ATOM     87  O   UNL A   1      30.229  24.495  24.458  1.00  0.00    -0.274 OA
ATOM     88  N   UNL A   1      31.768  23.079  25.126  1.00  0.00    -0.317 N 
ATOM     89  H   UNL A   1      30.997  22.507  25.347  1.00  0.00     0.170 HD
BRANCH  88  90
ATOM     90  C   UNL A   1      32.989  22.552  25.455  1.00  0.00     0.108 A 
ATOM     91  S   UNL A   1      33.877  23.331  26.676  1.00  0.00    -0.122 S 
ATOM     92  C   UNL A   1      33.562  21.348  25.043  1.00  0.00     0.078 A 
ATOM     93  C   UNL A   1      35.277  22.502  26.185  1.00  0.00     0.011 A 
ATOM     94  C   UNL A   1      34.991  21.410  25.374  1.00  0.00    -0.019 A 
ATOM     95  C   UNL A   1      36.645  23.051  26.447  1.00  0.00     0.047 C 
ATOM     96  C   UNL A   1      36.108  20.634  24.730  1.00  0.00     0.037 C 
ATOM     97  C   UNL A   1      37.561  22.687  25.269  1.00  0.00     0.006 C 
ATOM     98  C   UNL A   1      37.519  21.184  25.001  1.00  0.00     0.005 C 
BRANCH  92  99
ATOM     99  C   UNL A   1      32.815  20.459  24.124  1.00  0.00     0.257 C 
ATOM    100  O   UNL A   1      32.153  20.946  23.203  1.00  0.00    -0.269 OA
ATOM    101  N   UNL A   1      32.906  19.073  24.238  1.00  0.00    -0.339 N 
ATOM    102  C   UNL A   1      32.627  18.296  23.032  1.00  0.00     0.120 C 
ATOM    103  C   UNL A   1      32.696  18.349  25.487  1.00  0.00     0.120 C 
ATOM    104  C   UNL A   1      33.489  17.043  22.994  1.00  0.00     0.022 C 
ATOM    105  C   UNL A   1      33.488  17.037  25.514  1.00  0.00     0.022 C 
ATOM    106  C   UNL A   1      33.278  16.203  24.251  1.00  0.00     0.004 C 
ENDBRANCH  92  99
ENDBRANCH  88  90
ENDBRANCH  80  86
ENDBRANCH  75  78
ENDBRANCH  73  74
ENDBRANCH   1  73
TORSDOF 14
ENDMDL
MODEL 3
REMARK VINA RESULT:     -14.3      4.986      9.913
REMARK SMILES O=C(NCCCCNC(=O)[C@H]1[C@H]2CC[C@H](CC2)[C@@H]1C(=O)Nc1sc2c(c1C(=O)N1CCCCC1)CCCC2)c1ccc(-c2c3nc(c(-c4c(F)c(F)c(F)c(F)c4F)c4ccc([nH]4)c(-c4c(F)c(F)c(F)c(F)c4F)c4nc(c(-c5c(F)c(F)c(F)c(F)c5F)c5ccc2[nH]5)C=C4)C=C3)cc1
REMARK SMILES IDX 6 1 5 2 4 3 3 4 1 5 2 6 39 8 40 9 101 10 41 11 100 12 42 13
REMARK SMILES IDX 43 14 44 15 94 16 45 17 99 18 93 19 95 20 46 21 98 22 92 23
REMARK SMILES IDX 91 24 47 26 79 27 59 28 78 29 60 30 63 31 77 32 96 33 61 34
REMARK SMILES IDX 62 35 76 37 97 38 64 39 48 40 49 41 57 42 50 43 51 44 55 45
REMARK SMILES IDX 58 46 52 47 53 48 56 49 54 50 80 51 81 52 89 53 82 54 83 55
REMARK SMILES IDX 87 56 90 57 84 58 85 59 88 60 86 61 65 62 66 63 74 64 67 65
REMARK SMILES IDX 68 66 72 67 75 68 69 69 70 70 73 71 71 72 7 73 8 74 9 75
REMARK SMILES IDX 10 77 11 78 12 79 18 80 13 81 17 82 15 83 14 84 16 85 19 86
REMARK SMILES IDX 20 87 21 88 22 90 23 91 26 92 24 93 25 94 38 95 35 96 37 97
REMARK SMILES IDX 36 98 27 99 28 100 29 101 30 102 34 103 31 104 33 105 32 106
REMARK H PARENT 3 7 95 25 63 36 8 76 21 89
REMARK Flexibility Score: inf
ROOT
ATOM      1  C   UNL A   1      36.629  21.101  25.547  1.00  0.00     0.023 C 
ENDROOT
BRANCH   1   2
ATOM      2  C   UNL A   1      38.047  21.097  25.020  1.00  0.00     0.023 C 
BRANCH   2   3
ATOM      3  C   UNL A   1      39.095  20.928  26.100  1.00  0.00     0.116 C 
BRANCH   3   4
ATOM      4  N   UNL A   1      39.902  19.718  25.956  1.00  0.00    -0.352 N 
ATOM      5  O   UNL A   1      41.828  18.526  25.817  1.00  0.00    -0.269 OA
ATOM      6  C   UNL A   1      41.269  19.583  26.056  1.00  0.00     0.251 C 
ATOM      7  H   UNL A   1      39.404  18.892  25.762  1.00  0.00     0.163 HD
BRANCH   6   8
ATOM      8  C   UNL A   1      42.039  20.784  26.422  1.00  0.00     0.039 A 
ATOM      9  C   UNL A   1      42.242  21.059  27.773  1.00  0.00     0.014 A 
ATOM     10  C   UNL A   1      42.387  21.708  25.437  1.00  0.00     0.014 A 
ATOM     11  C   UNL A   1      42.558  22.350  28.148  1.00  0.00     0.010 A 
ATOM     12  C   UNL A   1      42.857  22.964  25.820  1.00  0.00     0.010 A 
ATOM     13  C   UNL A   1      42.891  23.314  27.179  1.00  0.00    -0.014 A 
BRANCH  13  14
ATOM     14  C   UNL A   1      43.310  24.658  27.645  1.00  0.00     0.031 A 
ATOM     15  C   UNL A   1      44.746  25.098  27.599  1.00  0.00     0.074 A 
ATOM     16  C   UNL A   1      42.345  25.510  28.041  1.00  0.00     0.049 A 
ATOM     17  N   UNL A   1      45.263  26.248  27.952  1.00  0.00    -0.248 NA
ATOM     18  C   UNL A   1      45.736  24.126  27.110  1.00  0.00     0.031 C 
ATOM     19  C   UNL A   1      40.917  25.182  28.119  1.00  0.00     0.029 A 
ATOM     20  N   UNL A   1      42.398  26.830  28.396  1.00  0.00    -0.354 N 
ATOM     21  C   UNL A   1      46.634  26.122  27.781  1.00  0.00     0.074 A 
ATOM     22  C   UNL A   1      46.875  24.782  27.289  1.00  0.00     0.031 C 
ATOM     23  C   UNL A   1      40.223  26.292  28.392  1.00  0.00     0.029 A 
ATOM     24  C   UNL A   1      41.159  27.383  28.615  1.00  0.00     0.049 A 
ATOM     25  H   UNL A   1      43.239  27.334  28.486  1.00  0.00     0.167 HD
ATOM     26  C   UNL A   1      47.598  27.044  28.020  1.00  0.00     0.037 A 
ATOM     27  C   UNL A   1      40.815  28.630  28.976  1.00  0.00     0.037 A 
ATOM     28  C   UNL A   1      47.336  28.391  28.462  1.00  0.00     0.049 A 
ATOM     29  C   UNL A   1      41.902  29.631  29.217  1.00  0.00     0.074 A 
ATOM     30  C   UNL A   1      48.236  29.415  28.699  1.00  0.00     0.029 A 
ATOM     31  N   UNL A   1      46.072  28.903  28.726  1.00  0.00    -0.354 N 
ATOM     32  N   UNL A   1      43.197  29.492  29.067  1.00  0.00    -0.248 NA
ATOM     33  C   UNL A   1      41.484  30.950  29.702  1.00  0.00     0.031 C 
ATOM     34  C   UNL A   1      47.521  30.534  29.142  1.00  0.00     0.029 A 
ATOM     35  C   UNL A   1      46.171  30.222  29.140  1.00  0.00     0.049 A 
ATOM     36  H   UNL A   1      45.230  28.402  28.632  1.00  0.00     0.167 HD
ATOM     37  C   UNL A   1      43.751  30.707  29.437  1.00  0.00     0.074 A 
ATOM     38  C   UNL A   1      42.647  31.579  29.789  1.00  0.00     0.031 C 
ATOM     39  C   UNL A   1      45.057  31.064  29.491  1.00  0.00     0.037 A 
BRANCH  26  40
ATOM     40  C   UNL A   1      49.030  26.625  27.844  1.00  0.00     0.064 A 
ATOM     41  C   UNL A   1      49.653  26.600  26.588  1.00  0.00     0.173 A 
ATOM     42  C   UNL A   1      49.806  26.286  28.965  1.00  0.00     0.173 A 
ATOM     43  F   UNL A   1      48.954  26.903  25.483  1.00  0.00    -0.203 F 
ATOM     44  C   UNL A   1      50.990  26.231  26.456  1.00  0.00     0.198 A 
ATOM     45  C   UNL A   1      51.150  25.942  28.834  1.00  0.00     0.198 A 
ATOM     46  F   UNL A   1      49.263  26.298  30.191  1.00  0.00    -0.203 F 
ATOM     47  F   UNL A   1      51.553  26.177  25.242  1.00  0.00    -0.200 F 
ATOM     48  C   UNL A   1      51.739  25.910  27.579  1.00  0.00     0.200 A 
ATOM     49  F   UNL A   1      51.873  25.643  29.921  1.00  0.00    -0.200 F 
ATOM     50  F   UNL A   1      53.027  25.563  27.452  1.00  0.00    -0.200 F 
ENDBRANCH  26  40
BRANCH  27  51
ATOM     51  C   UNL A   1      39.381  28.976  29.138  1.00  0.00     0.064 A 
ATOM     52  C   UNL A   1      38.748  28.848  30.381  1.00  0.00     0.173 A 
ATOM     53  C   UNL A   1      38.628  29.487  28.070  1.00  0.00     0.173 A 
ATOM     54  F   UNL A   1      39.421  28.349  31.428  1.00  0.00    -0.203 F 
ATOM     55  C   UNL A   1      37.415  29.216  30.549  1.00  0.00     0.198 A 
ATOM     56  C   UNL A   1      37.307  29.886  28.246  1.00  0.00     0.198 A 
ATOM     57  F   UNL A   1      39.193  29.637  26.863  1.00  0.00    -0.203 F 
ATOM     58  F   UNL A   1      36.823  29.059  31.741  1.00  0.00    -0.200 F 
ATOM     59  C   UNL A   1      36.699  29.745  29.484  1.00  0.00     0.200 A 
ATOM     60  F   UNL A   1      36.627  30.417  27.221  1.00  0.00    -0.200 F 
ATOM     61  F   UNL A   1      35.423  30.118  29.651  1.00  0.00    -0.200 F 
ENDBRANCH  27  51
BRANCH  39  62
ATOM     62  C   UNL A   1      45.346  32.466  29.932  1.00  0.00     0.064 A 
ATOM     63  C   UNL A   1      45.587  32.774  31.279  1.00  0.00     0.173 A 
ATOM     64  C   UNL A   1      45.383  33.512  28.997  1.00  0.00     0.173 A 
ATOM     65  F   UNL A   1      45.541  31.810  32.210  1.00  0.00    -0.203 F 
ATOM     66  C   UNL A   1      45.823  34.086  31.679  1.00  0.00     0.198 A 
ATOM     67  C   UNL A   1      45.646  34.817  29.398  1.00  0.00     0.198 A 
ATOM     68  F   UNL A   1      45.161  33.265  27.698  1.00  0.00    -0.203 F 
ATOM     69  F   UNL A   1      45.996  34.367  32.978  1.00  0.00    -0.200 F 
ATOM     70  C   UNL A   1      45.857  35.105  30.739  1.00  0.00     0.200 A 
ATOM     71  F   UNL A   1      45.685  35.801  28.488  1.00  0.00    -0.200 F 
ATOM     72  F   UNL A   1      46.080  36.368  31.127  1.00  0.00    -0.200 F 
ENDBRANCH  39  62
ENDBRANCH  13  14
ENDBRANCH   6   8
ENDBRANCH   3   4
ENDBRANCH   2   3
ENDBRANCH   1   2
BRANCH   1  73
ATOM     73  C   UNL A   1      35.567  21.641  24.588  1.00  0.00     0.116 C 
BRANCH  73  74
ATOM     74  N   UNL A   1      34.379  20.820  24.487  1.00  0.00    -0.356 N 
ATOM     75  C   UNL A   1      33.056  21.071  24.336  1.00  0.00     0.224 C 
ATOM     76  H   UNL A   1      34.578  19.857  24.538  1.00  0.00     0.163 HD
ATOM     77  O   UNL A   1      32.386  20.078  24.008  1.00  0.00    -0.275 OA
BRANCH  75  78
ATOM     78  C   UNL A   1      32.297  22.355  24.711  1.00  0.00     0.094 C 
ATOM     79  C   UNL A   1      31.747  22.181  26.159  1.00  0.00     0.002 C 
ATOM     80  C   UNL A   1      32.907  23.777  24.515  1.00  0.00     0.094 C 
ATOM     81  C   UNL A   1      32.849  22.389  27.206  1.00  0.00     0.005 C 
ATOM     82  C   UNL A   1      30.707  23.269  26.404  1.00  0.00     0.005 C 
ATOM     83  C   UNL A   1      32.842  24.524  25.870  1.00  0.00     0.002 C 
ATOM     84  C   UNL A   1      33.628  23.685  26.908  1.00  0.00     0.005 C 
ATOM     85  C   UNL A   1      31.434  24.602  26.483  1.00  0.00     0.005 C 
BRANCH  80  86
ATOM     86  C   UNL A   1      32.448  24.344  23.144  1.00  0.00     0.229 C 
ATOM     87  O   UNL A   1      32.206  23.498  22.262  1.00  0.00    -0.274 OA
ATOM     88  N   UNL A   1      32.146  25.624  22.804  1.00  0.00    -0.317 N 
ATOM     89  H   UNL A   1      31.704  25.727  21.931  1.00  0.00     0.170 HD
BRANCH  88  90
ATOM     90  C   UNL A   1      32.359  26.795  23.483  1.00  0.00     0.108 A 
ATOM     91  S   UNL A   1      33.965  27.207  23.856  1.00  0.00    -0.122 S 
ATOM     92  C   UNL A   1      31.449  27.810  23.784  1.00  0.00     0.078 A 
ATOM     93  C   UNL A   1      33.408  28.346  24.987  1.00  0.00     0.011 A 
ATOM     94  C   UNL A   1      32.065  28.656  24.812  1.00  0.00    -0.019 A 
ATOM     95  C   UNL A   1      34.251  28.773  26.149  1.00  0.00     0.047 C 
ATOM     96  C   UNL A   1      31.360  29.543  25.803  1.00  0.00     0.037 C 
ATOM     97  C   UNL A   1      33.340  29.024  27.359  1.00  0.00     0.006 C 
ATOM     98  C   UNL A   1      32.220  29.996  26.996  1.00  0.00     0.005 C 
BRANCH  92  99
ATOM     99  C   UNL A   1      30.040  27.681  23.347  1.00  0.00     0.257 C 
ATOM    100  O   UNL A   1      29.465  26.593  23.440  1.00  0.00    -0.269 OA
ATOM    101  N   UNL A   1      29.326  28.791  22.898  1.00  0.00    -0.339 N 
ATOM    102  C   UNL A   1      27.871  28.726  23.014  1.00  0.00     0.120 C 
ATOM    103  C   UNL A   1      29.811  29.700  21.865  1.00  0.00     0.120 C 
ATOM    104  C   UNL A   1      27.298  30.106  23.302  1.00  0.00     0.022 C 
ATOM    105  C   UNL A   1      29.237  31.110  22.044  1.00  0.00     0.022 C 
ATOM    106  C   UNL A   1      27.720  31.103  22.226  1.00  0.00     0.004 C 
ENDBRANCH  92  99
ENDBRANCH  88  90
ENDBRANCH  80  86
ENDBRANCH  75  78
ENDBRANCH  73  74
ENDBRANCH   1  73
TORSDOF 14
ENDMDL
