MODEL 1
REMARK VINA RESULT:     -13.0      0.000      0.000
REMARK SMILES COc1ccc(OC)c(NC(=O)[C@@H]2[C@@H](C(=O)NCCCCNC(=O)c3ccc(-c4c5nc(c(-c6c(F)c(F)c(F)c(F)c6F)c6ccc([nH]6)c(-c6c(F)c(F)c(F)c(F)c6F)c6nc(c(-c7c(F)c(F)c(F)c(F)c7F)c7ccc4[nH]7)C=C6)C=C5)cc3)[C@H]3C=C[C@@H]2C3)c1
REMARK SMILES IDX 19 1 18 2 17 3 15 4 16 5 14 7 13 8 91 9 88 10 90 11 92 12
REMARK SMILES IDX 89 13 11 14 10 15 12 17 9 18 3 19 4 20 93 21 5 22 6 23 2 24
REMARK SMILES IDX 1 25 7 26 8 27 20 28 21 29 22 30 23 31 24 33 25 34 26 35
REMARK SMILES IDX 87 36 27 37 86 38 28 39 29 40 30 41 80 42 31 43 85 44 79 45
REMARK SMILES IDX 81 46 32 47 84 48 78 49 77 50 33 52 65 53 45 54 64 55 46 56
REMARK SMILES IDX 49 57 63 58 82 59 47 60 48 61 62 63 83 64 50 65 34 66 35 67
REMARK SMILES IDX 43 68 36 69 37 70 41 71 44 72 38 73 39 74 42 75 40 76 66 77
REMARK SMILES IDX 67 78 75 79 68 80 69 81 73 82 76 83 70 84 71 85 74 86 72 87
REMARK SMILES IDX 51 88 52 89 60 90 53 91 54 92 58 93 61 94 55 95 56 96 59 97
REMARK SMILES IDX 57 98
REMARK H PARENT 17 6 10 16 22 32 81 51 49 62
REMARK Flexibility Score: inf
ROOT
ATOM      1  C   UNL A   1      31.847  30.494  26.906  1.00  0.00     0.023 C 
ENDROOT
BRANCH   1   2
ATOM      2  C   UNL A   1      33.269  29.935  26.813  1.00  0.00     0.116 C 
BRANCH   2   3
ATOM      3  N   UNL A   1      33.676  29.715  25.449  1.00  0.00    -0.356 N 
ATOM      4  C   UNL A   1      33.170  28.958  24.455  1.00  0.00     0.224 C 
ATOM      5  O   UNL A   1      33.693  29.145  23.347  1.00  0.00    -0.275 OA
ATOM      6  H   UNL A   1      34.483  30.217  25.191  1.00  0.00     0.163 HD
BRANCH   4   7
ATOM      7  C   UNL A   1      32.035  27.950  24.561  1.00  0.00     0.098 C 
ATOM      8  C   UNL A   1      32.428  26.431  24.442  1.00  0.00     0.099 C 
ATOM      9  C   UNL A   1      31.109  25.859  23.847  1.00  0.00     0.025 C 
ATOM     10  C   UNL A   1      30.716  28.061  23.745  1.00  0.00     0.025 C 
ATOM     11  C   UNL A   1      31.076  26.222  22.387  1.00  0.00    -0.027 C 
ATOM     12  C   UNL A   1      30.015  26.830  24.329  1.00  0.00     0.017 C 
ATOM     13  C   UNL A   1      30.796  27.529  22.329  1.00  0.00    -0.027 C 
BRANCH   8  14
ATOM     14  C   UNL A   1      32.692  25.768  25.792  1.00  0.00     0.229 C 
ATOM     15  N   UNL A   1      33.688  24.860  26.019  1.00  0.00    -0.323 N 
ATOM     16  H   UNL A   1      33.766  24.624  26.973  1.00  0.00     0.170 HD
ATOM     17  O   UNL A   1      31.990  26.040  26.774  1.00  0.00    -0.274 OA
BRANCH  15  18
ATOM     18  C   UNL A   1      34.631  24.175  25.224  1.00  0.00     0.087 A 
ATOM     19  C   UNL A   1      36.883  23.299  25.040  1.00  0.00     0.121 A 
ATOM     20  C   UNL A   1      36.677  22.920  23.718  1.00  0.00     0.050 A 
ATOM     21  C   UNL A   1      35.913  24.007  25.759  1.00  0.00     0.076 A 
ATOM     22  C   UNL A   1      35.398  23.019  23.202  1.00  0.00     0.052 A 
ATOM     23  C   UNL A   1      34.373  23.508  24.022  1.00  0.00     0.142 A 
BRANCH  19  24
ATOM     24  O   UNL A   1      38.017  22.867  25.678  1.00  0.00    -0.497 OA
ATOM     25  C   UNL A   1      38.177  21.463  25.411  1.00  0.00     0.278 C 
ENDBRANCH  19  24
BRANCH  23  26
ATOM     26  O   UNL A   1      33.141  22.954  23.766  1.00  0.00    -0.495 OA
ATOM     27  C   UNL A   1      32.954  22.935  22.334  1.00  0.00     0.278 C 
ENDBRANCH  23  26
ENDBRANCH  15  18
ENDBRANCH   8  14
ENDBRANCH   4   7
ENDBRANCH   2   3
ENDBRANCH   1   2
BRANCH   1  28
ATOM     28  C   UNL A   1      31.742  32.002  26.678  1.00  0.00     0.023 C 
BRANCH  28  29
ATOM     29  C   UNL A   1      32.780  32.831  27.428  1.00  0.00     0.116 C 
BRANCH  29  30
ATOM     30  N   UNL A   1      32.371  34.203  27.703  1.00  0.00    -0.352 N 
ATOM     31  C   UNL A   1      32.944  35.086  28.595  1.00  0.00     0.251 C 
ATOM     32  H   UNL A   1      31.598  34.538  27.194  1.00  0.00     0.163 HD
ATOM     33  O   UNL A   1      32.477  36.196  28.786  1.00  0.00    -0.269 OA
BRANCH  31  34
ATOM     34  C   UNL A   1      34.119  34.622  29.361  1.00  0.00     0.039 A 
ATOM     35  C   UNL A   1      33.923  34.054  30.620  1.00  0.00     0.014 A 
ATOM     36  C   UNL A   1      35.383  34.631  28.767  1.00  0.00     0.014 A 
ATOM     37  C   UNL A   1      34.988  33.409  31.250  1.00  0.00     0.010 A 
ATOM     38  C   UNL A   1      36.417  33.917  29.356  1.00  0.00     0.010 A 
ATOM     39  C   UNL A   1      36.228  33.292  30.600  1.00  0.00    -0.014 A 
BRANCH  39  40
ATOM     40  C   UNL A   1      37.344  32.518  31.199  1.00  0.00     0.031 A 
ATOM     41  C   UNL A   1      37.844  32.867  32.571  1.00  0.00     0.074 A 
ATOM     42  C   UNL A   1      37.957  31.558  30.478  1.00  0.00     0.049 A 
ATOM     43  N   UNL A   1      38.858  32.374  33.234  1.00  0.00    -0.248 NA
ATOM     44  C   UNL A   1      37.130  33.942  33.278  1.00  0.00     0.031 C 
ATOM     45  C   UNL A   1      37.608  31.172  29.109  1.00  0.00     0.029 A 
ATOM     46  N   UNL A   1      39.015  30.742  30.792  1.00  0.00    -0.354 N 
ATOM     47  C   UNL A   1      38.914  33.089  34.422  1.00  0.00     0.074 A 
ATOM     48  C   UNL A   1      37.873  34.092  34.363  1.00  0.00     0.031 C 
ATOM     49  C   UNL A   1      38.421  30.178  28.712  1.00  0.00     0.029 A 
ATOM     50  C   UNL A   1      39.367  29.880  29.782  1.00  0.00     0.049 A 
ATOM     51  H   UNL A   1      39.477  30.770  31.661  1.00  0.00     0.167 HD
ATOM     52  C   UNL A   1      39.737  32.906  35.481  1.00  0.00     0.037 A 
ATOM     53  C   UNL A   1      40.345  28.956  29.726  1.00  0.00     0.037 A 
ATOM     54  C   UNL A   1      40.747  31.886  35.550  1.00  0.00     0.049 A 
ATOM     55  C   UNL A   1      41.234  28.757  30.925  1.00  0.00     0.074 A 
ATOM     56  C   UNL A   1      41.592  31.577  36.602  1.00  0.00     0.029 A 
ATOM     57  N   UNL A   1      41.047  31.003  34.523  1.00  0.00    -0.354 N 
ATOM     58  N   UNL A   1      41.230  29.391  32.072  1.00  0.00    -0.248 NA
ATOM     59  C   UNL A   1      42.258  27.708  30.824  1.00  0.00     0.031 C 
ATOM     60  C   UNL A   1      42.428  30.531  36.197  1.00  0.00     0.029 A 
ATOM     61  C   UNL A   1      42.074  30.158  34.910  1.00  0.00     0.049 A 
ATOM     62  H   UNL A   1      40.597  30.982  33.648  1.00  0.00     0.167 HD
ATOM     63  C   UNL A   1      42.228  28.804  32.837  1.00  0.00     0.074 A 
ATOM     64  C   UNL A   1      42.808  27.751  32.029  1.00  0.00     0.031 C 
ATOM     65  C   UNL A   1      42.630  29.109  34.095  1.00  0.00     0.037 A 
BRANCH  52  66
ATOM     66  C   UNL A   1      39.563  33.825  36.655  1.00  0.00     0.064 A 
ATOM     67  C   UNL A   1      40.165  35.093  36.690  1.00  0.00     0.173 A 
ATOM     68  C   UNL A   1      38.773  33.442  37.749  1.00  0.00     0.173 A 
ATOM     69  F   UNL A   1      40.942  35.499  35.675  1.00  0.00    -0.203 F 
ATOM     70  C   UNL A   1      40.010  35.929  37.793  1.00  0.00     0.198 A 
ATOM     71  C   UNL A   1      38.595  34.296  38.836  1.00  0.00     0.198 A 
ATOM     72  F   UNL A   1      38.171  32.244  37.765  1.00  0.00    -0.203 F 
ATOM     73  F   UNL A   1      40.643  37.110  37.828  1.00  0.00    -0.200 F 
ATOM     74  C   UNL A   1      39.221  35.532  38.861  1.00  0.00     0.200 A 
ATOM     75  F   UNL A   1      37.822  33.917  39.863  1.00  0.00    -0.200 F 
ATOM     76  F   UNL A   1      39.071  36.340  39.920  1.00  0.00    -0.200 F 
ENDBRANCH  52  66
BRANCH  53  77
ATOM     77  C   UNL A   1      40.515  28.125  28.506  1.00  0.00     0.064 A 
ATOM     78  C   UNL A   1      39.912  26.864  28.406  1.00  0.00     0.173 A 
ATOM     79  C   UNL A   1      41.281  28.570  27.420  1.00  0.00     0.173 A 
ATOM     80  F   UNL A   1      39.185  26.386  29.427  1.00  0.00    -0.203 F 
ATOM     81  C   UNL A   1      40.086  26.069  27.274  1.00  0.00     0.198 A 
ATOM     82  C   UNL A   1      41.433  27.786  26.277  1.00  0.00     0.198 A 
ATOM     83  F   UNL A   1      41.874  29.772  27.463  1.00  0.00    -0.203 F 
ATOM     84  F   UNL A   1      39.535  24.849  27.224  1.00  0.00    -0.200 F 
ATOM     85  C   UNL A   1      40.842  26.533  26.208  1.00  0.00     0.200 A 
ATOM     86  F   UNL A   1      42.154  28.243  25.244  1.00  0.00    -0.200 F 
ATOM     87  F   UNL A   1      41.006  25.771  25.119  1.00  0.00    -0.200 F 
ENDBRANCH  53  77
BRANCH  65  88
ATOM     88  C   UNL A   1      43.726  28.275  34.688  1.00  0.00     0.064 A 
ATOM     89  C   UNL A   1      43.455  27.080  35.372  1.00  0.00     0.173 A 
ATOM     90  C   UNL A   1      45.068  28.654  34.532  1.00  0.00     0.173 A 
ATOM     91  F   UNL A   1      42.186  26.685  35.561  1.00  0.00    -0.203 F 
ATOM     92  C   UNL A   1      44.486  26.306  35.894  1.00  0.00     0.198 A 
ATOM     93  C   UNL A   1      46.098  27.861  35.031  1.00  0.00     0.198 A 
ATOM     94  F   UNL A   1      45.380  29.784  33.881  1.00  0.00    -0.203 F 
ATOM     95  F   UNL A   1      44.201  25.191  36.580  1.00  0.00    -0.200 F 
ATOM     96  C   UNL A   1      45.806  26.693  35.717  1.00  0.00     0.200 A 
ATOM     97  F   UNL A   1      47.374  28.230  34.848  1.00  0.00    -0.200 F 
ATOM     98  F   UNL A   1      46.798  25.940  36.214  1.00  0.00    -0.200 F 
ENDBRANCH  65  88
ENDBRANCH  39  40
ENDBRANCH  31  34
ENDBRANCH  29  30
ENDBRANCH  28  29
ENDBRANCH   1  28
TORSDOF 15
ENDMDL
MODEL 2
REMARK VINA RESULT:     -12.9      0.268      1.927
REMARK SMILES COc1ccc(OC)c(NC(=O)[C@@H]2[C@@H](C(=O)NCCCCNC(=O)c3ccc(-c4c5nc(c(-c6c(F)c(F)c(F)c(F)c6F)c6ccc([nH]6)c(-c6c(F)c(F)c(F)c(F)c6F)c6nc(c(-c7c(F)c(F)c(F)c(F)c7F)c7ccc4[nH]7)C=C6)C=C5)cc3)[C@H]3C=C[C@@H]2C3)c1
REMARK SMILES IDX 19 1 18 2 17 3 15 4 16 5 14 7 13 8 91 9 88 10 90 11 92 12
REMARK SMILES IDX 89 13 11 14 10 15 12 17 9 18 3 19 4 20 93 21 5 22 6 23 2 24
REMARK SMILES IDX 1 25 7 26 8 27 20 28 21 29 22 30 23 31 24 33 25 34 26 35
REMARK SMILES IDX 87 36 27 37 86 38 28 39 29 40 30 41 80 42 31 43 85 44 79 45
REMARK SMILES IDX 81 46 32 47 84 48 78 49 77 50 33 52 65 53 45 54 64 55 46 56
REMARK SMILES IDX 49 57 63 58 82 59 47 60 48 61 62 63 83 64 50 65 34 66 35 67
REMARK SMILES IDX 43 68 36 69 37 70 41 71 44 72 38 73 39 74 42 75 40 76 66 77
REMARK SMILES IDX 67 78 75 79 68 80 69 81 73 82 76 83 70 84 71 85 74 86 72 87
REMARK SMILES IDX 51 88 52 89 60 90 53 91 54 92 58 93 61 94 55 95 56 96 59 97
REMARK SMILES IDX 57 98
REMARK H PARENT 17 6 10 16 22 32 81 51 49 62
REMARK Flexibility Score: inf
ROOT
ATOM      1  C   UNL A   1      31.964  30.338  27.032  1.00  0.00     0.023 C 
ENDROOT
BRANCH   1   2
ATOM      2  C   UNL A   1      33.376  29.797  26.792  1.00  0.00     0.116 C 
BRANCH   2   3
ATOM      3  N   UNL A   1      33.687  29.702  25.388  1.00  0.00    -0.356 N 
ATOM      4  C   UNL A   1      33.132  29.007  24.374  1.00  0.00     0.224 C 
ATOM      5  O   UNL A   1      33.565  29.302  23.251  1.00  0.00    -0.275 OA
ATOM      6  H   UNL A   1      34.456  30.253  25.115  1.00  0.00     0.163 HD
BRANCH   4   7
ATOM      7  C   UNL A   1      32.040  27.953  24.479  1.00  0.00     0.098 C 
ATOM      8  C   UNL A   1      32.499  26.451  24.371  1.00  0.00     0.099 C 
ATOM      9  C   UNL A   1      31.209  25.821  23.770  1.00  0.00     0.025 C 
ATOM     10  C   UNL A   1      30.724  28.003  23.653  1.00  0.00     0.025 C 
ATOM     11  C   UNL A   1      31.170  26.175  22.307  1.00  0.00    -0.027 C 
ATOM     12  C   UNL A   1      30.072  26.746  24.239  1.00  0.00     0.017 C 
ATOM     13  C   UNL A   1      30.836  27.468  22.241  1.00  0.00    -0.027 C 
BRANCH   8  14
ATOM     14  C   UNL A   1      32.782  25.807  25.725  1.00  0.00     0.229 C 
ATOM     15  N   UNL A   1      33.771  24.890  25.948  1.00  0.00    -0.323 N 
ATOM     16  H   UNL A   1      33.865  24.669  26.903  1.00  0.00     0.170 HD
ATOM     17  O   UNL A   1      32.104  26.104  26.717  1.00  0.00    -0.274 OA
BRANCH  15  18
ATOM     18  C   UNL A   1      34.689  24.181  25.145  1.00  0.00     0.087 A 
ATOM     19  C   UNL A   1      36.928  23.277  24.929  1.00  0.00     0.121 A 
ATOM     20  C   UNL A   1      36.689  22.876  23.618  1.00  0.00     0.050 A 
ATOM     21  C   UNL A   1      35.981  24.009  25.655  1.00  0.00     0.076 A 
ATOM     22  C   UNL A   1      35.399  22.979  23.128  1.00  0.00     0.052 A 
ATOM     23  C   UNL A   1      34.398  23.494  23.961  1.00  0.00     0.142 A 
BRANCH  19  24
ATOM     24  O   UNL A   1      38.070  22.845  25.550  1.00  0.00    -0.497 OA
ATOM     25  C   UNL A   1      38.122  21.411  25.453  1.00  0.00     0.278 C 
ENDBRANCH  19  24
BRANCH  23  26
ATOM     26  O   UNL A   1      33.155  22.949  23.743  1.00  0.00    -0.495 OA
ATOM     27  C   UNL A   1      33.189  21.576  24.192  1.00  0.00     0.278 C 
ENDBRANCH  23  26
ENDBRANCH  15  18
ENDBRANCH   8  14
ENDBRANCH   4   7
ENDBRANCH   2   3
ENDBRANCH   1   2
BRANCH   1  28
ATOM     28  C   UNL A   1      31.805  31.836  26.766  1.00  0.00     0.023 C 
BRANCH  28  29
ATOM     29  C   UNL A   1      32.874  32.712  27.410  1.00  0.00     0.116 C 
BRANCH  29  30
ATOM     30  N   UNL A   1      32.446  34.077  27.688  1.00  0.00    -0.352 N 
ATOM     31  C   UNL A   1      32.992  34.958  28.600  1.00  0.00     0.251 C 
ATOM     32  H   UNL A   1      31.681  34.410  27.167  1.00  0.00     0.163 HD
ATOM     33  O   UNL A   1      32.511  36.062  28.791  1.00  0.00    -0.269 OA
BRANCH  31  34
ATOM     34  C   UNL A   1      34.156  34.498  29.385  1.00  0.00     0.039 A 
ATOM     35  C   UNL A   1      33.935  33.834  30.592  1.00  0.00     0.014 A 
ATOM     36  C   UNL A   1      35.442  34.610  28.852  1.00  0.00     0.014 A 
ATOM     37  C   UNL A   1      35.004  33.199  31.226  1.00  0.00     0.010 A 
ATOM     38  C   UNL A   1      36.485  33.907  29.439  1.00  0.00     0.010 A 
ATOM     39  C   UNL A   1      36.275  33.188  30.627  1.00  0.00    -0.014 A 
BRANCH  39  40
ATOM     40  C   UNL A   1      37.403  32.428  31.222  1.00  0.00     0.031 A 
ATOM     41  C   UNL A   1      37.902  32.783  32.593  1.00  0.00     0.074 A 
ATOM     42  C   UNL A   1      38.027  31.476  30.499  1.00  0.00     0.049 A 
ATOM     43  N   UNL A   1      38.924  32.303  33.253  1.00  0.00    -0.248 NA
ATOM     44  C   UNL A   1      37.176  33.848  33.303  1.00  0.00     0.031 C 
ATOM     45  C   UNL A   1      37.679  31.086  29.131  1.00  0.00     0.029 A 
ATOM     46  N   UNL A   1      39.096  30.674  30.810  1.00  0.00    -0.354 N 
ATOM     47  C   UNL A   1      38.974  33.018  34.442  1.00  0.00     0.074 A 
ATOM     48  C   UNL A   1      37.920  34.008  34.386  1.00  0.00     0.031 C 
ATOM     49  C   UNL A   1      38.503  30.103  28.731  1.00  0.00     0.029 A 
ATOM     50  C   UNL A   1      39.456  29.817  29.799  1.00  0.00     0.049 A 
ATOM     51  H   UNL A   1      39.560  30.708  31.678  1.00  0.00     0.167 HD
ATOM     52  C   UNL A   1      39.803  32.846  35.498  1.00  0.00     0.037 A 
ATOM     53  C   UNL A   1      40.446  28.906  29.740  1.00  0.00     0.037 A 
ATOM     54  C   UNL A   1      40.826  31.839  35.564  1.00  0.00     0.049 A 
ATOM     55  C   UNL A   1      41.341  28.718  30.936  1.00  0.00     0.074 A 
ATOM     56  C   UNL A   1      41.678  31.540  36.613  1.00  0.00     0.029 A 
ATOM     57  N   UNL A   1      41.135  30.961  34.535  1.00  0.00    -0.354 N 
ATOM     58  N   UNL A   1      41.332  29.352  32.083  1.00  0.00    -0.248 NA
ATOM     59  C   UNL A   1      42.379  27.683  30.832  1.00  0.00     0.031 C 
ATOM     60  C   UNL A   1      42.526  30.506  36.206  1.00  0.00     0.029 A 
ATOM     61  C   UNL A   1      42.174  30.129  34.920  1.00  0.00     0.049 A 
ATOM     62  H   UNL A   1      40.683  30.934  33.662  1.00  0.00     0.167 HD
ATOM     63  C   UNL A   1      42.340  28.778  32.845  1.00  0.00     0.074 A 
ATOM     64  C   UNL A   1      42.931  27.733  32.036  1.00  0.00     0.031 C 
ATOM     65  C   UNL A   1      42.741  29.087  34.103  1.00  0.00     0.037 A 
BRANCH  52  66
ATOM     66  C   UNL A   1      39.620  33.762  36.673  1.00  0.00     0.064 A 
ATOM     67  C   UNL A   1      38.814  33.403  37.765  1.00  0.00     0.173 A 
ATOM     68  C   UNL A   1      40.270  35.005  36.717  1.00  0.00     0.173 A 
ATOM     69  F   UNL A   1      38.158  32.232  37.764  1.00  0.00    -0.203 F 
ATOM     70  C   UNL A   1      38.637  34.269  38.841  1.00  0.00     0.198 A 
ATOM     71  C   UNL A   1      40.117  35.854  37.811  1.00  0.00     0.198 A 
ATOM     72  F   UNL A   1      41.056  35.395  35.703  1.00  0.00    -0.203 F 
ATOM     73  F   UNL A   1      37.816  33.928  39.844  1.00  0.00    -0.200 F 
ATOM     74  C   UNL A   1      39.294  35.490  38.865  1.00  0.00     0.200 A 
ATOM     75  F   UNL A   1      40.760  37.028  37.839  1.00  0.00    -0.200 F 
ATOM     76  F   UNL A   1      39.125  36.320  39.904  1.00  0.00    -0.200 F 
ENDBRANCH  52  66
BRANCH  53  77
ATOM     77  C   UNL A   1      40.624  28.078  28.519  1.00  0.00     0.064 A 
ATOM     78  C   UNL A   1      41.407  28.534  27.449  1.00  0.00     0.173 A 
ATOM     79  C   UNL A   1      40.016  26.821  28.393  1.00  0.00     0.173 A 
ATOM     80  F   UNL A   1      41.992  29.739  27.514  1.00  0.00    -0.203 F 
ATOM     81  C   UNL A   1      41.558  27.774  26.291  1.00  0.00     0.198 A 
ATOM     82  C   UNL A   1      40.189  26.050  27.246  1.00  0.00     0.198 A 
ATOM     83  F   UNL A   1      39.262  26.337  29.390  1.00  0.00    -0.203 F 
ATOM     84  F   UNL A   1      42.275  28.254  25.266  1.00  0.00    -0.200 F 
ATOM     85  C   UNL A   1      40.954  26.529  26.192  1.00  0.00     0.200 A 
ATOM     86  F   UNL A   1      39.615  24.842  27.159  1.00  0.00    -0.200 F 
ATOM     87  F   UNL A   1      41.102  25.798  25.081  1.00  0.00    -0.200 F 
ENDBRANCH  53  77
BRANCH  65  88
ATOM     88  C   UNL A   1      43.850  28.268  34.693  1.00  0.00     0.064 A 
ATOM     89  C   UNL A   1      45.191  28.667  34.598  1.00  0.00     0.173 A 
ATOM     90  C   UNL A   1      43.561  27.091  35.401  1.00  0.00     0.173 A 
ATOM     91  F   UNL A   1      45.518  29.777  33.917  1.00  0.00    -0.203 F 
ATOM     92  C   UNL A   1      46.205  27.908  35.174  1.00  0.00     0.198 A 
ATOM     93  C   UNL A   1      44.576  26.350  36.000  1.00  0.00     0.198 A 
ATOM     94  F   UNL A   1      42.294  26.671  35.525  1.00  0.00    -0.203 F 
ATOM     95  F   UNL A   1      47.483  28.285  35.034  1.00  0.00    -0.200 F 
ATOM     96  C   UNL A   1      45.896  26.755  35.880  1.00  0.00     0.200 A 
ATOM     97  F   UNL A   1      44.275  25.243  36.693  1.00  0.00    -0.200 F 
ATOM     98  F   UNL A   1      46.874  26.029  36.441  1.00  0.00    -0.200 F 
ENDBRANCH  65  88
ENDBRANCH  39  40
ENDBRANCH  31  34
ENDBRANCH  29  30
ENDBRANCH  28  29
ENDBRANCH   1  28
TORSDOF 15
ENDMDL
MODEL 3
REMARK VINA RESULT:     -12.9      0.611      7.175
REMARK SMILES COc1ccc(OC)c(NC(=O)[C@@H]2[C@@H](C(=O)NCCCCNC(=O)c3ccc(-c4c5nc(c(-c6c(F)c(F)c(F)c(F)c6F)c6ccc([nH]6)c(-c6c(F)c(F)c(F)c(F)c6F)c6nc(c(-c7c(F)c(F)c(F)c(F)c7F)c7ccc4[nH]7)C=C6)C=C5)cc3)[C@H]3C=C[C@@H]2C3)c1
REMARK SMILES IDX 19 1 18 2 17 3 15 4 16 5 14 7 13 8 91 9 88 10 90 11 92 12
REMARK SMILES IDX 89 13 11 14 10 15 12 17 9 18 3 19 4 20 93 21 5 22 6 23 2 24
REMARK SMILES IDX 1 25 7 26 8 27 20 28 21 29 22 30 23 31 24 33 25 34 26 35
REMARK SMILES IDX 87 36 27 37 86 38 28 39 29 40 30 41 80 42 31 43 85 44 79 45
REMARK SMILES IDX 81 46 32 47 84 48 78 49 77 50 33 52 65 53 45 54 64 55 46 56
REMARK SMILES IDX 49 57 63 58 82 59 47 60 48 61 62 63 83 64 50 65 34 66 35 67
REMARK SMILES IDX 43 68 36 69 37 70 41 71 44 72 38 73 39 74 42 75 40 76 66 77
REMARK SMILES IDX 67 78 75 79 68 80 69 81 73 82 76 83 70 84 71 85 74 86 72 87
REMARK SMILES IDX 51 88 52 89 60 90 53 91 54 92 58 93 61 94 55 95 56 96 59 97
REMARK SMILES IDX 57 98
REMARK H PARENT 17 6 10 16 22 32 81 51 49 62
REMARK Flexibility Score: inf
ROOT
ATOM      1  C   UNL A   1      32.289  30.133  27.218  1.00  0.00     0.023 C 
ENDROOT
BRANCH   1   2
ATOM      2  C   UNL A   1      33.649  29.563  26.809  1.00  0.00     0.116 C 
BRANCH   2   3
ATOM      3  N   UNL A   1      33.827  29.561  25.379  1.00  0.00    -0.356 N 
ATOM      4  C   UNL A   1      33.152  28.964  24.375  1.00  0.00     0.224 C 
ATOM      5  O   UNL A   1      33.492  29.325  23.240  1.00  0.00    -0.275 OA
ATOM      6  H   UNL A   1      34.590  30.103  25.074  1.00  0.00     0.163 HD
BRANCH   4   7
ATOM      7  C   UNL A   1      32.030  27.944  24.508  1.00  0.00     0.098 C 
ATOM      8  C   UNL A   1      32.444  26.428  24.429  1.00  0.00     0.099 C 
ATOM      9  C   UNL A   1      31.133  25.824  23.848  1.00  0.00     0.025 C 
ATOM     10  C   UNL A   1      30.711  28.016  23.689  1.00  0.00     0.025 C 
ATOM     11  C   UNL A   1      31.095  26.148  22.379  1.00  0.00    -0.027 C 
ATOM     12  C   UNL A   1      30.026  26.792  24.305  1.00  0.00     0.017 C 
ATOM     13  C   UNL A   1      30.798  27.449  22.288  1.00  0.00    -0.027 C 
BRANCH   8  14
ATOM     14  C   UNL A   1      32.717  25.804  25.795  1.00  0.00     0.229 C 
ATOM     15  N   UNL A   1      33.708  24.896  26.040  1.00  0.00    -0.323 N 
ATOM     16  H   UNL A   1      33.794  24.688  26.999  1.00  0.00     0.170 HD
ATOM     17  O   UNL A   1      32.027  26.111  26.775  1.00  0.00    -0.274 OA
BRANCH  15  18
ATOM     18  C   UNL A   1      34.638  24.181  25.257  1.00  0.00     0.087 A 
ATOM     19  C   UNL A   1      36.905  23.349  25.044  1.00  0.00     0.121 A 
ATOM     20  C   UNL A   1      36.660  22.874  23.760  1.00  0.00     0.050 A 
ATOM     21  C   UNL A   1      35.944  24.082  25.750  1.00  0.00     0.076 A 
ATOM     22  C   UNL A   1      35.359  22.905  23.289  1.00  0.00     0.052 A 
ATOM     23  C   UNL A   1      34.354  23.425  24.114  1.00  0.00     0.142 A 
BRANCH  19  24
ATOM     24  O   UNL A   1      38.073  22.990  25.664  1.00  0.00    -0.497 OA
ATOM     25  C   UNL A   1      38.277  21.581  25.462  1.00  0.00     0.278 C 
ENDBRANCH  19  24
BRANCH  23  26
ATOM     26  O   UNL A   1      33.128  22.825  23.946  1.00  0.00    -0.495 OA
ATOM     27  C   UNL A   1      33.306  21.402  24.117  1.00  0.00     0.278 C 
ENDBRANCH  23  26
ENDBRANCH  15  18
ENDBRANCH   8  14
ENDBRANCH   4   7
ENDBRANCH   2   3
ENDBRANCH   1   2
BRANCH   1  28
ATOM     28  C   UNL A   1      32.074  31.599  26.840  1.00  0.00     0.023 C 
BRANCH  28  29
ATOM     29  C   UNL A   1      33.063  32.570  27.474  1.00  0.00     0.116 C 
BRANCH  29  30
ATOM     30  N   UNL A   1      32.543  33.917  27.670  1.00  0.00    -0.352 N 
ATOM     31  C   UNL A   1      33.005  34.875  28.549  1.00  0.00     0.251 C 
ATOM     32  H   UNL A   1      31.775  34.174  27.111  1.00  0.00     0.163 HD
ATOM     33  O   UNL A   1      32.451  35.955  28.670  1.00  0.00    -0.269 OA
BRANCH  31  34
ATOM     34  C   UNL A   1      34.171  34.531  29.389  1.00  0.00     0.039 A 
ATOM     35  C   UNL A   1      33.952  34.008  30.665  1.00  0.00     0.014 A 
ATOM     36  C   UNL A   1      35.458  34.601  28.853  1.00  0.00     0.014 A 
ATOM     37  C   UNL A   1      35.027  33.470  31.374  1.00  0.00     0.010 A 
ATOM     38  C   UNL A   1      36.509  33.989  29.524  1.00  0.00     0.010 A 
ATOM     39  C   UNL A   1      36.302  33.410  30.787  1.00  0.00    -0.014 A 
BRANCH  39  40
ATOM     40  C   UNL A   1      37.437  32.744  31.473  1.00  0.00     0.031 A 
ATOM     41  C   UNL A   1      38.116  31.572  30.826  1.00  0.00     0.074 A 
ATOM     42  C   UNL A   1      37.800  33.141  32.709  1.00  0.00     0.049 A 
ATOM     43  N   UNL A   1      39.064  30.800  31.295  1.00  0.00    -0.248 NA
ATOM     44  C   UNL A   1      37.642  31.192  29.486  1.00  0.00     0.031 C 
ATOM     45  C   UNL A   1      37.173  34.223  33.471  1.00  0.00     0.029 A 
ATOM     46  N   UNL A   1      38.778  32.669  33.549  1.00  0.00    -0.354 N 
ATOM     47  C   UNL A   1      39.283  29.838  30.320  1.00  0.00     0.074 A 
ATOM     48  C   UNL A   1      38.328  30.082  29.260  1.00  0.00     0.031 C 
ATOM     49  C   UNL A   1      37.798  34.348  34.654  1.00  0.00     0.029 A 
ATOM     50  C   UNL A   1      38.845  33.335  34.748  1.00  0.00     0.049 A 
ATOM     51  H   UNL A   1      39.377  31.924  33.313  1.00  0.00     0.167 HD
ATOM     52  C   UNL A   1      40.216  28.858  30.293  1.00  0.00     0.037 A 
ATOM     53  C   UNL A   1      39.657  33.146  35.805  1.00  0.00     0.037 A 
ATOM     54  C   UNL A   1      41.186  28.640  31.331  1.00  0.00     0.049 A 
ATOM     55  C   UNL A   1      40.702  32.064  35.743  1.00  0.00     0.074 A 
ATOM     56  C   UNL A   1      42.214  27.714  31.373  1.00  0.00     0.029 A 
ATOM     57  N   UNL A   1      41.249  29.362  32.514  1.00  0.00    -0.354 N 
ATOM     58  N   UNL A   1      40.947  31.205  34.783  1.00  0.00    -0.248 NA
ATOM     59  C   UNL A   1      41.587  31.929  36.908  1.00  0.00     0.031 C 
ATOM     60  C   UNL A   1      42.877  27.852  32.596  1.00  0.00     0.029 A 
ATOM     61  C   UNL A   1      42.291  28.893  33.298  1.00  0.00     0.049 A 
ATOM     62  H   UNL A   1      40.643  30.097  32.760  1.00  0.00     0.167 HD
ATOM     63  C   UNL A   1      42.027  30.448  35.214  1.00  0.00     0.074 A 
ATOM     64  C   UNL A   1      42.401  30.958  36.517  1.00  0.00     0.031 C 
ATOM     65  C   UNL A   1      42.654  29.422  34.588  1.00  0.00     0.037 A 
BRANCH  52  66
ATOM     66  C   UNL A   1      40.237  27.959  29.091  1.00  0.00     0.064 A 
ATOM     67  C   UNL A   1      39.514  26.757  29.061  1.00  0.00     0.173 A 
ATOM     68  C   UNL A   1      40.973  28.312  27.949  1.00  0.00     0.173 A 
ATOM     69  F   UNL A   1      38.807  26.368  30.133  1.00  0.00    -0.203 F 
ATOM     70  C   UNL A   1      39.556  25.923  27.947  1.00  0.00     0.198 A 
ATOM     71  C   UNL A   1      40.986  27.490  26.824  1.00  0.00     0.198 A 
ATOM     72  F   UNL A   1      41.678  29.452  27.923  1.00  0.00    -0.203 F 
ATOM     73  F   UNL A   1      38.904  24.752  27.965  1.00  0.00    -0.200 F 
ATOM     74  C   UNL A   1      40.286  26.293  26.828  1.00  0.00     0.200 A 
ATOM     75  F   UNL A   1      41.682  27.854  25.740  1.00  0.00    -0.200 F 
ATOM     76  F   UNL A   1      40.322  25.491  25.755  1.00  0.00    -0.200 F 
ENDBRANCH  52  66
BRANCH  53  77
ATOM     77  C   UNL A   1      39.540  34.023  37.000  1.00  0.00     0.064 A 
ATOM     78  C   UNL A   1      38.777  33.628  38.108  1.00  0.00     0.173 A 
ATOM     79  C   UNL A   1      40.181  35.268  37.058  1.00  0.00     0.173 A 
ATOM     80  F   UNL A   1      38.129  32.454  38.091  1.00  0.00    -0.203 F 
ATOM     81  C   UNL A   1      38.643  34.455  39.221  1.00  0.00     0.198 A 
ATOM     82  C   UNL A   1      40.068  36.083  38.183  1.00  0.00     0.198 A 
ATOM     83  F   UNL A   1      40.926  35.689  36.027  1.00  0.00    -0.203 F 
ATOM     84  F   UNL A   1      37.871  34.073  40.248  1.00  0.00    -0.200 F 
ATOM     85  C   UNL A   1      39.293  35.680  39.261  1.00  0.00     0.200 A 
ATOM     86  F   UNL A   1      40.707  37.260  38.223  1.00  0.00    -0.200 F 
ATOM     87  F   UNL A   1      39.166  36.473  40.333  1.00  0.00    -0.200 F 
ENDBRANCH  53  77
BRANCH  65  88
ATOM     88  C   UNL A   1      43.827  28.803  35.287  1.00  0.00     0.064 A 
ATOM     89  C   UNL A   1      43.668  27.750  36.201  1.00  0.00     0.173 A 
ATOM     90  C   UNL A   1      45.131  29.239  35.005  1.00  0.00     0.173 A 
ATOM     91  F   UNL A   1      42.440  27.310  36.515  1.00  0.00    -0.203 F 
ATOM     92  C   UNL A   1      44.770  27.171  36.821  1.00  0.00     0.198 A 
ATOM     93  C   UNL A   1      46.232  28.637  35.607  1.00  0.00     0.198 A 
ATOM     94  F   UNL A   1      45.336  30.238  34.134  1.00  0.00    -0.203 F 
ATOM     95  F   UNL A   1      44.593  26.195  37.723  1.00  0.00    -0.200 F 
ATOM     96  C   UNL A   1      46.051  27.609  36.519  1.00  0.00     0.200 A 
ATOM     97  F   UNL A   1      47.470  29.053  35.303  1.00  0.00    -0.200 F 
ATOM     98  F   UNL A   1      47.112  27.043  37.112  1.00  0.00    -0.200 F 
ENDBRANCH  65  88
ENDBRANCH  39  40
ENDBRANCH  31  34
ENDBRANCH  29  30
ENDBRANCH  28  29
ENDBRANCH   1  28
TORSDOF 15
ENDMDL
