MODEL 1
REMARK VINA RESULT:     -13.5      0.000      0.000
REMARK SMILES CN1C(=O)/C(=N\Nc2cccc(C(=O)NCCCCNC(=O)c3ccc(-c4c5nc(c(-c6c(F)c(F)c(F)c(F)c6F)c6ccc([nH]6)c(-c6c(F)c(F)c(F)c(F)c6F)c6nc(c(-c7c(F)c(F)c(F)c(F)c7F)c7ccc4[nH]7)C=C6)C=C5)cc3)c2)c2ccccc21
REMARK SMILES IDX 17 1 16 2 15 3 13 4 14 5 12 7 8 8 9 9 86 10 10 11 11 12 7 13
REMARK SMILES IDX 6 15 1 16 2 17 3 18 92 19 4 20 5 21 87 22 91 23 88 24 90 25
REMARK SMILES IDX 89 26 18 27 19 28 20 29 21 30 22 32 23 33 24 34 85 35 25 36
REMARK SMILES IDX 84 37 26 38 27 39 28 40 78 41 29 42 83 43 77 44 79 45 30 46
REMARK SMILES IDX 82 47 76 48 75 49 31 51 63 52 43 53 62 54 44 55 47 56 61 57
REMARK SMILES IDX 80 58 45 59 46 60 60 62 81 63 48 64 32 65 33 66 41 67 34 68
REMARK SMILES IDX 35 69 39 70 42 71 36 72 37 73 40 74 38 75 64 76 65 77 73 78
REMARK SMILES IDX 66 79 67 80 71 81 74 82 68 83 69 84 72 85 70 86 49 87 50 88
REMARK SMILES IDX 58 89 51 90 52 91 56 92 59 93 53 94 54 95 57 96 55 97
REMARK H PARENT 15 6 7 14 20 31 79 50 47 61
REMARK Flexibility Score: inf
ROOT
ATOM      1  C   UNL A   1      31.408  30.824  25.779  1.00  0.00     0.023 C 
ENDROOT
BRANCH   1   2
ATOM      2  C   UNL A   1      32.582  29.997  26.306  1.00  0.00     0.116 C 
BRANCH   2   3
ATOM      3  N   UNL A   1      32.119  28.741  26.850  1.00  0.00    -0.352 N 
ATOM      4  C   UNL A   1      31.648  27.591  26.266  1.00  0.00     0.251 C 
ATOM      5  O   UNL A   1      31.300  26.693  27.036  1.00  0.00    -0.269 OA
ATOM      6  H   UNL A   1      32.147  28.702  27.834  1.00  0.00     0.163 HD
BRANCH   4   7
ATOM      7  C   UNL A   1      31.593  27.347  24.792  1.00  0.00     0.041 A 
ATOM      8  C   UNL A   1      32.303  26.286  22.709  1.00  0.00     0.057 A 
ATOM      9  C   UNL A   1      31.186  26.826  22.061  1.00  0.00     0.028 A 
ATOM     10  C   UNL A   1      32.535  26.626  24.050  1.00  0.00     0.041 A 
ATOM     11  C   UNL A   1      30.278  27.618  22.758  1.00  0.00     0.003 A 
ATOM     12  C   UNL A   1      30.468  27.852  24.119  1.00  0.00     0.014 A 
BRANCH   8  13
ATOM     13  N   UNL A   1      33.027  25.268  22.054  1.00  0.00    -0.278 N 
ATOM     14  H   UNL A   1      32.723  25.001  21.156  1.00  0.00     0.190 HD
BRANCH  13  15
ATOM     15  N   UNL A   1      34.109  24.629  22.562  1.00  0.00    -0.169 NA
ATOM     16  C   UNL A   1      32.255  20.745  24.983  1.00  0.00     0.153 C 
ATOM     17  N   UNL A   1      33.149  21.632  24.290  1.00  0.00    -0.309 N 
ATOM     18  C   UNL A   1      32.735  22.565  23.346  1.00  0.00     0.279 C 
ATOM     19  C   UNL A   1      34.538  21.683  24.464  1.00  0.00     0.053 A 
ATOM     20  O   UNL A   1      31.652  22.647  22.819  1.00  0.00    -0.267 OA
ATOM     21  C   UNL A   1      33.980  23.450  23.097  1.00  0.00     0.158 C 
ATOM     22  C   UNL A   1      35.091  22.726  23.721  1.00  0.00     0.031 A 
ATOM     23  C   UNL A   1      35.347  20.836  25.199  1.00  0.00     0.027 A 
ATOM     24  C   UNL A   1      36.451  22.956  23.657  1.00  0.00     0.013 A 
ATOM     25  C   UNL A   1      36.731  21.037  25.135  1.00  0.00     0.002 A 
ATOM     26  C   UNL A   1      37.278  22.083  24.367  1.00  0.00     0.001 A 
ENDBRANCH  13  15
ENDBRANCH   8  13
ENDBRANCH   4   7
ENDBRANCH   2   3
ENDBRANCH   1   2
BRANCH   1  27
ATOM     27  C   UNL A   1      31.220  32.160  26.505  1.00  0.00     0.023 C 
BRANCH  27  28
ATOM     28  C   UNL A   1      32.506  32.772  27.052  1.00  0.00     0.116 C 
BRANCH  28  29
ATOM     29  N   UNL A   1      32.322  34.109  27.592  1.00  0.00    -0.352 N 
ATOM     30  C   UNL A   1      33.052  34.745  28.564  1.00  0.00     0.251 C 
ATOM     31  H   UNL A   1      31.577  34.625  27.211  1.00  0.00     0.163 HD
ATOM     32  O   UNL A   1      32.706  35.847  28.977  1.00  0.00    -0.269 OA
BRANCH  30  33
ATOM     33  C   UNL A   1      34.241  34.084  29.140  1.00  0.00     0.039 A 
ATOM     34  C   UNL A   1      34.057  33.162  30.172  1.00  0.00     0.014 A 
ATOM     35  C   UNL A   1      35.528  34.381  28.682  1.00  0.00     0.014 A 
ATOM     36  C   UNL A   1      35.161  32.512  30.725  1.00  0.00     0.010 A 
ATOM     37  C   UNL A   1      36.623  33.687  29.189  1.00  0.00     0.010 A 
ATOM     38  C   UNL A   1      36.450  32.760  30.228  1.00  0.00    -0.014 A 
BRANCH  38  39
ATOM     39  C   UNL A   1      37.634  32.096  30.826  1.00  0.00     0.031 A 
ATOM     40  C   UNL A   1      38.100  32.497  32.198  1.00  0.00     0.074 A 
ATOM     41  C   UNL A   1      38.304  31.162  30.126  1.00  0.00     0.049 A 
ATOM     42  N   UNL A   1      39.127  32.064  32.885  1.00  0.00    -0.248 NA
ATOM     43  C   UNL A   1      37.321  33.543  32.881  1.00  0.00     0.031 C 
ATOM     44  C   UNL A   1      37.980  30.728  28.767  1.00  0.00     0.029 A 
ATOM     45  N   UNL A   1      39.401  30.411  30.464  1.00  0.00    -0.354 N 
ATOM     46  C   UNL A   1      39.121  32.787  34.069  1.00  0.00     0.074 A 
ATOM     47  C   UNL A   1      38.025  33.727  33.988  1.00  0.00     0.031 C 
ATOM     48  C   UNL A   1      38.850  29.775  28.391  1.00  0.00     0.029 A 
ATOM     49  C   UNL A   1      39.799  29.544  29.477  1.00  0.00     0.049 A 
ATOM     50  H   UNL A   1      39.860  30.487  31.332  1.00  0.00     0.167 HD
ATOM     51  C   UNL A   1      39.937  32.659  35.142  1.00  0.00     0.037 A 
ATOM     52  C   UNL A   1      40.814  28.659  29.457  1.00  0.00     0.037 A 
ATOM     53  C   UNL A   1      41.008  31.704  35.235  1.00  0.00     0.049 A 
ATOM     54  C   UNL A   1      41.680  28.511  30.679  1.00  0.00     0.074 A 
ATOM     55  C   UNL A   1      41.879  31.479  36.286  1.00  0.00     0.029 A 
ATOM     56  N   UNL A   1      41.346  30.804  34.235  1.00  0.00    -0.354 N 
ATOM     57  N   UNL A   1      41.634  29.167  31.812  1.00  0.00    -0.248 NA
ATOM     58  C   UNL A   1      42.730  27.483  30.622  1.00  0.00     0.031 C 
ATOM     59  C   UNL A   1      42.757  30.453  35.916  1.00  0.00     0.029 A 
ATOM     60  C   UNL A   1      42.409  30.018  34.646  1.00  0.00     0.049 A 
ATOM     61  H   UNL A   1      40.896  30.734  33.362  1.00  0.00     0.167 HD
ATOM     62  C   UNL A   1      42.626  28.617  32.611  1.00  0.00     0.074 A 
ATOM     63  C   UNL A   1      43.245  27.559  31.841  1.00  0.00     0.031 C 
ATOM     64  C   UNL A   1      42.998  28.960  33.869  1.00  0.00     0.037 A 
BRANCH  51  65
ATOM     65  C   UNL A   1      39.683  33.561  36.313  1.00  0.00     0.064 A 
ATOM     66  C   UNL A   1      38.841  33.168  37.365  1.00  0.00     0.173 A 
ATOM     67  C   UNL A   1      40.308  34.813  36.404  1.00  0.00     0.173 A 
ATOM     68  F   UNL A   1      38.208  31.986  37.315  1.00  0.00    -0.203 F 
ATOM     69  C   UNL A   1      38.615  34.006  38.453  1.00  0.00     0.198 A 
ATOM     70  C   UNL A   1      40.100  35.638  37.506  1.00  0.00     0.198 A 
ATOM     71  F   UNL A   1      41.122  35.235  35.425  1.00  0.00    -0.203 F 
ATOM     72  F   UNL A   1      37.771  33.629  39.422  1.00  0.00    -0.200 F 
ATOM     73  C   UNL A   1      39.249  35.236  38.526  1.00  0.00     0.200 A 
ATOM     74  F   UNL A   1      40.719  36.824  37.580  1.00  0.00    -0.200 F 
ATOM     75  F   UNL A   1      39.035  36.041  39.577  1.00  0.00    -0.200 F 
ENDBRANCH  51  65
BRANCH  52  76
ATOM     76  C   UNL A   1      41.047  27.818  28.256  1.00  0.00     0.064 A 
ATOM     77  C   UNL A   1      40.460  26.550  28.141  1.00  0.00     0.173 A 
ATOM     78  C   UNL A   1      41.880  28.249  27.215  1.00  0.00     0.173 A 
ATOM     79  F   UNL A   1      39.670  26.087  29.122  1.00  0.00    -0.203 F 
ATOM     80  C   UNL A   1      40.722  25.731  27.045  1.00  0.00     0.198 A 
ATOM     81  C   UNL A   1      42.121  27.440  26.105  1.00  0.00     0.198 A 
ATOM     82  F   UNL A   1      42.460  29.456  27.275  1.00  0.00    -0.203 F 
ATOM     83  F   UNL A   1      40.191  24.503  26.986  1.00  0.00    -0.200 F 
ATOM     84  C   UNL A   1      41.550  26.179  26.026  1.00  0.00     0.200 A 
ATOM     85  F   UNL A   1      42.913  27.879  25.118  1.00  0.00    -0.200 F 
ATOM     86  F   UNL A   1      41.807  25.389  24.975  1.00  0.00    -0.200 F 
ENDBRANCH  52  76
BRANCH  64  87
ATOM     87  C   UNL A   1      44.100  28.160  34.496  1.00  0.00     0.064 A 
ATOM     88  C   UNL A   1      43.836  26.991  35.223  1.00  0.00     0.173 A 
ATOM     89  C   UNL A   1      45.437  28.558  34.348  1.00  0.00     0.173 A 
ATOM     90  F   UNL A   1      42.572  26.579  35.403  1.00  0.00    -0.203 F 
ATOM     91  C   UNL A   1      44.869  26.262  35.804  1.00  0.00     0.198 A 
ATOM     92  C   UNL A   1      46.470  27.813  34.909  1.00  0.00     0.198 A 
ATOM     93  F   UNL A   1      45.741  29.666  33.657  1.00  0.00    -0.203 F 
ATOM     94  F   UNL A   1      44.591  25.174  36.535  1.00  0.00    -0.200 F 
ATOM     95  C   UNL A   1      46.185  26.671  35.643  1.00  0.00     0.200 A 
ATOM     96  F   UNL A   1      47.742  28.203  34.745  1.00  0.00    -0.200 F 
ATOM     97  F   UNL A   1      47.179  25.969  36.204  1.00  0.00    -0.200 F 
ENDBRANCH  64  87
ENDBRANCH  38  39
ENDBRANCH  30  33
ENDBRANCH  28  29
ENDBRANCH  27  28
ENDBRANCH   1  27
TORSDOF 13
ENDMDL
MODEL 2
REMARK VINA RESULT:     -13.5      3.776      9.082
REMARK SMILES CN1C(=O)/C(=N\Nc2cccc(C(=O)NCCCCNC(=O)c3ccc(-c4c5nc(c(-c6c(F)c(F)c(F)c(F)c6F)c6ccc([nH]6)c(-c6c(F)c(F)c(F)c(F)c6F)c6nc(c(-c7c(F)c(F)c(F)c(F)c7F)c7ccc4[nH]7)C=C6)C=C5)cc3)c2)c2ccccc21
REMARK SMILES IDX 17 1 16 2 15 3 13 4 14 5 12 7 8 8 9 9 86 10 10 11 11 12 7 13
REMARK SMILES IDX 6 15 1 16 2 17 3 18 92 19 4 20 5 21 87 22 91 23 88 24 90 25
REMARK SMILES IDX 89 26 18 27 19 28 20 29 21 30 22 32 23 33 24 34 85 35 25 36
REMARK SMILES IDX 84 37 26 38 27 39 28 40 78 41 29 42 83 43 77 44 79 45 30 46
REMARK SMILES IDX 82 47 76 48 75 49 31 51 63 52 43 53 62 54 44 55 47 56 61 57
REMARK SMILES IDX 80 58 45 59 46 60 60 62 81 63 48 64 32 65 33 66 41 67 34 68
REMARK SMILES IDX 35 69 39 70 42 71 36 72 37 73 40 74 38 75 64 76 65 77 73 78
REMARK SMILES IDX 66 79 67 80 71 81 74 82 68 83 69 84 72 85 70 86 49 87 50 88
REMARK SMILES IDX 58 89 51 90 52 91 56 92 59 93 53 94 54 95 57 96 55 97
REMARK H PARENT 15 6 7 14 20 31 79 50 47 61
REMARK Flexibility Score: inf
ROOT
ATOM      1  C   UNL A   1      35.444  21.728  26.113  1.00  0.00     0.023 C 
ENDROOT
BRANCH   1   2
ATOM      2  C   UNL A   1      35.407  20.624  25.054  1.00  0.00     0.116 C 
BRANCH   2   3
ATOM      3  N   UNL A   1      34.304  19.721  25.297  1.00  0.00    -0.352 N 
ATOM      4  C   UNL A   1      32.943  19.870  25.209  1.00  0.00     0.251 C 
ATOM      5  O   UNL A   1      32.266  18.888  25.522  1.00  0.00    -0.269 OA
ATOM      6  H   UNL A   1      34.586  18.821  25.582  1.00  0.00     0.163 HD
BRANCH   4   7
ATOM      7  C   UNL A   1      32.252  21.099  24.710  1.00  0.00     0.041 A 
ATOM      8  C   UNL A   1      30.903  23.121  24.962  1.00  0.00     0.057 A 
ATOM      9  C   UNL A   1      31.228  23.492  23.653  1.00  0.00     0.028 A 
ATOM     10  C   UNL A   1      31.354  21.882  25.443  1.00  0.00     0.041 A 
ATOM     11  C   UNL A   1      32.052  22.686  22.871  1.00  0.00     0.003 A 
ATOM     12  C   UNL A   1      32.581  21.513  23.409  1.00  0.00     0.014 A 
BRANCH   8  13
ATOM     13  N   UNL A   1      30.317  24.088  25.805  1.00  0.00    -0.278 N 
ATOM     14  H   UNL A   1      29.384  23.940  26.083  1.00  0.00     0.190 HD
BRANCH  13  15
ATOM     15  N   UNL A   1      30.936  25.203  26.263  1.00  0.00    -0.169 NA
ATOM     16  C   UNL A   1      30.075  28.627  22.811  1.00  0.00     0.153 C 
ATOM     17  N   UNL A   1      30.397  27.981  24.054  1.00  0.00    -0.309 N 
ATOM     18  C   UNL A   1      29.914  26.732  24.424  1.00  0.00     0.279 C 
ATOM     19  C   UNL A   1      31.230  28.507  25.049  1.00  0.00     0.053 A 
ATOM     20  O   UNL A   1      29.027  26.101  23.900  1.00  0.00    -0.267 OA
ATOM     21  C   UNL A   1      30.738  26.347  25.676  1.00  0.00     0.158 C 
ATOM     22  C   UNL A   1      31.419  27.582  26.075  1.00  0.00     0.031 A 
ATOM     23  C   UNL A   1      31.791  29.769  25.126  1.00  0.00     0.027 A 
ATOM     24  C   UNL A   1      32.142  27.871  27.216  1.00  0.00     0.013 A 
ATOM     25  C   UNL A   1      32.512  30.093  26.282  1.00  0.00     0.002 A 
ATOM     26  C   UNL A   1      32.681  29.155  27.319  1.00  0.00     0.001 A 
ENDBRANCH  13  15
ENDBRANCH   8  13
ENDBRANCH   4   7
ENDBRANCH   2   3
ENDBRANCH   1   2
BRANCH   1  27
ATOM     27  C   UNL A   1      35.498  23.143  25.526  1.00  0.00     0.023 C 
BRANCH  27  28
ATOM     28  C   UNL A   1      36.892  23.760  25.490  1.00  0.00     0.116 C 
BRANCH  28  29
ATOM     29  N   UNL A   1      37.960  22.778  25.583  1.00  0.00    -0.352 N 
ATOM     30  C   UNL A   1      39.212  22.924  26.125  1.00  0.00     0.251 C 
ATOM     31  H   UNL A   1      37.757  21.890  25.209  1.00  0.00     0.163 HD
ATOM     32  O   UNL A   1      40.033  22.018  26.039  1.00  0.00    -0.269 OA
BRANCH  30  33
ATOM     33  C   UNL A   1      39.581  24.192  26.785  1.00  0.00     0.039 A 
ATOM     34  C   UNL A   1      40.255  25.162  26.038  1.00  0.00     0.014 A 
ATOM     35  C   UNL A   1      39.284  24.422  28.132  1.00  0.00     0.014 A 
ATOM     36  C   UNL A   1      40.604  26.375  26.632  1.00  0.00     0.010 A 
ATOM     37  C   UNL A   1      39.576  25.656  28.706  1.00  0.00     0.010 A 
ATOM     38  C   UNL A   1      40.255  26.636  27.967  1.00  0.00    -0.014 A 
BRANCH  38  39
ATOM     39  C   UNL A   1      40.645  27.910  28.616  1.00  0.00     0.031 A 
ATOM     40  C   UNL A   1      42.069  28.122  29.050  1.00  0.00     0.074 A 
ATOM     41  C   UNL A   1      39.717  28.858  28.845  1.00  0.00     0.049 A 
ATOM     42  N   UNL A   1      42.606  29.147  29.662  1.00  0.00    -0.248 NA
ATOM     43  C   UNL A   1      43.011  27.023  28.781  1.00  0.00     0.031 C 
ATOM     44  C   UNL A   1      38.294  28.747  28.519  1.00  0.00     0.029 A 
ATOM     45  N   UNL A   1      39.834  30.103  29.409  1.00  0.00    -0.354 N 
ATOM     46  C   UNL A   1      43.939  28.813  29.857  1.00  0.00     0.074 A 
ATOM     47  C   UNL A   1      44.120  27.470  29.353  1.00  0.00     0.031 C 
ATOM     48  C   UNL A   1      37.672  29.884  28.873  1.00  0.00     0.029 A 
ATOM     49  C   UNL A   1      38.649  30.795  29.465  1.00  0.00     0.049 A 
ATOM     50  H   UNL A   1      40.686  30.465  29.743  1.00  0.00     0.167 HD
ATOM     51  C   UNL A   1      44.932  29.570  30.382  1.00  0.00     0.037 A 
ATOM     52  C   UNL A   1      38.386  32.028  29.937  1.00  0.00     0.037 A 
ATOM     53  C   UNL A   1      44.759  30.916  30.857  1.00  0.00     0.049 A 
ATOM     54  C   UNL A   1      39.517  32.861  30.479  1.00  0.00     0.074 A 
ATOM     55  C   UNL A   1      45.705  31.776  31.387  1.00  0.00     0.029 A 
ATOM     56  N   UNL A   1      43.554  31.603  30.846  1.00  0.00    -0.354 N 
ATOM     57  N   UNL A   1      40.783  32.552  30.613  1.00  0.00    -0.248 NA
ATOM     58  C   UNL A   1      39.181  34.224  30.918  1.00  0.00     0.031 C 
ATOM     59  C   UNL A   1      45.068  32.979  31.713  1.00  0.00     0.029 A 
ATOM     60  C   UNL A   1      43.733  32.878  31.355  1.00  0.00     0.049 A 
ATOM     61  H   UNL A   1      42.698  31.239  30.524  1.00  0.00     0.167 HD
ATOM     62  C   UNL A   1      41.399  33.686  31.126  1.00  0.00     0.074 A 
ATOM     63  C   UNL A   1      40.371  34.696  31.259  1.00  0.00     0.031 C 
ATOM     64  C   UNL A   1      42.698  33.872  31.463  1.00  0.00     0.037 A 
BRANCH  51  65
ATOM     65  C   UNL A   1      46.301  28.962  30.446  1.00  0.00     0.064 A 
ATOM     66  C   UNL A   1      46.727  28.246  31.576  1.00  0.00     0.173 A 
ATOM     67  C   UNL A   1      47.185  29.065  29.362  1.00  0.00     0.173 A 
ATOM     68  F   UNL A   1      45.925  28.133  32.645  1.00  0.00    -0.203 F 
ATOM     69  C   UNL A   1      47.997  27.677  31.626  1.00  0.00     0.198 A 
ATOM     70  C   UNL A   1      48.444  28.473  29.405  1.00  0.00     0.198 A 
ATOM     71  F   UNL A   1      46.825  29.739  28.259  1.00  0.00    -0.203 F 
ATOM     72  F   UNL A   1      48.399  27.038  32.733  1.00  0.00    -0.200 F 
ATOM     73  C   UNL A   1      48.850  27.785  30.539  1.00  0.00     0.200 A 
ATOM     74  F   UNL A   1      49.266  28.571  28.352  1.00  0.00    -0.200 F 
ATOM     75  F   UNL A   1      50.071  27.233  30.587  1.00  0.00    -0.200 F 
ENDBRANCH  51  65
BRANCH  52  76
ATOM     76  C   UNL A   1      37.004  32.568  29.886  1.00  0.00     0.064 A 
ATOM     77  C   UNL A   1      36.555  33.295  28.775  1.00  0.00     0.173 A 
ATOM     78  C   UNL A   1      36.114  32.394  30.955  1.00  0.00     0.173 A 
ATOM     79  F   UNL A   1      37.379  33.504  27.736  1.00  0.00    -0.203 F 
ATOM     80  C   UNL A   1      35.280  33.855  28.746  1.00  0.00     0.198 A 
ATOM     81  C   UNL A   1      34.829  32.931  30.915  1.00  0.00     0.198 A 
ATOM     82  F   UNL A   1      36.493  31.701  32.038  1.00  0.00    -0.203 F 
ATOM     83  F   UNL A   1      34.897  34.590  27.694  1.00  0.00    -0.200 F 
ATOM     84  C   UNL A   1      34.417  33.669  29.816  1.00  0.00     0.200 A 
ATOM     85  F   UNL A   1      33.993  32.742  31.945  1.00  0.00    -0.200 F 
ATOM     86  F   UNL A   1      33.192  34.213  29.791  1.00  0.00    -0.200 F 
ENDBRANCH  52  76
BRANCH  64  87
ATOM     87  C   UNL A   1      43.081  35.228  31.974  1.00  0.00     0.064 A 
ATOM     88  C   UNL A   1      43.606  36.212  31.124  1.00  0.00     0.173 A 
ATOM     89  C   UNL A   1      42.901  35.554  33.327  1.00  0.00     0.173 A 
ATOM     90  F   UNL A   1      43.810  35.943  29.826  1.00  0.00    -0.203 F 
ATOM     91  C   UNL A   1      43.962  37.465  31.614  1.00  0.00     0.198 A 
ATOM     92  C   UNL A   1      43.234  36.816  33.809  1.00  0.00     0.198 A 
ATOM     93  F   UNL A   1      42.397  34.648  34.179  1.00  0.00    -0.203 F 
ATOM     94  F   UNL A   1      44.506  38.374  30.794  1.00  0.00    -0.200 F 
ATOM     95  C   UNL A   1      43.772  37.767  32.955  1.00  0.00     0.200 A 
ATOM     96  F   UNL A   1      43.040  37.110  35.103  1.00  0.00    -0.200 F 
ATOM     97  F   UNL A   1      44.116  38.973  33.426  1.00  0.00    -0.200 F 
ENDBRANCH  64  87
ENDBRANCH  38  39
ENDBRANCH  30  33
ENDBRANCH  28  29
ENDBRANCH  27  28
ENDBRANCH   1  27
TORSDOF 13
ENDMDL
MODEL 3
REMARK VINA RESULT:     -13.4      0.284      1.668
REMARK SMILES CN1C(=O)/C(=N\Nc2cccc(C(=O)NCCCCNC(=O)c3ccc(-c4c5nc(c(-c6c(F)c(F)c(F)c(F)c6F)c6ccc([nH]6)c(-c6c(F)c(F)c(F)c(F)c6F)c6nc(c(-c7c(F)c(F)c(F)c(F)c7F)c7ccc4[nH]7)C=C6)C=C5)cc3)c2)c2ccccc21
REMARK SMILES IDX 17 1 16 2 15 3 13 4 14 5 12 7 8 8 9 9 86 10 10 11 11 12 7 13
REMARK SMILES IDX 6 15 1 16 2 17 3 18 92 19 4 20 5 21 87 22 91 23 88 24 90 25
REMARK SMILES IDX 89 26 18 27 19 28 20 29 21 30 22 32 23 33 24 34 85 35 25 36
REMARK SMILES IDX 84 37 26 38 27 39 28 40 78 41 29 42 83 43 77 44 79 45 30 46
REMARK SMILES IDX 82 47 76 48 75 49 31 51 63 52 43 53 62 54 44 55 47 56 61 57
REMARK SMILES IDX 80 58 45 59 46 60 60 62 81 63 48 64 32 65 33 66 41 67 34 68
REMARK SMILES IDX 35 69 39 70 42 71 36 72 37 73 40 74 38 75 64 76 65 77 73 78
REMARK SMILES IDX 66 79 67 80 71 81 74 82 68 83 69 84 72 85 70 86 49 87 50 88
REMARK SMILES IDX 58 89 51 90 52 91 56 92 59 93 53 94 54 95 57 96 55 97
REMARK H PARENT 15 6 7 14 20 31 79 50 47 61
REMARK Flexibility Score: inf
ROOT
ATOM      1  C   UNL A   1      31.405  30.778  25.764  1.00  0.00     0.023 C 
ENDROOT
BRANCH   1   2
ATOM      2  C   UNL A   1      32.516  29.885  26.318  1.00  0.00     0.116 C 
BRANCH   2   3
ATOM      3  N   UNL A   1      31.968  28.650  26.835  1.00  0.00    -0.352 N 
ATOM      4  C   UNL A   1      31.484  27.521  26.225  1.00  0.00     0.251 C 
ATOM      5  O   UNL A   1      31.053  26.640  26.973  1.00  0.00    -0.269 OA
ATOM      6  H   UNL A   1      31.938  28.613  27.819  1.00  0.00     0.163 HD
BRANCH   4   7
ATOM      7  C   UNL A   1      31.503  27.276  24.750  1.00  0.00     0.041 A 
ATOM      8  C   UNL A   1      32.290  26.184  22.711  1.00  0.00     0.057 A 
ATOM      9  C   UNL A   1      31.234  26.764  22.000  1.00  0.00     0.028 A 
ATOM     10  C   UNL A   1      32.458  26.518  24.063  1.00  0.00     0.041 A 
ATOM     11  C   UNL A   1      30.318  27.592  22.644  1.00  0.00     0.003 A 
ATOM     12  C   UNL A   1      30.438  27.822  24.014  1.00  0.00     0.014 A 
BRANCH   8  13
ATOM     13  N   UNL A   1      33.011  25.138  22.099  1.00  0.00    -0.278 N 
ATOM     14  H   UNL A   1      32.694  24.821  21.221  1.00  0.00     0.190 HD
BRANCH  13  15
ATOM     15  N   UNL A   1      34.107  24.534  22.621  1.00  0.00    -0.169 NA
ATOM     16  C   UNL A   1      32.374  20.473  24.831  1.00  0.00     0.153 C 
ATOM     17  N   UNL A   1      33.244  21.429  24.202  1.00  0.00    -0.309 N 
ATOM     18  C   UNL A   1      32.815  22.376  23.280  1.00  0.00     0.279 C 
ATOM     19  C   UNL A   1      34.621  21.543  24.427  1.00  0.00     0.053 A 
ATOM     20  O   UNL A   1      31.747  22.424  22.717  1.00  0.00    -0.267 OA
ATOM     21  C   UNL A   1      34.020  23.331  23.107  1.00  0.00     0.158 C 
ATOM     22  C   UNL A   1      35.145  22.639  23.743  1.00  0.00     0.031 A 
ATOM     23  C   UNL A   1      35.448  20.710  25.159  1.00  0.00     0.027 A 
ATOM     24  C   UNL A   1      36.493  22.939  23.736  1.00  0.00     0.013 A 
ATOM     25  C   UNL A   1      36.821  20.982  25.152  1.00  0.00     0.002 A 
ATOM     26  C   UNL A   1      37.340  22.082  24.442  1.00  0.00     0.001 A 
ENDBRANCH  13  15
ENDBRANCH   8  13
ENDBRANCH   4   7
ENDBRANCH   2   3
ENDBRANCH   1   2
BRANCH   1  27
ATOM     27  C   UNL A   1      31.259  32.112  26.505  1.00  0.00     0.023 C 
BRANCH  27  28
ATOM     28  C   UNL A   1      32.519  32.578  27.227  1.00  0.00     0.116 C 
BRANCH  28  29
ATOM     29  N   UNL A   1      32.474  33.977  27.618  1.00  0.00    -0.352 N 
ATOM     30  C   UNL A   1      33.287  34.646  28.498  1.00  0.00     0.251 C 
ATOM     31  H   UNL A   1      31.767  34.516  27.196  1.00  0.00     0.163 HD
ATOM     32  O   UNL A   1      33.055  35.814  28.791  1.00  0.00    -0.269 OA
BRANCH  30  33
ATOM     33  C   UNL A   1      34.429  33.944  29.119  1.00  0.00     0.039 A 
ATOM     34  C   UNL A   1      35.723  34.311  28.743  1.00  0.00     0.014 A 
ATOM     35  C   UNL A   1      34.230  32.921  30.051  1.00  0.00     0.014 A 
ATOM     36  C   UNL A   1      36.820  33.675  29.324  1.00  0.00     0.010 A 
ATOM     37  C   UNL A   1      35.325  32.330  30.677  1.00  0.00     0.010 A 
ATOM     38  C   UNL A   1      36.629  32.689  30.305  1.00  0.00    -0.014 A 
BRANCH  38  39
ATOM     39  C   UNL A   1      37.786  31.987  30.909  1.00  0.00     0.031 A 
ATOM     40  C   UNL A   1      38.226  32.336  32.304  1.00  0.00     0.074 A 
ATOM     41  C   UNL A   1      38.458  31.064  30.196  1.00  0.00     0.049 A 
ATOM     42  N   UNL A   1      39.230  31.864  33.000  1.00  0.00    -0.248 NA
ATOM     43  C   UNL A   1      37.449  33.373  33.002  1.00  0.00     0.031 C 
ATOM     44  C   UNL A   1      38.159  30.679  28.816  1.00  0.00     0.029 A 
ATOM     45  N   UNL A   1      39.534  30.285  30.535  1.00  0.00    -0.354 N 
ATOM     46  C   UNL A   1      39.208  32.549  34.206  1.00  0.00     0.074 A 
ATOM     47  C   UNL A   1      38.130  33.511  34.130  1.00  0.00     0.031 C 
ATOM     48  C   UNL A   1      39.022  29.724  28.430  1.00  0.00     0.029 A 
ATOM     49  C   UNL A   1      39.942  29.442  29.529  1.00  0.00     0.049 A 
ATOM     50  H   UNL A   1      39.973  30.325  31.415  1.00  0.00     0.167 HD
ATOM     51  C   UNL A   1      39.996  32.374  35.293  1.00  0.00     0.037 A 
ATOM     52  C   UNL A   1      40.942  28.542  29.505  1.00  0.00     0.037 A 
ATOM     53  C   UNL A   1      41.049  31.398  35.380  1.00  0.00     0.049 A 
ATOM     54  C   UNL A   1      41.777  28.340  30.741  1.00  0.00     0.074 A 
ATOM     55  C   UNL A   1      41.891  31.125  36.444  1.00  0.00     0.029 A 
ATOM     56  N   UNL A   1      41.396  30.525  34.361  1.00  0.00    -0.354 N 
ATOM     57  N   UNL A   1      41.714  28.961  31.893  1.00  0.00    -0.248 NA
ATOM     58  C   UNL A   1      42.811  27.297  30.676  1.00  0.00     0.031 C 
ATOM     59  C   UNL A   1      42.760  30.097  36.061  1.00  0.00     0.029 A 
ATOM     60  C   UNL A   1      42.436  29.708  34.771  1.00  0.00     0.049 A 
ATOM     61  H   UNL A   1      40.966  30.490  33.476  1.00  0.00     0.167 HD
ATOM     62  C   UNL A   1      42.679  28.369  32.697  1.00  0.00     0.074 A 
ATOM     63  C   UNL A   1      43.298  27.325  31.908  1.00  0.00     0.031 C 
ATOM     64  C   UNL A   1      43.025  28.666  33.973  1.00  0.00     0.037 A 
BRANCH  51  65
ATOM     65  C   UNL A   1      39.729  33.243  36.486  1.00  0.00     0.064 A 
ATOM     66  C   UNL A   1      40.380  34.475  36.650  1.00  0.00     0.173 A 
ATOM     67  C   UNL A   1      38.792  32.860  37.458  1.00  0.00     0.173 A 
ATOM     68  F   UNL A   1      41.297  34.876  35.756  1.00  0.00    -0.203 F 
ATOM     69  C   UNL A   1      40.122  35.280  37.756  1.00  0.00     0.198 A 
ATOM     70  C   UNL A   1      38.517  33.680  38.549  1.00  0.00     0.198 A 
ATOM     71  F   UNL A   1      38.142  31.692  37.347  1.00  0.00    -0.203 F 
ATOM     72  F   UNL A   1      40.791  36.430  37.915  1.00  0.00    -0.200 F 
ATOM     73  C   UNL A   1      39.187  34.886  38.699  1.00  0.00     0.200 A 
ATOM     74  F   UNL A   1      37.607  33.302  39.457  1.00  0.00    -0.200 F 
ATOM     75  F   UNL A   1      38.936  35.665  39.761  1.00  0.00    -0.200 F 
ENDBRANCH  51  65
BRANCH  52  76
ATOM     76  C   UNL A   1      41.190  27.735  28.283  1.00  0.00     0.064 A 
ATOM     77  C   UNL A   1      40.575  26.487  28.108  1.00  0.00     0.173 A 
ATOM     78  C   UNL A   1      42.065  28.178  27.283  1.00  0.00     0.173 A 
ATOM     79  F   UNL A   1      39.744  26.013  29.050  1.00  0.00    -0.203 F 
ATOM     80  C   UNL A   1      40.849  25.699  26.993  1.00  0.00     0.198 A 
ATOM     81  C   UNL A   1      42.318  27.401  26.153  1.00  0.00     0.198 A 
ATOM     82  F   UNL A   1      42.673  29.367  27.400  1.00  0.00    -0.203 F 
ATOM     83  F   UNL A   1      40.288  24.488  26.876  1.00  0.00    -0.200 F 
ATOM     84  C   UNL A   1      41.718  26.158  26.015  1.00  0.00     0.200 A 
ATOM     85  F   UNL A   1      43.151  27.852  25.206  1.00  0.00    -0.200 F 
ATOM     86  F   UNL A   1      41.987  25.398  24.945  1.00  0.00    -0.200 F 
ENDBRANCH  52  76
BRANCH  64  87
ATOM     87  C   UNL A   1      44.099  27.828  34.600  1.00  0.00     0.064 A 
ATOM     88  C   UNL A   1      45.447  28.215  34.565  1.00  0.00     0.173 A 
ATOM     89  C   UNL A   1      43.772  26.636  35.264  1.00  0.00     0.173 A 
ATOM     90  F   UNL A   1      45.809  29.339  33.929  1.00  0.00    -0.203 F 
ATOM     91  C   UNL A   1      46.432  27.424  35.146  1.00  0.00     0.198 A 
ATOM     92  C   UNL A   1      44.758  25.860  35.867  1.00  0.00     0.198 A 
ATOM     93  F   UNL A   1      42.496  26.227  35.330  1.00  0.00    -0.203 F 
ATOM     94  F   UNL A   1      47.719  27.787  35.058  1.00  0.00    -0.200 F 
ATOM     95  C   UNL A   1      46.087  26.250  35.800  1.00  0.00     0.200 A 
ATOM     96  F   UNL A   1      44.422  24.732  36.507  1.00  0.00    -0.200 F 
ATOM     97  F   UNL A   1      47.038  25.489  36.359  1.00  0.00    -0.200 F 
ENDBRANCH  64  87
ENDBRANCH  38  39
ENDBRANCH  30  33
ENDBRANCH  28  29
ENDBRANCH  27  28
ENDBRANCH   1  27
TORSDOF 13
ENDMDL
