MODEL 1
REMARK VINA RESULT:     -13.6      0.000      0.000
REMARK SMILES O=C(NCCCCNC(=O)[C@@H]1CCCN1S(=O)(=O)c1ccc2[nH]c(=O)c(=O)[nH]c2c1)c1ccc(-c2c3nc(c(-c4c(F)c(F)c(F)c(F)c4F)c4ccc([nH]4)c(-c4c(F)c(F)c(F)c(F)c4F)c4nc(c(-c5c(F)c(F)c(F)c(F)c5F)c5ccc2[nH]5)C=C4)C=C3)cc1
REMARK SMILES IDX 5 1 4 2 3 3 1 4 2 5 31 7 32 8 93 9 33 10 92 11 34 12 35 13
REMARK SMILES IDX 36 14 86 15 37 16 91 17 85 18 87 19 38 20 90 21 84 22 83 23
REMARK SMILES IDX 39 25 71 26 51 27 70 28 52 29 55 30 69 31 88 32 53 33 54 34
REMARK SMILES IDX 68 36 89 37 56 38 40 39 41 40 49 41 42 42 43 43 47 44 50 45
REMARK SMILES IDX 44 46 45 47 48 48 46 49 72 50 73 51 81 52 74 53 75 54 79 55
REMARK SMILES IDX 82 56 76 57 77 58 80 59 78 60 57 61 58 62 66 63 59 64 60 65
REMARK SMILES IDX 64 66 67 67 61 68 62 69 65 70 63 71 6 72 7 73 8 74 9 75
REMARK SMILES IDX 10 77 11 78 12 79 15 80 13 81 14 82 16 83 17 84 18 85 19 86
REMARK SMILES IDX 20 87 30 88 21 89 29 90 22 91 28 92 23 93 26 94 24 96 27 98
REMARK SMILES IDX 25 99
REMARK H PARENT 3 6 87 24 55 35 8 76 28 95 23 97
REMARK Flexibility Score: inf
ROOT
ATOM      1  C   UNL A   1      31.359  32.012  26.883  1.00  0.00     0.023 C 
ENDROOT
BRANCH   1   2
ATOM      2  C   UNL A   1      32.628  32.788  27.212  1.00  0.00     0.116 C 
BRANCH   2   3
ATOM      3  N   UNL A   1      32.383  34.167  27.606  1.00  0.00    -0.352 N 
ATOM      4  O   UNL A   1      32.648  36.046  28.832  1.00  0.00    -0.269 OA
ATOM      5  C   UNL A   1      33.039  34.918  28.553  1.00  0.00     0.251 C 
ATOM      6  H   UNL A   1      31.650  34.622  27.133  1.00  0.00     0.163 HD
BRANCH   5   7
ATOM      7  C   UNL A   1      34.198  34.336  29.259  1.00  0.00     0.039 A 
ATOM      8  C   UNL A   1      35.496  34.575  28.805  1.00  0.00     0.014 A 
ATOM      9  C   UNL A   1      33.976  33.517  30.369  1.00  0.00     0.014 A 
ATOM     10  C   UNL A   1      36.558  33.875  29.361  1.00  0.00     0.010 A 
ATOM     11  C   UNL A   1      35.058  32.882  30.985  1.00  0.00     0.010 A 
ATOM     12  C   UNL A   1      36.352  33.029  30.464  1.00  0.00    -0.014 A 
BRANCH  12  13
ATOM     13  C   UNL A   1      37.517  32.358  31.089  1.00  0.00     0.031 A 
ATOM     14  C   UNL A   1      37.975  32.720  32.473  1.00  0.00     0.074 A 
ATOM     15  C   UNL A   1      38.149  31.391  30.397  1.00  0.00     0.049 A 
ATOM     16  N   UNL A   1      38.964  32.221  33.172  1.00  0.00    -0.248 NA
ATOM     17  C   UNL A   1      37.234  33.786  33.162  1.00  0.00     0.031 C 
ATOM     18  C   UNL A   1      37.794  30.962  29.043  1.00  0.00     0.029 A 
ATOM     19  N   UNL A   1      39.204  30.586  30.737  1.00  0.00    -0.354 N 
ATOM     20  C   UNL A   1      38.978  32.922  34.370  1.00  0.00     0.074 A 
ATOM     21  C   UNL A   1      37.915  33.903  34.294  1.00  0.00     0.031 C 
ATOM     22  C   UNL A   1      38.584  29.940  28.685  1.00  0.00     0.029 A 
ATOM     23  C   UNL A   1      39.544  29.689  29.754  1.00  0.00     0.049 A 
ATOM     24  H   UNL A   1      39.674  30.644  31.600  1.00  0.00     0.167 HD
ATOM     25  C   UNL A   1      39.799  32.757  35.436  1.00  0.00     0.037 A 
ATOM     26  C   UNL A   1      40.531  28.776  29.709  1.00  0.00     0.037 A 
ATOM     27  C   UNL A   1      40.850  31.772  35.503  1.00  0.00     0.049 A 
ATOM     28  C   UNL A   1      41.449  28.640  30.889  1.00  0.00     0.074 A 
ATOM     29  C   UNL A   1      41.711  31.496  36.551  1.00  0.00     0.029 A 
ATOM     30  N   UNL A   1      41.192  30.907  34.471  1.00  0.00    -0.354 N 
ATOM     31  N   UNL A   1      41.428  29.283  32.030  1.00  0.00    -0.248 NA
ATOM     32  C   UNL A   1      42.530  27.655  30.769  1.00  0.00     0.031 C 
ATOM     33  C   UNL A   1      42.609  30.507  36.134  1.00  0.00     0.029 A 
ATOM     34  C   UNL A   1      42.270  30.120  34.848  1.00  0.00     0.049 A 
ATOM     35  H   UNL A   1      40.736  30.859  33.600  1.00  0.00     0.167 HD
ATOM     36  C   UNL A   1      42.478  28.767  32.777  1.00  0.00     0.074 A 
ATOM     37  C   UNL A   1      43.104  27.745  31.960  1.00  0.00     0.031 C 
ATOM     38  C   UNL A   1      42.885  29.109  34.023  1.00  0.00     0.037 A 
BRANCH  25  39
ATOM     39  C   UNL A   1      39.614  33.680  36.608  1.00  0.00     0.064 A 
ATOM     40  C   UNL A   1      40.237  34.937  36.669  1.00  0.00     0.173 A 
ATOM     41  C   UNL A   1      38.781  33.313  37.676  1.00  0.00     0.173 A 
ATOM     42  F   UNL A   1      41.052  35.335  35.681  1.00  0.00    -0.203 F 
ATOM     43  C   UNL A   1      40.061  35.773  37.770  1.00  0.00     0.198 A 
ATOM     44  C   UNL A   1      38.583  34.164  38.760  1.00  0.00     0.198 A 
ATOM     45  F   UNL A   1      38.155  32.127  37.669  1.00  0.00    -0.203 F 
ATOM     46  F   UNL A   1      40.712  36.944  37.830  1.00  0.00    -0.200 F 
ATOM     47  C   UNL A   1      39.230  35.389  38.811  1.00  0.00     0.200 A 
ATOM     48  F   UNL A   1      37.768  33.797  39.760  1.00  0.00    -0.200 F 
ATOM     49  F   UNL A   1      39.062  36.195  39.868  1.00  0.00    -0.200 F 
ENDBRANCH  25  39
BRANCH  26  50
ATOM     50  C   UNL A   1      40.684  27.923  28.504  1.00  0.00     0.064 A 
ATOM     51  C   UNL A   1      40.033  26.686  28.410  1.00  0.00     0.173 A 
ATOM     52  C   UNL A   1      41.451  28.344  27.407  1.00  0.00     0.173 A 
ATOM     53  F   UNL A   1      39.301  26.236  29.439  1.00  0.00    -0.203 F 
ATOM     54  C   UNL A   1      40.153  25.897  27.269  1.00  0.00     0.198 A 
ATOM     55  C   UNL A   1      41.544  27.568  26.255  1.00  0.00     0.198 A 
ATOM     56  F   UNL A   1      42.085  29.525  27.444  1.00  0.00    -0.203 F 
ATOM     57  F   UNL A   1      39.547  24.703  27.218  1.00  0.00    -0.200 F 
ATOM     58  C   UNL A   1      40.900  26.343  26.189  1.00  0.00     0.200 A 
ATOM     59  F   UNL A   1      42.249  28.013  25.205  1.00  0.00    -0.200 F 
ATOM     60  F   UNL A   1      41.000  25.590  25.085  1.00  0.00    -0.200 F 
ENDBRANCH  26  50
BRANCH  38  61
ATOM     61  C   UNL A   1      44.046  28.346  34.594  1.00  0.00     0.064 A 
ATOM     62  C   UNL A   1      45.364  28.812  34.477  1.00  0.00     0.173 A 
ATOM     63  C   UNL A   1      43.832  27.145  35.287  1.00  0.00     0.173 A 
ATOM     64  F   UNL A   1      45.623  29.946  33.809  1.00  0.00    -0.203 F 
ATOM     65  C   UNL A   1      46.428  28.087  35.008  1.00  0.00     0.198 A 
ATOM     66  C   UNL A   1      44.896  26.440  35.843  1.00  0.00     0.198 A 
ATOM     67  F   UNL A   1      42.591  26.657  35.429  1.00  0.00    -0.203 F 
ATOM     68  F   UNL A   1      47.684  28.523  34.837  1.00  0.00    -0.200 F 
ATOM     69  C   UNL A   1      46.193  26.906  35.697  1.00  0.00     0.200 A 
ATOM     70  F   UNL A   1      44.664  25.306  36.520  1.00  0.00    -0.200 F 
ATOM     71  F   UNL A   1      47.218  26.213  36.211  1.00  0.00    -0.200 F 
ENDBRANCH  38  61
ENDBRANCH  12  13
ENDBRANCH   5   7
ENDBRANCH   2   3
ENDBRANCH   1   2
BRANCH   1  72
ATOM     72  C   UNL A   1      31.527  30.869  25.881  1.00  0.00     0.023 C 
BRANCH  72  73
ATOM     73  C   UNL A   1      32.813  30.062  26.029  1.00  0.00     0.116 C 
BRANCH  73  74
ATOM     74  N   UNL A   1      33.276  29.485  24.784  1.00  0.00    -0.355 N 
ATOM     75  C   UNL A   1      32.779  28.447  24.059  1.00  0.00     0.238 C 
ATOM     76  H   UNL A   1      34.078  29.911  24.404  1.00  0.00     0.163 HD
ATOM     77  O   UNL A   1      33.038  28.476  22.851  1.00  0.00    -0.273 OA
BRANCH  75  78
ATOM     78  C   UNL A   1      31.877  27.356  24.621  1.00  0.00     0.162 C 
ATOM     79  C   UNL A   1      31.697  27.139  26.117  1.00  0.00     0.032 C 
ATOM     80  N   UNL A   1      32.103  25.946  24.112  1.00  0.00    -0.185 NA
ATOM     81  C   UNL A   1      30.831  25.892  26.180  1.00  0.00     0.019 C 
ATOM     82  C   UNL A   1      31.091  25.136  24.878  1.00  0.00     0.103 C 
BRANCH  80  83
ATOM     83  S   UNL A   1      33.667  25.229  24.205  1.00  0.00     0.243 S 
ATOM     84  O   UNL A   1      34.201  25.149  22.862  1.00  0.00    -0.207 OA
ATOM     85  O   UNL A   1      34.398  25.957  25.226  1.00  0.00    -0.207 OA
BRANCH  83  86
ATOM     86  C   UNL A   1      33.515  23.566  24.810  1.00  0.00     0.084 A 
ATOM     87  C   UNL A   1      33.483  23.338  26.192  1.00  0.00     0.024 A 
ATOM     88  C   UNL A   1      33.248  22.520  23.917  1.00  0.00     0.050 A 
ATOM     89  C   UNL A   1      33.360  22.038  26.683  1.00  0.00     0.030 A 
ATOM     90  C   UNL A   1      33.047  21.234  24.419  1.00  0.00     0.066 A 
ATOM     91  C   UNL A   1      33.154  20.987  25.794  1.00  0.00     0.065 A 
ATOM     92  N   UNL A   1      32.707  20.189  23.555  1.00  0.00    -0.316 N 
ATOM     93  N   UNL A   1      33.043  19.685  26.281  1.00  0.00    -0.316 N 
ATOM     94  C   UNL A   1      32.501  18.894  23.980  1.00  0.00     0.314 A 
ATOM     95  H   UNL A   1      32.609  20.388  22.596  1.00  0.00     0.170 HD
ATOM     96  C   UNL A   1      32.774  18.600  25.476  1.00  0.00     0.314 A 
ATOM     97  H   UNL A   1      33.163  19.534  27.246  1.00  0.00     0.170 HD
ATOM     98  O   UNL A   1      32.123  18.015  23.218  1.00  0.00    -0.263 OA
ATOM     99  O   UNL A   1      32.742  17.462  25.925  1.00  0.00    -0.263 OA
ENDBRANCH  83  86
ENDBRANCH  80  83
ENDBRANCH  75  78
ENDBRANCH  73  74
ENDBRANCH  72  73
ENDBRANCH   1  72
TORSDOF 13
ENDMDL
MODEL 2
REMARK VINA RESULT:     -13.6      5.249     10.151
REMARK SMILES O=C(NCCCCNC(=O)[C@@H]1CCCN1S(=O)(=O)c1ccc2[nH]c(=O)c(=O)[nH]c2c1)c1ccc(-c2c3nc(c(-c4c(F)c(F)c(F)c(F)c4F)c4ccc([nH]4)c(-c4c(F)c(F)c(F)c(F)c4F)c4nc(c(-c5c(F)c(F)c(F)c(F)c5F)c5ccc2[nH]5)C=C4)C=C3)cc1
REMARK SMILES IDX 5 1 4 2 3 3 1 4 2 5 31 7 32 8 93 9 33 10 92 11 34 12 35 13
REMARK SMILES IDX 36 14 86 15 37 16 91 17 85 18 87 19 38 20 90 21 84 22 83 23
REMARK SMILES IDX 39 25 71 26 51 27 70 28 52 29 55 30 69 31 88 32 53 33 54 34
REMARK SMILES IDX 68 36 89 37 56 38 40 39 41 40 49 41 42 42 43 43 47 44 50 45
REMARK SMILES IDX 44 46 45 47 48 48 46 49 72 50 73 51 81 52 74 53 75 54 79 55
REMARK SMILES IDX 82 56 76 57 77 58 80 59 78 60 57 61 58 62 66 63 59 64 60 65
REMARK SMILES IDX 64 66 67 67 61 68 62 69 65 70 63 71 6 72 7 73 8 74 9 75
REMARK SMILES IDX 10 77 11 78 12 79 15 80 13 81 14 82 16 83 17 84 18 85 19 86
REMARK SMILES IDX 20 87 30 88 21 89 29 90 22 91 28 92 23 93 26 94 24 96 27 98
REMARK SMILES IDX 25 99
REMARK H PARENT 3 6 87 24 55 35 8 76 28 95 23 97
REMARK Flexibility Score: inf
ROOT
ATOM      1  C   UNL A   1      39.215  20.860  25.539  1.00  0.00     0.023 C 
ENDROOT
BRANCH   1   2
ATOM      2  C   UNL A   1      39.779  19.863  26.543  1.00  0.00     0.116 C 
BRANCH   2   3
ATOM      3  N   UNL A   1      40.878  19.065  26.020  1.00  0.00    -0.352 N 
ATOM      4  O   UNL A   1      42.984  18.658  25.311  1.00  0.00    -0.269 OA
ATOM      5  C   UNL A   1      42.195  19.424  25.854  1.00  0.00     0.251 C 
ATOM      6  H   UNL A   1      40.648  18.147  25.750  1.00  0.00     0.163 HD
BRANCH   5   7
ATOM      7  C   UNL A   1      42.641  20.758  26.301  1.00  0.00     0.039 A 
ATOM      8  C   UNL A   1      42.657  21.080  27.659  1.00  0.00     0.014 A 
ATOM      9  C   UNL A   1      43.016  21.705  25.344  1.00  0.00     0.014 A 
ATOM     10  C   UNL A   1      42.897  22.390  28.051  1.00  0.00     0.010 A 
ATOM     11  C   UNL A   1      43.346  23.001  25.749  1.00  0.00     0.010 A 
ATOM     12  C   UNL A   1      43.255  23.363  27.102  1.00  0.00    -0.014 A 
BRANCH  12  13
ATOM     13  C   UNL A   1      43.587  24.734  27.559  1.00  0.00     0.031 A 
ATOM     14  C   UNL A   1      45.011  25.202  27.647  1.00  0.00     0.074 A 
ATOM     15  C   UNL A   1      42.578  25.567  27.873  1.00  0.00     0.049 A 
ATOM     16  N   UNL A   1      45.474  26.373  28.012  1.00  0.00    -0.248 NA
ATOM     17  C   UNL A   1      46.055  24.232  27.288  1.00  0.00     0.031 C 
ATOM     18  C   UNL A   1      41.157  25.216  27.830  1.00  0.00     0.029 A 
ATOM     19  N   UNL A   1      42.586  26.878  28.272  1.00  0.00    -0.354 N 
ATOM     20  C   UNL A   1      46.857  26.274  27.946  1.00  0.00     0.074 A 
ATOM     21  C   UNL A   1      47.162  24.920  27.534  1.00  0.00     0.031 C 
ATOM     22  C   UNL A   1      40.428  26.297  28.141  1.00  0.00     0.029 A 
ATOM     23  C   UNL A   1      41.330  27.395  28.471  1.00  0.00     0.049 A 
ATOM     24  H   UNL A   1      43.412  27.399  28.405  1.00  0.00     0.167 HD
ATOM     25  C   UNL A   1      47.784  27.229  28.202  1.00  0.00     0.037 A 
ATOM     26  C   UNL A   1      40.945  28.613  28.892  1.00  0.00     0.037 A 
ATOM     27  C   UNL A   1      47.468  28.577  28.607  1.00  0.00     0.049 A 
ATOM     28  C   UNL A   1      41.994  29.640  29.204  1.00  0.00     0.074 A 
ATOM     29  C   UNL A   1      48.331  29.631  28.851  1.00  0.00     0.029 A 
ATOM     30  N   UNL A   1      46.184  29.054  28.839  1.00  0.00    -0.354 N 
ATOM     31  N   UNL A   1      43.297  29.547  29.102  1.00  0.00    -0.248 NA
ATOM     32  C   UNL A   1      41.516  30.938  29.695  1.00  0.00     0.031 C 
ATOM     33  C   UNL A   1      47.576  30.727  29.286  1.00  0.00     0.029 A 
ATOM     34  C   UNL A   1      46.236  30.376  29.253  1.00  0.00     0.049 A 
ATOM     35  H   UNL A   1      45.359  28.530  28.725  1.00  0.00     0.167 HD
ATOM     36  C   UNL A   1      43.798  30.780  29.494  1.00  0.00     0.074 A 
ATOM     37  C   UNL A   1      42.653  31.608  29.820  1.00  0.00     0.031 C 
ATOM     38  C   UNL A   1      45.088  31.187  29.577  1.00  0.00     0.037 A 
BRANCH  25  39
ATOM     39  C   UNL A   1      49.233  26.845  28.081  1.00  0.00     0.064 A 
ATOM     40  C   UNL A   1      50.004  26.494  29.200  1.00  0.00     0.173 A 
ATOM     41  C   UNL A   1      49.853  26.802  26.823  1.00  0.00     0.173 A 
ATOM     42  F   UNL A   1      49.466  26.527  30.428  1.00  0.00    -0.203 F 
ATOM     43  C   UNL A   1      51.348  26.151  29.067  1.00  0.00     0.198 A 
ATOM     44  C   UNL A   1      51.188  26.429  26.690  1.00  0.00     0.198 A 
ATOM     45  F   UNL A   1      49.163  27.120  25.717  1.00  0.00    -0.203 F 
ATOM     46  F   UNL A   1      52.078  25.876  30.157  1.00  0.00    -0.200 F 
ATOM     47  C   UNL A   1      51.937  26.113  27.813  1.00  0.00     0.200 A 
ATOM     48  F   UNL A   1      51.751  26.379  25.474  1.00  0.00    -0.200 F 
ATOM     49  F   UNL A   1      53.230  25.782  27.687  1.00  0.00    -0.200 F 
ENDBRANCH  25  39
BRANCH  26  50
ATOM     50  C   UNL A   1      39.498  28.915  29.030  1.00  0.00     0.064 A 
ATOM     51  C   UNL A   1      38.851  28.793  30.266  1.00  0.00     0.173 A 
ATOM     52  C   UNL A   1      38.741  29.369  27.938  1.00  0.00     0.173 A 
ATOM     53  F   UNL A   1      39.528  28.349  31.335  1.00  0.00    -0.203 F 
ATOM     54  C   UNL A   1      37.500  29.104  30.404  1.00  0.00     0.198 A 
ATOM     55  C   UNL A   1      37.400  29.708  28.084  1.00  0.00     0.198 A 
ATOM     56  F   UNL A   1      39.318  29.512  26.735  1.00  0.00    -0.203 F 
ATOM     57  F   UNL A   1      36.897  28.946  31.590  1.00  0.00    -0.200 F 
ATOM     58  C   UNL A   1      36.778  29.570  29.315  1.00  0.00     0.200 A 
ATOM     59  F   UNL A   1      36.712  30.179  27.034  1.00  0.00    -0.200 F 
ATOM     60  F   UNL A   1      35.483  29.883  29.452  1.00  0.00    -0.200 F 
ENDBRANCH  26  50
BRANCH  38  61
ATOM     61  C   UNL A   1      45.328  32.606  30.007  1.00  0.00     0.064 A 
ATOM     62  C   UNL A   1      45.539  32.944  31.352  1.00  0.00     0.173 A 
ATOM     63  C   UNL A   1      45.370  33.637  29.056  1.00  0.00     0.173 A 
ATOM     64  F   UNL A   1      45.491  31.997  32.302  1.00  0.00    -0.203 F 
ATOM     65  C   UNL A   1      45.754  34.266  31.732  1.00  0.00     0.198 A 
ATOM     66  C   UNL A   1      45.617  34.953  29.436  1.00  0.00     0.198 A 
ATOM     67  F   UNL A   1      45.178  33.367  27.756  1.00  0.00    -0.203 F 
ATOM     68  F   UNL A   1      45.898  34.573  33.028  1.00  0.00    -0.200 F 
ATOM     69  C   UNL A   1      45.801  35.268  30.774  1.00  0.00     0.200 A 
ATOM     70  F   UNL A   1      45.675  35.918  28.507  1.00  0.00    -0.200 F 
ATOM     71  F   UNL A   1      46.012  36.539  31.142  1.00  0.00    -0.200 F 
ENDBRANCH  38  61
ENDBRANCH  12  13
ENDBRANCH   5   7
ENDBRANCH   2   3
ENDBRANCH   1   2
BRANCH   1  72
ATOM     72  C   UNL A   1      38.904  22.250  26.094  1.00  0.00     0.023 C 
BRANCH  72  73
ATOM     73  C   UNL A   1      37.639  22.899  25.543  1.00  0.00     0.116 C 
BRANCH  73  74
ATOM     74  N   UNL A   1      36.605  23.081  26.540  1.00  0.00    -0.355 N 
ATOM     75  C   UNL A   1      35.337  23.555  26.413  1.00  0.00     0.238 C 
ATOM     76  H   UNL A   1      36.862  22.823  27.454  1.00  0.00     0.163 HD
ATOM     77  O   UNL A   1      34.537  23.158  27.269  1.00  0.00    -0.273 OA
BRANCH  75  78
ATOM     78  C   UNL A   1      34.853  24.430  25.263  1.00  0.00     0.162 C 
ATOM     79  C   UNL A   1      33.885  25.586  25.472  1.00  0.00     0.032 C 
ATOM     80  N   UNL A   1      34.261  23.721  24.061  1.00  0.00    -0.185 NA
ATOM     81  C   UNL A   1      33.609  26.061  24.055  1.00  0.00     0.019 C 
ATOM     82  C   UNL A   1      33.866  24.855  23.153  1.00  0.00     0.103 C 
BRANCH  80  83
ATOM     83  S   UNL A   1      32.962  22.608  24.261  1.00  0.00     0.243 S 
ATOM     84  O   UNL A   1      32.277  22.937  25.493  1.00  0.00    -0.207 OA
ATOM     85  O   UNL A   1      32.226  22.600  23.009  1.00  0.00    -0.207 OA
BRANCH  83  86
ATOM     86  C   UNL A   1      33.619  20.968  24.447  1.00  0.00     0.084 A 
ATOM     87  C   UNL A   1      34.999  20.796  24.619  1.00  0.00     0.024 A 
ATOM     88  C   UNL A   1      32.749  19.881  24.601  1.00  0.00     0.050 A 
ATOM     89  C   UNL A   1      35.530  19.515  24.770  1.00  0.00     0.030 A 
ATOM     90  C   UNL A   1      33.282  18.613  24.831  1.00  0.00     0.066 A 
ATOM     91  C   UNL A   1      34.670  18.424  24.864  1.00  0.00     0.065 A 
ATOM     92  N   UNL A   1      32.433  17.526  25.061  1.00  0.00    -0.316 N 
ATOM     93  N   UNL A   1      35.199  17.141  25.003  1.00  0.00    -0.316 N 
ATOM     94  C   UNL A   1      32.890  16.245  25.287  1.00  0.00     0.314 A 
ATOM     95  H   UNL A   1      31.462  17.683  25.061  1.00  0.00     0.170 HD
ATOM     96  C   UNL A   1      34.418  16.018  25.167  1.00  0.00     0.314 A 
ATOM     97  H   UNL A   1      36.176  17.032  24.982  1.00  0.00     0.170 HD
ATOM     98  O   UNL A   1      32.131  15.328  25.569  1.00  0.00    -0.263 OA
ATOM     99  O   UNL A   1      34.909  14.899  25.227  1.00  0.00    -0.263 OA
ENDBRANCH  83  86
ENDBRANCH  80  83
ENDBRANCH  75  78
ENDBRANCH  73  74
ENDBRANCH  72  73
ENDBRANCH   1  72
TORSDOF 13
ENDMDL
MODEL 3
REMARK VINA RESULT:     -13.5      5.418      9.378
REMARK SMILES O=C(NCCCCNC(=O)[C@@H]1CCCN1S(=O)(=O)c1ccc2[nH]c(=O)c(=O)[nH]c2c1)c1ccc(-c2c3nc(c(-c4c(F)c(F)c(F)c(F)c4F)c4ccc([nH]4)c(-c4c(F)c(F)c(F)c(F)c4F)c4nc(c(-c5c(F)c(F)c(F)c(F)c5F)c5ccc2[nH]5)C=C4)C=C3)cc1
REMARK SMILES IDX 5 1 4 2 3 3 1 4 2 5 31 7 32 8 93 9 33 10 92 11 34 12 35 13
REMARK SMILES IDX 36 14 86 15 37 16 91 17 85 18 87 19 38 20 90 21 84 22 83 23
REMARK SMILES IDX 39 25 71 26 51 27 70 28 52 29 55 30 69 31 88 32 53 33 54 34
REMARK SMILES IDX 68 36 89 37 56 38 40 39 41 40 49 41 42 42 43 43 47 44 50 45
REMARK SMILES IDX 44 46 45 47 48 48 46 49 72 50 73 51 81 52 74 53 75 54 79 55
REMARK SMILES IDX 82 56 76 57 77 58 80 59 78 60 57 61 58 62 66 63 59 64 60 65
REMARK SMILES IDX 64 66 67 67 61 68 62 69 65 70 63 71 6 72 7 73 8 74 9 75
REMARK SMILES IDX 10 77 11 78 12 79 15 80 13 81 14 82 16 83 17 84 18 85 19 86
REMARK SMILES IDX 20 87 30 88 21 89 29 90 22 91 28 92 23 93 26 94 24 96 27 98
REMARK SMILES IDX 25 99
REMARK H PARENT 3 6 87 24 55 35 8 76 28 95 23 97
REMARK Flexibility Score: inf
ROOT
ATOM      1  C   UNL A   1      38.022  19.646  24.824  1.00  0.00     0.023 C 
ENDROOT
BRANCH   1   2
ATOM      2  C   UNL A   1      39.174  20.043  25.738  1.00  0.00     0.116 C 
BRANCH   2   3
ATOM      3  N   UNL A   1      40.193  19.013  25.874  1.00  0.00    -0.352 N 
ATOM      4  O   UNL A   1      42.281  18.191  26.134  1.00  0.00    -0.269 OA
ATOM      5  C   UNL A   1      41.534  19.162  26.141  1.00  0.00     0.251 C 
ATOM      6  H   UNL A   1      39.882  18.087  25.759  1.00  0.00     0.163 HD
BRANCH   5   7
ATOM      7  C   UNL A   1      42.072  20.513  26.399  1.00  0.00     0.039 A 
ATOM      8  C   UNL A   1      42.249  20.966  27.707  1.00  0.00     0.014 A 
ATOM      9  C   UNL A   1      42.370  21.344  25.316  1.00  0.00     0.014 A 
ATOM     10  C   UNL A   1      42.576  22.296  27.935  1.00  0.00     0.010 A 
ATOM     11  C   UNL A   1      42.786  22.657  25.548  1.00  0.00     0.010 A 
ATOM     12  C   UNL A   1      42.858  23.154  26.858  1.00  0.00    -0.014 A 
BRANCH  12  13
ATOM     13  C   UNL A   1      43.285  24.546  27.135  1.00  0.00     0.031 A 
ATOM     14  C   UNL A   1      42.340  25.546  27.739  1.00  0.00     0.074 A 
ATOM     15  C   UNL A   1      44.554  24.897  26.854  1.00  0.00     0.049 A 
ATOM     16  N   UNL A   1      42.557  26.798  28.058  1.00  0.00    -0.248 NA
ATOM     17  C   UNL A   1      40.972  25.086  28.015  1.00  0.00     0.031 C 
ATOM     18  C   UNL A   1      45.556  24.010  26.260  1.00  0.00     0.029 A 
ATOM     19  N   UNL A   1      45.224  26.077  27.044  1.00  0.00    -0.354 N 
ATOM     20  C   UNL A   1      41.352  27.280  28.551  1.00  0.00     0.074 A 
ATOM     21  C   UNL A   1      40.398  26.194  28.464  1.00  0.00     0.031 C 
ATOM     22  C   UNL A   1      46.725  24.660  26.179  1.00  0.00     0.029 A 
ATOM     23  C   UNL A   1      46.538  26.028  26.649  1.00  0.00     0.049 A 
ATOM     24  H   UNL A   1      44.804  26.882  27.425  1.00  0.00     0.167 HD
ATOM     25  C   UNL A   1      41.072  28.514  29.037  1.00  0.00     0.037 A 
ATOM     26  C   UNL A   1      47.485  26.983  26.648  1.00  0.00     0.037 A 
ATOM     27  C   UNL A   1      42.032  29.586  29.126  1.00  0.00     0.049 A 
ATOM     28  C   UNL A   1      47.137  28.352  27.157  1.00  0.00     0.074 A 
ATOM     29  C   UNL A   1      41.861  30.860  29.638  1.00  0.00     0.029 A 
ATOM     30  N   UNL A   1      43.345  29.513  28.677  1.00  0.00    -0.354 N 
ATOM     31  N   UNL A   1      46.006  28.785  27.655  1.00  0.00    -0.248 NA
ATOM     32  C   UNL A   1      48.198  29.363  27.097  1.00  0.00     0.031 C 
ATOM     33  C   UNL A   1      43.050  31.575  29.449  1.00  0.00     0.029 A 
ATOM     34  C   UNL A   1      43.984  30.728  28.874  1.00  0.00     0.049 A 
ATOM     35  H   UNL A   1      43.761  28.715  28.279  1.00  0.00     0.167 HD
ATOM     36  C   UNL A   1      46.221  30.114  27.990  1.00  0.00     0.074 A 
ATOM     37  C   UNL A   1      47.600  30.408  27.652  1.00  0.00     0.031 C 
ATOM     38  C   UNL A   1      45.356  31.007  28.528  1.00  0.00     0.037 A 
BRANCH  25  39
ATOM     39  C   UNL A   1      39.662  28.784  29.485  1.00  0.00     0.064 A 
ATOM     40  C   UNL A   1      39.241  28.538  30.802  1.00  0.00     0.173 A 
ATOM     41  C   UNL A   1      38.724  29.319  28.589  1.00  0.00     0.173 A 
ATOM     42  F   UNL A   1      40.093  28.017  31.697  1.00  0.00    -0.203 F 
ATOM     43  C   UNL A   1      37.926  28.784  31.192  1.00  0.00     0.198 A 
ATOM     44  C   UNL A   1      37.419  29.593  28.992  1.00  0.00     0.198 A 
ATOM     45  F   UNL A   1      39.072  29.581  27.321  1.00  0.00    -0.203 F 
ATOM     46  F   UNL A   1      37.534  28.488  32.440  1.00  0.00    -0.200 F 
ATOM     47  C   UNL A   1      37.019  29.317  30.290  1.00  0.00     0.200 A 
ATOM     48  F   UNL A   1      36.547  30.122  28.122  1.00  0.00    -0.200 F 
ATOM     49  F   UNL A   1      35.755  29.554  30.669  1.00  0.00    -0.200 F 
ENDBRANCH  25  39
BRANCH  26  50
ATOM     50  C   UNL A   1      48.847  26.662  26.153  1.00  0.00     0.064 A 
ATOM     51  C   UNL A   1      49.221  26.949  24.834  1.00  0.00     0.173 A 
ATOM     52  C   UNL A   1      49.814  26.098  27.000  1.00  0.00     0.173 A 
ATOM     53  F   UNL A   1      48.326  27.474  23.985  1.00  0.00    -0.203 F 
ATOM     54  C   UNL A   1      50.507  26.674  24.376  1.00  0.00     0.198 A 
ATOM     55  C   UNL A   1      51.108  25.853  26.549  1.00  0.00     0.198 A 
ATOM     56  F   UNL A   1      49.509  25.815  28.275  1.00  0.00    -0.203 F 
ATOM     57  F   UNL A   1      50.829  26.927  23.101  1.00  0.00    -0.200 F 
ATOM     58  C   UNL A   1      51.452  26.136  25.237  1.00  0.00     0.200 A 
ATOM     59  F   UNL A   1      52.025  25.353  27.390  1.00  0.00    -0.200 F 
ATOM     60  F   UNL A   1      52.694  25.888  24.800  1.00  0.00    -0.200 F 
ENDBRANCH  26  50
BRANCH  38  61
ATOM     61  C   UNL A   1      45.887  32.382  28.816  1.00  0.00     0.064 A 
ATOM     62  C   UNL A   1      46.512  32.693  30.033  1.00  0.00     0.173 A 
ATOM     63  C   UNL A   1      45.789  33.396  27.850  1.00  0.00     0.173 A 
ATOM     64  F   UNL A   1      46.614  31.765  30.996  1.00  0.00    -0.203 F 
ATOM     65  C   UNL A   1      46.992  33.976  30.283  1.00  0.00     0.198 A 
ATOM     66  C   UNL A   1      46.299  34.668  28.092  1.00  0.00     0.198 A 
ATOM     67  F   UNL A   1      45.204  33.150  26.668  1.00  0.00    -0.203 F 
ATOM     68  F   UNL A   1      47.536  34.265  31.473  1.00  0.00    -0.200 F 
ATOM     69  C   UNL A   1      46.893  34.960  29.310  1.00  0.00     0.200 A 
ATOM     70  F   UNL A   1      46.214  35.613  27.144  1.00  0.00    -0.200 F 
ATOM     71  F   UNL A   1      47.360  36.192  29.551  1.00  0.00    -0.200 F 
ENDBRANCH  38  61
ENDBRANCH  12  13
ENDBRANCH   5   7
ENDBRANCH   2   3
ENDBRANCH   1   2
BRANCH   1  72
ATOM     72  C   UNL A   1      36.734  20.450  25.000  1.00  0.00     0.023 C 
BRANCH  72  73
ATOM     73  C   UNL A   1      36.928  21.951  25.188  1.00  0.00     0.116 C 
BRANCH  73  74
ATOM     74  N   UNL A   1      36.198  22.490  26.316  1.00  0.00    -0.355 N 
ATOM     75  C   UNL A   1      35.144  23.349  26.350  1.00  0.00     0.238 C 
ATOM     76  H   UNL A   1      36.516  22.187  27.197  1.00  0.00     0.163 HD
ATOM     77  O   UNL A   1      34.423  23.259  27.351  1.00  0.00    -0.273 OA
BRANCH  75  78
ATOM     78  C   UNL A   1      34.770  24.301  25.222  1.00  0.00     0.162 C 
ATOM     79  C   UNL A   1      34.070  25.629  25.476  1.00  0.00     0.032 C 
ATOM     80  N   UNL A   1      33.969  23.725  24.071  1.00  0.00    -0.185 NA
ATOM     81  C   UNL A   1      33.801  26.148  24.073  1.00  0.00     0.019 C 
ATOM     82  C   UNL A   1      33.750  24.914  23.174  1.00  0.00     0.103 C 
BRANCH  80  83
ATOM     83  S   UNL A   1      32.489  22.896  24.372  1.00  0.00     0.243 S 
ATOM     84  O   UNL A   1      31.847  23.525  25.507  1.00  0.00    -0.207 OA
ATOM     85  O   UNL A   1      31.789  22.822  23.102  1.00  0.00    -0.207 OA
BRANCH  83  86
ATOM     86  C   UNL A   1      32.841  21.217  24.831  1.00  0.00     0.084 A 
ATOM     87  C   UNL A   1      32.531  20.779  26.126  1.00  0.00     0.024 A 
ATOM     88  C   UNL A   1      33.253  20.298  23.857  1.00  0.00     0.050 A 
ATOM     89  C   UNL A   1      32.798  19.462  26.501  1.00  0.00     0.030 A 
ATOM     90  C   UNL A   1      33.443  18.965  24.219  1.00  0.00     0.066 A 
ATOM     91  C   UNL A   1      33.264  18.560  25.548  1.00  0.00     0.065 A 
ATOM     92  N   UNL A   1      33.783  18.016  23.249  1.00  0.00    -0.316 N 
ATOM     93  N   UNL A   1      33.543  17.246  25.923  1.00  0.00    -0.316 N 
ATOM     94  C   UNL A   1      33.993  16.684  23.537  1.00  0.00     0.314 A 
ATOM     95  H   UNL A   1      33.877  18.314  22.316  1.00  0.00     0.170 HD
ATOM     96  C   UNL A   1      33.946  16.278  25.030  1.00  0.00     0.314 A 
ATOM     97  H   UNL A   1      33.449  16.999  26.870  1.00  0.00     0.170 HD
ATOM     98  O   UNL A   1      34.206  15.859  22.659  1.00  0.00    -0.263 OA
ATOM     99  O   UNL A   1      34.241  15.149  25.399  1.00  0.00    -0.263 OA
ENDBRANCH  83  86
ENDBRANCH  80  83
ENDBRANCH  75  78
ENDBRANCH  73  74
ENDBRANCH  72  73
ENDBRANCH   1  72
TORSDOF 13
ENDMDL
