MODEL 1
REMARK VINA RESULT:     -11.6      0.000      0.000
REMARK SMILES COCCCN1C(=O)CC[C@@H](C(=O)NCCCCNC(=O)c2ccc(-c3c4nc(c(-c5c(F)c(F)c(F)c(F)c5F)c5ccc([nH]5)c(-c5c(F)c(F)c(F)c(F)c5F)c5nc(c(-c6c(F)c(F)c(F)c(F)c6F)c6ccc3[nH]6)C=C5)C=C4)cc2)[C@@H]1c1ccc(F)cc1
REMARK SMILES IDX 15 1 14 2 12 3 13 4 11 6 6 7 7 8 85 9 8 10 9 11 10 12 5 13
REMARK SMILES IDX 4 14 3 15 2 16 1 17 86 18 87 19 92 20 88 21 91 22 89 23
REMARK SMILES IDX 90 24 16 25 17 26 18 27 19 28 20 29 21 31 22 32 23 33 84 34
REMARK SMILES IDX 24 35 83 36 25 37 26 38 27 39 77 40 28 41 82 42 76 43 78 44
REMARK SMILES IDX 29 45 81 46 75 47 74 48 30 50 62 51 42 52 61 53 43 54 46 55
REMARK SMILES IDX 60 56 79 57 44 58 45 59 59 61 80 62 47 63 31 64 32 65 40 66
REMARK SMILES IDX 33 67 34 68 38 69 41 70 35 71 36 72 39 73 37 74 63 75 64 76
REMARK SMILES IDX 72 77 65 78 66 79 70 80 73 81 67 82 68 83 71 84 69 85 48 86
REMARK SMILES IDX 49 87 57 88 50 89 51 90 55 91 58 92 52 93 53 94 56 95 54 96
REMARK H PARENT 14 5 19 30 78 49 46 60
REMARK Flexibility Score: inf
ROOT
ATOM      1  C   UNL A   1      36.817  22.478  24.653  1.00  0.00     0.116 C 
ENDROOT
BRANCH   1   2
ATOM      2  N   UNL A   1      35.922  22.815  23.564  1.00  0.00    -0.356 N 
ATOM      3  C   UNL A   1      34.855  23.664  23.526  1.00  0.00     0.225 C 
ATOM      4  O   UNL A   1      34.201  23.699  22.485  1.00  0.00    -0.275 OA
ATOM      5  H   UNL A   1      36.116  22.359  22.714  1.00  0.00     0.163 HD
BRANCH   3   6
ATOM      6  C   UNL A   1      34.506  24.512  24.748  1.00  0.00     0.106 C 
ATOM      7  N   UNL A   1      32.027  24.536  24.428  1.00  0.00    -0.335 N 
ATOM      8  C   UNL A   1      31.821  23.436  25.248  1.00  0.00     0.223 C 
ATOM      9  C   UNL A   1      33.245  25.352  24.494  1.00  0.00     0.128 C 
ATOM     10  O   UNL A   1      30.724  22.884  25.344  1.00  0.00    -0.275 OA
ATOM     11  C   UNL A   1      33.016  22.849  25.979  1.00  0.00     0.101 C 
ATOM     12  C   UNL A   1      34.297  23.668  26.006  1.00  0.00     0.026 C 
BRANCH   7  13
ATOM     13  C   UNL A   1      30.987  24.874  23.440  1.00  0.00     0.122 C 
BRANCH  13  14
ATOM     14  C   UNL A   1      31.434  25.721  22.245  1.00  0.00     0.050 C 
BRANCH  14  15
ATOM     15  C   UNL A   1      31.163  27.222  22.327  1.00  0.00     0.161 C 
BRANCH  15  16
ATOM     16  O   UNL A   1      30.479  27.594  23.522  1.00  0.00    -0.385 OA
ATOM     17  C   UNL A   1      30.559  28.975  23.838  1.00  0.00     0.194 C 
ENDBRANCH  15  16
ENDBRANCH  14  15
ENDBRANCH  13  14
ENDBRANCH   7  13
BRANCH   9  18
ATOM     18  C   UNL A   1      33.146  26.532  25.471  1.00  0.00    -0.024 A 
ATOM     19  C   UNL A   1      32.132  26.637  26.442  1.00  0.00     0.009 A 
ATOM     20  C   UNL A   1      34.055  27.603  25.347  1.00  0.00     0.009 A 
ATOM     21  C   UNL A   1      31.982  27.805  27.194  1.00  0.00     0.039 A 
ATOM     22  C   UNL A   1      33.913  28.762  26.111  1.00  0.00     0.039 A 
ATOM     23  C   UNL A   1      32.865  28.860  27.013  1.00  0.00     0.123 A 
ATOM     24  F   UNL A   1      32.696  29.993  27.707  1.00  0.00    -0.207 F 
ENDBRANCH   9  18
ENDBRANCH   3   6
ENDBRANCH   1   2
BRANCH   1  25
ATOM     25  C   UNL A   1      36.717  21.010  25.059  1.00  0.00     0.023 C 
BRANCH  25  26
ATOM     26  C   UNL A   1      37.995  20.196  24.857  1.00  0.00     0.023 C 
BRANCH  26  27
ATOM     27  C   UNL A   1      39.030  20.319  25.969  1.00  0.00     0.116 C 
BRANCH  27  28
ATOM     28  N   UNL A   1      40.073  19.310  25.892  1.00  0.00    -0.352 N 
ATOM     29  C   UNL A   1      41.431  19.448  26.047  1.00  0.00     0.251 C 
ATOM     30  H   UNL A   1      39.761  18.395  25.701  1.00  0.00     0.163 HD
ATOM     31  O   UNL A   1      42.174  18.499  25.804  1.00  0.00    -0.269 OA
BRANCH  29  32
ATOM     32  C   UNL A   1      42.005  20.742  26.474  1.00  0.00     0.039 A 
ATOM     33  C   UNL A   1      42.358  21.679  25.499  1.00  0.00     0.014 A 
ATOM     34  C   UNL A   1      42.193  21.037  27.826  1.00  0.00     0.014 A 
ATOM     35  C   UNL A   1      42.836  22.934  25.882  1.00  0.00     0.010 A 
ATOM     36  C   UNL A   1      42.589  22.316  28.209  1.00  0.00     0.010 A 
ATOM     37  C   UNL A   1      42.922  23.278  27.242  1.00  0.00    -0.014 A 
BRANCH  37  38
ATOM     38  C   UNL A   1      43.365  24.629  27.672  1.00  0.00     0.031 A 
ATOM     39  C   UNL A   1      42.348  25.687  28.007  1.00  0.00     0.074 A 
ATOM     40  C   UNL A   1      44.679  24.928  27.703  1.00  0.00     0.049 A 
ATOM     41  N   UNL A   1      42.532  26.943  28.330  1.00  0.00    -0.248 NA
ATOM     42  C   UNL A   1      40.933  25.286  27.943  1.00  0.00     0.031 C 
ATOM     43  C   UNL A   1      45.764  24.007  27.361  1.00  0.00     0.029 A 
ATOM     44  N   UNL A   1      45.326  26.095  28.027  1.00  0.00    -0.354 N 
ATOM     45  C   UNL A   1      41.262  27.481  28.493  1.00  0.00     0.074 A 
ATOM     46  C   UNL A   1      40.315  26.434  28.175  1.00  0.00     0.031 C 
ATOM     47  C   UNL A   1      46.940  24.635  27.515  1.00  0.00     0.029 A 
ATOM     48  C   UNL A   1      46.694  26.015  27.924  1.00  0.00     0.049 A 
ATOM     49  H   UNL A   1      44.854  26.913  28.307  1.00  0.00     0.167 HD
ATOM     50  C   UNL A   1      40.915  28.727  28.895  1.00  0.00     0.037 A 
ATOM     51  C   UNL A   1      47.641  26.951  28.125  1.00  0.00     0.037 A 
ATOM     52  C   UNL A   1      41.859  29.762  29.229  1.00  0.00     0.049 A 
ATOM     53  C   UNL A   1      47.228  28.334  28.553  1.00  0.00     0.074 A 
ATOM     54  C   UNL A   1      41.608  31.040  29.696  1.00  0.00     0.029 A 
ATOM     55  N   UNL A   1      43.237  29.638  29.125  1.00  0.00    -0.354 N 
ATOM     56  N   UNL A   1      46.027  28.812  28.770  1.00  0.00    -0.248 NA
ATOM     57  C   UNL A   1      48.307  29.308  28.775  1.00  0.00     0.031 C 
ATOM     58  C   UNL A   1      42.830  31.709  29.820  1.00  0.00     0.029 A 
ATOM     59  C   UNL A   1      43.848  30.824  29.497  1.00  0.00     0.049 A 
ATOM     60  H   UNL A   1      43.711  28.826  28.831  1.00  0.00     0.167 HD
ATOM     61  C   UNL A   1      46.206  30.124  29.186  1.00  0.00     0.074 A 
ATOM     62  C   UNL A   1      47.634  30.364  29.206  1.00  0.00     0.031 C 
ATOM     63  C   UNL A   1      45.272  31.047  29.526  1.00  0.00     0.037 A 
BRANCH  50  64
ATOM     64  C   UNL A   1      39.449  29.043  28.996  1.00  0.00     0.064 A 
ATOM     65  C   UNL A   1      38.697  29.426  27.874  1.00  0.00     0.173 A 
ATOM     66  C   UNL A   1      38.777  28.926  30.223  1.00  0.00     0.173 A 
ATOM     67  F   UNL A   1      39.291  29.563  26.678  1.00  0.00    -0.203 F 
ATOM     68  C   UNL A   1      37.339  29.713  27.983  1.00  0.00     0.198 A 
ATOM     69  C   UNL A   1      37.411  29.180  30.321  1.00  0.00     0.198 A 
ATOM     70  F   UNL A   1      39.444  28.557  31.327  1.00  0.00    -0.203 F 
ATOM     71  F   UNL A   1      36.657  30.132  26.908  1.00  0.00    -0.200 F 
ATOM     72  C   UNL A   1      36.696  29.582  29.204  1.00  0.00     0.200 A 
ATOM     73  F   UNL A   1      36.789  29.037  31.499  1.00  0.00    -0.200 F 
ATOM     74  F   UNL A   1      35.387  29.851  29.306  1.00  0.00    -0.200 F 
ENDBRANCH  50  64
BRANCH  51  75
ATOM     75  C   UNL A   1      49.078  26.608  27.946  1.00  0.00     0.064 A 
ATOM     76  C   UNL A   1      49.645  26.523  26.667  1.00  0.00     0.173 A 
ATOM     77  C   UNL A   1      49.908  26.343  29.044  1.00  0.00     0.173 A 
ATOM     78  F   UNL A   1      48.888  26.748  25.582  1.00  0.00    -0.203 F 
ATOM     79  C   UNL A   1      50.979  26.160  26.491  1.00  0.00     0.198 A 
ATOM     80  C   UNL A   1      51.250  26.012  28.870  1.00  0.00     0.198 A 
ATOM     81  F   UNL A   1      49.418  26.417  30.291  1.00  0.00    -0.203 F 
ATOM     82  F   UNL A   1      51.479  26.033  25.255  1.00  0.00    -0.200 F 
ATOM     83  C   UNL A   1      51.783  25.911  27.593  1.00  0.00     0.200 A 
ATOM     84  F   UNL A   1      52.028  25.790  29.938  1.00  0.00    -0.200 F 
ATOM     85  F   UNL A   1      53.066  25.565  27.425  1.00  0.00    -0.200 F 
ENDBRANCH  51  75
BRANCH  63  86
ATOM     86  C   UNL A   1      45.761  32.386  30.003  1.00  0.00     0.064 A 
ATOM     87  C   UNL A   1      45.979  33.454  29.122  1.00  0.00     0.173 A 
ATOM     88  C   UNL A   1      45.978  32.610  31.372  1.00  0.00     0.173 A 
ATOM     89  F   UNL A   1      45.800  33.290  27.802  1.00  0.00    -0.203 F 
ATOM     90  C   UNL A   1      46.426  34.689  29.589  1.00  0.00     0.198 A 
ATOM     91  C   UNL A   1      46.390  33.855  31.839  1.00  0.00     0.198 A 
ATOM     92  F   UNL A   1      45.777  31.625  32.260  1.00  0.00    -0.203 F 
ATOM     93  F   UNL A   1      46.681  35.678  28.721  1.00  0.00    -0.200 F 
ATOM     94  C   UNL A   1      46.622  34.890  30.946  1.00  0.00     0.200 A 
ATOM     95  F   UNL A   1      46.562  34.053  33.154  1.00  0.00    -0.200 F 
ATOM     96  F   UNL A   1      47.044  36.081  31.394  1.00  0.00    -0.200 F 
ENDBRANCH  63  86
ENDBRANCH  37  38
ENDBRANCH  29  32
ENDBRANCH  27  28
ENDBRANCH  26  27
ENDBRANCH  25  26
ENDBRANCH   1  25
TORSDOF 16
ENDMDL
MODEL 2
REMARK VINA RESULT:     -11.5      1.071      1.962
REMARK SMILES COCCCN1C(=O)CC[C@@H](C(=O)NCCCCNC(=O)c2ccc(-c3c4nc(c(-c5c(F)c(F)c(F)c(F)c5F)c5ccc([nH]5)c(-c5c(F)c(F)c(F)c(F)c5F)c5nc(c(-c6c(F)c(F)c(F)c(F)c6F)c6ccc3[nH]6)C=C5)C=C4)cc2)[C@@H]1c1ccc(F)cc1
REMARK SMILES IDX 15 1 14 2 12 3 13 4 11 6 6 7 7 8 85 9 8 10 9 11 10 12 5 13
REMARK SMILES IDX 4 14 3 15 2 16 1 17 86 18 87 19 92 20 88 21 91 22 89 23
REMARK SMILES IDX 90 24 16 25 17 26 18 27 19 28 20 29 21 31 22 32 23 33 84 34
REMARK SMILES IDX 24 35 83 36 25 37 26 38 27 39 77 40 28 41 82 42 76 43 78 44
REMARK SMILES IDX 29 45 81 46 75 47 74 48 30 50 62 51 42 52 61 53 43 54 46 55
REMARK SMILES IDX 60 56 79 57 44 58 45 59 59 61 80 62 47 63 31 64 32 65 40 66
REMARK SMILES IDX 33 67 34 68 38 69 41 70 35 71 36 72 39 73 37 74 63 75 64 76
REMARK SMILES IDX 72 77 65 78 66 79 70 80 73 81 67 82 68 83 71 84 69 85 48 86
REMARK SMILES IDX 49 87 57 88 50 89 51 90 55 91 58 92 52 93 53 94 56 95 54 96
REMARK H PARENT 14 5 19 30 78 49 46 60
REMARK Flexibility Score: inf
ROOT
ATOM      1  C   UNL A   1      38.273  23.520  26.114  1.00  0.00     0.116 C 
ENDROOT
BRANCH   1   2
ATOM      2  N   UNL A   1      37.537  23.074  24.948  1.00  0.00    -0.356 N 
ATOM      3  C   UNL A   1      36.209  23.167  24.650  1.00  0.00     0.225 C 
ATOM      4  O   UNL A   1      35.824  22.619  23.618  1.00  0.00    -0.275 OA
ATOM      5  H   UNL A   1      38.084  22.634  24.258  1.00  0.00     0.163 HD
BRANCH   3   6
ATOM      6  C   UNL A   1      35.264  23.916  25.588  1.00  0.00     0.106 C 
ATOM      7  N   UNL A   1      33.121  23.258  24.480  1.00  0.00    -0.335 N 
ATOM      8  C   UNL A   1      32.925  22.163  25.309  1.00  0.00     0.223 C 
ATOM      9  C   UNL A   1      34.000  24.376  24.845  1.00  0.00     0.128 C 
ATOM     10  O   UNL A   1      32.035  21.336  25.106  1.00  0.00    -0.275 OA
ATOM     11  C   UNL A   1      33.903  21.939  26.450  1.00  0.00     0.101 C 
ATOM     12  C   UNL A   1      34.852  23.076  26.798  1.00  0.00     0.026 C 
BRANCH   7  13
ATOM     13  C   UNL A   1      32.434  23.279  23.177  1.00  0.00     0.122 C 
BRANCH  13  14
ATOM     14  C   UNL A   1      33.191  23.936  22.020  1.00  0.00     0.050 C 
BRANCH  14  15
ATOM     15  C   UNL A   1      32.699  25.311  21.570  1.00  0.00     0.161 C 
BRANCH  15  16
ATOM     16  O   UNL A   1      33.737  26.288  21.550  1.00  0.00    -0.385 OA
ATOM     17  C   UNL A   1      33.452  27.463  22.293  1.00  0.00     0.194 C 
ENDBRANCH  15  16
ENDBRANCH  14  15
ENDBRANCH  13  14
ENDBRANCH   7  13
BRANCH   9  18
ATOM     18  C   UNL A   1      33.283  25.506  25.596  1.00  0.00    -0.024 A 
ATOM     19  C   UNL A   1      31.922  25.446  25.950  1.00  0.00     0.009 A 
ATOM     20  C   UNL A   1      33.987  26.696  25.878  1.00  0.00     0.009 A 
ATOM     21  C   UNL A   1      31.272  26.563  26.480  1.00  0.00     0.039 A 
ATOM     22  C   UNL A   1      33.338  27.805  26.423  1.00  0.00     0.039 A 
ATOM     23  C   UNL A   1      31.982  27.735  26.700  1.00  0.00     0.123 A 
ATOM     24  F   UNL A   1      31.349  28.816  27.172  1.00  0.00    -0.207 F 
ENDBRANCH   9  18
ENDBRANCH   3   6
ENDBRANCH   1   2
BRANCH   1  25
ATOM     25  C   UNL A   1      39.400  22.565  26.494  1.00  0.00     0.023 C 
BRANCH  25  26
ATOM     26  C   UNL A   1      39.419  21.247  25.721  1.00  0.00     0.023 C 
BRANCH  26  27
ATOM     27  C   UNL A   1      39.709  20.004  26.555  1.00  0.00     0.116 C 
BRANCH  27  28
ATOM     28  N   UNL A   1      40.812  19.213  26.033  1.00  0.00    -0.352 N 
ATOM     29  C   UNL A   1      42.131  19.562  25.867  1.00  0.00     0.251 C 
ATOM     30  H   UNL A   1      40.581  18.295  25.760  1.00  0.00     0.163 HD
ATOM     31  O   UNL A   1      42.894  18.802  25.274  1.00  0.00    -0.269 OA
BRANCH  29  32
ATOM     32  C   UNL A   1      42.627  20.861  26.369  1.00  0.00     0.039 A 
ATOM     33  C   UNL A   1      43.081  21.812  25.451  1.00  0.00     0.014 A 
ATOM     34  C   UNL A   1      42.645  21.147  27.736  1.00  0.00     0.014 A 
ATOM     35  C   UNL A   1      43.488  23.071  25.897  1.00  0.00     0.010 A 
ATOM     36  C   UNL A   1      42.971  22.429  28.172  1.00  0.00     0.010 A 
ATOM     37  C   UNL A   1      43.402  23.404  27.259  1.00  0.00    -0.014 A 
BRANCH  37  38
ATOM     38  C   UNL A   1      43.768  24.758  27.749  1.00  0.00     0.031 A 
ATOM     39  C   UNL A   1      42.693  25.762  28.071  1.00  0.00     0.074 A 
ATOM     40  C   UNL A   1      45.066  25.110  27.847  1.00  0.00     0.049 A 
ATOM     41  N   UNL A   1      42.809  27.013  28.439  1.00  0.00    -0.248 NA
ATOM     42  C   UNL A   1      41.301  25.304  27.932  1.00  0.00     0.031 C 
ATOM     43  C   UNL A   1      46.203  24.246  27.527  1.00  0.00     0.029 A 
ATOM     44  N   UNL A   1      45.648  26.292  28.235  1.00  0.00    -0.354 N 
ATOM     45  C   UNL A   1      41.511  27.493  28.561  1.00  0.00     0.074 A 
ATOM     46  C   UNL A   1      40.625  26.418  28.170  1.00  0.00     0.031 C 
ATOM     47  C   UNL A   1      47.343  24.918  27.752  1.00  0.00     0.029 A 
ATOM     48  C   UNL A   1      47.020  26.272  28.191  1.00  0.00     0.049 A 
ATOM     49  H   UNL A   1      45.129  27.080  28.518  1.00  0.00     0.167 HD
ATOM     50  C   UNL A   1      41.094  28.710  28.985  1.00  0.00     0.037 A 
ATOM     51  C   UNL A   1      47.917  27.240  28.462  1.00  0.00     0.037 A 
ATOM     52  C   UNL A   1      41.977  29.771  29.391  1.00  0.00     0.049 A 
ATOM     53  C   UNL A   1      47.427  28.591  28.913  1.00  0.00     0.074 A 
ATOM     54  C   UNL A   1      41.652  31.023  29.885  1.00  0.00     0.029 A 
ATOM     55  N   UNL A   1      43.363  29.708  29.345  1.00  0.00    -0.354 N 
ATOM     56  N   UNL A   1      46.198  29.011  29.090  1.00  0.00    -0.248 NA
ATOM     57  C   UNL A   1      48.453  29.601  29.212  1.00  0.00     0.031 C 
ATOM     58  C   UNL A   1      42.838  31.737  30.083  1.00  0.00     0.029 A 
ATOM     59  C   UNL A   1      43.905  30.907  29.779  1.00  0.00     0.049 A 
ATOM     60  H   UNL A   1      43.883  28.927  29.049  1.00  0.00     0.167 HD
ATOM     61  C   UNL A   1      46.303  30.316  29.553  1.00  0.00     0.074 A 
ATOM     62  C   UNL A   1      47.717  30.614  29.644  1.00  0.00     0.031 C 
ATOM     63  C   UNL A   1      45.316  31.188  29.879  1.00  0.00     0.037 A 
BRANCH  50  64
ATOM     64  C   UNL A   1      39.612  28.960  29.030  1.00  0.00     0.064 A 
ATOM     65  C   UNL A   1      38.883  28.861  30.225  1.00  0.00     0.173 A 
ATOM     66  C   UNL A   1      38.919  29.341  27.870  1.00  0.00     0.173 A 
ATOM     67  F   UNL A   1      39.493  28.491  31.361  1.00  0.00    -0.203 F 
ATOM     68  C   UNL A   1      37.511  29.097  30.250  1.00  0.00     0.198 A 
ATOM     69  C   UNL A   1      37.553  29.611  27.907  1.00  0.00     0.198 A 
ATOM     70  F   UNL A   1      39.567  29.458  26.702  1.00  0.00    -0.203 F 
ATOM     71  F   UNL A   1      36.826  28.939  31.391  1.00  0.00    -0.200 F 
ATOM     72  C   UNL A   1      36.849  29.480  29.094  1.00  0.00     0.200 A 
ATOM     73  F   UNL A   1      36.919  29.997  26.791  1.00  0.00    -0.200 F 
ATOM     74  F   UNL A   1      35.529  29.716  29.121  1.00  0.00    -0.200 F 
ENDBRANCH  50  64
BRANCH  51  75
ATOM     75  C   UNL A   1      49.374  26.964  28.337  1.00  0.00     0.064 A 
ATOM     76  C   UNL A   1      50.128  26.554  29.446  1.00  0.00     0.173 A 
ATOM     77  C   UNL A   1      50.045  27.118  27.116  1.00  0.00     0.173 A 
ATOM     78  F   UNL A   1      49.536  26.411  30.642  1.00  0.00    -0.203 F 
ATOM     79  C   UNL A   1      51.500  26.336  29.346  1.00  0.00     0.198 A 
ATOM     80  C   UNL A   1      51.411  26.867  27.008  1.00  0.00     0.198 A 
ATOM     81  F   UNL A   1      49.370  27.502  26.022  1.00  0.00    -0.203 F 
ATOM     82  F   UNL A   1      52.204  25.998  30.434  1.00  0.00    -0.200 F 
ATOM     83  C   UNL A   1      52.140  26.487  28.125  1.00  0.00     0.200 A 
ATOM     84  F   UNL A   1      52.023  26.997  25.822  1.00  0.00    -0.200 F 
ATOM     85  F   UNL A   1      53.459  26.274  28.027  1.00  0.00    -0.200 F 
ENDBRANCH  51  75
BRANCH  63  86
ATOM     86  C   UNL A   1      45.726  32.530  30.417  1.00  0.00     0.064 A 
ATOM     87  C   UNL A   1      45.907  33.641  29.582  1.00  0.00     0.173 A 
ATOM     88  C   UNL A   1      45.903  32.711  31.798  1.00  0.00     0.173 A 
ATOM     89  F   UNL A   1      45.763  33.519  28.254  1.00  0.00    -0.203 F 
ATOM     90  C   UNL A   1      46.280  34.877  30.105  1.00  0.00     0.198 A 
ATOM     91  C   UNL A   1      46.241  33.956  32.321  1.00  0.00     0.198 A 
ATOM     92  F   UNL A   1      45.735  31.683  32.643  1.00  0.00    -0.203 F 
ATOM     93  F   UNL A   1      46.502  35.911  29.282  1.00  0.00    -0.200 F 
ATOM     94  C   UNL A   1      46.438  35.035  31.473  1.00  0.00     0.200 A 
ATOM     95  F   UNL A   1      46.376  34.110  33.645  1.00  0.00    -0.200 F 
ATOM     96  F   UNL A   1      46.789  36.227  31.976  1.00  0.00    -0.200 F 
ENDBRANCH  63  86
ENDBRANCH  37  38
ENDBRANCH  29  32
ENDBRANCH  27  28
ENDBRANCH  26  27
ENDBRANCH  25  26
ENDBRANCH   1  25
TORSDOF 16
ENDMDL
MODEL 3
REMARK VINA RESULT:     -11.4      5.068     10.254
REMARK SMILES COCCCN1C(=O)CC[C@@H](C(=O)NCCCCNC(=O)c2ccc(-c3c4nc(c(-c5c(F)c(F)c(F)c(F)c5F)c5ccc([nH]5)c(-c5c(F)c(F)c(F)c(F)c5F)c5nc(c(-c6c(F)c(F)c(F)c(F)c6F)c6ccc3[nH]6)C=C5)C=C4)cc2)[C@@H]1c1ccc(F)cc1
REMARK SMILES IDX 15 1 14 2 12 3 13 4 11 6 6 7 7 8 85 9 8 10 9 11 10 12 5 13
REMARK SMILES IDX 4 14 3 15 2 16 1 17 86 18 87 19 92 20 88 21 91 22 89 23
REMARK SMILES IDX 90 24 16 25 17 26 18 27 19 28 20 29 21 31 22 32 23 33 84 34
REMARK SMILES IDX 24 35 83 36 25 37 26 38 27 39 77 40 28 41 82 42 76 43 78 44
REMARK SMILES IDX 29 45 81 46 75 47 74 48 30 50 62 51 42 52 61 53 43 54 46 55
REMARK SMILES IDX 60 56 79 57 44 58 45 59 59 61 80 62 47 63 31 64 32 65 40 66
REMARK SMILES IDX 33 67 34 68 38 69 41 70 35 71 36 72 39 73 37 74 63 75 64 76
REMARK SMILES IDX 72 77 65 78 66 79 70 80 73 81 67 82 68 83 71 84 69 85 48 86
REMARK SMILES IDX 49 87 57 88 50 89 51 90 55 91 58 92 52 93 53 94 56 95 54 96
REMARK H PARENT 14 5 19 30 78 49 46 60
REMARK Flexibility Score: inf
ROOT
ATOM      1  C   UNL A   1      32.399  29.325  26.598  1.00  0.00     0.116 C 
ENDROOT
BRANCH   1   2
ATOM      2  N   UNL A   1      31.544  28.162  26.731  1.00  0.00    -0.356 N 
ATOM      3  C   UNL A   1      31.745  26.868  26.351  1.00  0.00     0.225 C 
ATOM      4  O   UNL A   1      30.807  26.085  26.501  1.00  0.00    -0.275 OA
ATOM      5  H   UNL A   1      30.678  28.334  27.166  1.00  0.00     0.163 HD
BRANCH   3   6
ATOM      6  C   UNL A   1      33.086  26.443  25.755  1.00  0.00     0.106 C 
ATOM      7  N   UNL A   1      32.188  24.904  24.001  1.00  0.00    -0.335 N 
ATOM      8  C   UNL A   1      32.170  25.887  23.022  1.00  0.00     0.223 C 
ATOM      9  C   UNL A   1      33.017  25.009  25.209  1.00  0.00     0.128 C 
ATOM     10  O   UNL A   1      31.647  25.707  21.921  1.00  0.00    -0.275 OA
ATOM     11  C   UNL A   1      32.737  27.254  23.363  1.00  0.00     0.101 C 
ATOM     12  C   UNL A   1      33.554  27.379  24.640  1.00  0.00     0.026 C 
BRANCH   7  13
ATOM     13  C   UNL A   1      31.321  23.726  23.825  1.00  0.00     0.122 C 
BRANCH  13  14
ATOM     14  C   UNL A   1      31.951  22.515  23.133  1.00  0.00     0.050 C 
BRANCH  14  15
ATOM     15  C   UNL A   1      32.153  21.264  23.986  1.00  0.00     0.161 C 
BRANCH  15  16
ATOM     16  O   UNL A   1      33.527  20.994  24.252  1.00  0.00    -0.385 OA
ATOM     17  C   UNL A   1      33.816  20.702  25.610  1.00  0.00     0.194 C 
ENDBRANCH  15  16
ENDBRANCH  14  15
ENDBRANCH  13  14
ENDBRANCH   7  13
BRANCH   9  18
ATOM     18  C   UNL A   1      34.416  24.396  25.052  1.00  0.00    -0.024 A 
ATOM     19  C   UNL A   1      34.961  24.046  23.803  1.00  0.00     0.009 A 
ATOM     20  C   UNL A   1      35.163  24.091  26.209  1.00  0.00     0.009 A 
ATOM     21  C   UNL A   1      36.163  23.337  23.722  1.00  0.00     0.039 A 
ATOM     22  C   UNL A   1      36.371  23.398  26.124  1.00  0.00     0.039 A 
ATOM     23  C   UNL A   1      36.850  23.010  24.883  1.00  0.00     0.123 A 
ATOM     24  F   UNL A   1      37.981  22.298  24.806  1.00  0.00    -0.207 F 
ENDBRANCH   9  18
ENDBRANCH   3   6
ENDBRANCH   1   2
BRANCH   1  25
ATOM     25  C   UNL A   1      31.764  30.424  25.751  1.00  0.00     0.023 C 
BRANCH  25  26
ATOM     26  C   UNL A   1      31.450  31.718  26.501  1.00  0.00     0.023 C 
BRANCH  26  27
ATOM     27  C   UNL A   1      32.650  32.413  27.135  1.00  0.00     0.116 C 
BRANCH  27  28
ATOM     28  N   UNL A   1      32.387  33.800  27.483  1.00  0.00    -0.352 N 
ATOM     29  C   UNL A   1      32.985  34.585  28.439  1.00  0.00     0.251 C 
ATOM     30  H   UNL A   1      31.678  34.240  26.959  1.00  0.00     0.163 HD
ATOM     31  O   UNL A   1      32.529  35.700  28.687  1.00  0.00    -0.269 OA
BRANCH  29  32
ATOM     32  C   UNL A   1      34.154  34.083  29.192  1.00  0.00     0.039 A 
ATOM     33  C   UNL A   1      33.941  33.247  30.292  1.00  0.00     0.014 A 
ATOM     34  C   UNL A   1      35.456  34.428  28.820  1.00  0.00     0.014 A 
ATOM     35  C   UNL A   1      35.032  32.705  30.975  1.00  0.00     0.010 A 
ATOM     36  C   UNL A   1      36.540  33.821  29.447  1.00  0.00     0.010 A 
ATOM     37  C   UNL A   1      36.343  32.958  30.536  1.00  0.00    -0.014 A 
BRANCH  37  38
ATOM     38  C   UNL A   1      37.516  32.340  31.206  1.00  0.00     0.031 A 
ATOM     39  C   UNL A   1      38.254  31.206  30.545  1.00  0.00     0.074 A 
ATOM     40  C   UNL A   1      37.882  32.752  32.436  1.00  0.00     0.049 A 
ATOM     41  N   UNL A   1      39.252  30.489  30.997  1.00  0.00    -0.248 NA
ATOM     42  C   UNL A   1      37.790  30.809  29.206  1.00  0.00     0.031 C 
ATOM     43  C   UNL A   1      37.225  33.811  33.204  1.00  0.00     0.029 A 
ATOM     44  N   UNL A   1      38.892  32.323  33.262  1.00  0.00    -0.354 N 
ATOM     45  C   UNL A   1      39.522  29.551  30.009  1.00  0.00     0.074 A 
ATOM     46  C   UNL A   1      38.547  29.751  28.960  1.00  0.00     0.031 C 
ATOM     47  C   UNL A   1      37.861  33.964  34.376  1.00  0.00     0.029 A 
ATOM     48  C   UNL A   1      38.942  32.987  34.463  1.00  0.00     0.049 A 
ATOM     49  H   UNL A   1      39.521  31.606  33.017  1.00  0.00     0.167 HD
ATOM     50  C   UNL A   1      40.510  28.625  29.968  1.00  0.00     0.037 A 
ATOM     51  C   UNL A   1      39.760  32.820  35.520  1.00  0.00     0.037 A 
ATOM     52  C   UNL A   1      41.491  28.442  31.005  1.00  0.00     0.049 A 
ATOM     53  C   UNL A   1      40.838  31.770  35.457  1.00  0.00     0.074 A 
ATOM     54  C   UNL A   1      42.561  27.565  31.034  1.00  0.00     0.029 A 
ATOM     55  N   UNL A   1      41.517  29.144  32.202  1.00  0.00    -0.354 N 
ATOM     56  N   UNL A   1      41.127  30.935  34.489  1.00  0.00    -0.248 NA
ATOM     57  C   UNL A   1      41.711  31.646  36.633  1.00  0.00     0.031 C 
ATOM     58  C   UNL A   1      43.202  27.696  32.271  1.00  0.00     0.029 A 
ATOM     59  C   UNL A   1      42.572  28.704  32.985  1.00  0.00     0.049 A 
ATOM     60  H   UNL A   1      40.881  29.851  32.456  1.00  0.00     0.167 HD
ATOM     61  C   UNL A   1      42.232  30.215  34.922  1.00  0.00     0.074 A 
ATOM     62  C   UNL A   1      42.572  30.721  36.235  1.00  0.00     0.031 C 
ATOM     63  C   UNL A   1      42.909  29.225  34.286  1.00  0.00     0.037 A 
BRANCH  50  64
ATOM     64  C   UNL A   1      40.578  27.735  28.759  1.00  0.00     0.064 A 
ATOM     65  C   UNL A   1      39.843  26.541  28.679  1.00  0.00     0.173 A 
ATOM     66  C   UNL A   1      41.359  28.097  27.650  1.00  0.00     0.173 A 
ATOM     67  F   UNL A   1      39.088  26.142  29.713  1.00  0.00    -0.203 F 
ATOM     68  C   UNL A   1      39.915  25.728  27.551  1.00  0.00     0.198 A 
ATOM     69  C   UNL A   1      41.401  27.298  26.510  1.00  0.00     0.198 A 
ATOM     70  F   UNL A   1      42.076  29.230  27.669  1.00  0.00    -0.203 F 
ATOM     71  F   UNL A   1      39.250  24.565  27.522  1.00  0.00    -0.200 F 
ATOM     72  C   UNL A   1      40.687  26.111  26.465  1.00  0.00     0.200 A 
ATOM     73  F   UNL A   1      42.134  27.679  25.455  1.00  0.00    -0.200 F 
ATOM     74  F   UNL A   1      40.750  25.331  25.376  1.00  0.00    -0.200 F 
ENDBRANCH  50  64
BRANCH  51  75
ATOM     75  C   UNL A   1      39.610  33.682  36.724  1.00  0.00     0.064 A 
ATOM     76  C   UNL A   1      38.803  33.284  37.799  1.00  0.00     0.173 A 
ATOM     77  C   UNL A   1      40.252  34.924  36.818  1.00  0.00     0.173 A 
ATOM     78  F   UNL A   1      38.150  32.113  37.749  1.00  0.00    -0.203 F 
ATOM     79  C   UNL A   1      38.623  34.106  38.910  1.00  0.00     0.198 A 
ATOM     80  C   UNL A   1      40.099  35.732  37.943  1.00  0.00     0.198 A 
ATOM     81  F   UNL A   1      41.041  35.351  35.820  1.00  0.00    -0.203 F 
ATOM     82  F   UNL A   1      37.803  33.724  39.898  1.00  0.00    -0.200 F 
ATOM     83  C   UNL A   1      39.276  35.327  38.984  1.00  0.00     0.200 A 
ATOM     84  F   UNL A   1      40.745  36.903  38.019  1.00  0.00    -0.200 F 
ATOM     85  F   UNL A   1      39.106  36.116  40.053  1.00  0.00    -0.200 F 
ENDBRANCH  51  75
BRANCH  63  86
ATOM     86  C   UNL A   1      44.119  28.660  34.975  1.00  0.00     0.064 A 
ATOM     87  C   UNL A   1      45.394  29.220  34.816  1.00  0.00     0.173 A 
ATOM     88  C   UNL A   1      43.989  27.559  35.838  1.00  0.00     0.173 A 
ATOM     89  F   UNL A   1      45.576  30.264  33.992  1.00  0.00    -0.203 F 
ATOM     90  C   UNL A   1      46.500  28.682  35.471  1.00  0.00     0.198 A 
ATOM     91  C   UNL A   1      45.090  27.047  36.518  1.00  0.00     0.198 A 
ATOM     92  F   UNL A   1      42.790  26.989  36.033  1.00  0.00    -0.203 F 
ATOM     93  F   UNL A   1      47.718  29.200  35.259  1.00  0.00    -0.200 F 
ATOM     94  C   UNL A   1      46.345  27.603  36.327  1.00  0.00     0.200 A 
ATOM     95  F   UNL A   1      44.934  26.015  37.359  1.00  0.00    -0.200 F 
ATOM     96  F   UNL A   1      47.409  27.092  36.962  1.00  0.00    -0.200 F 
ENDBRANCH  63  86
ENDBRANCH  37  38
ENDBRANCH  29  32
ENDBRANCH  27  28
ENDBRANCH  26  27
ENDBRANCH  25  26
ENDBRANCH   1  25
TORSDOF 16
ENDMDL
