MODEL 1
REMARK VINA RESULT:     -13.0      0.000      0.000
REMARK SMILES CC[C@H](C(=O)NCCCCNC(=O)c1ccc(-c2c3nc(c(-c4c(F)c(F)c(F)c(F)c4F)c4ccc([nH]4)c(-c4c(F)c(F)c(F)c(F)c4F)c4nc(c(-c5c(F)c(F)c(F)c(F)c5F)c5ccc2[nH]5)C=C4)C=C3)cc1)C1=CCCc2c(C)ccc(C)c21
REMARK SMILES IDX 9 1 8 2 7 3 6 4 4 5 5 6 3 8 2 9 1 10 77 11 78 12 88 13 79 14
REMARK SMILES IDX 81 15 86 16 80 17 82 18 85 19 87 20 83 21 84 22 10 23 11 24
REMARK SMILES IDX 12 25 13 27 14 28 15 29 76 30 16 31 75 32 17 33 18 34 19 35
REMARK SMILES IDX 69 36 20 37 74 38 68 39 70 40 21 41 73 42 67 43 66 44 22 46
REMARK SMILES IDX 54 47 34 48 53 49 35 50 38 51 52 52 71 53 36 54 37 55 51 57
REMARK SMILES IDX 72 58 39 59 23 60 24 61 32 62 25 63 26 64 30 65 33 66 27 67
REMARK SMILES IDX 28 68 31 69 29 70 55 71 56 72 64 73 57 74 58 75 62 76 65 77
REMARK SMILES IDX 59 78 60 79 63 80 61 81 40 82 41 83 49 84 42 85 43 86 47 87
REMARK SMILES IDX 50 88 44 89 45 90 48 91 46 92
REMARK H PARENT 6 7 11 26 70 45 38 56
REMARK Flexibility Score: inf
ROOT
ATOM      1  C   UNL A   1      31.502  29.292  24.993  1.00  0.00     0.023 C 
ENDROOT
BRANCH   1   2
ATOM      2  C   UNL A   1      31.708  28.874  23.539  1.00  0.00     0.023 C 
BRANCH   2   3
ATOM      3  C   UNL A   1      33.143  28.629  23.057  1.00  0.00     0.116 C 
BRANCH   3   4
ATOM      4  N   UNL A   1      33.343  27.635  22.013  1.00  0.00    -0.356 N 
ATOM      5  C   UNL A   1      33.027  26.303  21.899  1.00  0.00     0.227 C 
ATOM      6  O   UNL A   1      33.226  25.837  20.766  1.00  0.00    -0.274 OA
ATOM      7  H   UNL A   1      33.802  27.994  21.221  1.00  0.00     0.163 HD
BRANCH   5   8
ATOM      8  C   UNL A   1      32.519  25.336  23.040  1.00  0.00     0.108 C 
BRANCH   8   9
ATOM      9  C   UNL A   1      30.975  25.133  23.147  1.00  0.00     0.015 C 
ATOM     10  C   UNL A   1      30.281  25.579  24.440  1.00  0.00     0.005 C 
ENDBRANCH   8   9
BRANCH   8  11
ATOM     11  C   UNL A   1      33.301  24.034  23.354  1.00  0.00    -0.032 C 
ATOM     12  C   UNL A   1      34.650  24.070  23.512  1.00  0.00    -0.022 C 
ATOM     13  C   UNL A   1      32.800  22.842  24.143  1.00  0.00    -0.016 A 
ATOM     14  C   UNL A   1      35.100  24.340  24.967  1.00  0.00     0.032 C 
ATOM     15  C   UNL A   1      33.261  22.851  25.505  1.00  0.00    -0.037 A 
ATOM     16  C   UNL A   1      32.455  21.604  23.559  1.00  0.00    -0.043 A 
ATOM     17  C   UNL A   1      33.931  24.142  25.949  1.00  0.00     0.040 C 
ATOM     18  C   UNL A   1      33.432  21.659  26.238  1.00  0.00    -0.047 A 
ATOM     19  C   UNL A   1      32.667  20.421  24.300  1.00  0.00     0.004 A 
ATOM     20  C   UNL A   1      32.022  21.426  22.131  1.00  0.00     0.045 C 
ATOM     21  C   UNL A   1      34.097  21.652  27.586  1.00  0.00     0.044 C 
ATOM     22  C   UNL A   1      33.159  20.447  25.606  1.00  0.00     0.004 A 
ENDBRANCH   8  11
ENDBRANCH   5   8
ENDBRANCH   3   4
ENDBRANCH   2   3
ENDBRANCH   1   2
BRANCH   1  23
ATOM     23  C   UNL A   1      32.705  29.872  25.735  1.00  0.00     0.116 C 
BRANCH  23  24
ATOM     24  N   UNL A   1      32.487  31.193  26.309  1.00  0.00    -0.352 N 
ATOM     25  C   UNL A   1      33.238  31.927  27.206  1.00  0.00     0.251 C 
ATOM     26  H   UNL A   1      31.664  31.639  26.005  1.00  0.00     0.163 HD
ATOM     27  O   UNL A   1      32.820  33.016  27.582  1.00  0.00    -0.269 OA
BRANCH  25  28
ATOM     28  C   UNL A   1      34.517  31.412  27.763  1.00  0.00     0.039 A 
ATOM     29  C   UNL A   1      35.567  32.317  27.965  1.00  0.00     0.014 A 
ATOM     30  C   UNL A   1      34.714  30.065  28.072  1.00  0.00     0.014 A 
ATOM     31  C   UNL A   1      36.763  31.889  28.554  1.00  0.00     0.010 A 
ATOM     32  C   UNL A   1      35.868  29.659  28.747  1.00  0.00     0.010 A 
ATOM     33  C   UNL A   1      36.909  30.566  28.999  1.00  0.00    -0.014 A 
BRANCH  33  34
ATOM     34  C   UNL A   1      38.129  30.138  29.742  1.00  0.00     0.031 A 
ATOM     35  C   UNL A   1      38.390  30.613  31.148  1.00  0.00     0.074 A 
ATOM     36  C   UNL A   1      39.035  29.345  29.134  1.00  0.00     0.049 A 
ATOM     37  N   UNL A   1      39.390  30.328  31.947  1.00  0.00    -0.248 NA
ATOM     38  C   UNL A   1      37.416  31.550  31.725  1.00  0.00     0.031 C 
ATOM     39  C   UNL A   1      38.946  28.868  27.752  1.00  0.00     0.029 A 
ATOM     40  N   UNL A   1      40.207  28.797  29.595  1.00  0.00    -0.354 N 
ATOM     41  C   UNL A   1      39.167  31.053  33.111  1.00  0.00     0.074 A 
ATOM     42  C   UNL A   1      37.975  31.843  32.890  1.00  0.00     0.031 C 
ATOM     43  C   UNL A   1      39.991  28.067  27.493  1.00  0.00     0.029 A 
ATOM     44  C   UNL A   1      40.845  28.001  28.675  1.00  0.00     0.049 A 
ATOM     45  H   UNL A   1      40.558  28.961  30.501  1.00  0.00     0.167 HD
ATOM     46  C   UNL A   1      39.871  31.044  34.269  1.00  0.00     0.037 A 
ATOM     47  C   UNL A   1      41.985  27.289  28.772  1.00  0.00     0.037 A 
ATOM     48  C   UNL A   1      41.053  30.250  34.496  1.00  0.00     0.049 A 
ATOM     49  C   UNL A   1      42.745  27.288  30.071  1.00  0.00     0.074 A 
ATOM     50  C   UNL A   1      41.807  30.132  35.652  1.00  0.00     0.029 A 
ATOM     51  N   UNL A   1      41.659  29.443  33.544  1.00  0.00    -0.354 N 
ATOM     52  N   UNL A   1      42.475  27.912  31.191  1.00  0.00    -0.248 NA
ATOM     53  C   UNL A   1      43.963  26.466  30.122  1.00  0.00     0.031 C 
ATOM     54  C   UNL A   1      42.896  29.296  35.384  1.00  0.00     0.029 A 
ATOM     55  C   UNL A   1      42.787  28.840  34.081  1.00  0.00     0.049 A 
ATOM     56  H   UNL A   1      41.335  29.315  32.623  1.00  0.00     0.167 HD
ATOM     57  C   UNL A   1      43.466  27.534  32.088  1.00  0.00     0.074 A 
ATOM     58  C   UNL A   1      44.330  26.608  31.386  1.00  0.00     0.031 C 
ATOM     59  C   UNL A   1      43.642  27.916  33.377  1.00  0.00     0.037 A 
BRANCH  46  60
ATOM     60  C   UNL A   1      39.379  31.918  35.389  1.00  0.00     0.064 A 
ATOM     61  C   UNL A   1      38.505  31.432  36.375  1.00  0.00     0.173 A 
ATOM     62  C   UNL A   1      39.812  33.249  35.502  1.00  0.00     0.173 A 
ATOM     63  F   UNL A   1      38.052  30.170  36.312  1.00  0.00    -0.203 F 
ATOM     64  C   UNL A   1      38.056  32.252  37.407  1.00  0.00     0.198 A 
ATOM     65  C   UNL A   1      39.390  34.056  36.555  1.00  0.00     0.198 A 
ATOM     66  F   UNL A   1      40.654  33.766  34.595  1.00  0.00    -0.203 F 
ATOM     67  F   UNL A   1      37.177  31.780  38.301  1.00  0.00    -0.200 F 
ATOM     68  C   UNL A   1      38.504  33.561  37.501  1.00  0.00     0.200 A 
ATOM     69  F   UNL A   1      39.835  35.316  36.654  1.00  0.00    -0.200 F 
ATOM     70  F   UNL A   1      38.077  34.347  38.498  1.00  0.00    -0.200 F 
ENDBRANCH  46  60
BRANCH  47  71
ATOM     71  C   UNL A   1      42.458  26.478  27.617  1.00  0.00     0.064 A 
ATOM     72  C   UNL A   1      41.949  25.193  27.381  1.00  0.00     0.173 A 
ATOM     73  C   UNL A   1      43.433  26.964  26.733  1.00  0.00     0.173 A 
ATOM     74  F   UNL A   1      41.030  24.674  28.209  1.00  0.00    -0.203 F 
ATOM     75  C   UNL A   1      42.416  24.415  26.323  1.00  0.00     0.198 A 
ATOM     76  C   UNL A   1      43.875  26.199  25.656  1.00  0.00     0.198 A 
ATOM     77  F   UNL A   1      43.949  28.190  26.909  1.00  0.00    -0.203 F 
ATOM     78  F   UNL A   1      41.951  23.169  26.155  1.00  0.00    -0.200 F 
ATOM     79  C   UNL A   1      43.374  24.921  25.459  1.00  0.00     0.200 A 
ATOM     80  F   UNL A   1      44.789  26.696  24.813  1.00  0.00    -0.200 F 
ATOM     81  F   UNL A   1      43.820  24.174  24.440  1.00  0.00    -0.200 F 
ENDBRANCH  47  71
BRANCH  59  82
ATOM     82  C   UNL A   1      44.787  27.296  34.127  1.00  0.00     0.064 A 
ATOM     83  C   UNL A   1      46.058  27.893  34.171  1.00  0.00     0.173 A 
ATOM     84  C   UNL A   1      44.610  26.086  34.815  1.00  0.00     0.173 A 
ATOM     85  F   UNL A   1      46.286  29.045  33.521  1.00  0.00    -0.203 F 
ATOM     86  C   UNL A   1      47.117  27.277  34.834  1.00  0.00     0.198 A 
ATOM     87  C   UNL A   1      45.662  25.493  35.510  1.00  0.00     0.198 A 
ATOM     88  F   UNL A   1      43.416  25.476  34.817  1.00  0.00    -0.203 F 
ATOM     89  F   UNL A   1      48.337  27.830  34.800  1.00  0.00    -0.200 F 
ATOM     90  C   UNL A   1      46.917  26.081  35.506  1.00  0.00     0.200 A 
ATOM     91  F   UNL A   1      45.462  24.346  36.172  1.00  0.00    -0.200 F 
ATOM     92  F   UNL A   1      47.938  25.489  36.141  1.00  0.00    -0.200 F 
ENDBRANCH  59  82
ENDBRANCH  33  34
ENDBRANCH  25  28
ENDBRANCH  23  24
ENDBRANCH   1  23
TORSDOF 13
ENDMDL
MODEL 2
REMARK VINA RESULT:     -13.0      1.801      2.860
REMARK SMILES CC[C@H](C(=O)NCCCCNC(=O)c1ccc(-c2c3nc(c(-c4c(F)c(F)c(F)c(F)c4F)c4ccc([nH]4)c(-c4c(F)c(F)c(F)c(F)c4F)c4nc(c(-c5c(F)c(F)c(F)c(F)c5F)c5ccc2[nH]5)C=C4)C=C3)cc1)C1=CCCc2c(C)ccc(C)c21
REMARK SMILES IDX 9 1 8 2 7 3 6 4 4 5 5 6 3 8 2 9 1 10 77 11 78 12 88 13 79 14
REMARK SMILES IDX 81 15 86 16 80 17 82 18 85 19 87 20 83 21 84 22 10 23 11 24
REMARK SMILES IDX 12 25 13 27 14 28 15 29 76 30 16 31 75 32 17 33 18 34 19 35
REMARK SMILES IDX 69 36 20 37 74 38 68 39 70 40 21 41 73 42 67 43 66 44 22 46
REMARK SMILES IDX 54 47 34 48 53 49 35 50 38 51 52 52 71 53 36 54 37 55 51 57
REMARK SMILES IDX 72 58 39 59 23 60 24 61 32 62 25 63 26 64 30 65 33 66 27 67
REMARK SMILES IDX 28 68 31 69 29 70 55 71 56 72 64 73 57 74 58 75 62 76 65 77
REMARK SMILES IDX 59 78 60 79 63 80 61 81 40 82 41 83 49 84 42 85 43 86 47 87
REMARK SMILES IDX 50 88 44 89 45 90 48 91 46 92
REMARK H PARENT 6 7 11 26 70 45 38 56
REMARK Flexibility Score: inf
ROOT
ATOM      1  C   UNL A   1      31.386  31.972  26.506  1.00  0.00     0.023 C 
ENDROOT
BRANCH   1   2
ATOM      2  C   UNL A   1      31.456  30.451  26.387  1.00  0.00     0.023 C 
BRANCH   2   3
ATOM      3  C   UNL A   1      31.222  29.826  25.007  1.00  0.00     0.116 C 
BRANCH   3   4
ATOM      4  N   UNL A   1      32.370  29.703  24.120  1.00  0.00    -0.356 N 
ATOM      5  C   UNL A   1      33.374  28.775  23.991  1.00  0.00     0.227 C 
ATOM      6  O   UNL A   1      34.088  28.946  22.991  1.00  0.00    -0.274 OA
ATOM      7  H   UNL A   1      32.441  30.443  23.476  1.00  0.00     0.163 HD
BRANCH   5   8
ATOM      8  C   UNL A   1      33.729  27.602  24.988  1.00  0.00     0.108 C 
BRANCH   8   9
ATOM      9  C   UNL A   1      33.826  27.976  26.500  1.00  0.00     0.015 C 
ATOM     10  C   UNL A   1      34.806  29.084  26.903  1.00  0.00     0.005 C 
ENDBRANCH   8   9
BRANCH   8  11
ATOM     11  C   UNL A   1      33.114  26.194  24.774  1.00  0.00    -0.032 C 
ATOM     12  C   UNL A   1      33.554  25.405  23.759  1.00  0.00    -0.022 C 
ATOM     13  C   UNL A   1      32.572  25.268  25.844  1.00  0.00    -0.016 A 
ATOM     14  C   UNL A   1      34.748  24.501  24.143  1.00  0.00     0.032 C 
ATOM     15  C   UNL A   1      33.514  24.249  26.218  1.00  0.00    -0.037 A 
ATOM     16  C   UNL A   1      31.197  25.016  26.039  1.00  0.00    -0.043 A 
ATOM     17  C   UNL A   1      34.921  24.440  25.672  1.00  0.00     0.040 C 
ATOM     18  C   UNL A   1      33.096  22.996  26.711  1.00  0.00    -0.047 A 
ATOM     19  C   UNL A   1      30.799  23.742  26.501  1.00  0.00     0.004 A 
ATOM     20  C   UNL A   1      30.093  25.953  25.637  1.00  0.00     0.045 C 
ATOM     21  C   UNL A   1      34.064  21.866  26.915  1.00  0.00     0.044 C 
ATOM     22  C   UNL A   1      31.728  22.748  26.816  1.00  0.00     0.004 A 
ENDBRANCH   8  11
ENDBRANCH   5   8
ENDBRANCH   3   4
ENDBRANCH   2   3
ENDBRANCH   1   2
BRANCH   1  23
ATOM     23  C   UNL A   1      32.614  32.692  27.060  1.00  0.00     0.116 C 
BRANCH  23  24
ATOM     24  N   UNL A   1      32.348  34.012  27.613  1.00  0.00    -0.352 N 
ATOM     25  C   UNL A   1      33.003  34.735  28.590  1.00  0.00     0.251 C 
ATOM     26  H   UNL A   1      31.567  34.468  27.223  1.00  0.00     0.163 HD
ATOM     27  O   UNL A   1      32.558  35.827  28.924  1.00  0.00    -0.269 OA
BRANCH  25  28
ATOM     28  C   UNL A   1      34.209  34.205  29.281  1.00  0.00     0.039 A 
ATOM     29  C   UNL A   1      34.027  33.370  30.391  1.00  0.00     0.014 A 
ATOM     30  C   UNL A   1      35.507  34.524  28.878  1.00  0.00     0.014 A 
ATOM     31  C   UNL A   1      35.133  32.792  31.026  1.00  0.00     0.010 A 
ATOM     32  C   UNL A   1      36.602  33.872  29.450  1.00  0.00     0.010 A 
ATOM     33  C   UNL A   1      36.431  32.995  30.531  1.00  0.00    -0.014 A 
BRANCH  33  34
ATOM     34  C   UNL A   1      37.597  32.280  31.124  1.00  0.00     0.031 A 
ATOM     35  C   UNL A   1      38.089  32.609  32.510  1.00  0.00     0.074 A 
ATOM     36  C   UNL A   1      38.250  31.351  30.395  1.00  0.00     0.049 A 
ATOM     37  N   UNL A   1      39.078  32.077  33.187  1.00  0.00    -0.248 NA
ATOM     38  C   UNL A   1      37.399  33.696  33.220  1.00  0.00     0.031 C 
ATOM     39  C   UNL A   1      37.927  30.982  29.015  1.00  0.00     0.029 A 
ATOM     40  N   UNL A   1      39.317  30.545  30.710  1.00  0.00    -0.354 N 
ATOM     41  C   UNL A   1      39.129  32.766  34.393  1.00  0.00     0.074 A 
ATOM     42  C   UNL A   1      38.118  33.799  34.328  1.00  0.00     0.031 C 
ATOM     43  C   UNL A   1      38.747  29.996  28.619  1.00  0.00     0.029 A 
ATOM     44  C   UNL A   1      39.677  29.686  29.700  1.00  0.00     0.049 A 
ATOM     45  H   UNL A   1      39.781  30.580  31.578  1.00  0.00     0.167 HD
ATOM     46  C   UNL A   1      39.924  32.544  35.468  1.00  0.00     0.037 A 
ATOM     47  C   UNL A   1      40.642  28.747  29.649  1.00  0.00     0.037 A 
ATOM     48  C   UNL A   1      40.925  31.509  35.540  1.00  0.00     0.049 A 
ATOM     49  C   UNL A   1      41.507  28.513  30.859  1.00  0.00     0.074 A 
ATOM     50  C   UNL A   1      41.744  31.171  36.604  1.00  0.00     0.029 A 
ATOM     51  N   UNL A   1      41.249  30.648  34.501  1.00  0.00    -0.354 N 
ATOM     52  N   UNL A   1      41.486  29.116  32.023  1.00  0.00    -0.248 NA
ATOM     53  C   UNL A   1      42.519  27.454  30.751  1.00  0.00     0.031 C 
ATOM     54  C   UNL A   1      42.598  30.142  36.192  1.00  0.00     0.029 A 
ATOM     55  C   UNL A   1      42.268  29.793  34.893  1.00  0.00     0.049 A 
ATOM     56  H   UNL A   1      40.817  30.643  33.617  1.00  0.00     0.167 HD
ATOM     57  C   UNL A   1      42.455  28.488  32.795  1.00  0.00     0.074 A 
ATOM     58  C   UNL A   1      43.029  27.443  31.974  1.00  0.00     0.031 C 
ATOM     59  C   UNL A   1      42.833  28.752  34.070  1.00  0.00     0.037 A 
BRANCH  46  60
ATOM     60  C   UNL A   1      39.741  33.437  36.664  1.00  0.00     0.064 A 
ATOM     61  C   UNL A   1      40.428  34.655  36.787  1.00  0.00     0.173 A 
ATOM     62  C   UNL A   1      38.842  33.091  37.685  1.00  0.00     0.173 A 
ATOM     63  F   UNL A   1      41.307  35.033  35.846  1.00  0.00    -0.203 F 
ATOM     64  C   UNL A   1      40.250  35.473  37.900  1.00  0.00     0.198 A 
ATOM     65  C   UNL A   1      38.638  33.928  38.779  1.00  0.00     0.198 A 
ATOM     66  F   UNL A   1      38.150  31.943  37.617  1.00  0.00    -0.203 F 
ATOM     67  F   UNL A   1      40.961  36.602  38.021  1.00  0.00    -0.200 F 
ATOM     68  C   UNL A   1      39.350  35.113  38.892  1.00  0.00     0.200 A 
ATOM     69  F   UNL A   1      37.757  33.586  39.729  1.00  0.00    -0.200 F 
ATOM     70  F   UNL A   1      39.173  35.904  39.959  1.00  0.00    -0.200 F 
ENDBRANCH  46  60
BRANCH  47  71
ATOM     71  C   UNL A   1      40.816  27.922  28.423  1.00  0.00     0.064 A 
ATOM     72  C   UNL A   1      40.179  26.680  28.293  1.00  0.00     0.173 A 
ATOM     73  C   UNL A   1      41.629  28.351  27.363  1.00  0.00     0.173 A 
ATOM     74  F   UNL A   1      39.408  26.215  29.288  1.00  0.00    -0.203 F 
ATOM     75  C   UNL A   1      40.370  25.886  27.163  1.00  0.00     0.198 A 
ATOM     76  C   UNL A   1      41.792  27.572  26.220  1.00  0.00     0.198 A 
ATOM     77  F   UNL A   1      42.257  29.534  27.434  1.00  0.00    -0.203 F 
ATOM     78  F   UNL A   1      39.792  24.679  27.090  1.00  0.00    -0.200 F 
ATOM     79  C   UNL A   1      41.171  26.336  26.125  1.00  0.00     0.200 A 
ATOM     80  F   UNL A   1      42.553  28.017  25.211  1.00  0.00    -0.200 F 
ATOM     81  F   UNL A   1      41.351  25.575  25.037  1.00  0.00    -0.200 F 
ENDBRANCH  47  71
BRANCH  59  82
ATOM     82  C   UNL A   1      43.887  27.865  34.672  1.00  0.00     0.064 A 
ATOM     83  C   UNL A   1      45.250  28.197  34.632  1.00  0.00     0.173 A 
ATOM     84  C   UNL A   1      43.525  26.663  35.301  1.00  0.00     0.173 A 
ATOM     85  F   UNL A   1      45.653  29.329  34.034  1.00  0.00    -0.203 F 
ATOM     86  C   UNL A   1      46.213  27.337  35.157  1.00  0.00     0.198 A 
ATOM     87  C   UNL A   1      44.488  25.824  35.857  1.00  0.00     0.198 A 
ATOM     88  F   UNL A   1      42.236  26.299  35.377  1.00  0.00    -0.203 F 
ATOM     89  F   UNL A   1      47.513  27.643  35.041  1.00  0.00    -0.200 F 
ATOM     90  C   UNL A   1      45.831  26.155  35.771  1.00  0.00     0.200 A 
ATOM     91  F   UNL A   1      44.115  24.691  36.466  1.00  0.00    -0.200 F 
ATOM     92  F   UNL A   1      46.759  25.328  36.272  1.00  0.00    -0.200 F 
ENDBRANCH  59  82
ENDBRANCH  33  34
ENDBRANCH  25  28
ENDBRANCH  23  24
ENDBRANCH   1  23
TORSDOF 13
ENDMDL
MODEL 3
REMARK VINA RESULT:     -13.0      1.870      2.965
REMARK SMILES CC[C@H](C(=O)NCCCCNC(=O)c1ccc(-c2c3nc(c(-c4c(F)c(F)c(F)c(F)c4F)c4ccc([nH]4)c(-c4c(F)c(F)c(F)c(F)c4F)c4nc(c(-c5c(F)c(F)c(F)c(F)c5F)c5ccc2[nH]5)C=C4)C=C3)cc1)C1=CCCc2c(C)ccc(C)c21
REMARK SMILES IDX 9 1 8 2 7 3 6 4 4 5 5 6 3 8 2 9 1 10 77 11 78 12 88 13 79 14
REMARK SMILES IDX 81 15 86 16 80 17 82 18 85 19 87 20 83 21 84 22 10 23 11 24
REMARK SMILES IDX 12 25 13 27 14 28 15 29 76 30 16 31 75 32 17 33 18 34 19 35
REMARK SMILES IDX 69 36 20 37 74 38 68 39 70 40 21 41 73 42 67 43 66 44 22 46
REMARK SMILES IDX 54 47 34 48 53 49 35 50 38 51 52 52 71 53 36 54 37 55 51 57
REMARK SMILES IDX 72 58 39 59 23 60 24 61 32 62 25 63 26 64 30 65 33 66 27 67
REMARK SMILES IDX 28 68 31 69 29 70 55 71 56 72 64 73 57 74 58 75 62 76 65 77
REMARK SMILES IDX 59 78 60 79 63 80 61 81 40 82 41 83 49 84 42 85 43 86 47 87
REMARK SMILES IDX 50 88 44 89 45 90 48 91 46 92
REMARK H PARENT 6 7 11 26 70 45 38 56
REMARK Flexibility Score: inf
ROOT
ATOM      1  C   UNL A   1      31.409  31.997  26.509  1.00  0.00     0.023 C 
ENDROOT
BRANCH   1   2
ATOM      2  C   UNL A   1      31.493  30.474  26.428  1.00  0.00     0.023 C 
BRANCH   2   3
ATOM      3  C   UNL A   1      31.265  29.811  25.065  1.00  0.00     0.116 C 
BRANCH   3   4
ATOM      4  N   UNL A   1      32.409  29.692  24.174  1.00  0.00    -0.356 N 
ATOM      5  C   UNL A   1      33.424  28.775  24.050  1.00  0.00     0.227 C 
ATOM      6  O   UNL A   1      34.131  28.943  23.044  1.00  0.00    -0.274 OA
ATOM      7  H   UNL A   1      32.468  30.426  23.521  1.00  0.00     0.163 HD
BRANCH   5   8
ATOM      8  C   UNL A   1      33.798  27.617  25.058  1.00  0.00     0.108 C 
BRANCH   8   9
ATOM      9  C   UNL A   1      33.910  28.012  26.564  1.00  0.00     0.015 C 
ATOM     10  C   UNL A   1      34.946  29.075  26.951  1.00  0.00     0.005 C 
ENDBRANCH   8   9
BRANCH   8  11
ATOM     11  C   UNL A   1      33.188  26.203  24.870  1.00  0.00    -0.032 C 
ATOM     12  C   UNL A   1      33.583  25.423  23.830  1.00  0.00    -0.022 C 
ATOM     13  C   UNL A   1      32.713  25.267  25.962  1.00  0.00    -0.016 A 
ATOM     14  C   UNL A   1      34.806  24.531  24.149  1.00  0.00     0.032 C 
ATOM     15  C   UNL A   1      33.684  24.257  26.284  1.00  0.00    -0.037 A 
ATOM     16  C   UNL A   1      31.352  24.999  26.227  1.00  0.00    -0.043 A 
ATOM     17  C   UNL A   1      35.058  24.467  25.666  1.00  0.00     0.040 C 
ATOM     18  C   UNL A   1      33.306  22.998  26.791  1.00  0.00    -0.047 A 
ATOM     19  C   UNL A   1      30.993  23.719  26.704  1.00  0.00     0.004 A 
ATOM     20  C   UNL A   1      30.218  25.924  25.887  1.00  0.00     0.045 C 
ATOM     21  C   UNL A   1      34.296  21.878  26.941  1.00  0.00     0.044 C 
ATOM     22  C   UNL A   1      31.948  22.735  26.966  1.00  0.00     0.004 A 
ENDBRANCH   8  11
ENDBRANCH   5   8
ENDBRANCH   3   4
ENDBRANCH   2   3
ENDBRANCH   1   2
BRANCH   1  23
ATOM     23  C   UNL A   1      32.625  32.739  27.062  1.00  0.00     0.116 C 
BRANCH  23  24
ATOM     24  N   UNL A   1      32.336  34.059  27.606  1.00  0.00    -0.352 N 
ATOM     25  C   UNL A   1      32.979  34.800  28.578  1.00  0.00     0.251 C 
ATOM     26  H   UNL A   1      31.547  34.498  27.214  1.00  0.00     0.163 HD
ATOM     27  O   UNL A   1      32.514  35.886  28.905  1.00  0.00    -0.269 OA
BRANCH  25  28
ATOM     28  C   UNL A   1      34.194  34.296  29.271  1.00  0.00     0.039 A 
ATOM     29  C   UNL A   1      34.028  33.468  30.389  1.00  0.00     0.014 A 
ATOM     30  C   UNL A   1      35.486  34.632  28.862  1.00  0.00     0.014 A 
ATOM     31  C   UNL A   1      35.144  32.914  31.028  1.00  0.00     0.010 A 
ATOM     32  C   UNL A   1      36.593  34.003  29.438  1.00  0.00     0.010 A 
ATOM     33  C   UNL A   1      36.438  33.134  30.528  1.00  0.00    -0.014 A 
BRANCH  33  34
ATOM     34  C   UNL A   1      37.617  32.443  31.125  1.00  0.00     0.031 A 
ATOM     35  C   UNL A   1      38.133  32.825  32.489  1.00  0.00     0.074 A 
ATOM     36  C   UNL A   1      38.258  31.489  30.420  1.00  0.00     0.049 A 
ATOM     37  N   UNL A   1      39.136  32.320  33.167  1.00  0.00    -0.248 NA
ATOM     38  C   UNL A   1      37.454  33.936  33.170  1.00  0.00     0.031 C 
ATOM     39  C   UNL A   1      37.910  31.069  29.061  1.00  0.00     0.029 A 
ATOM     40  N   UNL A   1      39.332  30.697  30.744  1.00  0.00    -0.354 N 
ATOM     41  C   UNL A   1      39.207  33.054  34.345  1.00  0.00     0.074 A 
ATOM     42  C   UNL A   1      38.193  34.081  34.260  1.00  0.00     0.031 C 
ATOM     43  C   UNL A   1      38.725  30.070  28.686  1.00  0.00     0.029 A 
ATOM     44  C   UNL A   1      39.676  29.802  29.760  1.00  0.00     0.049 A 
ATOM     45  H   UNL A   1      39.812  30.765  31.602  1.00  0.00     0.167 HD
ATOM     46  C   UNL A   1      40.023  32.873  35.412  1.00  0.00     0.037 A 
ATOM     47  C   UNL A   1      40.642  28.864  29.727  1.00  0.00     0.037 A 
ATOM     48  C   UNL A   1      41.028  31.843  35.504  1.00  0.00     0.049 A 
ATOM     49  C   UNL A   1      41.529  28.676  30.928  1.00  0.00     0.074 A 
ATOM     50  C   UNL A   1      41.867  31.546  36.564  1.00  0.00     0.029 A 
ATOM     51  N   UNL A   1      41.334  30.944  34.492  1.00  0.00    -0.354 N 
ATOM     52  N   UNL A   1      41.529  29.322  32.069  1.00  0.00    -0.248 NA
ATOM     53  C   UNL A   1      42.543  27.615  30.841  1.00  0.00     0.031 C 
ATOM     54  C   UNL A   1      42.716  30.505  36.175  1.00  0.00     0.029 A 
ATOM     55  C   UNL A   1      42.363  30.107  34.897  1.00  0.00     0.049 A 
ATOM     56  H   UNL A   1      40.886  30.906  33.616  1.00  0.00     0.167 HD
ATOM     57  C   UNL A   1      42.514  28.725  32.845  1.00  0.00     0.074 A 
ATOM     58  C   UNL A   1      43.075  27.651  32.053  1.00  0.00     0.031 C 
ATOM     59  C   UNL A   1      42.915  29.037  34.103  1.00  0.00     0.037 A 
BRANCH  46  60
ATOM     60  C   UNL A   1      39.860  33.810  36.577  1.00  0.00     0.064 A 
ATOM     61  C   UNL A   1      39.000  33.515  37.646  1.00  0.00     0.173 A 
ATOM     62  C   UNL A   1      40.598  35.002  36.646  1.00  0.00     0.173 A 
ATOM     63  F   UNL A   1      38.262  32.393  37.630  1.00  0.00    -0.203 F 
ATOM     64  C   UNL A   1      38.857  34.391  38.719  1.00  0.00     0.198 A 
ATOM     65  C   UNL A   1      40.481  35.859  37.738  1.00  0.00     0.198 A 
ATOM     66  F   UNL A   1      41.444  35.333  35.658  1.00  0.00    -0.203 F 
ATOM     67  F   UNL A   1      37.986  34.112  39.699  1.00  0.00    -0.200 F 
ATOM     68  C   UNL A   1      39.603  35.558  38.769  1.00  0.00     0.200 A 
ATOM     69  F   UNL A   1      41.214  36.980  37.791  1.00  0.00    -0.200 F 
ATOM     70  F   UNL A   1      39.471  36.398  39.804  1.00  0.00    -0.200 F 
ENDBRANCH  46  60
BRANCH  47  71
ATOM     71  C   UNL A   1      40.795  27.994  28.529  1.00  0.00     0.064 A 
ATOM     72  C   UNL A   1      41.599  28.386  27.449  1.00  0.00     0.173 A 
ATOM     73  C   UNL A   1      40.134  26.760  28.433  1.00  0.00     0.173 A 
ATOM     74  F   UNL A   1      42.235  29.567  27.483  1.00  0.00    -0.203 F 
ATOM     75  C   UNL A   1      41.714  27.593  26.309  1.00  0.00     0.198 A 
ATOM     76  C   UNL A   1      40.277  25.952  27.307  1.00  0.00     0.198 A 
ATOM     77  F   UNL A   1      39.358  26.333  29.440  1.00  0.00    -0.203 F 
ATOM     78  F   UNL A   1      42.446  28.020  25.270  1.00  0.00    -0.200 F 
ATOM     79  C   UNL A   1      41.058  26.374  26.242  1.00  0.00     0.200 A 
ATOM     80  F   UNL A   1      39.656  24.767  27.252  1.00  0.00    -0.200 F 
ATOM     81  F   UNL A   1      41.173  25.610  25.148  1.00  0.00    -0.200 F 
ENDBRANCH  47  71
BRANCH  59  82
ATOM     82  C   UNL A   1      43.982  28.174  34.718  1.00  0.00     0.064 A 
ATOM     83  C   UNL A   1      45.345  28.501  34.630  1.00  0.00     0.173 A 
ATOM     84  C   UNL A   1      43.634  27.002  35.407  1.00  0.00     0.173 A 
ATOM     85  F   UNL A   1      45.734  29.605  33.973  1.00  0.00    -0.203 F 
ATOM     86  C   UNL A   1      46.319  27.664  35.168  1.00  0.00     0.198 A 
ATOM     87  C   UNL A   1      44.609  26.187  35.976  1.00  0.00     0.198 A 
ATOM     88  F   UNL A   1      42.347  26.645  35.530  1.00  0.00    -0.203 F 
ATOM     89  F   UNL A   1      47.616  27.960  35.008  1.00  0.00    -0.200 F 
ATOM     90  C   UNL A   1      45.950  26.510  35.843  1.00  0.00     0.200 A 
ATOM     91  F   UNL A   1      44.249  25.082  36.643  1.00  0.00    -0.200 F 
ATOM     92  F   UNL A   1      46.889  25.704  36.357  1.00  0.00    -0.200 F 
ENDBRANCH  59  82
ENDBRANCH  33  34
ENDBRANCH  25  28
ENDBRANCH  23  24
ENDBRANCH   1  23
TORSDOF 13
ENDMDL
