MODEL 1
REMARK VINA RESULT:     -12.4      0.000      0.000
REMARK SMILES C[C@H]1[C@H](C(=O)NCCCCNC(=O)c2ccc(-c3c4nc(c(-c5c(F)c(F)c(F)c(F)c5F)c5ccc([nH]5)c(-c5c(F)c(F)c(F)c(F)c5F)c5nc(c(-c6c(F)c(F)c(F)c(F)c6F)c6ccc3[nH]6)C=C5)C=C4)cc2)CCN1C(=O)COc1ccccc1F
REMARK SMILES IDX 7 1 6 2 4 3 5 4 3 6 1 7 2 8 79 9 77 10 78 11 80 12 81 13
REMARK SMILES IDX 82 14 83 15 84 16 85 17 89 18 86 19 88 20 90 21 87 22 8 23
REMARK SMILES IDX 9 24 10 25 11 26 12 27 13 29 14 30 15 31 76 32 16 33 75 34
REMARK SMILES IDX 17 35 18 36 19 37 69 38 20 39 74 40 68 41 70 42 21 43 73 44
REMARK SMILES IDX 67 45 66 46 22 48 54 49 34 50 53 51 35 52 38 53 52 54 71 55
REMARK SMILES IDX 36 56 37 57 51 59 72 60 39 61 23 62 24 63 32 64 25 65 26 66
REMARK SMILES IDX 30 67 33 68 27 69 28 70 31 71 29 72 55 73 56 74 64 75 57 76
REMARK SMILES IDX 58 77 62 78 65 79 59 80 60 81 63 82 61 83 40 84 41 85 49 86
REMARK SMILES IDX 42 87 43 88 47 89 50 90 44 91 45 92 48 93 46 94
REMARK H PARENT 6 5 11 28 70 47 38 58
REMARK Flexibility Score: inf
ROOT
ATOM      1  C   UNL A   1      32.487  29.557  27.278  1.00  0.00     0.116 C 
ENDROOT
BRANCH   1   2
ATOM      2  N   UNL A   1      31.808  28.275  27.209  1.00  0.00    -0.356 N 
ATOM      3  C   UNL A   1      31.336  27.572  26.147  1.00  0.00     0.225 C 
ATOM      4  O   UNL A   1      30.758  26.509  26.386  1.00  0.00    -0.275 OA
ATOM      5  H   UNL A   1      31.666  27.842  28.082  1.00  0.00     0.163 HD
BRANCH   3   6
ATOM      6  C   UNL A   1      31.503  28.041  24.712  1.00  0.00     0.102 C 
ATOM      7  C   UNL A   1      33.702  28.600  23.653  1.00  0.00     0.032 C 
ATOM      8  C   UNL A   1      32.755  27.458  24.025  1.00  0.00     0.094 C 
ATOM      9  N   UNL A   1      32.222  26.728  22.871  1.00  0.00    -0.336 N 
ATOM     10  C   UNL A   1      30.299  27.723  23.822  1.00  0.00     0.037 C 
ATOM     11  C   UNL A   1      30.886  27.180  22.536  1.00  0.00     0.121 C 
BRANCH   9  12
ATOM     12  C   UNL A   1      32.735  25.609  22.242  1.00  0.00     0.260 C 
ATOM     13  O   UNL A   1      33.506  25.716  21.282  1.00  0.00    -0.271 OA
BRANCH  12  14
ATOM     14  C   UNL A   1      32.320  24.208  22.709  1.00  0.00     0.329 C 
BRANCH  14  15
ATOM     15  O   UNL A   1      32.816  23.611  23.887  1.00  0.00    -0.481 OA
BRANCH  15  16
ATOM     16  C   UNL A   1      34.149  23.690  24.184  1.00  0.00     0.155 A 
ATOM     17  C   UNL A   1      34.965  22.940  23.329  1.00  0.00     0.049 A 
ATOM     18  C   UNL A   1      34.747  24.317  25.278  1.00  0.00     0.165 A 
ATOM     19  C   UNL A   1      36.337  22.817  23.565  1.00  0.00     0.004 A 
ATOM     20  C   UNL A   1      36.113  24.184  25.531  1.00  0.00     0.043 A 
ATOM     21  F   UNL A   1      34.047  25.026  26.166  1.00  0.00    -0.203 F 
ATOM     22  C   UNL A   1      36.911  23.431  24.676  1.00  0.00     0.003 A 
ENDBRANCH  15  16
ENDBRANCH  14  15
ENDBRANCH  12  14
ENDBRANCH   9  12
ENDBRANCH   3   6
ENDBRANCH   1   2
BRANCH   1  23
ATOM     23  C   UNL A   1      31.881  30.569  26.311  1.00  0.00     0.023 C 
BRANCH  23  24
ATOM     24  C   UNL A   1      31.552  31.921  26.941  1.00  0.00     0.023 C 
BRANCH  24  25
ATOM     25  C   UNL A   1      32.763  32.764  27.321  1.00  0.00     0.116 C 
BRANCH  25  26
ATOM     26  N   UNL A   1      32.426  34.144  27.633  1.00  0.00    -0.352 N 
ATOM     27  C   UNL A   1      32.981  34.968  28.581  1.00  0.00     0.251 C 
ATOM     28  H   UNL A   1      31.703  34.540  27.094  1.00  0.00     0.163 HD
ATOM     29  O   UNL A   1      32.503  36.075  28.809  1.00  0.00    -0.269 OA
BRANCH  27  30
ATOM     30  C   UNL A   1      34.143  34.492  29.357  1.00  0.00     0.039 A 
ATOM     31  C   UNL A   1      33.920  33.831  30.567  1.00  0.00     0.014 A 
ATOM     32  C   UNL A   1      35.441  34.656  28.867  1.00  0.00     0.014 A 
ATOM     33  C   UNL A   1      34.999  33.271  31.254  1.00  0.00     0.010 A 
ATOM     34  C   UNL A   1      36.504  34.032  29.512  1.00  0.00     0.010 A 
ATOM     35  C   UNL A   1      36.292  33.333  30.710  1.00  0.00    -0.014 A 
BRANCH  35  36
ATOM     36  C   UNL A   1      37.438  32.667  31.378  1.00  0.00     0.031 A 
ATOM     37  C   UNL A   1      38.122  31.505  30.718  1.00  0.00     0.074 A 
ATOM     38  C   UNL A   1      37.813  33.066  32.609  1.00  0.00     0.049 A 
ATOM     39  N   UNL A   1      39.092  30.750  31.170  1.00  0.00    -0.248 NA
ATOM     40  C   UNL A   1      37.632  31.120  29.385  1.00  0.00     0.031 C 
ATOM     41  C   UNL A   1      37.191  34.148  33.375  1.00  0.00     0.029 A 
ATOM     42  N   UNL A   1      38.804  32.601  33.437  1.00  0.00    -0.354 N 
ATOM     43  C   UNL A   1      39.315  29.796  30.185  1.00  0.00     0.074 A 
ATOM     44  C   UNL A   1      38.345  30.031  29.139  1.00  0.00     0.031 C 
ATOM     45  C   UNL A   1      37.828  34.277  34.550  1.00  0.00     0.029 A 
ATOM     46  C   UNL A   1      38.879  33.267  34.636  1.00  0.00     0.049 A 
ATOM     47  H   UNL A   1      39.405  31.859  33.195  1.00  0.00     0.167 HD
ATOM     48  C   UNL A   1      40.262  28.828  30.148  1.00  0.00     0.037 A 
ATOM     49  C   UNL A   1      39.697  33.079  35.688  1.00  0.00     0.037 A 
ATOM     50  C   UNL A   1      41.242  28.615  31.179  1.00  0.00     0.049 A 
ATOM     51  C   UNL A   1      40.741  31.996  35.619  1.00  0.00     0.074 A 
ATOM     52  C   UNL A   1      42.283  27.705  31.206  1.00  0.00     0.029 A 
ATOM     53  N   UNL A   1      41.300  29.325  32.371  1.00  0.00    -0.354 N 
ATOM     54  N   UNL A   1      40.992  31.148  34.653  1.00  0.00    -0.248 NA
ATOM     55  C   UNL A   1      41.620  31.850  36.789  1.00  0.00     0.031 C 
ATOM     56  C   UNL A   1      42.943  27.832  32.433  1.00  0.00     0.029 A 
ATOM     57  C   UNL A   1      42.347  28.856  33.149  1.00  0.00     0.049 A 
ATOM     58  H   UNL A   1      40.689  30.053  32.625  1.00  0.00     0.167 HD
ATOM     59  C   UNL A   1      42.071  30.388  35.081  1.00  0.00     0.074 A 
ATOM     60  C   UNL A   1      42.438  30.886  36.390  1.00  0.00     0.031 C 
ATOM     61  C   UNL A   1      42.702  29.369  34.447  1.00  0.00     0.037 A 
BRANCH  48  62
ATOM     62  C   UNL A   1      40.285  27.928  28.946  1.00  0.00     0.064 A 
ATOM     63  C   UNL A   1      41.021  28.254  27.798  1.00  0.00     0.173 A 
ATOM     64  C   UNL A   1      39.590  26.709  28.956  1.00  0.00     0.173 A 
ATOM     65  F   UNL A   1      41.693  29.413  27.732  1.00  0.00    -0.203 F 
ATOM     66  C   UNL A   1      41.036  27.409  26.691  1.00  0.00     0.198 A 
ATOM     67  C   UNL A   1      39.633  25.851  27.859  1.00  0.00     0.198 A 
ATOM     68  F   UNL A   1      38.875  26.346  30.031  1.00  0.00    -0.203 F 
ATOM     69  F   UNL A   1      41.705  27.766  25.586  1.00  0.00    -0.200 F 
ATOM     70  C   UNL A   1      40.349  26.205  26.726  1.00  0.00     0.200 A 
ATOM     71  F   UNL A   1      38.979  24.682  27.900  1.00  0.00    -0.200 F 
ATOM     72  F   UNL A   1      40.370  25.389  25.664  1.00  0.00    -0.200 F 
ENDBRANCH  48  62
BRANCH  49  73
ATOM     73  C   UNL A   1      39.583  33.951  36.885  1.00  0.00     0.064 A 
ATOM     74  C   UNL A   1      38.819  33.557  37.992  1.00  0.00     0.173 A 
ATOM     75  C   UNL A   1      40.228  35.194  36.948  1.00  0.00     0.173 A 
ATOM     76  F   UNL A   1      38.166  32.385  37.971  1.00  0.00    -0.203 F 
ATOM     77  C   UNL A   1      38.686  34.381  39.106  1.00  0.00     0.198 A 
ATOM     78  C   UNL A   1      40.118  36.006  38.075  1.00  0.00     0.198 A 
ATOM     79  F   UNL A   1      40.978  35.616  35.919  1.00  0.00    -0.203 F 
ATOM     80  F   UNL A   1      37.910  33.999  40.131  1.00  0.00    -0.200 F 
ATOM     81  C   UNL A   1      39.340  35.603  39.150  1.00  0.00     0.200 A 
ATOM     82  F   UNL A   1      40.764  37.180  38.120  1.00  0.00    -0.200 F 
ATOM     83  F   UNL A   1      39.214  36.395  40.224  1.00  0.00    -0.200 F 
ENDBRANCH  49  73
BRANCH  61  84
ATOM     84  C   UNL A   1      43.875  28.746  35.147  1.00  0.00     0.064 A 
ATOM     85  C   UNL A   1      43.724  27.643  35.998  1.00  0.00     0.173 A 
ATOM     86  C   UNL A   1      45.172  29.236  34.928  1.00  0.00     0.173 A 
ATOM     87  F   UNL A   1      42.504  27.147  36.251  1.00  0.00    -0.203 F 
ATOM     88  C   UNL A   1      44.826  27.068  36.626  1.00  0.00     0.198 A 
ATOM     89  C   UNL A   1      46.275  28.640  35.533  1.00  0.00     0.198 A 
ATOM     90  F   UNL A   1      45.371  30.285  34.117  1.00  0.00    -0.203 F 
ATOM     91  F   UNL A   1      44.653  26.044  37.474  1.00  0.00    -0.200 F 
ATOM     92  C   UNL A   1      46.100  27.561  36.387  1.00  0.00     0.200 A 
ATOM     93  F   UNL A   1      47.506  29.109  35.291  1.00  0.00    -0.200 F 
ATOM     94  F   UNL A   1      47.160  27.002  36.986  1.00  0.00    -0.200 F 
ENDBRANCH  61  84
ENDBRANCH  35  36
ENDBRANCH  27  30
ENDBRANCH  25  26
ENDBRANCH  24  25
ENDBRANCH  23  24
ENDBRANCH   1  23
TORSDOF 15
ENDMDL
MODEL 2
REMARK VINA RESULT:     -12.4      1.393      3.299
REMARK SMILES C[C@H]1[C@H](C(=O)NCCCCNC(=O)c2ccc(-c3c4nc(c(-c5c(F)c(F)c(F)c(F)c5F)c5ccc([nH]5)c(-c5c(F)c(F)c(F)c(F)c5F)c5nc(c(-c6c(F)c(F)c(F)c(F)c6F)c6ccc3[nH]6)C=C5)C=C4)cc2)CCN1C(=O)COc1ccccc1F
REMARK SMILES IDX 7 1 6 2 4 3 5 4 3 6 1 7 2 8 79 9 77 10 78 11 80 12 81 13
REMARK SMILES IDX 82 14 83 15 84 16 85 17 89 18 86 19 88 20 90 21 87 22 8 23
REMARK SMILES IDX 9 24 10 25 11 26 12 27 13 29 14 30 15 31 76 32 16 33 75 34
REMARK SMILES IDX 17 35 18 36 19 37 69 38 20 39 74 40 68 41 70 42 21 43 73 44
REMARK SMILES IDX 67 45 66 46 22 48 54 49 34 50 53 51 35 52 38 53 52 54 71 55
REMARK SMILES IDX 36 56 37 57 51 59 72 60 39 61 23 62 24 63 32 64 25 65 26 66
REMARK SMILES IDX 30 67 33 68 27 69 28 70 31 71 29 72 55 73 56 74 64 75 57 76
REMARK SMILES IDX 58 77 62 78 65 79 59 80 60 81 63 82 61 83 40 84 41 85 49 86
REMARK SMILES IDX 42 87 43 88 47 89 50 90 44 91 45 92 48 93 46 94
REMARK H PARENT 6 5 11 28 70 47 38 58
REMARK Flexibility Score: inf
ROOT
ATOM      1  C   UNL A   1      33.126  29.882  26.367  1.00  0.00     0.116 C 
ENDROOT
BRANCH   1   2
ATOM      2  N   UNL A   1      33.241  29.855  24.920  1.00  0.00    -0.356 N 
ATOM      3  C   UNL A   1      33.365  28.815  24.054  1.00  0.00     0.225 C 
ATOM      4  O   UNL A   1      33.482  29.089  22.857  1.00  0.00    -0.275 OA
ATOM      5  H   UNL A   1      33.224  30.742  24.494  1.00  0.00     0.163 HD
BRANCH   3   6
ATOM      6  C   UNL A   1      33.358  27.365  24.505  1.00  0.00     0.102 C 
ATOM      7  C   UNL A   1      32.191  26.529  26.557  1.00  0.00     0.032 C 
ATOM      8  C   UNL A   1      32.002  26.919  25.090  1.00  0.00     0.094 C 
ATOM      9  N   UNL A   1      31.589  25.808  24.227  1.00  0.00    -0.336 N 
ATOM     10  C   UNL A   1      33.728  26.379  23.396  1.00  0.00     0.037 C 
ATOM     11  C   UNL A   1      32.720  25.255  23.508  1.00  0.00     0.121 C 
BRANCH   9  12
ATOM     12  C   UNL A   1      30.312  25.393  23.901  1.00  0.00     0.260 C 
ATOM     13  O   UNL A   1      30.125  24.354  23.258  1.00  0.00    -0.271 OA
BRANCH  12  14
ATOM     14  C   UNL A   1      29.102  26.245  24.305  1.00  0.00     0.329 C 
BRANCH  14  15
ATOM     15  O   UNL A   1      28.304  26.940  23.372  1.00  0.00    -0.481 OA
BRANCH  15  16
ATOM     16  C   UNL A   1      28.598  28.237  23.054  1.00  0.00     0.155 A 
ATOM     17  C   UNL A   1      27.559  29.136  23.325  1.00  0.00     0.049 A 
ATOM     18  C   UNL A   1      29.732  28.722  22.403  1.00  0.00     0.165 A 
ATOM     19  C   UNL A   1      27.653  30.480  22.949  1.00  0.00     0.004 A 
ATOM     20  C   UNL A   1      29.825  30.058  22.009  1.00  0.00     0.043 A 
ATOM     21  F   UNL A   1      30.759  27.936  22.074  1.00  0.00    -0.203 F 
ATOM     22  C   UNL A   1      28.784  30.940  22.280  1.00  0.00     0.003 A 
ENDBRANCH  15  16
ENDBRANCH  14  15
ENDBRANCH  12  14
ENDBRANCH   9  12
ENDBRANCH   3   6
ENDBRANCH   1   2
BRANCH   1  23
ATOM     23  C   UNL A   1      31.785  30.453  26.816  1.00  0.00     0.023 C 
BRANCH  23  24
ATOM     24  C   UNL A   1      31.673  31.970  26.684  1.00  0.00     0.023 C 
BRANCH  24  25
ATOM     25  C   UNL A   1      32.810  32.757  27.325  1.00  0.00     0.116 C 
BRANCH  25  26
ATOM     26  N   UNL A   1      32.449  34.130  27.642  1.00  0.00    -0.352 N 
ATOM     27  C   UNL A   1      32.986  34.958  28.597  1.00  0.00     0.251 C 
ATOM     28  H   UNL A   1      31.723  34.518  27.100  1.00  0.00     0.163 HD
ATOM     29  O   UNL A   1      32.489  36.056  28.827  1.00  0.00    -0.269 OA
BRANCH  27  30
ATOM     30  C   UNL A   1      34.151  34.496  29.377  1.00  0.00     0.039 A 
ATOM     31  C   UNL A   1      33.935  33.903  30.623  1.00  0.00     0.014 A 
ATOM     32  C   UNL A   1      35.444  34.606  28.858  1.00  0.00     0.014 A 
ATOM     33  C   UNL A   1      35.013  33.355  31.319  1.00  0.00     0.010 A 
ATOM     34  C   UNL A   1      36.504  33.992  29.516  1.00  0.00     0.010 A 
ATOM     35  C   UNL A   1      36.298  33.360  30.752  1.00  0.00    -0.014 A 
BRANCH  35  36
ATOM     36  C   UNL A   1      37.440  32.703  31.435  1.00  0.00     0.031 A 
ATOM     37  C   UNL A   1      38.149  31.554  30.779  1.00  0.00     0.074 A 
ATOM     38  C   UNL A   1      37.791  33.098  32.674  1.00  0.00     0.049 A 
ATOM     39  N   UNL A   1      39.121  30.807  31.241  1.00  0.00    -0.248 NA
ATOM     40  C   UNL A   1      37.686  31.172  29.435  1.00  0.00     0.031 C 
ATOM     41  C   UNL A   1      37.143  34.167  33.437  1.00  0.00     0.029 A 
ATOM     42  N   UNL A   1      38.774  32.639  33.515  1.00  0.00    -0.354 N 
ATOM     43  C   UNL A   1      39.371  29.863  30.254  1.00  0.00     0.074 A 
ATOM     44  C   UNL A   1      38.416  30.093  29.194  1.00  0.00     0.031 C 
ATOM     45  C   UNL A   1      37.759  34.297  34.623  1.00  0.00     0.029 A 
ATOM     46  C   UNL A   1      38.820  33.298  34.719  1.00  0.00     0.049 A 
ATOM     47  H   UNL A   1      39.387  31.907  33.278  1.00  0.00     0.167 HD
ATOM     48  C   UNL A   1      40.331  28.907  30.226  1.00  0.00     0.037 A 
ATOM     49  C   UNL A   1      39.624  33.113  35.784  1.00  0.00     0.037 A 
ATOM     50  C   UNL A   1      41.296  28.699  31.272  1.00  0.00     0.049 A 
ATOM     51  C   UNL A   1      40.682  32.043  35.725  1.00  0.00     0.074 A 
ATOM     52  C   UNL A   1      42.348  27.801  31.310  1.00  0.00     0.029 A 
ATOM     53  N   UNL A   1      41.326  29.401  32.469  1.00  0.00    -0.354 N 
ATOM     54  N   UNL A   1      40.958  31.205  34.757  1.00  0.00    -0.248 NA
ATOM     55  C   UNL A   1      41.543  31.900  36.908  1.00  0.00     0.031 C 
ATOM     56  C   UNL A   1      42.986  27.927  32.548  1.00  0.00     0.029 A 
ATOM     57  C   UNL A   1      42.365  28.940  33.261  1.00  0.00     0.049 A 
ATOM     58  H   UNL A   1      40.702  30.120  32.718  1.00  0.00     0.167 HD
ATOM     59  C   UNL A   1      42.040  30.455  35.198  1.00  0.00     0.074 A 
ATOM     60  C   UNL A   1      42.379  30.949  36.517  1.00  0.00     0.031 C 
ATOM     61  C   UNL A   1      42.693  29.448  34.568  1.00  0.00     0.037 A 
BRANCH  48  62
ATOM     62  C   UNL A   1      40.384  28.015  29.019  1.00  0.00     0.064 A 
ATOM     63  C   UNL A   1      39.670  26.809  28.964  1.00  0.00     0.173 A 
ATOM     64  C   UNL A   1      41.132  28.387  27.891  1.00  0.00     0.173 A 
ATOM     65  F   UNL A   1      38.950  26.402  30.020  1.00  0.00    -0.203 F 
ATOM     66  C   UNL A   1      39.726  25.993  27.837  1.00  0.00     0.198 A 
ATOM     67  C   UNL A   1      41.161  27.583  26.755  1.00  0.00     0.198 A 
ATOM     68  F   UNL A   1      41.830  29.532  27.889  1.00  0.00    -0.203 F 
ATOM     69  F   UNL A   1      39.077  24.821  27.828  1.00  0.00    -0.200 F 
ATOM     70  C   UNL A   1      40.465  26.384  26.731  1.00  0.00     0.200 A 
ATOM     71  F   UNL A   1      41.866  27.969  25.681  1.00  0.00    -0.200 F 
ATOM     72  F   UNL A   1      40.513  25.601  25.644  1.00  0.00    -0.200 F 
ENDBRANCH  48  62
BRANCH  49  73
ATOM     73  C   UNL A   1      39.480  33.976  36.984  1.00  0.00     0.064 A 
ATOM     74  C   UNL A   1      40.075  35.244  37.034  1.00  0.00     0.173 A 
ATOM     75  C   UNL A   1      38.751  33.554  38.105  1.00  0.00     0.173 A 
ATOM     76  F   UNL A   1      40.800  35.684  35.994  1.00  0.00    -0.203 F 
ATOM     77  C   UNL A   1      39.967  36.048  38.166  1.00  0.00     0.198 A 
ATOM     78  C   UNL A   1      38.618  34.370  39.227  1.00  0.00     0.198 A 
ATOM     79  F   UNL A   1      38.156  32.352  38.106  1.00  0.00    -0.203 F 
ATOM     80  F   UNL A   1      40.586  37.236  38.204  1.00  0.00    -0.200 F 
ATOM     81  C   UNL A   1      39.234  35.613  39.260  1.00  0.00     0.200 A 
ATOM     82  F   UNL A   1      37.897  33.953  40.276  1.00  0.00    -0.200 F 
ATOM     83  F   UNL A   1      39.126  36.387  40.348  1.00  0.00    -0.200 F 
ENDBRANCH  49  73
BRANCH  61  84
ATOM     84  C   UNL A   1      43.862  28.835  35.283  1.00  0.00     0.064 A 
ATOM     85  C   UNL A   1      43.694  27.810  36.225  1.00  0.00     0.173 A 
ATOM     86  C   UNL A   1      45.170  29.251  34.990  1.00  0.00     0.173 A 
ATOM     87  F   UNL A   1      42.464  27.387  36.550  1.00  0.00    -0.203 F 
ATOM     88  C   UNL A   1      44.792  27.241  36.866  1.00  0.00     0.198 A 
ATOM     89  C   UNL A   1      46.267  28.660  35.610  1.00  0.00     0.198 A 
ATOM     90  F   UNL A   1      45.385  30.223  34.091  1.00  0.00    -0.203 F 
ATOM     91  F   UNL A   1      44.605  26.296  37.798  1.00  0.00    -0.200 F 
ATOM     92  C   UNL A   1      46.077  27.661  36.553  1.00  0.00     0.200 A 
ATOM     93  F   UNL A   1      47.507  29.056  35.296  1.00  0.00    -0.200 F 
ATOM     94  F   UNL A   1      47.131  27.107  37.166  1.00  0.00    -0.200 F 
ENDBRANCH  61  84
ENDBRANCH  35  36
ENDBRANCH  27  30
ENDBRANCH  25  26
ENDBRANCH  24  25
ENDBRANCH  23  24
ENDBRANCH   1  23
TORSDOF 15
ENDMDL
MODEL 3
REMARK VINA RESULT:     -12.3      5.662     11.130
REMARK SMILES C[C@H]1[C@H](C(=O)NCCCCNC(=O)c2ccc(-c3c4nc(c(-c5c(F)c(F)c(F)c(F)c5F)c5ccc([nH]5)c(-c5c(F)c(F)c(F)c(F)c5F)c5nc(c(-c6c(F)c(F)c(F)c(F)c6F)c6ccc3[nH]6)C=C5)C=C4)cc2)CCN1C(=O)COc1ccccc1F
REMARK SMILES IDX 7 1 6 2 4 3 5 4 3 6 1 7 2 8 79 9 77 10 78 11 80 12 81 13
REMARK SMILES IDX 82 14 83 15 84 16 85 17 89 18 86 19 88 20 90 21 87 22 8 23
REMARK SMILES IDX 9 24 10 25 11 26 12 27 13 29 14 30 15 31 76 32 16 33 75 34
REMARK SMILES IDX 17 35 18 36 19 37 69 38 20 39 74 40 68 41 70 42 21 43 73 44
REMARK SMILES IDX 67 45 66 46 22 48 54 49 34 50 53 51 35 52 38 53 52 54 71 55
REMARK SMILES IDX 36 56 37 57 51 59 72 60 39 61 23 62 24 63 32 64 25 65 26 66
REMARK SMILES IDX 30 67 33 68 27 69 28 70 31 71 29 72 55 73 56 74 64 75 57 76
REMARK SMILES IDX 58 77 62 78 65 79 59 80 60 81 63 82 61 83 40 84 41 85 49 86
REMARK SMILES IDX 42 87 43 88 47 89 50 90 44 91 45 92 48 93 46 94
REMARK H PARENT 6 5 11 28 70 47 38 58
REMARK Flexibility Score: inf
ROOT
ATOM      1  C   UNL A   1      37.249  22.282  25.306  1.00  0.00     0.116 C 
ENDROOT
BRANCH   1   2
ATOM      2  N   UNL A   1      36.354  23.148  24.558  1.00  0.00    -0.356 N 
ATOM      3  C   UNL A   1      35.001  23.137  24.434  1.00  0.00     0.225 C 
ATOM      4  O   UNL A   1      34.497  23.984  23.691  1.00  0.00    -0.275 OA
ATOM      5  H   UNL A   1      36.805  23.865  24.058  1.00  0.00     0.163 HD
BRANCH   3   6
ATOM      6  C   UNL A   1      34.116  22.146  25.168  1.00  0.00     0.102 C 
ATOM      7  C   UNL A   1      33.959  21.967  27.661  1.00  0.00     0.032 C 
ATOM      8  C   UNL A   1      33.464  22.737  26.435  1.00  0.00     0.094 C 
ATOM      9  N   UNL A   1      32.025  22.606  26.191  1.00  0.00    -0.336 N 
ATOM     10  C   UNL A   1      32.995  21.569  24.301  1.00  0.00     0.037 C 
ATOM     11  C   UNL A   1      31.755  21.616  25.168  1.00  0.00     0.121 C 
BRANCH   9  12
ATOM     12  C   UNL A   1      30.993  23.401  26.652  1.00  0.00     0.260 C 
ATOM     13  O   UNL A   1      30.217  22.995  27.525  1.00  0.00    -0.271 OA
BRANCH  12  14
ATOM     14  C   UNL A   1      30.773  24.796  26.054  1.00  0.00     0.329 C 
BRANCH  14  15
ATOM     15  O   UNL A   1      30.760  25.974  26.831  1.00  0.00    -0.481 OA
BRANCH  15  16
ATOM     16  C   UNL A   1      31.764  26.891  26.698  1.00  0.00     0.155 A 
ATOM     17  C   UNL A   1      32.846  26.439  25.932  1.00  0.00     0.049 A 
ATOM     18  C   UNL A   1      31.875  28.136  27.318  1.00  0.00     0.165 A 
ATOM     19  C   UNL A   1      34.006  27.209  25.797  1.00  0.00     0.004 A 
ATOM     20  C   UNL A   1      33.036  28.902  27.203  1.00  0.00     0.043 A 
ATOM     21  F   UNL A   1      30.911  28.637  28.093  1.00  0.00    -0.203 F 
ATOM     22  C   UNL A   1      34.105  28.439  26.443  1.00  0.00     0.003 A 
ENDBRANCH  15  16
ENDBRANCH  14  15
ENDBRANCH  12  14
ENDBRANCH   9  12
ENDBRANCH   3   6
ENDBRANCH   1   2
BRANCH   1  23
ATOM     23  C   UNL A   1      36.911  20.809  25.099  1.00  0.00     0.023 C 
BRANCH  23  24
ATOM     24  C   UNL A   1      38.126  19.910  24.884  1.00  0.00     0.023 C 
BRANCH  24  25
ATOM     25  C   UNL A   1      39.326  20.228  25.768  1.00  0.00     0.116 C 
BRANCH  25  26
ATOM     26  N   UNL A   1      40.261  19.120  25.886  1.00  0.00    -0.352 N 
ATOM     27  C   UNL A   1      41.609  19.161  26.146  1.00  0.00     0.251 C 
ATOM     28  H   UNL A   1      39.877  18.222  25.763  1.00  0.00     0.163 HD
ATOM     29  O   UNL A   1      42.289  18.142  26.094  1.00  0.00    -0.269 OA
BRANCH  27  30
ATOM     30  C   UNL A   1      42.243  20.458  26.453  1.00  0.00     0.039 A 
ATOM     31  C   UNL A   1      42.791  21.205  25.408  1.00  0.00     0.014 A 
ATOM     32  C   UNL A   1      42.254  20.953  27.761  1.00  0.00     0.014 A 
ATOM     33  C   UNL A   1      43.288  22.484  25.663  1.00  0.00     0.010 A 
ATOM     34  C   UNL A   1      42.679  22.256  27.999  1.00  0.00     0.010 A 
ATOM     35  C   UNL A   1      43.198  23.033  26.952  1.00  0.00    -0.014 A 
BRANCH  35  36
ATOM     36  C   UNL A   1      43.638  24.424  27.226  1.00  0.00     0.031 A 
ATOM     37  C   UNL A   1      42.657  25.434  27.749  1.00  0.00     0.074 A 
ATOM     38  C   UNL A   1      44.901  24.791  26.936  1.00  0.00     0.049 A 
ATOM     39  N   UNL A   1      42.830  26.711  27.985  1.00  0.00    -0.248 NA
ATOM     40  C   UNL A   1      41.292  24.954  28.015  1.00  0.00     0.031 C 
ATOM     41  C   UNL A   1      45.930  23.914  26.374  1.00  0.00     0.029 A 
ATOM     42  N   UNL A   1      45.532  26.003  27.066  1.00  0.00    -0.354 N 
ATOM     43  C   UNL A   1      41.596  27.185  28.410  1.00  0.00     0.074 A 
ATOM     44  C   UNL A   1      40.671  26.075  28.348  1.00  0.00     0.031 C 
ATOM     45  C   UNL A   1      47.069  24.610  26.228  1.00  0.00     0.029 A 
ATOM     46  C   UNL A   1      46.842  25.989  26.651  1.00  0.00     0.049 A 
ATOM     47  H   UNL A   1      45.089  26.806  27.422  1.00  0.00     0.167 HD
ATOM     48  C   UNL A   1      41.272  28.428  28.839  1.00  0.00     0.037 A 
ATOM     49  C   UNL A   1      47.754  26.978  26.611  1.00  0.00     0.037 A 
ATOM     50  C   UNL A   1      42.203  29.521  28.925  1.00  0.00     0.049 A 
ATOM     51  C   UNL A   1      47.367  28.351  27.095  1.00  0.00     0.074 A 
ATOM     52  C   UNL A   1      41.990  30.801  29.407  1.00  0.00     0.029 A 
ATOM     53  N   UNL A   1      43.528  29.463  28.516  1.00  0.00    -0.354 N 
ATOM     54  N   UNL A   1      46.219  28.769  27.565  1.00  0.00    -0.248 NA
ATOM     55  C   UNL A   1      48.410  29.386  27.046  1.00  0.00     0.031 C 
ATOM     56  C   UNL A   1      43.173  31.530  29.248  1.00  0.00     0.029 A 
ATOM     57  C   UNL A   1      44.138  30.692  28.716  1.00  0.00     0.049 A 
ATOM     58  H   UNL A   1      43.970  28.668  28.142  1.00  0.00     0.167 HD
ATOM     59  C   UNL A   1      46.405  30.104  27.895  1.00  0.00     0.074 A 
ATOM     60  C   UNL A   1      47.783  30.422  27.585  1.00  0.00     0.031 C 
ATOM     61  C   UNL A   1      45.514  30.989  28.408  1.00  0.00     0.037 A 
BRANCH  48  62
ATOM     62  C   UNL A   1      39.850  28.669  29.254  1.00  0.00     0.064 A 
ATOM     63  C   UNL A   1      39.417  28.433  30.567  1.00  0.00     0.173 A 
ATOM     64  C   UNL A   1      38.916  29.174  28.336  1.00  0.00     0.173 A 
ATOM     65  F   UNL A   1      40.266  27.939  31.480  1.00  0.00    -0.203 F 
ATOM     66  C   UNL A   1      38.095  28.664  30.940  1.00  0.00     0.198 A 
ATOM     67  C   UNL A   1      37.602  29.433  28.720  1.00  0.00     0.198 A 
ATOM     68  F   UNL A   1      39.278  29.422  27.069  1.00  0.00    -0.203 F 
ATOM     69  F   UNL A   1      37.693  28.382  32.187  1.00  0.00    -0.200 F 
ATOM     70  C   UNL A   1      37.191  29.170  30.018  1.00  0.00     0.200 A 
ATOM     71  F   UNL A   1      36.733  29.935  27.831  1.00  0.00    -0.200 F 
ATOM     72  F   UNL A   1      35.921  29.399  30.379  1.00  0.00    -0.200 F 
ENDBRANCH  48  62
BRANCH  49  73
ATOM     73  C   UNL A   1      49.130  26.703  26.121  1.00  0.00     0.064 A 
ATOM     74  C   UNL A   1      49.493  26.994  24.799  1.00  0.00     0.173 A 
ATOM     75  C   UNL A   1      50.105  26.142  26.957  1.00  0.00     0.173 A 
ATOM     76  F   UNL A   1      48.588  27.513  23.955  1.00  0.00    -0.203 F 
ATOM     77  C   UNL A   1      50.772  26.715  24.325  1.00  0.00     0.198 A 
ATOM     78  C   UNL A   1      51.394  25.889  26.491  1.00  0.00     0.198 A 
ATOM     79  F   UNL A   1      49.811  25.851  28.233  1.00  0.00    -0.203 F 
ATOM     80  F   UNL A   1      51.078  26.959  23.044  1.00  0.00    -0.200 F 
ATOM     81  C   UNL A   1      51.724  26.167  25.173  1.00  0.00     0.200 A 
ATOM     82  F   UNL A   1      52.315  25.373  27.317  1.00  0.00    -0.200 F 
ATOM     83  F   UNL A   1      52.956  25.901  24.718  1.00  0.00    -0.200 F 
ENDBRANCH  49  73
BRANCH  61  84
ATOM     84  C   UNL A   1      46.011  32.375  28.698  1.00  0.00     0.064 A 
ATOM     85  C   UNL A   1      46.592  32.705  29.930  1.00  0.00     0.173 A 
ATOM     86  C   UNL A   1      45.941  33.373  27.714  1.00  0.00     0.173 A 
ATOM     87  F   UNL A   1      46.668  31.791  30.908  1.00  0.00    -0.203 F 
ATOM     88  C   UNL A   1      47.063  33.993  30.176  1.00  0.00     0.198 A 
ATOM     89  C   UNL A   1      46.440  34.650  27.952  1.00  0.00     0.198 A 
ATOM     90  F   UNL A   1      45.401  33.106  26.516  1.00  0.00    -0.203 F 
ATOM     91  F   UNL A   1      47.572  34.300  31.378  1.00  0.00    -0.200 F 
ATOM     92  C   UNL A   1      46.994  34.962  29.185  1.00  0.00     0.200 A 
ATOM     93  F   UNL A   1      46.386  35.581  26.989  1.00  0.00    -0.200 F 
ATOM     94  F   UNL A   1      47.455  36.197  29.421  1.00  0.00    -0.200 F 
ENDBRANCH  61  84
ENDBRANCH  35  36
ENDBRANCH  27  30
ENDBRANCH  25  26
ENDBRANCH  24  25
ENDBRANCH  23  24
ENDBRANCH   1  23
TORSDOF 15
ENDMDL
