MODEL 1
REMARK VINA RESULT:     -11.4      0.000      0.000
REMARK SMILES [NH3+][C@@H](CC(=O)NCCCCNC(=O)c1ccc(-c2c3nc(c(-c4c(F)c(F)c(F)c(F)c4F)c4ccc([nH]4)c(-c4c(F)c(F)c(F)c(F)c4F)c4nc(c(-c5c(F)c(F)c(F)c(F)c5F)c5ccc2[nH]5)C=C4)C=C3)cc1)Cc1ccc(F)cc1
REMARK SMILES IDX 8 1 7 2 6 3 4 4 5 5 3 7 2 8 1 9 77 13 78 14 79 15 84 16
REMARK SMILES IDX 80 17 83 18 81 19 82 20 9 21 10 22 11 23 12 24 13 26 14 27
REMARK SMILES IDX 15 28 76 29 16 30 75 31 17 32 18 33 19 34 69 35 20 36 74 37
REMARK SMILES IDX 68 38 70 39 21 40 73 41 67 42 66 43 22 45 54 46 34 47 53 48
REMARK SMILES IDX 35 49 38 50 52 51 71 52 36 53 37 54 51 56 72 57 39 58 23 59
REMARK SMILES IDX 24 60 32 61 25 62 26 63 30 64 33 65 27 66 28 67 31 68 29 69
REMARK SMILES IDX 55 70 56 71 64 72 57 73 58 74 62 75 65 76 59 77 60 78 63 79
REMARK SMILES IDX 61 80 40 81 41 82 49 83 42 84 43 85 47 86 50 87 44 88 45 89
REMARK SMILES IDX 48 90 46 91
REMARK H PARENT 6 6 1 10 1 11 1 12 11 25 70 44 38 55
REMARK Flexibility Score: inf
ROOT
ATOM      1  C   UNL A   1      31.513  30.675  25.807  1.00  0.00     0.023 C 
ENDROOT
BRANCH   1   2
ATOM      2  C   UNL A   1      32.781  29.860  26.070  1.00  0.00     0.116 C 
BRANCH   2   3
ATOM      3  N   UNL A   1      33.330  29.342  24.834  1.00  0.00    -0.356 N 
ATOM      4  C   UNL A   1      33.373  28.061  24.375  1.00  0.00     0.225 C 
ATOM      5  O   UNL A   1      33.986  27.843  23.329  1.00  0.00    -0.275 OA
ATOM      6  H   UNL A   1      33.731  30.015  24.238  1.00  0.00     0.163 HD
BRANCH   4   7
ATOM      7  C   UNL A   1      32.674  26.935  25.117  1.00  0.00     0.165 C 
BRANCH   7   8
ATOM      8  C   UNL A   1      31.148  27.060  25.326  1.00  0.00     0.194 C 
BRANCH   8   9
ATOM      9  N   UNL A   1      30.696  26.353  26.531  1.00  0.00    -0.354 N 
ATOM     10  H   UNL A   1      31.183  26.724  27.346  1.00  0.00     0.344 HD
ATOM     11  H   UNL A   1      30.899  25.358  26.438  1.00  0.00     0.344 HD
ATOM     12  H   UNL A   1      29.691  26.485  26.647  1.00  0.00     0.344 HD
ENDBRANCH   8   9
BRANCH   8  13
ATOM     13  C   UNL A   1      30.326  26.754  24.039  1.00  0.00     0.101 C 
BRANCH  13  14
ATOM     14  C   UNL A   1      29.650  27.894  23.297  1.00  0.00    -0.042 A 
ATOM     15  C   UNL A   1      30.350  28.874  22.579  1.00  0.00     0.007 A 
ATOM     16  C   UNL A   1      28.244  27.968  23.333  1.00  0.00     0.007 A 
ATOM     17  C   UNL A   1      29.674  29.948  21.996  1.00  0.00     0.039 A 
ATOM     18  C   UNL A   1      27.567  29.030  22.734  1.00  0.00     0.039 A 
ATOM     19  C   UNL A   1      28.291  30.021  22.086  1.00  0.00     0.123 A 
ATOM     20  F   UNL A   1      27.646  31.060  21.541  1.00  0.00    -0.207 F 
ENDBRANCH  13  14
ENDBRANCH   8  13
ENDBRANCH   7   8
ENDBRANCH   4   7
ENDBRANCH   2   3
ENDBRANCH   1   2
BRANCH   1  21
ATOM     21  C   UNL A   1      31.336  31.896  26.709  1.00  0.00     0.023 C 
BRANCH  21  22
ATOM     22  C   UNL A   1      32.615  32.664  27.011  1.00  0.00     0.116 C 
BRANCH  22  23
ATOM     23  N   UNL A   1      32.379  34.008  27.514  1.00  0.00    -0.352 N 
ATOM     24  C   UNL A   1      33.051  34.683  28.504  1.00  0.00     0.251 C 
ATOM     25  H   UNL A   1      31.639  34.499  27.089  1.00  0.00     0.163 HD
ATOM     26  O   UNL A   1      32.655  35.783  28.877  1.00  0.00    -0.269 OA
BRANCH  24  27
ATOM     27  C   UNL A   1      34.233  34.068  29.143  1.00  0.00     0.039 A 
ATOM     28  C   UNL A   1      34.038  33.015  30.040  1.00  0.00     0.014 A 
ATOM     29  C   UNL A   1      35.525  34.516  28.858  1.00  0.00     0.014 A 
ATOM     30  C   UNL A   1      35.142  32.385  30.617  1.00  0.00     0.010 A 
ATOM     31  C   UNL A   1      36.626  33.833  29.364  1.00  0.00     0.010 A 
ATOM     32  C   UNL A   1      36.446  32.774  30.266  1.00  0.00    -0.014 A 
BRANCH  32  33
ATOM     33  C   UNL A   1      37.628  32.112  30.870  1.00  0.00     0.031 A 
ATOM     34  C   UNL A   1      38.078  32.493  32.253  1.00  0.00     0.074 A 
ATOM     35  C   UNL A   1      38.317  31.198  30.160  1.00  0.00     0.049 A 
ATOM     36  N   UNL A   1      39.089  32.038  32.951  1.00  0.00    -0.248 NA
ATOM     37  C   UNL A   1      37.311  33.549  32.932  1.00  0.00     0.031 C 
ATOM     38  C   UNL A   1      38.020  30.794  28.785  1.00  0.00     0.029 A 
ATOM     39  N   UNL A   1      39.412  30.443  30.499  1.00  0.00    -0.354 N 
ATOM     40  C   UNL A   1      39.084  32.762  34.136  1.00  0.00     0.074 A 
ATOM     41  C   UNL A   1      38.016  33.731  34.039  1.00  0.00     0.031 C 
ATOM     42  C   UNL A   1      38.888  29.841  28.410  1.00  0.00     0.029 A 
ATOM     43  C   UNL A   1      39.816  29.585  29.506  1.00  0.00     0.049 A 
ATOM     44  H   UNL A   1      39.864  30.512  31.370  1.00  0.00     0.167 HD
ATOM     45  C   UNL A   1      39.876  32.610  35.224  1.00  0.00     0.037 A 
ATOM     46  C   UNL A   1      40.819  28.687  29.491  1.00  0.00     0.037 A 
ATOM     47  C   UNL A   1      40.915  31.620  35.332  1.00  0.00     0.049 A 
ATOM     48  C   UNL A   1      41.664  28.513  30.724  1.00  0.00     0.074 A 
ATOM     49  C   UNL A   1      41.734  31.340  36.411  1.00  0.00     0.029 A 
ATOM     50  N   UNL A   1      41.275  30.744  34.318  1.00  0.00    -0.354 N 
ATOM     51  N   UNL A   1      41.599  29.148  31.870  1.00  0.00    -0.248 NA
ATOM     52  C   UNL A   1      42.714  27.487  30.666  1.00  0.00     0.031 C 
ATOM     53  C   UNL A   1      42.617  30.321  36.037  1.00  0.00     0.029 A 
ATOM     54  C   UNL A   1      42.315  29.932  34.741  1.00  0.00     0.049 A 
ATOM     55  H   UNL A   1      40.854  30.706  33.429  1.00  0.00     0.167 HD
ATOM     56  C   UNL A   1      42.576  28.580  32.677  1.00  0.00     0.074 A 
ATOM     57  C   UNL A   1      43.205  27.536  31.895  1.00  0.00     0.031 C 
ATOM     58  C   UNL A   1      42.925  28.895  33.949  1.00  0.00     0.037 A 
BRANCH  45  59
ATOM     59  C   UNL A   1      39.638  33.528  36.388  1.00  0.00     0.064 A 
ATOM     60  C   UNL A   1      40.234  34.797  36.458  1.00  0.00     0.173 A 
ATOM     61  C   UNL A   1      38.790  33.145  37.439  1.00  0.00     0.173 A 
ATOM     62  F   UNL A   1      41.066  35.207  35.488  1.00  0.00    -0.203 F 
ATOM     63  C   UNL A   1      40.019  35.633  37.551  1.00  0.00     0.198 A 
ATOM     64  C   UNL A   1      38.551  33.997  38.515  1.00  0.00     0.198 A 
ATOM     65  F   UNL A   1      38.191  31.945  37.422  1.00  0.00    -0.203 F 
ATOM     66  F   UNL A   1      40.646  36.815  37.622  1.00  0.00    -0.200 F 
ATOM     67  C   UNL A   1      39.172  35.235  38.574  1.00  0.00     0.200 A 
ATOM     68  F   UNL A   1      37.723  33.617  39.497  1.00  0.00    -0.200 F 
ATOM     69  F   UNL A   1      38.962  36.043  39.624  1.00  0.00    -0.200 F 
ENDBRANCH  45  59
BRANCH  46  70
ATOM     70  C   UNL A   1      41.046  27.845  28.287  1.00  0.00     0.064 A 
ATOM     71  C   UNL A   1      40.441  26.585  28.165  1.00  0.00     0.173 A 
ATOM     72  C   UNL A   1      41.874  28.275  27.240  1.00  0.00     0.173 A 
ATOM     73  F   UNL A   1      39.655  26.124  29.149  1.00  0.00    -0.203 F 
ATOM     74  C   UNL A   1      40.676  25.777  27.055  1.00  0.00     0.198 A 
ATOM     75  C   UNL A   1      42.085  27.477  26.117  1.00  0.00     0.198 A 
ATOM     76  F   UNL A   1      42.470  29.474  27.305  1.00  0.00    -0.203 F 
ATOM     77  F   UNL A   1      40.124  24.559  26.988  1.00  0.00    -0.200 F 
ATOM     78  C   UNL A   1      41.495  26.226  26.029  1.00  0.00     0.200 A 
ATOM     79  F   UNL A   1      42.866  27.920  25.122  1.00  0.00    -0.200 F 
ATOM     80  F   UNL A   1      41.720  25.449  24.961  1.00  0.00    -0.200 F 
ENDBRANCH  46  70
BRANCH  58  81
ATOM     81  C   UNL A   1      44.013  28.078  34.581  1.00  0.00     0.064 A 
ATOM     82  C   UNL A   1      45.356  28.480  34.536  1.00  0.00     0.173 A 
ATOM     83  C   UNL A   1      43.705  26.888  35.258  1.00  0.00     0.173 A 
ATOM     84  F   UNL A   1      45.703  29.603  33.890  1.00  0.00    -0.203 F 
ATOM     85  C   UNL A   1      46.355  27.701  35.114  1.00  0.00     0.198 A 
ATOM     86  C   UNL A   1      44.702  26.128  35.863  1.00  0.00     0.198 A 
ATOM     87  F   UNL A   1      42.435  26.464  35.337  1.00  0.00    -0.203 F 
ATOM     88  F   UNL A   1      47.638  28.075  35.008  1.00  0.00    -0.200 F 
ATOM     89  C   UNL A   1      46.028  26.530  35.781  1.00  0.00     0.200 A 
ATOM     90  F   UNL A   1      44.382  25.005  36.519  1.00  0.00    -0.200 F 
ATOM     91  F   UNL A   1      46.990  25.782  36.337  1.00  0.00    -0.200 F 
ENDBRANCH  58  81
ENDBRANCH  32  33
ENDBRANCH  24  27
ENDBRANCH  22  23
ENDBRANCH  21  22
ENDBRANCH   1  21
TORSDOF 15
ENDMDL
MODEL 2
REMARK VINA RESULT:     -11.3      0.792      1.439
REMARK SMILES [NH3+][C@@H](CC(=O)NCCCCNC(=O)c1ccc(-c2c3nc(c(-c4c(F)c(F)c(F)c(F)c4F)c4ccc([nH]4)c(-c4c(F)c(F)c(F)c(F)c4F)c4nc(c(-c5c(F)c(F)c(F)c(F)c5F)c5ccc2[nH]5)C=C4)C=C3)cc1)Cc1ccc(F)cc1
REMARK SMILES IDX 8 1 7 2 6 3 4 4 5 5 3 7 2 8 1 9 77 13 78 14 79 15 84 16
REMARK SMILES IDX 80 17 83 18 81 19 82 20 9 21 10 22 11 23 12 24 13 26 14 27
REMARK SMILES IDX 15 28 76 29 16 30 75 31 17 32 18 33 19 34 69 35 20 36 74 37
REMARK SMILES IDX 68 38 70 39 21 40 73 41 67 42 66 43 22 45 54 46 34 47 53 48
REMARK SMILES IDX 35 49 38 50 52 51 71 52 36 53 37 54 51 56 72 57 39 58 23 59
REMARK SMILES IDX 24 60 32 61 25 62 26 63 30 64 33 65 27 66 28 67 31 68 29 69
REMARK SMILES IDX 55 70 56 71 64 72 57 73 58 74 62 75 65 76 59 77 60 78 63 79
REMARK SMILES IDX 61 80 40 81 41 82 49 83 42 84 43 85 47 86 50 87 44 88 45 89
REMARK SMILES IDX 48 90 46 91
REMARK H PARENT 6 6 1 10 1 11 1 12 11 25 70 44 38 55
REMARK Flexibility Score: inf
ROOT
ATOM      1  C   UNL A   1      31.552  30.763  26.096  1.00  0.00     0.023 C 
ENDROOT
BRANCH   1   2
ATOM      2  C   UNL A   1      32.565  29.928  26.883  1.00  0.00     0.116 C 
BRANCH   2   3
ATOM      3  N   UNL A   1      31.982  28.673  27.309  1.00  0.00    -0.356 N 
ATOM      4  C   UNL A   1      31.585  27.605  26.563  1.00  0.00     0.225 C 
ATOM      5  O   UNL A   1      31.018  26.676  27.140  1.00  0.00    -0.275 OA
ATOM      6  H   UNL A   1      31.855  28.577  28.280  1.00  0.00     0.163 HD
BRANCH   4   7
ATOM      7  C   UNL A   1      31.844  27.549  25.067  1.00  0.00     0.165 C 
BRANCH   7   8
ATOM      8  C   UNL A   1      30.887  26.689  24.212  1.00  0.00     0.194 C 
BRANCH   8   9
ATOM      9  N   UNL A   1      31.256  25.267  24.231  1.00  0.00    -0.354 N 
ATOM     10  H   UNL A   1      32.241  25.176  24.478  1.00  0.00     0.344 HD
ATOM     11  H   UNL A   1      31.097  24.862  23.309  1.00  0.00     0.344 HD
ATOM     12  H   UNL A   1      30.686  24.777  24.921  1.00  0.00     0.344 HD
ENDBRANCH   8   9
BRANCH   8  13
ATOM     13  C   UNL A   1      30.634  27.281  22.793  1.00  0.00     0.101 C 
BRANCH  13  14
ATOM     14  C   UNL A   1      29.752  28.509  22.644  1.00  0.00    -0.042 A 
ATOM     15  C   UNL A   1      30.181  29.704  22.049  1.00  0.00     0.007 A 
ATOM     16  C   UNL A   1      28.432  28.441  23.130  1.00  0.00     0.007 A 
ATOM     17  C   UNL A   1      29.351  30.827  22.025  1.00  0.00     0.039 A 
ATOM     18  C   UNL A   1      27.595  29.557  23.090  1.00  0.00     0.039 A 
ATOM     19  C   UNL A   1      28.070  30.745  22.553  1.00  0.00     0.123 A 
ATOM     20  F   UNL A   1      27.281  31.828  22.546  1.00  0.00    -0.207 F 
ENDBRANCH  13  14
ENDBRANCH   8  13
ENDBRANCH   7   8
ENDBRANCH   4   7
ENDBRANCH   2   3
ENDBRANCH   1   2
BRANCH   1  21
ATOM     21  C   UNL A   1      31.360  32.190  26.608  1.00  0.00     0.023 C 
BRANCH  21  22
ATOM     22  C   UNL A   1      32.629  32.877  27.092  1.00  0.00     0.116 C 
BRANCH  22  23
ATOM     23  N   UNL A   1      32.398  34.205  27.637  1.00  0.00    -0.352 N 
ATOM     24  C   UNL A   1      33.067  34.844  28.651  1.00  0.00     0.251 C 
ATOM     25  H   UNL A   1      31.664  34.714  27.223  1.00  0.00     0.163 HD
ATOM     26  O   UNL A   1      32.675  35.934  29.057  1.00  0.00    -0.269 OA
BRANCH  24  27
ATOM     27  C   UNL A   1      34.242  34.202  29.278  1.00  0.00     0.039 A 
ATOM     28  C   UNL A   1      34.030  33.216  30.245  1.00  0.00     0.014 A 
ATOM     29  C   UNL A   1      35.542  34.558  28.913  1.00  0.00     0.014 A 
ATOM     30  C   UNL A   1      35.123  32.561  30.814  1.00  0.00     0.010 A 
ATOM     31  C   UNL A   1      36.625  33.845  29.414  1.00  0.00     0.010 A 
ATOM     32  C   UNL A   1      36.429  32.853  30.386  1.00  0.00    -0.014 A 
BRANCH  32  33
ATOM     33  C   UNL A   1      37.599  32.162  30.980  1.00  0.00     0.031 A 
ATOM     34  C   UNL A   1      38.062  32.522  32.365  1.00  0.00     0.074 A 
ATOM     35  C   UNL A   1      38.267  31.240  30.260  1.00  0.00     0.049 A 
ATOM     36  N   UNL A   1      39.065  32.040  33.056  1.00  0.00    -0.248 NA
ATOM     37  C   UNL A   1      37.318  33.587  33.056  1.00  0.00     0.031 C 
ATOM     38  C   UNL A   1      37.957  30.855  28.883  1.00  0.00     0.029 A 
ATOM     39  N   UNL A   1      39.348  30.461  30.588  1.00  0.00    -0.354 N 
ATOM     40  C   UNL A   1      39.078  32.754  34.247  1.00  0.00     0.074 A 
ATOM     41  C   UNL A   1      38.030  33.745  34.161  1.00  0.00     0.031 C 
ATOM     42  C   UNL A   1      38.805  29.887  28.496  1.00  0.00     0.029 A 
ATOM     43  C   UNL A   1      39.732  29.603  29.587  1.00  0.00     0.049 A 
ATOM     44  H   UNL A   1      39.804  30.512  31.459  1.00  0.00     0.167 HD
ATOM     45  C   UNL A   1      39.871  32.576  35.331  1.00  0.00     0.037 A 
ATOM     46  C   UNL A   1      40.715  28.685  29.561  1.00  0.00     0.037 A 
ATOM     47  C   UNL A   1      40.890  31.565  35.427  1.00  0.00     0.049 A 
ATOM     48  C   UNL A   1      41.561  28.483  30.789  1.00  0.00     0.074 A 
ATOM     49  C   UNL A   1      41.706  31.258  36.501  1.00  0.00     0.029 A 
ATOM     50  N   UNL A   1      41.229  30.690  34.404  1.00  0.00    -0.354 N 
ATOM     51  N   UNL A   1      41.512  29.109  31.941  1.00  0.00    -0.248 NA
ATOM     52  C   UNL A   1      42.589  27.437  30.719  1.00  0.00     0.031 C 
ATOM     53  C   UNL A   1      42.567  30.224  36.115  1.00  0.00     0.029 A 
ATOM     54  C   UNL A   1      42.253  29.854  34.816  1.00  0.00     0.049 A 
ATOM     55  H   UNL A   1      40.804  30.669  33.516  1.00  0.00     0.167 HD
ATOM     56  C   UNL A   1      42.481  28.514  32.740  1.00  0.00     0.074 A 
ATOM     57  C   UNL A   1      43.085  27.465  31.947  1.00  0.00     0.031 C 
ATOM     58  C   UNL A   1      42.839  28.811  34.013  1.00  0.00     0.037 A 
BRANCH  45  59
ATOM     59  C   UNL A   1      39.655  33.489  36.504  1.00  0.00     0.064 A 
ATOM     60  C   UNL A   1      38.824  33.128  37.575  1.00  0.00     0.173 A 
ATOM     61  C   UNL A   1      40.300  34.734  36.568  1.00  0.00     0.173 A 
ATOM     62  F   UNL A   1      38.170  31.955  37.557  1.00  0.00    -0.203 F 
ATOM     63  C   UNL A   1      38.618  33.990  38.649  1.00  0.00     0.198 A 
ATOM     64  C   UNL A   1      40.118  35.581  37.659  1.00  0.00     0.198 A 
ATOM     65  F   UNL A   1      41.109  35.129  35.573  1.00  0.00    -0.203 F 
ATOM     66  F   UNL A   1      37.774  33.647  39.630  1.00  0.00    -0.200 F 
ATOM     67  C   UNL A   1      39.272  35.212  38.693  1.00  0.00     0.200 A 
ATOM     68  F   UNL A   1      40.759  36.756  37.706  1.00  0.00    -0.200 F 
ATOM     69  F   UNL A   1      39.076  36.041  39.729  1.00  0.00    -0.200 F 
ENDBRANCH  45  59
BRANCH  46  70
ATOM     70  C   UNL A   1      40.921  27.849  28.349  1.00  0.00     0.064 A 
ATOM     71  C   UNL A   1      40.283  26.607  28.214  1.00  0.00     0.173 A 
ATOM     72  C   UNL A   1      41.762  28.267  27.308  1.00  0.00     0.173 A 
ATOM     73  F   UNL A   1      39.484  26.157  29.193  1.00  0.00    -0.203 F 
ATOM     74  C   UNL A   1      40.498  25.804  27.097  1.00  0.00     0.198 A 
ATOM     75  C   UNL A   1      41.953  27.475  26.177  1.00  0.00     0.198 A 
ATOM     76  F   UNL A   1      42.390  29.449  27.384  1.00  0.00    -0.203 F 
ATOM     77  F   UNL A   1      39.914  24.601  27.017  1.00  0.00    -0.200 F 
ATOM     78  C   UNL A   1      41.330  26.241  26.076  1.00  0.00     0.200 A 
ATOM     79  F   UNL A   1      42.747  27.907  25.187  1.00  0.00    -0.200 F 
ATOM     80  F   UNL A   1      41.536  25.469  25.000  1.00  0.00    -0.200 F 
ENDBRANCH  46  70
BRANCH  58  81
ATOM     81  C   UNL A   1      43.913  27.967  34.635  1.00  0.00     0.064 A 
ATOM     82  C   UNL A   1      45.263  28.346  34.597  1.00  0.00     0.173 A 
ATOM     83  C   UNL A   1      43.584  26.772  35.294  1.00  0.00     0.173 A 
ATOM     84  F   UNL A   1      45.630  29.473  33.968  1.00  0.00    -0.203 F 
ATOM     85  C   UNL A   1      46.247  27.543  35.165  1.00  0.00     0.198 A 
ATOM     86  C   UNL A   1      44.567  25.987  35.889  1.00  0.00     0.198 A 
ATOM     87  F   UNL A   1      42.307  26.369  35.366  1.00  0.00    -0.203 F 
ATOM     88  F   UNL A   1      47.536  27.896  35.065  1.00  0.00    -0.200 F 
ATOM     89  C   UNL A   1      45.899  26.367  35.814  1.00  0.00     0.200 A 
ATOM     90  F   UNL A   1      44.227  24.861  36.528  1.00  0.00    -0.200 F 
ATOM     91  F   UNL A   1      46.848  25.595  36.361  1.00  0.00    -0.200 F 
ENDBRANCH  58  81
ENDBRANCH  32  33
ENDBRANCH  24  27
ENDBRANCH  22  23
ENDBRANCH  21  22
ENDBRANCH   1  21
TORSDOF 15
ENDMDL
MODEL 3
REMARK VINA RESULT:     -11.2      4.145      9.009
REMARK SMILES [NH3+][C@@H](CC(=O)NCCCCNC(=O)c1ccc(-c2c3nc(c(-c4c(F)c(F)c(F)c(F)c4F)c4ccc([nH]4)c(-c4c(F)c(F)c(F)c(F)c4F)c4nc(c(-c5c(F)c(F)c(F)c(F)c5F)c5ccc2[nH]5)C=C4)C=C3)cc1)Cc1ccc(F)cc1
REMARK SMILES IDX 8 1 7 2 6 3 4 4 5 5 3 7 2 8 1 9 77 13 78 14 79 15 84 16
REMARK SMILES IDX 80 17 83 18 81 19 82 20 9 21 10 22 11 23 12 24 13 26 14 27
REMARK SMILES IDX 15 28 76 29 16 30 75 31 17 32 18 33 19 34 69 35 20 36 74 37
REMARK SMILES IDX 68 38 70 39 21 40 73 41 67 42 66 43 22 45 54 46 34 47 53 48
REMARK SMILES IDX 35 49 38 50 52 51 71 52 36 53 37 54 51 56 72 57 39 58 23 59
REMARK SMILES IDX 24 60 32 61 25 62 26 63 30 64 33 65 27 66 28 67 31 68 29 69
REMARK SMILES IDX 55 70 56 71 64 72 57 73 58 74 62 75 65 76 59 77 60 78 63 79
REMARK SMILES IDX 61 80 40 81 41 82 49 83 42 84 43 85 47 86 50 87 44 88 45 89
REMARK SMILES IDX 48 90 46 91
REMARK H PARENT 6 6 1 10 1 11 1 12 11 25 70 44 38 55
REMARK Flexibility Score: inf
ROOT
ATOM      1  C   UNL A   1      34.368  24.555  25.647  1.00  0.00     0.023 C 
ENDROOT
BRANCH   1   2
ATOM      2  C   UNL A   1      33.679  24.150  24.343  1.00  0.00     0.116 C 
BRANCH   2   3
ATOM      3  N   UNL A   1      34.082  25.013  23.253  1.00  0.00    -0.356 N 
ATOM      4  C   UNL A   1      33.323  25.819  22.461  1.00  0.00     0.225 C 
ATOM      5  O   UNL A   1      33.876  26.393  21.521  1.00  0.00    -0.275 OA
ATOM      6  H   UNL A   1      35.046  25.019  23.056  1.00  0.00     0.163 HD
BRANCH   4   7
ATOM      7  C   UNL A   1      31.842  26.021  22.731  1.00  0.00     0.165 C 
BRANCH   7   8
ATOM      8  C   UNL A   1      31.376  27.445  23.113  1.00  0.00     0.194 C 
BRANCH   8   9
ATOM      9  N   UNL A   1      32.201  28.482  22.479  1.00  0.00    -0.354 N 
ATOM     10  H   UNL A   1      32.083  29.363  22.981  1.00  0.00     0.344 HD
ATOM     11  H   UNL A   1      31.910  28.602  21.509  1.00  0.00     0.344 HD
ATOM     12  H   UNL A   1      33.181  28.203  22.508  1.00  0.00     0.344 HD
ENDBRANCH   8   9
BRANCH   8  13
ATOM     13  C   UNL A   1      31.155  27.628  24.643  1.00  0.00     0.101 C 
BRANCH  13  14
ATOM     14  C   UNL A   1      32.151  28.444  25.448  1.00  0.00    -0.042 A 
ATOM     15  C   UNL A   1      33.419  27.973  25.818  1.00  0.00     0.007 A 
ATOM     16  C   UNL A   1      31.779  29.743  25.843  1.00  0.00     0.007 A 
ATOM     17  C   UNL A   1      34.253  28.739  26.637  1.00  0.00     0.039 A 
ATOM     18  C   UNL A   1      32.619  30.516  26.645  1.00  0.00     0.039 A 
ATOM     19  C   UNL A   1      33.841  29.998  27.050  1.00  0.00     0.123 A 
ATOM     20  F   UNL A   1      34.634  30.725  27.849  1.00  0.00    -0.207 F 
ENDBRANCH  13  14
ENDBRANCH   8  13
ENDBRANCH   7   8
ENDBRANCH   4   7
ENDBRANCH   2   3
ENDBRANCH   1   2
BRANCH   1  21
ATOM     21  C   UNL A   1      35.543  23.667  26.056  1.00  0.00     0.023 C 
BRANCH  21  22
ATOM     22  C   UNL A   1      36.793  23.819  25.201  1.00  0.00     0.116 C 
BRANCH  22  23
ATOM     23  N   UNL A   1      37.799  22.801  25.459  1.00  0.00    -0.352 N 
ATOM     24  C   UNL A   1      39.005  22.932  26.103  1.00  0.00     0.251 C 
ATOM     25  H   UNL A   1      37.588  21.899  25.128  1.00  0.00     0.163 HD
ATOM     26  O   UNL A   1      39.786  21.985  26.146  1.00  0.00    -0.269 OA
BRANCH  24  27
ATOM     27  C   UNL A   1      39.377  24.225  26.715  1.00  0.00     0.039 A 
ATOM     28  C   UNL A   1      39.039  24.457  28.050  1.00  0.00     0.014 A 
ATOM     29  C   UNL A   1      40.061  25.200  25.984  1.00  0.00     0.014 A 
ATOM     30  C   UNL A   1      39.425  25.650  28.663  1.00  0.00     0.010 A 
ATOM     31  C   UNL A   1      40.521  26.349  26.619  1.00  0.00     0.010 A 
ATOM     32  C   UNL A   1      40.189  26.595  27.959  1.00  0.00    -0.014 A 
BRANCH  32  33
ATOM     33  C   UNL A   1      40.608  27.866  28.600  1.00  0.00     0.031 A 
ATOM     34  C   UNL A   1      42.044  28.070  28.999  1.00  0.00     0.074 A 
ATOM     35  C   UNL A   1      39.691  28.819  28.857  1.00  0.00     0.049 A 
ATOM     36  N   UNL A   1      42.605  29.102  29.577  1.00  0.00    -0.248 NA
ATOM     37  C   UNL A   1      42.966  26.952  28.746  1.00  0.00     0.031 C 
ATOM     38  C   UNL A   1      38.258  28.711  28.579  1.00  0.00     0.029 A 
ATOM     39  N   UNL A   1      39.829  30.066  29.411  1.00  0.00    -0.354 N 
ATOM     40  C   UNL A   1      43.935  28.750  29.767  1.00  0.00     0.074 A 
ATOM     41  C   UNL A   1      44.084  27.388  29.307  1.00  0.00     0.031 C 
ATOM     42  C   UNL A   1      37.655  29.858  28.932  1.00  0.00     0.029 A 
ATOM     43  C   UNL A   1      38.652  30.770  29.482  1.00  0.00     0.049 A 
ATOM     44  H   UNL A   1      40.691  30.422  29.728  1.00  0.00     0.167 HD
ATOM     45  C   UNL A   1      44.950  29.506  30.249  1.00  0.00     0.037 A 
ATOM     46  C   UNL A   1      38.412  32.016  29.932  1.00  0.00     0.037 A 
ATOM     47  C   UNL A   1      44.806  30.873  30.672  1.00  0.00     0.049 A 
ATOM     48  C   UNL A   1      39.562  32.848  30.432  1.00  0.00     0.074 A 
ATOM     49  C   UNL A   1      45.780  31.748  31.118  1.00  0.00     0.029 A 
ATOM     50  N   UNL A   1      43.603  31.566  30.699  1.00  0.00    -0.354 N 
ATOM     51  N   UNL A   1      40.831  32.532  30.532  1.00  0.00    -0.248 NA
ATOM     52  C   UNL A   1      39.248  34.215  30.868  1.00  0.00     0.031 C 
ATOM     53  C   UNL A   1      45.161  32.959  31.451  1.00  0.00     0.029 A 
ATOM     54  C   UNL A   1      43.809  32.853  31.167  1.00  0.00     0.049 A 
ATOM     55  H   UNL A   1      42.733  31.196  30.425  1.00  0.00     0.167 HD
ATOM     56  C   UNL A   1      41.470  33.668  31.013  1.00  0.00     0.074 A 
ATOM     57  C   UNL A   1      40.450  34.685  31.165  1.00  0.00     0.031 C 
ATOM     58  C   UNL A   1      42.781  33.853  31.307  1.00  0.00     0.037 A 
BRANCH  45  59
ATOM     59  C   UNL A   1      46.308  28.870  30.330  1.00  0.00     0.064 A 
ATOM     60  C   UNL A   1      46.738  28.197  31.485  1.00  0.00     0.173 A 
ATOM     61  C   UNL A   1      47.186  28.917  29.236  1.00  0.00     0.173 A 
ATOM     62  F   UNL A   1      45.945  28.136  32.566  1.00  0.00    -0.203 F 
ATOM     63  C   UNL A   1      48.007  27.627  31.554  1.00  0.00     0.198 A 
ATOM     64  C   UNL A   1      48.441  28.317  29.297  1.00  0.00     0.198 A 
ATOM     65  F   UNL A   1      46.826  29.544  28.106  1.00  0.00    -0.203 F 
ATOM     66  F   UNL A   1      48.415  27.042  32.688  1.00  0.00    -0.200 F 
ATOM     67  C   UNL A   1      48.854  27.681  30.458  1.00  0.00     0.200 A 
ATOM     68  F   UNL A   1      49.255  28.360  28.233  1.00  0.00    -0.200 F 
ATOM     69  F   UNL A   1      50.073  27.128  30.524  1.00  0.00    -0.200 F 
ENDBRANCH  45  59
BRANCH  46  70
ATOM     70  C   UNL A   1      37.034  32.572  29.883  1.00  0.00     0.064 A 
ATOM     71  C   UNL A   1      36.593  33.303  28.769  1.00  0.00     0.173 A 
ATOM     72  C   UNL A   1      36.136  32.394  30.943  1.00  0.00     0.173 A 
ATOM     73  F   UNL A   1      37.423  33.515  27.737  1.00  0.00    -0.203 F 
ATOM     74  C   UNL A   1      35.315  33.856  28.731  1.00  0.00     0.198 A 
ATOM     75  C   UNL A   1      34.848  32.923  30.891  1.00  0.00     0.198 A 
ATOM     76  F   UNL A   1      36.506  31.697  32.028  1.00  0.00    -0.203 F 
ATOM     77  F   UNL A   1      34.937  34.590  27.676  1.00  0.00    -0.200 F 
ATOM     78  C   UNL A   1      34.441  33.661  29.790  1.00  0.00     0.200 A 
ATOM     79  F   UNL A   1      34.001  32.721  31.911  1.00  0.00    -0.200 F 
ATOM     80  F   UNL A   1      33.211  34.192  29.752  1.00  0.00    -0.200 F 
ENDBRANCH  46  70
BRANCH  58  81
ATOM     81  C   UNL A   1      43.187  35.215  31.789  1.00  0.00     0.064 A 
ATOM     82  C   UNL A   1      43.686  36.188  30.911  1.00  0.00     0.173 A 
ATOM     83  C   UNL A   1      43.057  35.556  33.144  1.00  0.00     0.173 A 
ATOM     84  F   UNL A   1      43.842  35.906  29.608  1.00  0.00    -0.203 F 
ATOM     85  C   UNL A   1      44.074  37.440  31.377  1.00  0.00     0.198 A 
ATOM     86  C   UNL A   1      43.415  36.820  33.602  1.00  0.00     0.198 A 
ATOM     87  F   UNL A   1      42.577  34.665  34.023  1.00  0.00    -0.203 F 
ATOM     88  F   UNL A   1      44.603  38.334  30.530  1.00  0.00    -0.200 F 
ATOM     89  C   UNL A   1      43.934  37.758  32.720  1.00  0.00     0.200 A 
ATOM     90  F   UNL A   1      43.265  37.130  34.896  1.00  0.00    -0.200 F 
ATOM     91  F   UNL A   1      44.307  38.964  33.168  1.00  0.00    -0.200 F 
ENDBRANCH  58  81
ENDBRANCH  32  33
ENDBRANCH  24  27
ENDBRANCH  22  23
ENDBRANCH  21  22
ENDBRANCH   1  21
TORSDOF 15
ENDMDL
