MODEL 1
REMARK VINA RESULT:     -13.5      0.000      0.000
REMARK SMILES O=C(NCCCCNC(=O)c1ccccc1/N=C/c1coc2ccccc2c1=O)c1ccc(-c2c3nc(c(-c4c(F)c(F)c(F)c(F)c4F)c4ccc([nH]4)c(-c4c(F)c(F)c(F)c(F)c4F)c4nc(c(-c5c(F)c(F)c(F)c(F)c5F)c5ccc2[nH]5)C=C4)C=C3)cc1
REMARK SMILES IDX 5 1 4 2 3 3 1 4 2 5 30 7 31 8 92 9 32 10 91 11 33 12 34 13
REMARK SMILES IDX 35 14 85 15 36 16 90 17 84 18 86 19 37 20 89 21 83 22 82 23
REMARK SMILES IDX 38 25 70 26 50 27 69 28 51 29 54 30 68 31 87 32 52 33 53 34
REMARK SMILES IDX 67 36 88 37 55 38 39 39 40 40 48 41 41 42 42 43 46 44 49 45
REMARK SMILES IDX 43 46 44 47 47 48 45 49 71 50 72 51 80 52 73 53 74 54 78 55
REMARK SMILES IDX 81 56 75 57 76 58 79 59 77 60 56 61 57 62 65 63 58 64 59 65
REMARK SMILES IDX 63 66 66 67 60 68 61 69 64 70 62 71 6 72 7 73 8 74 9 75
REMARK SMILES IDX 10 77 11 78 12 79 16 80 13 81 15 82 14 83 17 84 18 85 19 86
REMARK SMILES IDX 20 87 28 88 21 89 27 90 29 91 22 92 26 93 23 94 25 95 24 96
REMARK H PARENT 3 6 86 24 54 35 8 76
REMARK Flexibility Score: inf
ROOT
ATOM      1  C   UNL A   1      32.045  29.698  25.773  1.00  0.00     0.023 C 
ENDROOT
BRANCH   1   2
ATOM      2  C   UNL A   1      32.284  30.296  27.157  1.00  0.00     0.116 C 
BRANCH   2   3
ATOM      3  N   UNL A   1      32.355  31.747  27.154  1.00  0.00    -0.352 N 
ATOM      4  O   UNL A   1      33.204  33.796  27.590  1.00  0.00    -0.269 OA
ATOM      5  C   UNL A   1      33.371  32.582  27.559  1.00  0.00     0.251 C 
ATOM      6  H   UNL A   1      31.555  32.202  26.807  1.00  0.00     0.163 HD
BRANCH   5   7
ATOM      7  C   UNL A   1      34.666  32.017  28.004  1.00  0.00     0.039 A 
ATOM      8  C   UNL A   1      34.800  30.658  28.305  1.00  0.00     0.014 A 
ATOM      9  C   UNL A   1      35.771  32.867  28.116  1.00  0.00     0.014 A 
ATOM     10  C   UNL A   1      35.985  30.185  28.866  1.00  0.00     0.010 A 
ATOM     11  C   UNL A   1      36.979  32.380  28.629  1.00  0.00     0.010 A 
ATOM     12  C   UNL A   1      37.074  31.049  29.062  1.00  0.00    -0.014 A 
BRANCH  12  13
ATOM     13  C   UNL A   1      38.279  30.558  29.778  1.00  0.00     0.031 A 
ATOM     14  C   UNL A   1      38.506  30.932  31.219  1.00  0.00     0.074 A 
ATOM     15  C   UNL A   1      39.141  29.733  29.159  1.00  0.00     0.049 A 
ATOM     16  N   UNL A   1      39.449  30.536  32.038  1.00  0.00    -0.248 NA
ATOM     17  C   UNL A   1      37.553  31.880  31.818  1.00  0.00     0.031 C 
ATOM     18  C   UNL A   1      39.045  29.304  27.764  1.00  0.00     0.029 A 
ATOM     19  N   UNL A   1      40.256  29.088  29.633  1.00  0.00    -0.354 N 
ATOM     20  C   UNL A   1      39.216  31.198  33.235  1.00  0.00     0.074 A 
ATOM     21  C   UNL A   1      38.052  32.036  33.036  1.00  0.00     0.031 C 
ATOM     22  C   UNL A   1      40.035  28.435  27.505  1.00  0.00     0.029 A 
ATOM     23  C   UNL A   1      40.842  28.258  28.711  1.00  0.00     0.049 A 
ATOM     24  H   UNL A   1      40.602  29.210  30.547  1.00  0.00     0.167 HD
ATOM     25  C   UNL A   1      39.900  31.110  34.399  1.00  0.00     0.037 A 
ATOM     26  C   UNL A   1      41.900  27.434  28.829  1.00  0.00     0.037 A 
ATOM     27  C   UNL A   1      41.030  30.251  34.624  1.00  0.00     0.049 A 
ATOM     28  C   UNL A   1      42.618  27.325  30.144  1.00  0.00     0.074 A 
ATOM     29  C   UNL A   1      41.758  30.064  35.786  1.00  0.00     0.029 A 
ATOM     30  N   UNL A   1      41.594  29.427  33.662  1.00  0.00    -0.354 N 
ATOM     31  N   UNL A   1      42.363  27.929  31.277  1.00  0.00    -0.248 NA
ATOM     32  C   UNL A   1      43.770  26.411  30.194  1.00  0.00     0.031 C 
ATOM     33  C   UNL A   1      42.774  29.136  35.524  1.00  0.00     0.029 A 
ATOM     34  C   UNL A   1      42.664  28.735  34.203  1.00  0.00     0.049 A 
ATOM     35  H   UNL A   1      41.279  29.347  32.733  1.00  0.00     0.167 HD
ATOM     36  C   UNL A   1      43.309  27.460  32.179  1.00  0.00     0.074 A 
ATOM     37  C   UNL A   1      44.140  26.515  31.463  1.00  0.00     0.031 C 
ATOM     38  C   UNL A   1      43.474  27.790  33.482  1.00  0.00     0.037 A 
BRANCH  25  39
ATOM     39  C   UNL A   1      39.442  31.974  35.532  1.00  0.00     0.064 A 
ATOM     40  C   UNL A   1      38.502  31.515  36.466  1.00  0.00     0.173 A 
ATOM     41  C   UNL A   1      39.975  33.259  35.705  1.00  0.00     0.173 A 
ATOM     42  F   UNL A   1      37.956  30.297  36.331  1.00  0.00    -0.203 F 
ATOM     43  C   UNL A   1      38.101  32.320  37.529  1.00  0.00     0.198 A 
ATOM     44  C   UNL A   1      39.582  34.056  36.778  1.00  0.00     0.198 A 
ATOM     45  F   UNL A   1      40.877  33.740  34.836  1.00  0.00    -0.203 F 
ATOM     46  F   UNL A   1      37.182  31.874  38.396  1.00  0.00    -0.200 F 
ATOM     47  C   UNL A   1      38.644  33.587  37.686  1.00  0.00     0.200 A 
ATOM     48  F   UNL A   1      40.110  35.278  36.931  1.00  0.00    -0.200 F 
ATOM     49  F   UNL A   1      38.259  34.359  38.711  1.00  0.00    -0.200 F 
ENDBRANCH  25  39
BRANCH  26  50
ATOM     50  C   UNL A   1      42.313  26.607  27.673  1.00  0.00     0.064 A 
ATOM     51  C   UNL A   1      43.302  27.059  26.790  1.00  0.00     0.173 A 
ATOM     52  C   UNL A   1      41.743  25.349  27.437  1.00  0.00     0.173 A 
ATOM     53  F   UNL A   1      43.859  28.267  26.969  1.00  0.00    -0.203 F 
ATOM     54  C   UNL A   1      43.703  26.284  25.704  1.00  0.00     0.198 A 
ATOM     55  C   UNL A   1      42.155  24.567  26.360  1.00  0.00     0.198 A 
ATOM     56  F   UNL A   1      40.792  24.880  28.257  1.00  0.00    -0.203 F 
ATOM     57  F   UNL A   1      44.633  26.746  24.860  1.00  0.00    -0.200 F 
ATOM     58  C   UNL A   1      43.132  25.036  25.494  1.00  0.00     0.200 A 
ATOM     59  F   UNL A   1      41.605  23.363  26.160  1.00  0.00    -0.200 F 
ATOM     60  F   UNL A   1      43.520  24.289  24.451  1.00  0.00    -0.200 F 
ENDBRANCH  26  50
BRANCH  38  61
ATOM     61  C   UNL A   1      44.581  27.110  34.223  1.00  0.00     0.064 A 
ATOM     62  C   UNL A   1      45.858  27.682  34.304  1.00  0.00     0.173 A 
ATOM     63  C   UNL A   1      44.353  25.897  34.888  1.00  0.00     0.173 A 
ATOM     64  F   UNL A   1      46.122  28.835  33.672  1.00  0.00    -0.203 F 
ATOM     65  C   UNL A   1      46.875  27.055  35.017  1.00  0.00     0.198 A 
ATOM     66  C   UNL A   1      45.369  25.279  35.611  1.00  0.00     0.198 A 
ATOM     67  F   UNL A   1      43.146  25.314  34.836  1.00  0.00    -0.203 F 
ATOM     68  F   UNL A   1      48.096  27.604  35.063  1.00  0.00    -0.200 F 
ATOM     69  C   UNL A   1      46.629  25.857  35.673  1.00  0.00     0.200 A 
ATOM     70  F   UNL A   1      45.131  24.122  36.245  1.00  0.00    -0.200 F 
ATOM     71  F   UNL A   1      47.610  25.254  36.359  1.00  0.00    -0.200 F 
ENDBRANCH  38  61
ENDBRANCH  12  13
ENDBRANCH   5   7
ENDBRANCH   2   3
ENDBRANCH   1   2
BRANCH   1  72
ATOM     72  C   UNL A   1      33.290  29.317  24.968  1.00  0.00     0.023 C 
BRANCH  72  73
ATOM     73  C   UNL A   1      33.667  27.836  24.967  1.00  0.00     0.116 C 
BRANCH  73  74
ATOM     74  N   UNL A   1      33.865  27.288  23.637  1.00  0.00    -0.352 N 
ATOM     75  C   UNL A   1      32.926  27.011  22.676  1.00  0.00     0.253 C 
ATOM     76  H   UNL A   1      34.797  27.089  23.392  1.00  0.00     0.163 HD
ATOM     77  O   UNL A   1      33.278  26.630  21.562  1.00  0.00    -0.269 OA
BRANCH  75  78
ATOM     78  C   UNL A   1      31.488  27.125  22.966  1.00  0.00     0.065 A 
ATOM     79  C   UNL A   1      30.823  28.255  22.468  1.00  0.00     0.016 A 
ATOM     80  C   UNL A   1      30.795  26.180  23.730  1.00  0.00     0.076 A 
ATOM     81  C   UNL A   1      29.454  28.422  22.689  1.00  0.00     0.001 A 
ATOM     82  C   UNL A   1      29.421  26.369  23.945  1.00  0.00     0.029 A 
ATOM     83  C   UNL A   1      28.751  27.477  23.429  1.00  0.00     0.002 A 
BRANCH  80  84
ATOM     84  N   UNL A   1      31.298  24.959  24.164  1.00  0.00    -0.255 NA
ATOM     85  C   UNL A   1      31.014  24.435  25.312  1.00  0.00     0.127 C 
BRANCH  85  86
ATOM     86  C   UNL A   1      31.515  23.055  25.505  1.00  0.00     0.076 A 
ATOM     87  C   UNL A   1      31.727  22.459  24.318  1.00  0.00     0.209 A 
ATOM     88  C   UNL A   1      32.589  22.841  26.511  1.00  0.00     0.201 A 
ATOM     89  O   UNL A   1      32.916  21.814  23.990  1.00  0.00    -0.463 OA
ATOM     90  C   UNL A   1      33.930  22.854  25.910  1.00  0.00     0.065 A 
ATOM     91  O   UNL A   1      32.385  22.803  27.715  1.00  0.00    -0.288 OA
ATOM     92  C   UNL A   1      34.023  22.367  24.605  1.00  0.00     0.137 A 
ATOM     93  C   UNL A   1      34.990  23.523  26.517  1.00  0.00     0.016 A 
ATOM     94  C   UNL A   1      35.195  22.546  23.881  1.00  0.00     0.048 A 
ATOM     95  C   UNL A   1      36.153  23.735  25.778  1.00  0.00     0.001 A 
ATOM     96  C   UNL A   1      36.254  23.251  24.466  1.00  0.00     0.004 A 
ENDBRANCH  85  86
ENDBRANCH  80  84
ENDBRANCH  75  78
ENDBRANCH  73  74
ENDBRANCH  72  73
ENDBRANCH   1  72
TORSDOF 13
ENDMDL
MODEL 2
REMARK VINA RESULT:     -13.3      0.677      2.066
REMARK SMILES O=C(NCCCCNC(=O)c1ccccc1/N=C/c1coc2ccccc2c1=O)c1ccc(-c2c3nc(c(-c4c(F)c(F)c(F)c(F)c4F)c4ccc([nH]4)c(-c4c(F)c(F)c(F)c(F)c4F)c4nc(c(-c5c(F)c(F)c(F)c(F)c5F)c5ccc2[nH]5)C=C4)C=C3)cc1
REMARK SMILES IDX 5 1 4 2 3 3 1 4 2 5 30 7 31 8 92 9 32 10 91 11 33 12 34 13
REMARK SMILES IDX 35 14 85 15 36 16 90 17 84 18 86 19 37 20 89 21 83 22 82 23
REMARK SMILES IDX 38 25 70 26 50 27 69 28 51 29 54 30 68 31 87 32 52 33 53 34
REMARK SMILES IDX 67 36 88 37 55 38 39 39 40 40 48 41 41 42 42 43 46 44 49 45
REMARK SMILES IDX 43 46 44 47 47 48 45 49 71 50 72 51 80 52 73 53 74 54 78 55
REMARK SMILES IDX 81 56 75 57 76 58 79 59 77 60 56 61 57 62 65 63 58 64 59 65
REMARK SMILES IDX 63 66 66 67 60 68 61 69 64 70 62 71 6 72 7 73 8 74 9 75
REMARK SMILES IDX 10 77 11 78 12 79 16 80 13 81 15 82 14 83 17 84 18 85 19 86
REMARK SMILES IDX 20 87 28 88 21 89 27 90 29 91 22 92 26 93 23 94 25 95 24 96
REMARK H PARENT 3 6 86 24 54 35 8 76
REMARK Flexibility Score: inf
ROOT
ATOM      1  C   UNL A   1      31.722  29.597  27.194  1.00  0.00     0.023 C 
ENDROOT
BRANCH   1   2
ATOM      2  C   UNL A   1      32.675  30.514  26.431  1.00  0.00     0.116 C 
BRANCH   2   3
ATOM      3  N   UNL A   1      32.599  31.902  26.852  1.00  0.00    -0.352 N 
ATOM      4  O   UNL A   1      33.179  33.779  27.971  1.00  0.00    -0.269 OA
ATOM      5  C   UNL A   1      33.470  32.641  27.620  1.00  0.00     0.251 C 
ATOM      6  H   UNL A   1      31.804  32.390  26.539  1.00  0.00     0.163 HD
BRANCH   5   7
ATOM      7  C   UNL A   1      34.754  32.051  28.066  1.00  0.00     0.039 A 
ATOM      8  C   UNL A   1      34.844  30.706  28.438  1.00  0.00     0.014 A 
ATOM      9  C   UNL A   1      35.893  32.862  28.105  1.00  0.00     0.014 A 
ATOM     10  C   UNL A   1      36.024  30.218  28.997  1.00  0.00     0.010 A 
ATOM     11  C   UNL A   1      37.093  32.358  28.617  1.00  0.00     0.010 A 
ATOM     12  C   UNL A   1      37.149  31.049  29.120  1.00  0.00    -0.014 A 
BRANCH  12  13
ATOM     13  C   UNL A   1      38.351  30.551  29.835  1.00  0.00     0.031 A 
ATOM     14  C   UNL A   1      38.586  30.929  31.273  1.00  0.00     0.074 A 
ATOM     15  C   UNL A   1      39.205  29.716  29.217  1.00  0.00     0.049 A 
ATOM     16  N   UNL A   1      39.529  30.529  32.091  1.00  0.00    -0.248 NA
ATOM     17  C   UNL A   1      37.643  31.888  31.871  1.00  0.00     0.031 C 
ATOM     18  C   UNL A   1      39.101  29.281  27.825  1.00  0.00     0.029 A 
ATOM     19  N   UNL A   1      40.316  29.064  29.690  1.00  0.00    -0.354 N 
ATOM     20  C   UNL A   1      39.305  31.198  33.287  1.00  0.00     0.074 A 
ATOM     21  C   UNL A   1      38.147  32.045  33.087  1.00  0.00     0.031 C 
ATOM     22  C   UNL A   1      40.083  28.404  27.567  1.00  0.00     0.029 A 
ATOM     23  C   UNL A   1      40.893  28.225  28.770  1.00  0.00     0.049 A 
ATOM     24  H   UNL A   1      40.665  29.187  30.603  1.00  0.00     0.167 HD
ATOM     25  C   UNL A   1      39.991  31.110  34.449  1.00  0.00     0.037 A 
ATOM     26  C   UNL A   1      41.943  27.393  28.889  1.00  0.00     0.037 A 
ATOM     27  C   UNL A   1      41.115  30.242  34.674  1.00  0.00     0.049 A 
ATOM     28  C   UNL A   1      42.664  27.283  30.203  1.00  0.00     0.074 A 
ATOM     29  C   UNL A   1      41.845  30.054  35.835  1.00  0.00     0.029 A 
ATOM     30  N   UNL A   1      41.669  29.409  33.715  1.00  0.00    -0.354 N 
ATOM     31  N   UNL A   1      42.418  27.894  31.334  1.00  0.00    -0.248 NA
ATOM     32  C   UNL A   1      43.809  26.360  30.253  1.00  0.00     0.031 C 
ATOM     33  C   UNL A   1      42.852  29.117  35.574  1.00  0.00     0.029 A 
ATOM     34  C   UNL A   1      42.735  28.710  34.255  1.00  0.00     0.049 A 
ATOM     35  H   UNL A   1      41.350  29.328  32.786  1.00  0.00     0.167 HD
ATOM     36  C   UNL A   1      43.363  27.422  32.234  1.00  0.00     0.074 A 
ATOM     37  C   UNL A   1      44.183  26.466  31.521  1.00  0.00     0.031 C 
ATOM     38  C   UNL A   1      43.534  27.755  33.536  1.00  0.00     0.037 A 
BRANCH  25  39
ATOM     39  C   UNL A   1      39.544  31.982  35.579  1.00  0.00     0.064 A 
ATOM     40  C   UNL A   1      40.057  33.275  35.751  1.00  0.00     0.173 A 
ATOM     41  C   UNL A   1      38.565  31.533  36.477  1.00  0.00     0.173 A 
ATOM     42  F   UNL A   1      41.006  33.740  34.924  1.00  0.00    -0.203 F 
ATOM     43  C   UNL A   1      39.615  34.085  36.794  1.00  0.00     0.198 A 
ATOM     44  C   UNL A   1      38.114  32.352  37.510  1.00  0.00     0.198 A 
ATOM     45  F   UNL A   1      38.044  30.303  36.351  1.00  0.00    -0.203 F 
ATOM     46  F   UNL A   1      40.138  35.308  36.958  1.00  0.00    -0.200 F 
ATOM     47  C   UNL A   1      38.642  33.625  37.669  1.00  0.00     0.200 A 
ATOM     48  F   UNL A   1      37.172  31.907  38.353  1.00  0.00    -0.200 F 
ATOM     49  F   UNL A   1      38.216  34.407  38.670  1.00  0.00    -0.200 F 
ENDBRANCH  25  39
BRANCH  26  50
ATOM     50  C   UNL A   1      42.346  26.557  27.735  1.00  0.00     0.064 A 
ATOM     51  C   UNL A   1      41.737  25.317  27.505  1.00  0.00     0.173 A 
ATOM     52  C   UNL A   1      43.332  26.985  26.836  1.00  0.00     0.173 A 
ATOM     53  F   UNL A   1      40.803  24.862  28.354  1.00  0.00    -0.203 F 
ATOM     54  C   UNL A   1      42.104  24.529  26.417  1.00  0.00     0.198 A 
ATOM     55  C   UNL A   1      43.688  26.204  25.739  1.00  0.00     0.198 A 
ATOM     56  F   UNL A   1      43.941  28.165  27.021  1.00  0.00    -0.203 F 
ATOM     57  F   UNL A   1      41.524  23.337  26.230  1.00  0.00    -0.200 F 
ATOM     58  C   UNL A   1      43.076  24.975  25.533  1.00  0.00     0.200 A 
ATOM     59  F   UNL A   1      44.624  26.637  24.886  1.00  0.00    -0.200 F 
ATOM     60  F   UNL A   1      43.427  24.218  24.484  1.00  0.00    -0.200 F 
ENDBRANCH  26  50
BRANCH  38  61
ATOM     61  C   UNL A   1      44.638  27.070  34.276  1.00  0.00     0.064 A 
ATOM     62  C   UNL A   1      44.427  25.844  34.921  1.00  0.00     0.173 A 
ATOM     63  C   UNL A   1      45.925  27.624  34.310  1.00  0.00     0.173 A 
ATOM     64  F   UNL A   1      43.207  25.284  34.925  1.00  0.00    -0.203 F 
ATOM     65  C   UNL A   1      45.466  25.200  35.586  1.00  0.00     0.198 A 
ATOM     66  C   UNL A   1      46.966  26.972  34.965  1.00  0.00     0.198 A 
ATOM     67  F   UNL A   1      46.172  28.797  33.706  1.00  0.00    -0.203 F 
ATOM     68  F   UNL A   1      45.240  24.041  36.218  1.00  0.00    -0.200 F 
ATOM     69  C   UNL A   1      46.735  25.762  35.604  1.00  0.00     0.200 A 
ATOM     70  F   UNL A   1      48.191  27.515  34.981  1.00  0.00    -0.200 F 
ATOM     71  F   UNL A   1      47.735  25.141  36.245  1.00  0.00    -0.200 F 
ENDBRANCH  38  61
ENDBRANCH  12  13
ENDBRANCH   5   7
ENDBRANCH   2   3
ENDBRANCH   1   2
BRANCH   1  72
ATOM     72  C   UNL A   1      32.247  28.203  27.545  1.00  0.00     0.023 C 
BRANCH  72  73
ATOM     73  C   UNL A   1      31.953  27.095  26.534  1.00  0.00     0.116 C 
BRANCH  73  74
ATOM     74  N   UNL A   1      32.694  27.230  25.292  1.00  0.00    -0.352 N 
ATOM     75  C   UNL A   1      32.225  27.558  24.046  1.00  0.00     0.253 C 
ATOM     76  H   UNL A   1      33.663  27.065  25.354  1.00  0.00     0.163 HD
ATOM     77  O   UNL A   1      33.010  27.717  23.114  1.00  0.00    -0.269 OA
BRANCH  75  78
ATOM     78  C   UNL A   1      30.782  27.686  23.788  1.00  0.00     0.065 A 
ATOM     79  C   UNL A   1      30.318  28.941  23.364  1.00  0.00     0.016 A 
ATOM     80  C   UNL A   1      29.884  26.632  23.981  1.00  0.00     0.076 A 
ATOM     81  C   UNL A   1      28.963  29.133  23.084  1.00  0.00     0.001 A 
ATOM     82  C   UNL A   1      28.526  26.847  23.699  1.00  0.00     0.029 A 
ATOM     83  C   UNL A   1      28.065  28.084  23.252  1.00  0.00     0.002 A 
BRANCH  80  84
ATOM     84  N   UNL A   1      30.227  25.315  24.264  1.00  0.00    -0.255 NA
ATOM     85  C   UNL A   1      30.844  24.540  23.431  1.00  0.00     0.127 C 
BRANCH  85  86
ATOM     86  C   UNL A   1      31.265  23.236  23.992  1.00  0.00     0.076 A 
ATOM     87  C   UNL A   1      31.841  22.477  23.042  1.00  0.00     0.209 A 
ATOM     88  C   UNL A   1      31.972  23.239  25.300  1.00  0.00     0.201 A 
ATOM     89  O   UNL A   1      33.074  21.855  23.207  1.00  0.00    -0.463 OA
ATOM     90  C   UNL A   1      33.432  23.232  25.149  1.00  0.00     0.065 A 
ATOM     91  O   UNL A   1      31.401  23.376  26.372  1.00  0.00    -0.288 OA
ATOM     92  C   UNL A   1      33.931  22.556  24.033  1.00  0.00     0.137 A 
ATOM     93  C   UNL A   1      34.247  24.044  25.934  1.00  0.00     0.016 A 
ATOM     94  C   UNL A   1      35.270  22.685  23.686  1.00  0.00     0.048 A 
ATOM     95  C   UNL A   1      35.583  24.203  25.565  1.00  0.00     0.001 A 
ATOM     96  C   UNL A   1      36.090  23.529  24.446  1.00  0.00     0.004 A 
ENDBRANCH  85  86
ENDBRANCH  80  84
ENDBRANCH  75  78
ENDBRANCH  73  74
ENDBRANCH  72  73
ENDBRANCH   1  72
TORSDOF 13
ENDMDL
MODEL 3
REMARK VINA RESULT:     -13.3      1.602      2.399
REMARK SMILES O=C(NCCCCNC(=O)c1ccccc1/N=C/c1coc2ccccc2c1=O)c1ccc(-c2c3nc(c(-c4c(F)c(F)c(F)c(F)c4F)c4ccc([nH]4)c(-c4c(F)c(F)c(F)c(F)c4F)c4nc(c(-c5c(F)c(F)c(F)c(F)c5F)c5ccc2[nH]5)C=C4)C=C3)cc1
REMARK SMILES IDX 5 1 4 2 3 3 1 4 2 5 30 7 31 8 92 9 32 10 91 11 33 12 34 13
REMARK SMILES IDX 35 14 85 15 36 16 90 17 84 18 86 19 37 20 89 21 83 22 82 23
REMARK SMILES IDX 38 25 70 26 50 27 69 28 51 29 54 30 68 31 87 32 52 33 53 34
REMARK SMILES IDX 67 36 88 37 55 38 39 39 40 40 48 41 41 42 42 43 46 44 49 45
REMARK SMILES IDX 43 46 44 47 47 48 45 49 71 50 72 51 80 52 73 53 74 54 78 55
REMARK SMILES IDX 81 56 75 57 76 58 79 59 77 60 56 61 57 62 65 63 58 64 59 65
REMARK SMILES IDX 63 66 66 67 60 68 61 69 64 70 62 71 6 72 7 73 8 74 9 75
REMARK SMILES IDX 10 77 11 78 12 79 16 80 13 81 15 82 14 83 17 84 18 85 19 86
REMARK SMILES IDX 20 87 28 88 21 89 27 90 29 91 22 92 26 93 23 94 25 95 24 96
REMARK H PARENT 3 6 86 24 54 35 8 76
REMARK Flexibility Score: inf
ROOT
ATOM      1  C   UNL A   1      31.425  31.726  26.941  1.00  0.00     0.023 C 
ENDROOT
BRANCH   1   2
ATOM      2  C   UNL A   1      32.659  32.577  27.229  1.00  0.00     0.116 C 
BRANCH   2   3
ATOM      3  N   UNL A   1      32.343  33.947  27.593  1.00  0.00    -0.352 N 
ATOM      4  O   UNL A   1      32.460  35.876  28.766  1.00  0.00    -0.269 OA
ATOM      5  C   UNL A   1      32.943  34.778  28.510  1.00  0.00     0.251 C 
ATOM      6  H   UNL A   1      31.583  34.342  27.108  1.00  0.00     0.163 HD
BRANCH   5   7
ATOM      7  C   UNL A   1      34.160  34.337  29.230  1.00  0.00     0.039 A 
ATOM      8  C   UNL A   1      35.438  34.627  28.741  1.00  0.00     0.014 A 
ATOM      9  C   UNL A   1      34.018  33.622  30.424  1.00  0.00     0.014 A 
ATOM     10  C   UNL A   1      36.559  34.070  29.355  1.00  0.00     0.010 A 
ATOM     11  C   UNL A   1      35.147  33.107  31.070  1.00  0.00     0.010 A 
ATOM     12  C   UNL A   1      36.420  33.279  30.507  1.00  0.00    -0.014 A 
BRANCH  12  13
ATOM     13  C   UNL A   1      37.609  32.589  31.068  1.00  0.00     0.031 A 
ATOM     14  C   UNL A   1      38.081  32.910  32.462  1.00  0.00     0.074 A 
ATOM     15  C   UNL A   1      38.233  31.636  30.355  1.00  0.00     0.049 A 
ATOM     16  N   UNL A   1      39.043  32.356  33.158  1.00  0.00    -0.248 NA
ATOM     17  C   UNL A   1      37.385  33.999  33.165  1.00  0.00     0.031 C 
ATOM     18  C   UNL A   1      37.887  31.239  28.991  1.00  0.00     0.029 A 
ATOM     19  N   UNL A   1      39.278  30.810  30.690  1.00  0.00    -0.354 N 
ATOM     20  C   UNL A   1      39.081  33.039  34.365  1.00  0.00     0.074 A 
ATOM     21  C   UNL A   1      38.057  34.061  34.305  1.00  0.00     0.031 C 
ATOM     22  C   UNL A   1      38.677  30.219  28.619  1.00  0.00     0.029 A 
ATOM     23  C   UNL A   1      39.593  29.901  29.713  1.00  0.00     0.049 A 
ATOM     24  H   UNL A   1      39.755  30.866  31.550  1.00  0.00     0.167 HD
ATOM     25  C   UNL A   1      39.887  32.830  35.432  1.00  0.00     0.037 A 
ATOM     26  C   UNL A   1      40.504  28.911  29.706  1.00  0.00     0.037 A 
ATOM     27  C   UNL A   1      40.877  31.792  35.521  1.00  0.00     0.049 A 
ATOM     28  C   UNL A   1      41.359  28.674  30.918  1.00  0.00     0.074 A 
ATOM     29  C   UNL A   1      41.709  31.478  36.583  1.00  0.00     0.029 A 
ATOM     30  N   UNL A   1      41.166  30.893  34.508  1.00  0.00    -0.354 N 
ATOM     31  N   UNL A   1      41.358  29.304  32.066  1.00  0.00    -0.248 NA
ATOM     32  C   UNL A   1      42.339  27.580  30.832  1.00  0.00     0.031 C 
ATOM     33  C   UNL A   1      42.513  30.396  36.205  1.00  0.00     0.029 A 
ATOM     34  C   UNL A   1      42.167  30.028  34.915  1.00  0.00     0.049 A 
ATOM     35  H   UNL A   1      40.724  30.873  33.628  1.00  0.00     0.167 HD
ATOM     36  C   UNL A   1      42.322  28.678  32.844  1.00  0.00     0.074 A 
ATOM     37  C   UNL A   1      42.883  27.611  32.041  1.00  0.00     0.031 C 
ATOM     38  C   UNL A   1      42.707  28.966  34.110  1.00  0.00     0.037 A 
BRANCH  25  39
ATOM     39  C   UNL A   1      39.730  33.750  36.602  1.00  0.00     0.064 A 
ATOM     40  C   UNL A   1      40.379  34.992  36.647  1.00  0.00     0.173 A 
ATOM     41  C   UNL A   1      38.892  33.402  37.671  1.00  0.00     0.173 A 
ATOM     42  F   UNL A   1      41.201  35.359  35.652  1.00  0.00    -0.203 F 
ATOM     43  C   UNL A   1      40.207  35.849  37.731  1.00  0.00     0.198 A 
ATOM     44  C   UNL A   1      38.710  34.268  38.747  1.00  0.00     0.198 A 
ATOM     45  F   UNL A   1      38.249  32.224  37.671  1.00  0.00    -0.203 F 
ATOM     46  F   UNL A   1      40.858  37.019  37.768  1.00  0.00    -0.200 F 
ATOM     47  C   UNL A   1      39.370  35.488  38.777  1.00  0.00     0.200 A 
ATOM     48  F   UNL A   1      37.899  33.920  39.755  1.00  0.00    -0.200 F 
ATOM     49  F   UNL A   1      39.203  36.315  39.817  1.00  0.00    -0.200 F 
ENDBRANCH  25  39
BRANCH  26  50
ATOM     50  C   UNL A   1      40.620  28.034  28.518  1.00  0.00     0.064 A 
ATOM     51  C   UNL A   1      41.417  28.410  27.428  1.00  0.00     0.173 A 
ATOM     52  C   UNL A   1      39.954  26.804  28.454  1.00  0.00     0.173 A 
ATOM     53  F   UNL A   1      42.055  29.590  27.442  1.00  0.00    -0.203 F 
ATOM     54  C   UNL A   1      41.538  27.588  26.311  1.00  0.00     0.198 A 
ATOM     55  C   UNL A   1      40.088  25.974  27.343  1.00  0.00     0.198 A 
ATOM     56  F   UNL A   1      39.180  26.406  29.474  1.00  0.00    -0.203 F 
ATOM     57  F   UNL A   1      42.286  27.979  25.272  1.00  0.00    -0.200 F 
ATOM     58  C   UNL A   1      40.877  26.368  26.272  1.00  0.00     0.200 A 
ATOM     59  F   UNL A   1      39.451  24.796  27.308  1.00  0.00    -0.200 F 
ATOM     60  F   UNL A   1      40.996  25.576  25.198  1.00  0.00    -0.200 F 
ENDBRANCH  26  50
BRANCH  38  61
ATOM     61  C   UNL A   1      43.772  28.105  34.711  1.00  0.00     0.064 A 
ATOM     62  C   UNL A   1      45.121  28.483  34.667  1.00  0.00     0.173 A 
ATOM     63  C   UNL A   1      43.438  26.913  35.369  1.00  0.00     0.173 A 
ATOM     64  F   UNL A   1      45.486  29.609  34.036  1.00  0.00    -0.203 F 
ATOM     65  C   UNL A   1      46.102  27.689  35.252  1.00  0.00     0.198 A 
ATOM     66  C   UNL A   1      44.421  26.127  35.964  1.00  0.00     0.198 A 
ATOM     67  F   UNL A   1      42.159  26.513  35.435  1.00  0.00    -0.203 F 
ATOM     68  F   UNL A   1      47.390  28.053  35.178  1.00  0.00    -0.200 F 
ATOM     69  C   UNL A   1      45.751  26.515  35.903  1.00  0.00     0.200 A 
ATOM     70  F   UNL A   1      44.081  24.994  36.594  1.00  0.00    -0.200 F 
ATOM     71  F   UNL A   1      46.699  25.750  36.466  1.00  0.00    -0.200 F 
ENDBRANCH  38  61
ENDBRANCH  12  13
ENDBRANCH   5   7
ENDBRANCH   2   3
ENDBRANCH   1   2
BRANCH   1  72
ATOM     72  C   UNL A   1      31.444  30.909  25.646  1.00  0.00     0.023 C 
BRANCH  72  73
ATOM     73  C   UNL A   1      31.807  29.432  25.784  1.00  0.00     0.116 C 
BRANCH  73  74
ATOM     74  N   UNL A   1      32.393  28.863  24.583  1.00  0.00    -0.352 N 
ATOM     75  C   UNL A   1      31.771  28.496  23.418  1.00  0.00     0.253 C 
ATOM     76  H   UNL A   1      33.367  28.722  24.609  1.00  0.00     0.163 HD
ATOM     77  O   UNL A   1      32.435  28.110  22.459  1.00  0.00    -0.269 OA
BRANCH  75  78
ATOM     78  C   UNL A   1      30.304  28.518  23.302  1.00  0.00     0.065 A 
ATOM     79  C   UNL A   1      29.713  29.724  22.893  1.00  0.00     0.016 A 
ATOM     80  C   UNL A   1      29.506  27.412  23.611  1.00  0.00     0.076 A 
ATOM     81  C   UNL A   1      28.328  29.814  22.745  1.00  0.00     0.001 A 
ATOM     82  C   UNL A   1      28.115  27.526  23.460  1.00  0.00     0.029 A 
ATOM     83  C   UNL A   1      27.526  28.713  23.029  1.00  0.00     0.002 A 
BRANCH  80  84
ATOM     84  N   UNL A   1      29.966  26.131  23.893  1.00  0.00    -0.255 NA
ATOM     85  C   UNL A   1      30.357  25.754  25.068  1.00  0.00     0.127 C 
BRANCH  85  86
ATOM     86  C   UNL A   1      30.645  24.307  25.190  1.00  0.00     0.076 A 
ATOM     87  C   UNL A   1      30.761  23.744  23.974  1.00  0.00     0.209 A 
ATOM     88  C   UNL A   1      31.678  23.885  26.173  1.00  0.00     0.201 A 
ATOM     89  O   UNL A   1      31.837  22.943  23.604  1.00  0.00    -0.463 OA
ATOM     90  C   UNL A   1      33.003  23.725  25.560  1.00  0.00     0.065 A 
ATOM     91  O   UNL A   1      31.475  23.821  27.376  1.00  0.00    -0.288 OA
ATOM     92  C   UNL A   1      33.017  23.294  24.232  1.00  0.00     0.137 A 
ATOM     93  C   UNL A   1      34.154  24.197  26.186  1.00  0.00     0.016 A 
ATOM     94  C   UNL A   1      34.201  23.328  23.505  1.00  0.00     0.048 A 
ATOM     95  C   UNL A   1      35.334  24.267  25.445  1.00  0.00     0.001 A 
ATOM     96  C   UNL A   1      35.355  23.837  24.112  1.00  0.00     0.004 A 
ENDBRANCH  85  86
ENDBRANCH  80  84
ENDBRANCH  75  78
ENDBRANCH  73  74
ENDBRANCH  72  73
ENDBRANCH   1  72
TORSDOF 13
ENDMDL
