MODEL 1
REMARK VINA RESULT:     -13.4      0.000      0.000
REMARK SMILES Cc1cc(C(=O)N[C@@H]2C(=O)N3C(C(=O)NCCCCNC(=O)c4ccc(-c5c6nc(c(-c7c(F)c(F)c(F)c(F)c7F)c7ccc([nH]7)c(-c7c(F)c(F)c(F)c(F)c7F)c7nc(c(-c8c(F)c(F)c(F)c(F)c8F)c8ccc5[nH]8)C=C7)C=C6)cc4)=C(CSc4nnc(C)s4)CS[C@H]23)n(C)n1
REMARK SMILES IDX 17 1 16 2 15 3 13 4 14 5 12 7 8 8 9 9 97 10 10 11 11 12
REMARK SMILES IDX 96 13 95 14 86 15 7 16 5 17 6 18 4 20 1 21 2 22 3 23 100 24
REMARK SMILES IDX 98 25 99 26 87 27 88 28 89 29 90 30 94 31 91 32 92 33 93 34
REMARK SMILES IDX 18 35 19 36 20 37 21 38 22 40 23 41 24 42 85 43 25 44 84 45
REMARK SMILES IDX 26 46 27 47 28 48 78 49 29 50 83 51 77 52 79 53 30 54 82 55
REMARK SMILES IDX 76 56 75 57 31 59 63 60 43 61 62 62 44 63 47 64 61 65 80 66
REMARK SMILES IDX 45 67 46 68 60 70 81 71 48 72 32 73 33 74 41 75 34 76 35 77
REMARK SMILES IDX 39 78 42 79 36 80 37 81 40 82 38 83 64 84 65 85 73 86 66 87
REMARK SMILES IDX 67 88 71 89 74 90 68 91 69 92 72 93 70 94 49 95 50 96 58 97
REMARK SMILES IDX 51 98 52 99 56 100 59 101 53 102 54 103 57 104 55 105
REMARK H PARENT 15 6 7 19 20 39 79 58 47 69
REMARK Flexibility Score: inf
ROOT
ATOM      1  C   UNL A   1      31.786  30.604  26.655  1.00  0.00     0.023 C 
ENDROOT
BRANCH   1   2
ATOM      2  C   UNL A   1      31.523  30.042  25.253  1.00  0.00     0.116 C 
BRANCH   2   3
ATOM      3  N   UNL A   1      32.770  29.788  24.565  1.00  0.00    -0.351 N 
ATOM      4  C   UNL A   1      33.320  28.785  23.841  1.00  0.00     0.268 C 
ATOM      5  O   UNL A   1      34.360  29.135  23.270  1.00  0.00    -0.268 OA
ATOM      6  H   UNL A   1      33.384  30.552  24.643  1.00  0.00     0.163 HD
BRANCH   4   7
ATOM      7  C   UNL A   1      32.705  27.409  23.521  1.00  0.00     0.111 C 
ATOM      8  C   UNL A   1      33.146  24.918  25.865  1.00  0.00     0.206 C 
ATOM      9  C   UNL A   1      32.965  26.463  25.824  1.00  0.00     0.253 C 
ATOM     10  C   UNL A   1      32.816  25.028  24.351  1.00  0.00     0.181 C 
ATOM     11  O   UNL A   1      32.687  27.306  26.654  1.00  0.00    -0.272 OA
ATOM     12  N   UNL A   1      33.080  26.450  24.456  1.00  0.00    -0.290 N 
ATOM     13  S   UNL A   1      31.077  24.778  23.867  1.00  0.00    -0.129 SA
ATOM     14  C   UNL A   1      31.405  25.600  22.310  1.00  0.00     0.106 C 
ATOM     15  C   UNL A   1      31.754  27.048  22.599  1.00  0.00    -0.020 C 
BRANCH   8  16
ATOM     16  N   UNL A   1      32.262  24.133  26.770  1.00  0.00    -0.336 N 
ATOM     17  C   UNL A   1      32.360  22.815  27.176  1.00  0.00     0.270 C 
ATOM     18  O   UNL A   1      31.509  22.397  27.960  1.00  0.00    -0.268 OA
ATOM     19  H   UNL A   1      31.491  24.627  27.133  1.00  0.00     0.164 HD
BRANCH  17  20
ATOM     20  C   UNL A   1      33.394  21.979  26.607  1.00  0.00     0.126 A 
ATOM     21  C   UNL A   1      36.793  21.404  25.442  1.00  0.00     0.069 C 
ATOM     22  C   UNL A   1      35.353  21.340  25.789  1.00  0.00     0.060 A 
ATOM     23  C   UNL A   1      34.719  21.787  26.969  1.00  0.00     0.059 A 
ATOM     24  N   UNL A   1      34.457  20.929  24.891  1.00  0.00    -0.178 NA
ATOM     25  N   UNL A   1      33.264  21.229  25.457  1.00  0.00    -0.263 N 
ATOM     26  C   UNL A   1      32.072  20.814  24.757  1.00  0.00     0.174 C 
ENDBRANCH  17  20
ENDBRANCH   8  16
BRANCH  15  27
ATOM     27  C   UNL A   1      30.669  27.945  22.049  1.00  0.00     0.111 C 
BRANCH  27  28
ATOM     28  S   UNL A   1      29.326  27.930  23.241  1.00  0.00    -0.089 SA
BRANCH  28  29
ATOM     29  C   UNL A   1      28.302  29.237  22.797  1.00  0.00     0.174 A 
ATOM     30  N   UNL A   1      27.277  29.620  23.524  1.00  0.00    -0.132 NA
ATOM     31  S   UNL A   1      28.899  30.444  21.738  1.00  0.00    -0.091 S 
ATOM     32  N   UNL A   1      27.207  31.005  23.559  1.00  0.00    -0.143 NA
ATOM     33  C   UNL A   1      28.161  31.547  22.827  1.00  0.00     0.115 A 
ATOM     34  C   UNL A   1      28.716  32.909  22.987  1.00  0.00     0.081 C 
ENDBRANCH  28  29
ENDBRANCH  27  28
ENDBRANCH  15  27
ENDBRANCH   4   7
ENDBRANCH   2   3
ENDBRANCH   1   2
BRANCH   1  35
ATOM     35  C   UNL A   1      31.403  32.047  26.902  1.00  0.00     0.023 C 
BRANCH  35  36
ATOM     36  C   UNL A   1      32.555  33.020  26.821  1.00  0.00     0.116 C 
BRANCH  36  37
ATOM     37  N   UNL A   1      32.434  34.181  27.695  1.00  0.00    -0.352 N 
ATOM     38  C   UNL A   1      33.298  34.556  28.701  1.00  0.00     0.251 C 
ATOM     39  H   UNL A   1      31.651  34.760  27.551  1.00  0.00     0.163 HD
ATOM     40  O   UNL A   1      33.072  35.529  29.410  1.00  0.00    -0.269 OA
BRANCH  38  41
ATOM     41  C   UNL A   1      34.479  33.702  28.939  1.00  0.00     0.039 A 
ATOM     42  C   UNL A   1      35.752  34.246  28.773  1.00  0.00     0.014 A 
ATOM     43  C   UNL A   1      34.306  32.442  29.517  1.00  0.00     0.014 A 
ATOM     44  C   UNL A   1      36.854  33.562  29.286  1.00  0.00     0.010 A 
ATOM     45  C   UNL A   1      35.384  31.834  30.142  1.00  0.00     0.010 A 
ATOM     46  C   UNL A   1      36.672  32.382  30.028  1.00  0.00    -0.014 A 
BRANCH  46  47
ATOM     47  C   UNL A   1      37.811  31.688  30.680  1.00  0.00     0.031 A 
ATOM     48  C   UNL A   1      38.201  32.066  32.083  1.00  0.00     0.074 A 
ATOM     49  C   UNL A   1      38.536  30.781  29.995  1.00  0.00     0.049 A 
ATOM     50  N   UNL A   1      39.207  31.647  32.807  1.00  0.00    -0.248 NA
ATOM     51  C   UNL A   1      37.374  33.089  32.748  1.00  0.00     0.031 C 
ATOM     52  C   UNL A   1      38.303  30.379  28.607  1.00  0.00     0.029 A 
ATOM     53  N   UNL A   1      39.626  30.036  30.374  1.00  0.00    -0.354 N 
ATOM     54  C   UNL A   1      39.142  32.366  33.992  1.00  0.00     0.074 A 
ATOM     55  C   UNL A   1      38.052  33.305  33.863  1.00  0.00     0.031 C 
ATOM     56  C   UNL A   1      39.195  29.434  28.266  1.00  0.00     0.029 A 
ATOM     57  C   UNL A   1      40.089  29.193  29.392  1.00  0.00     0.049 A 
ATOM     58  H   UNL A   1      40.036  30.100  31.267  1.00  0.00     0.167 HD
ATOM     59  C   UNL A   1      39.898  32.231  35.106  1.00  0.00     0.037 A 
ATOM     60  C   UNL A   1      41.120  28.327  29.404  1.00  0.00     0.037 A 
ATOM     61  C   UNL A   1      40.956  31.267  35.244  1.00  0.00     0.049 A 
ATOM     62  C   UNL A   1      41.942  28.187  30.659  1.00  0.00     0.074 A 
ATOM     63  C   UNL A   1      41.739  31.000  36.352  1.00  0.00     0.029 A 
ATOM     64  N   UNL A   1      41.376  30.409  34.238  1.00  0.00    -0.354 N 
ATOM     65  N   UNL A   1      41.820  28.817  31.803  1.00  0.00    -0.248 NA
ATOM     66  C   UNL A   1      43.040  27.211  30.627  1.00  0.00     0.031 C 
ATOM     67  C   UNL A   1      42.667  30.015  36.001  1.00  0.00     0.029 A 
ATOM     68  C   UNL A   1      42.423  29.627  34.693  1.00  0.00     0.049 A 
ATOM     69  H   UNL A   1      40.987  30.365  33.335  1.00  0.00     0.167 HD
ATOM     70  C   UNL A   1      42.801  28.292  32.635  1.00  0.00     0.074 A 
ATOM     71  C   UNL A   1      43.499  27.282  31.868  1.00  0.00     0.031 C 
ATOM     72  C   UNL A   1      43.095  28.615  33.918  1.00  0.00     0.037 A 
BRANCH  59  73
ATOM     73  C   UNL A   1      39.597  33.140  36.263  1.00  0.00     0.064 A 
ATOM     74  C   UNL A   1      40.248  34.374  36.419  1.00  0.00     0.173 A 
ATOM     75  C   UNL A   1      38.631  32.784  37.215  1.00  0.00     0.173 A 
ATOM     76  F   UNL A   1      41.192  34.755  35.546  1.00  0.00    -0.203 F 
ATOM     77  C   UNL A   1      39.968  35.200  37.505  1.00  0.00     0.198 A 
ATOM     78  C   UNL A   1      38.328  33.629  38.280  1.00  0.00     0.198 A 
ATOM     79  F   UNL A   1      37.978  31.616  37.113  1.00  0.00    -0.203 F 
ATOM     80  F   UNL A   1      40.647  36.344  37.666  1.00  0.00    -0.200 F 
ATOM     81  C   UNL A   1      39.003  34.830  38.429  1.00  0.00     0.200 A 
ATOM     82  F   UNL A   1      37.386  33.276  39.165  1.00  0.00    -0.200 F 
ATOM     83  F   UNL A   1      38.730  35.629  39.469  1.00  0.00    -0.200 F 
ENDBRANCH  59  73
BRANCH  60  84
ATOM     84  C   UNL A   1      41.416  27.498  28.205  1.00  0.00     0.064 A 
ATOM     85  C   UNL A   1      42.298  27.953  27.214  1.00  0.00     0.173 A 
ATOM     86  C   UNL A   1      40.821  26.243  28.016  1.00  0.00     0.173 A 
ATOM     87  F   UNL A   1      42.879  29.155  27.336  1.00  0.00    -0.203 F 
ATOM     88  C   UNL A   1      42.551  27.198  26.069  1.00  0.00     0.198 A 
ATOM     89  C   UNL A   1      41.098  25.474  26.886  1.00  0.00     0.198 A 
ATOM     90  F   UNL A   1      39.974  25.755  28.936  1.00  0.00    -0.203 F 
ATOM     91  F   UNL A   1      43.359  27.682  25.115  1.00  0.00    -0.200 F 
ATOM     92  C   UNL A   1      41.955  25.956  25.910  1.00  0.00     0.200 A 
ATOM     93  F   UNL A   1      40.532  24.268  26.744  1.00  0.00    -0.200 F 
ATOM     94  F   UNL A   1      42.201  25.230  24.811  1.00  0.00    -0.200 F 
ENDBRANCH  60  84
BRANCH  72  95
ATOM     95  C   UNL A   1      44.190  27.841  34.592  1.00  0.00     0.064 A 
ATOM     96  C   UNL A   1      45.513  28.305  34.622  1.00  0.00     0.173 A 
ATOM     97  C   UNL A   1      43.898  26.642  35.261  1.00  0.00     0.173 A 
ATOM     98  F   UNL A   1      45.845  29.438  33.987  1.00  0.00    -0.203 F 
ATOM     99  C   UNL A   1      46.508  27.583  35.276  1.00  0.00     0.198 A 
ATOM    100  C   UNL A   1      44.888  25.941  35.942  1.00  0.00     0.198 A 
ATOM    101  F   UNL A   1      42.646  26.160  35.270  1.00  0.00    -0.203 F 
ATOM    102  F   UNL A   1      47.775  28.021  35.252  1.00  0.00    -0.200 F 
ATOM    103  C   UNL A   1      46.194  26.409  35.943  1.00  0.00     0.200 A 
ATOM    104  F   UNL A   1      44.578  24.816  36.600  1.00  0.00    -0.200 F 
ATOM    105  F   UNL A   1      47.151  25.721  36.581  1.00  0.00    -0.200 F 
ENDBRANCH  72  95
ENDBRANCH  46  47
ENDBRANCH  38  41
ENDBRANCH  36  37
ENDBRANCH  35  36
ENDBRANCH   1  35
TORSDOF 16
ENDMDL
MODEL 2
REMARK VINA RESULT:     -13.0      5.086     10.824
REMARK SMILES Cc1cc(C(=O)N[C@@H]2C(=O)N3C(C(=O)NCCCCNC(=O)c4ccc(-c5c6nc(c(-c7c(F)c(F)c(F)c(F)c7F)c7ccc([nH]7)c(-c7c(F)c(F)c(F)c(F)c7F)c7nc(c(-c8c(F)c(F)c(F)c(F)c8F)c8ccc5[nH]8)C=C7)C=C6)cc4)=C(CSc4nnc(C)s4)CS[C@H]23)n(C)n1
REMARK SMILES IDX 17 1 16 2 15 3 13 4 14 5 12 7 8 8 9 9 97 10 10 11 11 12
REMARK SMILES IDX 96 13 95 14 86 15 7 16 5 17 6 18 4 20 1 21 2 22 3 23 100 24
REMARK SMILES IDX 98 25 99 26 87 27 88 28 89 29 90 30 94 31 91 32 92 33 93 34
REMARK SMILES IDX 18 35 19 36 20 37 21 38 22 40 23 41 24 42 85 43 25 44 84 45
REMARK SMILES IDX 26 46 27 47 28 48 78 49 29 50 83 51 77 52 79 53 30 54 82 55
REMARK SMILES IDX 76 56 75 57 31 59 63 60 43 61 62 62 44 63 47 64 61 65 80 66
REMARK SMILES IDX 45 67 46 68 60 70 81 71 48 72 32 73 33 74 41 75 34 76 35 77
REMARK SMILES IDX 39 78 42 79 36 80 37 81 40 82 38 83 64 84 65 85 73 86 66 87
REMARK SMILES IDX 67 88 71 89 74 90 68 91 69 92 72 93 70 94 49 95 50 96 58 97
REMARK SMILES IDX 51 98 52 99 56 100 59 101 53 102 54 103 57 104 55 105
REMARK H PARENT 15 6 7 19 20 39 79 58 47 69
REMARK Flexibility Score: inf
ROOT
ATOM      1  C   UNL A   1      39.103  22.593  26.394  1.00  0.00     0.023 C 
ENDROOT
BRANCH   1   2
ATOM      2  C   UNL A   1      37.620  22.796  26.067  1.00  0.00     0.116 C 
BRANCH   2   3
ATOM      3  N   UNL A   1      37.026  21.561  25.607  1.00  0.00    -0.351 N 
ATOM      4  C   UNL A   1      35.785  21.101  25.317  1.00  0.00     0.268 C 
ATOM      5  O   UNL A   1      35.814  20.004  24.744  1.00  0.00    -0.268 OA
ATOM      6  H   UNL A   1      37.707  20.866  25.465  1.00  0.00     0.163 HD
BRANCH   4   7
ATOM      7  C   UNL A   1      34.449  21.856  25.443  1.00  0.00     0.111 C 
ATOM      8  C   UNL A   1      34.215  24.894  23.827  1.00  0.00     0.206 C 
ATOM      9  C   UNL A   1      34.916  23.519  23.630  1.00  0.00     0.253 C 
ATOM     10  C   UNL A   1      33.504  24.153  24.992  1.00  0.00     0.181 C 
ATOM     11  O   UNL A   1      35.455  22.969  22.690  1.00  0.00    -0.272 OA
ATOM     12  N   UNL A   1      34.526  23.130  24.888  1.00  0.00    -0.290 N 
ATOM     13  S   UNL A   1      31.879  23.414  24.630  1.00  0.00    -0.129 SA
ATOM     14  C   UNL A   1      32.047  22.367  26.073  1.00  0.00     0.106 C 
ATOM     15  C   UNL A   1      33.211  21.420  25.844  1.00  0.00    -0.020 C 
BRANCH   8  16
ATOM     16  N   UNL A   1      33.421  25.443  22.693  1.00  0.00    -0.336 N 
ATOM     17  C   UNL A   1      32.687  26.613  22.613  1.00  0.00     0.270 C 
ATOM     18  O   UNL A   1      32.133  26.863  21.544  1.00  0.00    -0.268 OA
ATOM     19  H   UNL A   1      33.418  24.890  21.878  1.00  0.00     0.164 HD
BRANCH  17  20
ATOM     20  C   UNL A   1      32.541  27.433  23.795  1.00  0.00     0.126 A 
ATOM     21  C   UNL A   1      33.798  28.873  26.892  1.00  0.00     0.069 C 
ATOM     22  C   UNL A   1      33.001  28.418  25.727  1.00  0.00     0.060 A 
ATOM     23  C   UNL A   1      33.388  28.369  24.370  1.00  0.00     0.059 A 
ATOM     24  N   UNL A   1      31.800  27.866  25.902  1.00  0.00    -0.178 NA
ATOM     25  N   UNL A   1      31.489  27.364  24.684  1.00  0.00    -0.263 N 
ATOM     26  C   UNL A   1      30.183  26.772  24.521  1.00  0.00     0.174 C 
ENDBRANCH  17  20
ENDBRANCH   8  16
BRANCH  15  27
ATOM     27  C   UNL A   1      32.692  20.005  25.735  1.00  0.00     0.111 C 
BRANCH  27  28
ATOM     28  S   UNL A   1      32.522  19.646  23.984  1.00  0.00    -0.089 SA
BRANCH  28  29
ATOM     29  C   UNL A   1      32.748  17.948  23.838  1.00  0.00     0.174 A 
ATOM     30  N   UNL A   1      33.246  17.384  22.762  1.00  0.00    -0.132 NA
ATOM     31  S   UNL A   1      32.896  17.000  25.258  1.00  0.00    -0.091 S 
ATOM     32  N   UNL A   1      34.125  16.371  23.116  1.00  0.00    -0.143 NA
ATOM     33  C   UNL A   1      34.188  16.233  24.427  1.00  0.00     0.115 A 
ATOM     34  C   UNL A   1      35.310  15.646  25.190  1.00  0.00     0.081 C 
ENDBRANCH  28  29
ENDBRANCH  27  28
ENDBRANCH  15  27
ENDBRANCH   4   7
ENDBRANCH   2   3
ENDBRANCH   1   2
BRANCH   1  35
ATOM     35  C   UNL A   1      39.796  21.412  25.749  1.00  0.00     0.023 C 
BRANCH  35  36
ATOM     36  C   UNL A   1      40.062  20.258  26.686  1.00  0.00     0.116 C 
BRANCH  36  37
ATOM     37  N   UNL A   1      40.933  19.221  26.143  1.00  0.00    -0.352 N 
ATOM     38  C   UNL A   1      42.300  19.288  25.977  1.00  0.00     0.251 C 
ATOM     39  H   UNL A   1      40.497  18.382  25.866  1.00  0.00     0.163 HD
ATOM     40  O   UNL A   1      42.928  18.371  25.463  1.00  0.00    -0.269 OA
BRANCH  38  41
ATOM     41  C   UNL A   1      42.975  20.537  26.382  1.00  0.00     0.039 A 
ATOM     42  C   UNL A   1      43.494  21.376  25.397  1.00  0.00     0.014 A 
ATOM     43  C   UNL A   1      42.900  20.954  27.713  1.00  0.00     0.014 A 
ATOM     44  C   UNL A   1      43.847  22.683  25.735  1.00  0.00     0.010 A 
ATOM     45  C   UNL A   1      43.124  22.288  28.015  1.00  0.00     0.010 A 
ATOM     46  C   UNL A   1      43.607  23.167  27.032  1.00  0.00    -0.014 A 
BRANCH  46  47
ATOM     47  C   UNL A   1      43.869  24.582  27.397  1.00  0.00     0.031 A 
ATOM     48  C   UNL A   1      45.287  25.079  27.462  1.00  0.00     0.074 A 
ATOM     49  C   UNL A   1      42.848  25.394  27.740  1.00  0.00     0.049 A 
ATOM     50  N   UNL A   1      45.741  26.247  27.835  1.00  0.00    -0.248 NA
ATOM     51  C   UNL A   1      46.343  24.117  27.100  1.00  0.00     0.031 C 
ATOM     52  C   UNL A   1      41.436  25.013  27.785  1.00  0.00     0.029 A 
ATOM     53  N   UNL A   1      42.846  26.713  28.126  1.00  0.00    -0.354 N 
ATOM     54  C   UNL A   1      47.124  26.149  27.773  1.00  0.00     0.074 A 
ATOM     55  C   UNL A   1      47.440  24.789  27.406  1.00  0.00     0.031 C 
ATOM     56  C   UNL A   1      40.702  26.082  28.137  1.00  0.00     0.029 A 
ATOM     57  C   UNL A   1      41.591  27.211  28.384  1.00  0.00     0.049 A 
ATOM     58  H   UNL A   1      43.666  27.250  28.209  1.00  0.00     0.167 HD
ATOM     59  C   UNL A   1      48.050  27.117  27.966  1.00  0.00     0.037 A 
ATOM     60  C   UNL A   1      41.207  28.441  28.777  1.00  0.00     0.037 A 
ATOM     61  C   UNL A   1      47.729  28.480  28.291  1.00  0.00     0.049 A 
ATOM     62  C   UNL A   1      42.255  29.504  28.976  1.00  0.00     0.074 A 
ATOM     63  C   UNL A   1      48.585  29.555  28.441  1.00  0.00     0.029 A 
ATOM     64  N   UNL A   1      46.445  28.954  28.514  1.00  0.00    -0.354 N 
ATOM     65  N   UNL A   1      43.556  29.421  28.835  1.00  0.00    -0.248 NA
ATOM     66  C   UNL A   1      41.780  30.834  29.381  1.00  0.00     0.031 C 
ATOM     67  C   UNL A   1      47.824  30.670  28.805  1.00  0.00     0.029 A 
ATOM     68  C   UNL A   1      46.487  30.303  28.823  1.00  0.00     0.049 A 
ATOM     69  H   UNL A   1      45.625  28.412  28.461  1.00  0.00     0.167 HD
ATOM     70  C   UNL A   1      44.052  30.691  29.101  1.00  0.00     0.074 A 
ATOM     71  C   UNL A   1      42.910  31.529  29.398  1.00  0.00     0.031 C 
ATOM     72  C   UNL A   1      45.336  31.124  29.100  1.00  0.00     0.037 A 
BRANCH  59  73
ATOM     73  C   UNL A   1      49.495  26.734  27.816  1.00  0.00     0.064 A 
ATOM     74  C   UNL A   1      50.103  26.632  26.555  1.00  0.00     0.173 A 
ATOM     75  C   UNL A   1      50.286  26.486  28.947  1.00  0.00     0.173 A 
ATOM     76  F   UNL A   1      49.388  26.842  25.440  1.00  0.00    -0.203 F 
ATOM     77  C   UNL A   1      51.440  26.260  26.432  1.00  0.00     0.198 A 
ATOM     78  C   UNL A   1      51.631  26.150  28.822  1.00  0.00     0.198 A 
ATOM     79  F   UNL A   1      49.755  26.570  30.177  1.00  0.00    -0.203 F 
ATOM     80  F   UNL A   1      51.981  26.109  25.215  1.00  0.00    -0.200 F 
ATOM     81  C   UNL A   1      52.205  26.028  27.565  1.00  0.00     0.200 A 
ATOM     82  F   UNL A   1      52.373  25.938  29.918  1.00  0.00    -0.200 F 
ATOM     83  F   UNL A   1      53.492  25.678  27.445  1.00  0.00    -0.200 F 
ENDBRANCH  59  73
BRANCH  60  84
ATOM     84  C   UNL A   1      39.764  28.748  28.975  1.00  0.00     0.064 A 
ATOM     85  C   UNL A   1      38.974  29.213  27.913  1.00  0.00     0.173 A 
ATOM     86  C   UNL A   1      39.147  28.595  30.224  1.00  0.00     0.173 A 
ATOM     87  F   UNL A   1      39.520  29.395  26.702  1.00  0.00    -0.203 F 
ATOM     88  C   UNL A   1      37.632  29.537  28.100  1.00  0.00     0.198 A 
ATOM     89  C   UNL A   1      37.796  28.891  30.403  1.00  0.00     0.198 A 
ATOM     90  F   UNL A   1      39.854  28.147  31.273  1.00  0.00    -0.203 F 
ATOM     91  F   UNL A   1      36.915  30.028  27.079  1.00  0.00    -0.200 F 
ATOM     92  C   UNL A   1      37.042  29.370  29.344  1.00  0.00     0.200 A 
ATOM     93  F   UNL A   1      37.228  28.713  31.603  1.00  0.00    -0.200 F 
ATOM     94  F   UNL A   1      35.751  29.680  29.523  1.00  0.00    -0.200 F 
ENDBRANCH  60  84
BRANCH  72  95
ATOM     95  C   UNL A   1      45.575  32.579  29.382  1.00  0.00     0.064 A 
ATOM     96  C   UNL A   1      45.555  33.542  28.363  1.00  0.00     0.173 A 
ATOM     97  C   UNL A   1      45.775  33.019  30.700  1.00  0.00     0.173 A 
ATOM     98  F   UNL A   1      45.381  33.171  27.086  1.00  0.00    -0.203 F 
ATOM     99  C   UNL A   1      45.754  34.890  28.651  1.00  0.00     0.198 A 
ATOM    100  C   UNL A   1      45.939  34.370  30.987  1.00  0.00     0.198 A 
ATOM    101  F   UNL A   1      45.793  32.138  31.711  1.00  0.00    -0.203 F 
ATOM    102  F   UNL A   1      45.778  35.788  27.656  1.00  0.00    -0.200 F 
ATOM    103  C   UNL A   1      45.935  35.304  29.962  1.00  0.00     0.200 A 
ATOM    104  F   UNL A   1      46.096  34.769  32.257  1.00  0.00    -0.200 F 
ATOM    105  F   UNL A   1      46.114  36.603  30.238  1.00  0.00    -0.200 F 
ENDBRANCH  72  95
ENDBRANCH  46  47
ENDBRANCH  38  41
ENDBRANCH  36  37
ENDBRANCH  35  36
ENDBRANCH   1  35
TORSDOF 16
ENDMDL
MODEL 3
REMARK VINA RESULT:     -12.9      5.008     11.130
REMARK SMILES Cc1cc(C(=O)N[C@@H]2C(=O)N3C(C(=O)NCCCCNC(=O)c4ccc(-c5c6nc(c(-c7c(F)c(F)c(F)c(F)c7F)c7ccc([nH]7)c(-c7c(F)c(F)c(F)c(F)c7F)c7nc(c(-c8c(F)c(F)c(F)c(F)c8F)c8ccc5[nH]8)C=C7)C=C6)cc4)=C(CSc4nnc(C)s4)CS[C@H]23)n(C)n1
REMARK SMILES IDX 17 1 16 2 15 3 13 4 14 5 12 7 8 8 9 9 97 10 10 11 11 12
REMARK SMILES IDX 96 13 95 14 86 15 7 16 5 17 6 18 4 20 1 21 2 22 3 23 100 24
REMARK SMILES IDX 98 25 99 26 87 27 88 28 89 29 90 30 94 31 91 32 92 33 93 34
REMARK SMILES IDX 18 35 19 36 20 37 21 38 22 40 23 41 24 42 85 43 25 44 84 45
REMARK SMILES IDX 26 46 27 47 28 48 78 49 29 50 83 51 77 52 79 53 30 54 82 55
REMARK SMILES IDX 76 56 75 57 31 59 63 60 43 61 62 62 44 63 47 64 61 65 80 66
REMARK SMILES IDX 45 67 46 68 60 70 81 71 48 72 32 73 33 74 41 75 34 76 35 77
REMARK SMILES IDX 39 78 42 79 36 80 37 81 40 82 38 83 64 84 65 85 73 86 66 87
REMARK SMILES IDX 67 88 71 89 74 90 68 91 69 92 72 93 70 94 49 95 50 96 58 97
REMARK SMILES IDX 51 98 52 99 56 100 59 101 53 102 54 103 57 104 55 105
REMARK H PARENT 15 6 7 19 20 39 79 58 47 69
REMARK Flexibility Score: inf
ROOT
ATOM      1  C   UNL A   1      39.355  22.798  26.283  1.00  0.00     0.023 C 
ENDROOT
BRANCH   1   2
ATOM      2  C   UNL A   1      38.135  23.673  25.975  1.00  0.00     0.116 C 
BRANCH   2   3
ATOM      3  N   UNL A   1      37.561  23.315  24.697  1.00  0.00    -0.351 N 
ATOM      4  C   UNL A   1      36.356  22.914  24.225  1.00  0.00     0.268 C 
ATOM      5  O   UNL A   1      36.307  22.934  22.989  1.00  0.00    -0.268 OA
ATOM      6  H   UNL A   1      38.224  23.382  23.974  1.00  0.00     0.163 HD
BRANCH   4   7
ATOM      7  C   UNL A   1      35.070  22.652  25.031  1.00  0.00     0.111 C 
ATOM      8  C   UNL A   1      32.921  25.316  25.453  1.00  0.00     0.206 C 
ATOM      9  C   UNL A   1      33.918  24.778  24.385  1.00  0.00     0.253 C 
ATOM     10  C   UNL A   1      33.211  23.952  26.138  1.00  0.00     0.181 C 
ATOM     11  O   UNL A   1      34.107  25.013  23.209  1.00  0.00    -0.272 OA
ATOM     12  N   UNL A   1      34.366  23.828  25.269  1.00  0.00    -0.290 N 
ATOM     13  S   UNL A   1      32.051  22.592  25.789  1.00  0.00    -0.129 SA
ATOM     14  C   UNL A   1      33.285  21.416  26.339  1.00  0.00     0.106 C 
ATOM     15  C   UNL A   1      34.461  21.473  25.382  1.00  0.00    -0.020 C 
BRANCH   8  16
ATOM     16  N   UNL A   1      31.540  25.655  25.013  1.00  0.00    -0.336 N 
ATOM     17  C   UNL A   1      30.929  26.890  24.889  1.00  0.00     0.270 C 
ATOM     18  O   UNL A   1      29.771  26.912  24.475  1.00  0.00    -0.268 OA
ATOM     19  H   UNL A   1      30.975  24.883  24.776  1.00  0.00     0.164 HD
BRANCH  17  20
ATOM     20  C   UNL A   1      31.641  28.072  25.322  1.00  0.00     0.126 A 
ATOM     21  C   UNL A   1      31.778  31.360  26.875  1.00  0.00     0.069 C 
ATOM     22  C   UNL A   1      32.035  30.084  26.165  1.00  0.00     0.060 A 
ATOM     23  C   UNL A   1      31.588  28.789  26.508  1.00  0.00     0.059 A 
ATOM     24  N   UNL A   1      32.663  30.077  24.989  1.00  0.00    -0.178 NA
ATOM     25  N   UNL A   1      32.503  28.810  24.539  1.00  0.00    -0.263 N 
ATOM     26  C   UNL A   1      33.162  28.453  23.306  1.00  0.00     0.174 C 
ENDBRANCH  17  20
ENDBRANCH   8  16
BRANCH  15  27
ATOM     27  C   UNL A   1      34.557  20.168  24.626  1.00  0.00     0.111 C 
BRANCH  27  28
ATOM     28  S   UNL A   1      32.890  19.737  24.116  1.00  0.00    -0.089 SA
BRANCH  28  29
ATOM     29  C   UNL A   1      32.888  18.027  23.942  1.00  0.00     0.174 A 
ATOM     30  N   UNL A   1      33.268  17.421  22.841  1.00  0.00    -0.132 NA
ATOM     31  S   UNL A   1      32.964  17.046  25.344  1.00  0.00    -0.091 S 
ATOM     32  N   UNL A   1      34.021  16.297  23.150  1.00  0.00    -0.143 NA
ATOM     33  C   UNL A   1      34.113  16.131  24.455  1.00  0.00     0.115 A 
ATOM     34  C   UNL A   1      35.177  15.391  25.168  1.00  0.00     0.081 C 
ENDBRANCH  28  29
ENDBRANCH  27  28
ENDBRANCH  15  27
ENDBRANCH   4   7
ENDBRANCH   2   3
ENDBRANCH   1   2
BRANCH   1  35
ATOM     35  C   UNL A   1      39.339  21.381  25.752  1.00  0.00     0.023 C 
BRANCH  35  36
ATOM     36  C   UNL A   1      39.702  20.329  26.773  1.00  0.00     0.116 C 
BRANCH  36  37
ATOM     37  N   UNL A   1      40.533  19.245  26.261  1.00  0.00    -0.352 N 
ATOM     38  C   UNL A   1      41.891  19.279  26.027  1.00  0.00     0.251 C 
ATOM     39  H   UNL A   1      40.074  18.397  26.062  1.00  0.00     0.163 HD
ATOM     40  O   UNL A   1      42.482  18.320  25.547  1.00  0.00    -0.269 OA
BRANCH  38  41
ATOM     41  C   UNL A   1      42.600  20.542  26.316  1.00  0.00     0.039 A 
ATOM     42  C   UNL A   1      43.023  21.338  25.252  1.00  0.00     0.014 A 
ATOM     43  C   UNL A   1      42.651  21.012  27.630  1.00  0.00     0.014 A 
ATOM     44  C   UNL A   1      43.405  22.657  25.502  1.00  0.00     0.010 A 
ATOM     45  C   UNL A   1      42.902  22.357  27.855  1.00  0.00     0.010 A 
ATOM     46  C   UNL A   1      43.289  23.194  26.795  1.00  0.00    -0.014 A 
BRANCH  46  47
ATOM     47  C   UNL A   1      43.582  24.622  27.076  1.00  0.00     0.031 A 
ATOM     48  C   UNL A   1      44.970  25.152  26.837  1.00  0.00     0.074 A 
ATOM     49  C   UNL A   1      42.634  25.417  27.612  1.00  0.00     0.049 A 
ATOM     50  N   UNL A   1      45.460  26.338  27.089  1.00  0.00    -0.248 NA
ATOM     51  C   UNL A   1      45.953  24.208  26.277  1.00  0.00     0.031 C 
ATOM     52  C   UNL A   1      41.273  25.005  27.956  1.00  0.00     0.029 A 
ATOM     53  N   UNL A   1      42.677  26.743  27.969  1.00  0.00    -0.354 N 
ATOM     54  C   UNL A   1      46.802  26.271  26.742  1.00  0.00     0.074 A 
ATOM     55  C   UNL A   1      47.071  24.911  26.338  1.00  0.00     0.031 C 
ATOM     56  C   UNL A   1      40.600  26.063  28.437  1.00  0.00     0.029 A 
ATOM     57  C   UNL A   1      41.490  27.217  28.475  1.00  0.00     0.049 A 
ATOM     58  H   UNL A   1      43.482  27.301  27.871  1.00  0.00     0.167 HD
ATOM     59  C   UNL A   1      47.722  27.264  26.722  1.00  0.00     0.037 A 
ATOM     60  C   UNL A   1      41.163  28.446  28.921  1.00  0.00     0.037 A 
ATOM     61  C   UNL A   1      47.439  28.625  27.087  1.00  0.00     0.049 A 
ATOM     62  C   UNL A   1      42.201  29.537  28.881  1.00  0.00     0.074 A 
ATOM     63  C   UNL A   1      48.278  29.722  27.038  1.00  0.00     0.029 A 
ATOM     64  N   UNL A   1      46.216  29.074  27.565  1.00  0.00    -0.354 N 
ATOM     65  N   UNL A   1      43.446  29.481  28.474  1.00  0.00    -0.248 NA
ATOM     66  C   UNL A   1      41.786  30.864  29.355  1.00  0.00     0.031 C 
ATOM     67  C   UNL A   1      47.580  30.827  27.536  1.00  0.00     0.029 A 
ATOM     68  C   UNL A   1      46.286  30.430  27.837  1.00  0.00     0.049 A 
ATOM     69  H   UNL A   1      45.419  28.512  27.692  1.00  0.00     0.167 HD
ATOM     70  C   UNL A   1      43.952  30.767  28.611  1.00  0.00     0.074 A 
ATOM     71  C   UNL A   1      42.874  31.585  29.126  1.00  0.00     0.031 C 
ATOM     72  C   UNL A   1      45.196  31.230  28.335  1.00  0.00     0.037 A 
BRANCH  59  73
ATOM     73  C   UNL A   1      49.113  26.911  26.282  1.00  0.00     0.064 A 
ATOM     74  C   UNL A   1      50.070  26.421  27.185  1.00  0.00     0.173 A 
ATOM     75  C   UNL A   1      49.489  27.043  24.937  1.00  0.00     0.173 A 
ATOM     76  F   UNL A   1      49.768  26.290  28.485  1.00  0.00    -0.203 F 
ATOM     77  C   UNL A   1      51.361  26.112  26.765  1.00  0.00     0.198 A 
ATOM     78  C   UNL A   1      50.770  26.699  24.514  1.00  0.00     0.198 A 
ATOM     79  F   UNL A   1      48.614  27.506  24.032  1.00  0.00    -0.203 F 
ATOM     80  F   UNL A   1      52.275  25.705  27.657  1.00  0.00    -0.200 F 
ATOM     81  C   UNL A   1      51.707  26.243  25.428  1.00  0.00     0.200 A 
ATOM     82  F   UNL A   1      51.100  26.815  23.220  1.00  0.00    -0.200 F 
ATOM     83  F   UNL A   1      52.948  25.938  25.024  1.00  0.00    -0.200 F 
ENDBRANCH  59  73
BRANCH  60  84
ATOM     84  C   UNL A   1      39.786  28.724  29.410  1.00  0.00     0.064 A 
ATOM     85  C   UNL A   1      39.439  28.501  30.751  1.00  0.00     0.173 A 
ATOM     86  C   UNL A   1      38.787  29.205  28.552  1.00  0.00     0.173 A 
ATOM     87  F   UNL A   1      40.352  28.022  31.608  1.00  0.00    -0.203 F 
ATOM     88  C   UNL A   1      38.140  28.723  31.207  1.00  0.00     0.198 A 
ATOM     89  C   UNL A   1      37.496  29.457  29.017  1.00  0.00     0.198 A 
ATOM     90  F   UNL A   1      39.065  29.443  27.262  1.00  0.00    -0.203 F 
ATOM     91  F   UNL A   1      37.825  28.453  32.482  1.00  0.00    -0.200 F 
ATOM     92  C   UNL A   1      37.172  29.207  30.341  1.00  0.00     0.200 A 
ATOM     93  F   UNL A   1      36.568  29.939  28.180  1.00  0.00    -0.200 F 
ATOM     94  F   UNL A   1      35.925  29.423  30.781  1.00  0.00    -0.200 F 
ENDBRANCH  60  84
BRANCH  72  95
ATOM     95  C   UNL A   1      45.450  32.695  28.539  1.00  0.00     0.064 A 
ATOM     96  C   UNL A   1      45.956  33.195  29.747  1.00  0.00     0.173 A 
ATOM     97  C   UNL A   1      45.231  33.602  27.491  1.00  0.00     0.173 A 
ATOM     98  F   UNL A   1      46.171  32.372  30.783  1.00  0.00    -0.203 F 
ATOM     99  C   UNL A   1      46.209  34.556  29.906  1.00  0.00     0.198 A 
ATOM    100  C   UNL A   1      45.516  34.955  27.642  1.00  0.00     0.198 A 
ATOM    101  F   UNL A   1      44.756  33.172  26.312  1.00  0.00    -0.203 F 
ATOM    102  F   UNL A   1      46.648  35.020  31.085  1.00  0.00    -0.200 F 
ATOM    103  C   UNL A   1      45.998  35.432  28.852  1.00  0.00     0.200 A 
ATOM    104  F   UNL A   1      45.328  35.797  26.616  1.00  0.00    -0.200 F 
ATOM    105  F   UNL A   1      46.253  36.739  29.003  1.00  0.00    -0.200 F 
ENDBRANCH  72  95
ENDBRANCH  46  47
ENDBRANCH  38  41
ENDBRANCH  36  37
ENDBRANCH  35  36
ENDBRANCH   1  35
TORSDOF 16
ENDMDL
