MODEL 1
REMARK VINA RESULT:     -12.5      0.000      0.000
REMARK SMILES C[C@H]1CCC[C@@H]1n1c(SCC(=O)NCCCCNC(=O)c2ccc(-c3c4nc(c(-c5c(F)c(F)c(F)c(F)c5F)c5ccc([nH]5)c(-c5c(F)c(F)c(F)c(F)c5F)c5nc(c(-c6c(F)c(F)c(F)c(F)c6F)c6ccc3[nH]6)C=C5)C=C4)cc2)nc2cnccc21
REMARK SMILES IDX 15 1 14 2 13 3 11 4 12 5 10 7 9 8 8 9 7 10 90 11 84 12 85 13
REMARK SMILES IDX 89 14 86 15 88 16 87 17 6 18 1 19 2 20 3 21 4 22 5 23 16 24
REMARK SMILES IDX 17 25 18 26 19 27 20 29 21 30 22 31 83 32 23 33 82 34 24 35
REMARK SMILES IDX 25 36 26 37 76 38 27 39 81 40 75 41 77 42 28 43 80 44 74 45
REMARK SMILES IDX 73 46 29 48 61 49 41 50 60 51 42 52 45 53 59 54 78 55 43 56
REMARK SMILES IDX 44 57 58 59 79 60 46 61 30 62 31 63 39 64 32 65 33 66 37 67
REMARK SMILES IDX 40 68 34 69 35 70 38 71 36 72 62 73 63 74 71 75 64 76 65 77
REMARK SMILES IDX 69 78 72 79 66 80 67 81 70 82 68 83 47 84 48 85 56 86 49 87
REMARK SMILES IDX 50 88 54 89 57 90 51 91 52 92 55 93 53 94
REMARK H PARENT 13 6 18 28 77 47 45 58
REMARK Flexibility Score: inf
ROOT
ATOM      1  C   UNL A   1      38.601  23.621  26.432  1.00  0.00     0.023 C 
ENDROOT
BRANCH   1   2
ATOM      2  C   UNL A   1      37.287  23.907  25.721  1.00  0.00     0.116 C 
BRANCH   2   3
ATOM      3  N   UNL A   1      37.190  23.232  24.449  1.00  0.00    -0.355 N 
ATOM      4  C   UNL A   1      36.116  23.145  23.631  1.00  0.00     0.230 C 
ATOM      5  O   UNL A   1      36.369  23.005  22.428  1.00  0.00    -0.274 OA
ATOM      6  H   UNL A   1      38.007  22.777  24.139  1.00  0.00     0.163 HD
BRANCH   4   7
ATOM      7  C   UNL A   1      34.698  23.352  24.098  1.00  0.00     0.178 C 
BRANCH   7   8
ATOM      8  S   UNL A   1      33.695  24.746  23.623  1.00  0.00    -0.078 SA
BRANCH   8   9
ATOM      9  C   UNL A   1      33.227  25.950  24.779  1.00  0.00     0.169 A 
ATOM     10  N   UNL A   1      32.090  26.764  24.872  1.00  0.00    -0.315 N 
ATOM     11  C   UNL A   1      32.383  27.731  25.844  1.00  0.00     0.072 A 
ATOM     12  N   UNL A   1      34.223  26.472  25.471  1.00  0.00    -0.221 NA
ATOM     13  C   UNL A   1      33.752  27.608  26.060  1.00  0.00     0.108 A 
ATOM     14  C   UNL A   1      31.671  28.739  26.510  1.00  0.00     0.049 A 
ATOM     15  C   UNL A   1      34.435  28.588  26.793  1.00  0.00     0.141 A 
ATOM     16  C   UNL A   1      32.425  29.659  27.230  1.00  0.00     0.113 A 
ATOM     17  N   UNL A   1      33.765  29.624  27.356  1.00  0.00    -0.262 NA
BRANCH  10  18
ATOM     18  C   UNL A   1      30.965  26.823  23.929  1.00  0.00     0.093 C 
ATOM     19  C   UNL A   1      31.008  29.065  22.612  1.00  0.00     0.010 C 
ATOM     20  C   UNL A   1      30.285  28.183  23.626  1.00  0.00     0.009 C 
ATOM     21  C   UNL A   1      28.900  27.804  23.096  1.00  0.00     0.005 C 
ATOM     22  C   UNL A   1      28.477  26.651  23.970  1.00  0.00     0.002 C 
ATOM     23  C   UNL A   1      29.776  26.001  24.413  1.00  0.00     0.026 C 
ENDBRANCH  10  18
ENDBRANCH   8   9
ENDBRANCH   7   8
ENDBRANCH   4   7
ENDBRANCH   2   3
ENDBRANCH   1   2
BRANCH   1  24
ATOM     24  C   UNL A   1      39.197  22.222  26.221  1.00  0.00     0.023 C 
BRANCH  24  25
ATOM     25  C   UNL A   1      40.640  22.016  26.688  1.00  0.00     0.116 C 
BRANCH  25  26
ATOM     26  N   UNL A   1      41.656  22.423  25.740  1.00  0.00    -0.352 N 
ATOM     27  C   UNL A   1      42.468  23.512  25.600  1.00  0.00     0.251 C 
ATOM     28  H   UNL A   1      41.795  21.757  25.029  1.00  0.00     0.163 HD
ATOM     29  O   UNL A   1      43.365  23.411  24.753  1.00  0.00    -0.269 OA
BRANCH  27  30
ATOM     30  C   UNL A   1      42.318  24.803  26.320  1.00  0.00     0.039 A 
ATOM     31  C   UNL A   1      42.878  25.108  27.558  1.00  0.00     0.014 A 
ATOM     32  C   UNL A   1      41.489  25.764  25.703  1.00  0.00     0.014 A 
ATOM     33  C   UNL A   1      42.535  26.287  28.209  1.00  0.00     0.010 A 
ATOM     34  C   UNL A   1      41.162  26.958  26.338  1.00  0.00     0.010 A 
ATOM     35  C   UNL A   1      41.655  27.198  27.613  1.00  0.00    -0.014 A 
BRANCH  35  36
ATOM     36  C   UNL A   1      41.434  28.466  28.307  1.00  0.00     0.031 A 
ATOM     37  C   UNL A   1      42.521  29.454  28.070  1.00  0.00     0.074 A 
ATOM     38  C   UNL A   1      40.339  28.771  29.034  1.00  0.00     0.049 A 
ATOM     39  N   UNL A   1      43.356  29.926  28.935  1.00  0.00    -0.248 NA
ATOM     40  C   UNL A   1      42.812  29.850  26.682  1.00  0.00     0.031 C 
ATOM     41  C   UNL A   1      39.090  28.012  29.118  1.00  0.00     0.029 A 
ATOM     42  N   UNL A   1      40.076  29.880  29.792  1.00  0.00    -0.354 N 
ATOM     43  C   UNL A   1      44.157  30.828  28.239  1.00  0.00     0.074 A 
ATOM     44  C   UNL A   1      43.885  30.626  26.841  1.00  0.00     0.031 C 
ATOM     45  C   UNL A   1      38.135  28.782  29.688  1.00  0.00     0.029 A 
ATOM     46  C   UNL A   1      38.736  30.027  30.137  1.00  0.00     0.049 A 
ATOM     47  H   UNL A   1      40.774  30.517  30.070  1.00  0.00     0.167 HD
ATOM     48  C   UNL A   1      44.762  31.856  28.894  1.00  0.00     0.037 A 
ATOM     49  C   UNL A   1      38.157  31.112  30.708  1.00  0.00     0.037 A 
ATOM     50  C   UNL A   1      44.806  31.604  30.309  1.00  0.00     0.049 A 
ATOM     51  C   UNL A   1      39.222  31.876  31.398  1.00  0.00     0.074 A 
ATOM     52  C   UNL A   1      45.509  30.781  31.160  1.00  0.00     0.029 A 
ATOM     53  N   UNL A   1      43.699  32.042  30.981  1.00  0.00    -0.354 N 
ATOM     54  N   UNL A   1      39.849  31.452  32.459  1.00  0.00    -0.248 NA
ATOM     55  C   UNL A   1      39.827  33.020  30.726  1.00  0.00     0.031 C 
ATOM     56  C   UNL A   1      44.671  30.587  32.299  1.00  0.00     0.029 A 
ATOM     57  C   UNL A   1      43.503  31.328  32.126  1.00  0.00     0.049 A 
ATOM     58  H   UNL A   1      43.119  32.778  30.676  1.00  0.00     0.167 HD
ATOM     59  C   UNL A   1      41.117  31.979  32.333  1.00  0.00     0.074 A 
ATOM     60  C   UNL A   1      40.992  33.068  31.375  1.00  0.00     0.031 C 
ATOM     61  C   UNL A   1      42.203  31.272  32.756  1.00  0.00     0.037 A 
BRANCH  48  62
ATOM     62  C   UNL A   1      44.814  33.277  28.367  1.00  0.00     0.064 A 
ATOM     63  C   UNL A   1      46.071  33.895  28.191  1.00  0.00     0.173 A 
ATOM     64  C   UNL A   1      43.706  34.154  28.368  1.00  0.00     0.173 A 
ATOM     65  F   UNL A   1      47.198  33.168  28.211  1.00  0.00    -0.203 F 
ATOM     66  C   UNL A   1      46.207  35.284  28.091  1.00  0.00     0.198 A 
ATOM     67  C   UNL A   1      43.842  35.532  28.218  1.00  0.00     0.198 A 
ATOM     68  F   UNL A   1      42.465  33.734  28.636  1.00  0.00    -0.203 F 
ATOM     69  F   UNL A   1      47.429  35.833  28.050  1.00  0.00    -0.200 F 
ATOM     70  C   UNL A   1      45.092  36.101  28.109  1.00  0.00     0.200 A 
ATOM     71  F   UNL A   1      42.751  36.309  28.272  1.00  0.00    -0.200 F 
ATOM     72  F   UNL A   1      45.222  37.434  28.073  1.00  0.00    -0.200 F 
ENDBRANCH  48  62
BRANCH  49  73
ATOM     73  C   UNL A   1      36.800  31.686  30.504  1.00  0.00     0.064 A 
ATOM     74  C   UNL A   1      35.917  31.853  31.588  1.00  0.00     0.173 A 
ATOM     75  C   UNL A   1      36.461  32.363  29.318  1.00  0.00     0.173 A 
ATOM     76  F   UNL A   1      36.175  31.268  32.768  1.00  0.00    -0.203 F 
ATOM     77  C   UNL A   1      34.802  32.694  31.508  1.00  0.00     0.198 A 
ATOM     78  C   UNL A   1      35.342  33.195  29.237  1.00  0.00     0.198 A 
ATOM     79  F   UNL A   1      37.262  32.315  28.245  1.00  0.00    -0.203 F 
ATOM     80  F   UNL A   1      34.036  32.895  32.590  1.00  0.00    -0.200 F 
ATOM     81  C   UNL A   1      34.525  33.378  30.337  1.00  0.00     0.200 A 
ATOM     82  F   UNL A   1      35.102  33.875  28.107  1.00  0.00    -0.200 F 
ATOM     83  F   UNL A   1      33.504  34.243  30.282  1.00  0.00    -0.200 F 
ENDBRANCH  49  73
BRANCH  61  84
ATOM     84  C   UNL A   1      41.999  30.239  33.816  1.00  0.00     0.064 A 
ATOM     85  C   UNL A   1      41.643  28.905  33.572  1.00  0.00     0.173 A 
ATOM     86  C   UNL A   1      42.321  30.603  35.132  1.00  0.00     0.173 A 
ATOM     87  F   UNL A   1      41.388  28.473  32.329  1.00  0.00    -0.203 F 
ATOM     88  C   UNL A   1      41.603  27.978  34.613  1.00  0.00     0.198 A 
ATOM     89  C   UNL A   1      42.317  29.668  36.158  1.00  0.00     0.198 A 
ATOM     90  F   UNL A   1      42.699  31.862  35.407  1.00  0.00    -0.203 F 
ATOM     91  F   UNL A   1      41.260  26.705  34.365  1.00  0.00    -0.200 F 
ATOM     92  C   UNL A   1      41.955  28.356  35.900  1.00  0.00     0.200 A 
ATOM     93  F   UNL A   1      42.701  30.031  37.390  1.00  0.00    -0.200 F 
ATOM     94  F   UNL A   1      41.971  27.451  36.888  1.00  0.00    -0.200 F 
ENDBRANCH  61  84
ENDBRANCH  35  36
ENDBRANCH  27  30
ENDBRANCH  25  26
ENDBRANCH  24  25
ENDBRANCH   1  24
TORSDOF 14
ENDMDL
MODEL 2
REMARK VINA RESULT:     -12.5      2.672      3.802
REMARK SMILES C[C@H]1CCC[C@@H]1n1c(SCC(=O)NCCCCNC(=O)c2ccc(-c3c4nc(c(-c5c(F)c(F)c(F)c(F)c5F)c5ccc([nH]5)c(-c5c(F)c(F)c(F)c(F)c5F)c5nc(c(-c6c(F)c(F)c(F)c(F)c6F)c6ccc3[nH]6)C=C5)C=C4)cc2)nc2cnccc21
REMARK SMILES IDX 15 1 14 2 13 3 11 4 12 5 10 7 9 8 8 9 7 10 90 11 84 12 85 13
REMARK SMILES IDX 89 14 86 15 88 16 87 17 6 18 1 19 2 20 3 21 4 22 5 23 16 24
REMARK SMILES IDX 17 25 18 26 19 27 20 29 21 30 22 31 83 32 23 33 82 34 24 35
REMARK SMILES IDX 25 36 26 37 76 38 27 39 81 40 75 41 77 42 28 43 80 44 74 45
REMARK SMILES IDX 73 46 29 48 61 49 41 50 60 51 42 52 45 53 59 54 78 55 43 56
REMARK SMILES IDX 44 57 58 59 79 60 46 61 30 62 31 63 39 64 32 65 33 66 37 67
REMARK SMILES IDX 40 68 34 69 35 70 38 71 36 72 62 73 63 74 71 75 64 76 65 77
REMARK SMILES IDX 69 78 72 79 66 80 67 81 70 82 68 83 47 84 48 85 56 86 49 87
REMARK SMILES IDX 50 88 54 89 57 90 51 91 52 92 55 93 53 94
REMARK H PARENT 13 6 18 28 77 47 45 58
REMARK Flexibility Score: inf
ROOT
ATOM      1  C   UNL A   1      41.062  20.926  27.435  1.00  0.00     0.023 C 
ENDROOT
BRANCH   1   2
ATOM      2  C   UNL A   1      40.068  21.132  26.302  1.00  0.00     0.116 C 
BRANCH   2   3
ATOM      3  N   UNL A   1      39.501  22.460  26.301  1.00  0.00    -0.355 N 
ATOM      4  C   UNL A   1      38.281  22.844  25.861  1.00  0.00     0.230 C 
ATOM      5  O   UNL A   1      37.806  23.848  26.407  1.00  0.00    -0.274 OA
ATOM      6  H   UNL A   1      40.074  23.173  26.664  1.00  0.00     0.163 HD
BRANCH   4   7
ATOM      7  C   UNL A   1      37.461  22.043  24.881  1.00  0.00     0.178 C 
BRANCH   7   8
ATOM      8  S   UNL A   1      36.192  22.748  23.847  1.00  0.00    -0.078 SA
BRANCH   8   9
ATOM      9  C   UNL A   1      34.561  22.906  24.411  1.00  0.00     0.169 A 
ATOM     10  N   UNL A   1      33.533  23.792  24.060  1.00  0.00    -0.315 N 
ATOM     11  C   UNL A   1      32.536  23.634  25.034  1.00  0.00     0.072 A 
ATOM     12  N   UNL A   1      34.333  22.388  25.604  1.00  0.00    -0.221 NA
ATOM     13  C   UNL A   1      33.142  22.888  26.040  1.00  0.00     0.108 A 
ATOM     14  C   UNL A   1      31.223  24.093  25.216  1.00  0.00     0.049 A 
ATOM     15  C   UNL A   1      32.513  22.750  27.284  1.00  0.00     0.141 A 
ATOM     16  C   UNL A   1      30.668  23.899  26.475  1.00  0.00     0.113 A 
ATOM     17  N   UNL A   1      31.283  23.280  27.501  1.00  0.00    -0.262 NA
BRANCH  10  18
ATOM     18  C   UNL A   1      33.608  24.895  23.094  1.00  0.00     0.093 C 
ATOM     19  C   UNL A   1      33.792  27.173  24.337  1.00  0.00     0.010 C 
ATOM     20  C   UNL A   1      32.962  26.263  23.436  1.00  0.00     0.009 C 
ATOM     21  C   UNL A   1      32.747  26.930  22.075  1.00  0.00     0.005 C 
ATOM     22  C   UNL A   1      32.285  25.804  21.185  1.00  0.00     0.002 C 
ATOM     23  C   UNL A   1      32.900  24.554  21.788  1.00  0.00     0.026 C 
ENDBRANCH  10  18
ENDBRANCH   8   9
ENDBRANCH   7   8
ENDBRANCH   4   7
ENDBRANCH   2   3
ENDBRANCH   1   2
BRANCH   1  24
ATOM     24  C   UNL A   1      42.217  19.954  27.157  1.00  0.00     0.023 C 
BRANCH  24  25
ATOM     25  C   UNL A   1      42.256  19.318  25.766  1.00  0.00     0.116 C 
BRANCH  25  26
ATOM     26  N   UNL A   1      43.449  19.599  24.995  1.00  0.00    -0.352 N 
ATOM     27  C   UNL A   1      44.355  20.620  24.951  1.00  0.00     0.251 C 
ATOM     28  H   UNL A   1      43.657  18.885  24.350  1.00  0.00     0.163 HD
ATOM     29  O   UNL A   1      45.374  20.409  24.281  1.00  0.00    -0.269 OA
BRANCH  27  30
ATOM     30  C   UNL A   1      44.183  21.958  25.576  1.00  0.00     0.039 A 
ATOM     31  C   UNL A   1      44.887  22.430  26.681  1.00  0.00     0.014 A 
ATOM     32  C   UNL A   1      43.180  22.778  25.017  1.00  0.00     0.014 A 
ATOM     33  C   UNL A   1      44.526  23.633  27.276  1.00  0.00     0.010 A 
ATOM     34  C   UNL A   1      42.832  23.995  25.593  1.00  0.00     0.010 A 
ATOM     35  C   UNL A   1      43.480  24.402  26.751  1.00  0.00    -0.014 A 
BRANCH  35  36
ATOM     36  C   UNL A   1      43.237  25.707  27.362  1.00  0.00     0.031 A 
ATOM     37  C   UNL A   1      44.251  26.726  26.975  1.00  0.00     0.074 A 
ATOM     38  C   UNL A   1      42.178  26.014  28.140  1.00  0.00     0.049 A 
ATOM     39  N   UNL A   1      45.115  27.305  27.741  1.00  0.00    -0.248 NA
ATOM     40  C   UNL A   1      44.426  27.026  25.545  1.00  0.00     0.031 C 
ATOM     41  C   UNL A   1      40.981  25.203  28.370  1.00  0.00     0.029 A 
ATOM     42  N   UNL A   1      41.907  27.165  28.830  1.00  0.00    -0.354 N 
ATOM     43  C   UNL A   1      45.816  28.188  26.924  1.00  0.00     0.074 A 
ATOM     44  C   UNL A   1      45.463  27.865  25.569  1.00  0.00     0.031 C 
ATOM     45  C   UNL A   1      40.026  25.968  28.946  1.00  0.00     0.029 A 
ATOM     46  C   UNL A   1      40.587  27.272  29.258  1.00  0.00     0.049 A 
ATOM     47  H   UNL A   1      42.586  27.855  29.009  1.00  0.00     0.167 HD
ATOM     48  C   UNL A   1      46.407  29.293  27.457  1.00  0.00     0.037 A 
ATOM     49  C   UNL A   1      39.989  28.368  29.786  1.00  0.00     0.037 A 
ATOM     50  C   UNL A   1      46.560  29.155  28.880  1.00  0.00     0.049 A 
ATOM     51  C   UNL A   1      41.055  29.235  30.339  1.00  0.00     0.074 A 
ATOM     52  C   UNL A   1      47.362  28.436  29.738  1.00  0.00     0.029 A 
ATOM     53  N   UNL A   1      45.478  29.589  29.593  1.00  0.00    -0.354 N 
ATOM     54  N   UNL A   1      41.774  28.927  31.382  1.00  0.00    -0.248 NA
ATOM     55  C   UNL A   1      41.550  30.352  29.543  1.00  0.00     0.031 C 
ATOM     56  C   UNL A   1      46.614  28.292  30.944  1.00  0.00     0.029 A 
ATOM     57  C   UNL A   1      45.399  28.958  30.800  1.00  0.00     0.049 A 
ATOM     58  H   UNL A   1      44.840  30.270  29.277  1.00  0.00     0.167 HD
ATOM     59  C   UNL A   1      43.000  29.505  31.127  1.00  0.00     0.074 A 
ATOM     60  C   UNL A   1      42.751  30.508  30.102  1.00  0.00     0.031 C 
ATOM     61  C   UNL A   1      44.148  28.887  31.523  1.00  0.00     0.037 A 
BRANCH  48  62
ATOM     62  C   UNL A   1      46.346  30.669  26.823  1.00  0.00     0.064 A 
ATOM     63  C   UNL A   1      47.503  31.478  26.833  1.00  0.00     0.173 A 
ATOM     64  C   UNL A   1      45.140  31.345  26.533  1.00  0.00     0.173 A 
ATOM     65  F   UNL A   1      48.700  30.954  27.132  1.00  0.00    -0.203 F 
ATOM     66  C   UNL A   1      47.442  32.862  26.635  1.00  0.00     0.198 A 
ATOM     67  C   UNL A   1      45.090  32.716  26.288  1.00  0.00     0.198 A 
ATOM     68  F   UNL A   1      43.949  30.740  26.598  1.00  0.00    -0.203 F 
ATOM     69  F   UNL A   1      48.547  33.606  26.778  1.00  0.00    -0.200 F 
ATOM     70  C   UNL A   1      46.234  33.480  26.367  1.00  0.00     0.200 A 
ATOM     71  F   UNL A   1      43.904  33.300  26.063  1.00  0.00    -0.200 F 
ATOM     72  F   UNL A   1      46.162  34.811  26.236  1.00  0.00    -0.200 F 
ENDBRANCH  48  62
BRANCH  49  73
ATOM     73  C   UNL A   1      38.592  28.856  29.636  1.00  0.00     0.064 A 
ATOM     74  C   UNL A   1      37.784  29.085  30.766  1.00  0.00     0.173 A 
ATOM     75  C   UNL A   1      38.132  29.401  28.423  1.00  0.00     0.173 A 
ATOM     76  F   UNL A   1      38.158  28.628  31.970  1.00  0.00    -0.203 F 
ATOM     77  C   UNL A   1      36.622  29.862  30.696  1.00  0.00     0.198 A 
ATOM     78  C   UNL A   1      36.967  30.169  28.353  1.00  0.00     0.198 A 
ATOM     79  F   UNL A   1      38.853  29.288  27.300  1.00  0.00    -0.203 F 
ATOM     80  F   UNL A   1      35.928  30.130  31.812  1.00  0.00    -0.200 F 
ATOM     81  C   UNL A   1      36.224  30.418  29.493  1.00  0.00     0.200 A 
ATOM     82  F   UNL A   1      36.609  30.726  27.188  1.00  0.00    -0.200 F 
ATOM     83  F   UNL A   1      35.157  31.226  29.438  1.00  0.00    -0.200 F 
ENDBRANCH  49  73
BRANCH  61  84
ATOM     84  C   UNL A   1      44.073  27.932  32.669  1.00  0.00     0.064 A 
ATOM     85  C   UNL A   1      43.900  28.305  34.009  1.00  0.00     0.173 A 
ATOM     86  C   UNL A   1      44.038  26.564  32.358  1.00  0.00     0.173 A 
ATOM     87  F   UNL A   1      43.856  29.596  34.368  1.00  0.00    -0.203 F 
ATOM     88  C   UNL A   1      43.709  27.341  34.998  1.00  0.00     0.198 A 
ATOM     89  C   UNL A   1      43.808  25.610  33.340  1.00  0.00     0.198 A 
ATOM     90  F   UNL A   1      44.166  26.161  31.084  1.00  0.00    -0.203 F 
ATOM     91  F   UNL A   1      43.545  27.713  36.276  1.00  0.00    -0.200 F 
ATOM     92  C   UNL A   1      43.648  25.997  34.660  1.00  0.00     0.200 A 
ATOM     93  F   UNL A   1      43.706  24.317  33.000  1.00  0.00    -0.200 F 
ATOM     94  F   UNL A   1      43.407  25.075  35.603  1.00  0.00    -0.200 F 
ENDBRANCH  61  84
ENDBRANCH  35  36
ENDBRANCH  27  30
ENDBRANCH  25  26
ENDBRANCH  24  25
ENDBRANCH   1  24
TORSDOF 14
ENDMDL
MODEL 3
REMARK VINA RESULT:     -12.5      1.783      3.190
REMARK SMILES C[C@H]1CCC[C@@H]1n1c(SCC(=O)NCCCCNC(=O)c2ccc(-c3c4nc(c(-c5c(F)c(F)c(F)c(F)c5F)c5ccc([nH]5)c(-c5c(F)c(F)c(F)c(F)c5F)c5nc(c(-c6c(F)c(F)c(F)c(F)c6F)c6ccc3[nH]6)C=C5)C=C4)cc2)nc2cnccc21
REMARK SMILES IDX 15 1 14 2 13 3 11 4 12 5 10 7 9 8 8 9 7 10 90 11 84 12 85 13
REMARK SMILES IDX 89 14 86 15 88 16 87 17 6 18 1 19 2 20 3 21 4 22 5 23 16 24
REMARK SMILES IDX 17 25 18 26 19 27 20 29 21 30 22 31 83 32 23 33 82 34 24 35
REMARK SMILES IDX 25 36 26 37 76 38 27 39 81 40 75 41 77 42 28 43 80 44 74 45
REMARK SMILES IDX 73 46 29 48 61 49 41 50 60 51 42 52 45 53 59 54 78 55 43 56
REMARK SMILES IDX 44 57 58 59 79 60 46 61 30 62 31 63 39 64 32 65 33 66 37 67
REMARK SMILES IDX 40 68 34 69 35 70 38 71 36 72 62 73 63 74 71 75 64 76 65 77
REMARK SMILES IDX 69 78 72 79 66 80 67 81 70 82 68 83 47 84 48 85 56 86 49 87
REMARK SMILES IDX 50 88 54 89 57 90 51 91 52 92 55 93 53 94
REMARK H PARENT 13 6 18 28 77 47 45 58
REMARK Flexibility Score: inf
ROOT
ATOM      1  C   UNL A   1      35.965  24.071  25.012  1.00  0.00     0.023 C 
ENDROOT
BRANCH   1   2
ATOM      2  C   UNL A   1      34.568  23.806  24.469  1.00  0.00     0.116 C 
BRANCH   2   3
ATOM      3  N   UNL A   1      34.401  24.289  23.119  1.00  0.00    -0.355 N 
ATOM      4  C   UNL A   1      33.271  24.747  22.532  1.00  0.00     0.230 C 
ATOM      5  O   UNL A   1      33.435  25.565  21.619  1.00  0.00    -0.274 OA
ATOM      6  H   UNL A   1      35.209  24.285  22.557  1.00  0.00     0.163 HD
BRANCH   4   7
ATOM      7  C   UNL A   1      31.886  24.418  23.029  1.00  0.00     0.178 C 
BRANCH   7   8
ATOM      8  S   UNL A   1      30.975  25.446  24.166  1.00  0.00    -0.078 SA
BRANCH   8   9
ATOM      9  C   UNL A   1      30.324  26.973  23.670  1.00  0.00     0.169 A 
ATOM     10  N   UNL A   1      30.744  28.289  23.904  1.00  0.00    -0.315 N 
ATOM     11  C   UNL A   1      29.685  29.113  23.500  1.00  0.00     0.072 A 
ATOM     12  N   UNL A   1      29.044  26.951  23.343  1.00  0.00    -0.221 NA
ATOM     13  C   UNL A   1      28.613  28.244  23.319  1.00  0.00     0.108 A 
ATOM     14  C   UNL A   1      29.485  30.492  23.336  1.00  0.00     0.049 A 
ATOM     15  C   UNL A   1      27.319  28.755  23.151  1.00  0.00     0.141 A 
ATOM     16  C   UNL A   1      28.172  30.912  23.156  1.00  0.00     0.113 A 
ATOM     17  N   UNL A   1      27.105  30.094  23.094  1.00  0.00    -0.262 NA
BRANCH  10  18
ATOM     18  C   UNL A   1      31.892  28.719  24.713  1.00  0.00     0.093 C 
ATOM     19  C   UNL A   1      34.084  28.577  23.320  1.00  0.00     0.010 C 
ATOM     20  C   UNL A   1      33.276  28.051  24.503  1.00  0.00     0.009 C 
ATOM     21  C   UNL A   1      34.027  28.319  25.810  1.00  0.00     0.005 C 
ATOM     22  C   UNL A   1      32.981  28.130  26.879  1.00  0.00     0.002 C 
ATOM     23  C   UNL A   1      31.665  28.464  26.199  1.00  0.00     0.026 C 
ENDBRANCH  10  18
ENDBRANCH   8   9
ENDBRANCH   7   8
ENDBRANCH   4   7
ENDBRANCH   2   3
ENDBRANCH   1   2
BRANCH   1  24
ATOM     24  C   UNL A   1      37.034  23.021  24.679  1.00  0.00     0.023 C 
BRANCH  24  25
ATOM     25  C   UNL A   1      37.619  22.243  25.859  1.00  0.00     0.116 C 
BRANCH  25  26
ATOM     26  N   UNL A   1      39.032  21.942  25.756  1.00  0.00    -0.352 N 
ATOM     27  C   UNL A   1      40.178  22.493  26.255  1.00  0.00     0.251 C 
ATOM     28  H   UNL A   1      39.209  21.154  25.193  1.00  0.00     0.163 HD
ATOM     29  O   UNL A   1      41.209  21.825  26.100  1.00  0.00    -0.269 OA
BRANCH  27  30
ATOM     30  C   UNL A   1      40.290  23.830  26.893  1.00  0.00     0.039 A 
ATOM     31  C   UNL A   1      39.577  24.966  26.519  1.00  0.00     0.014 A 
ATOM     32  C   UNL A   1      41.245  23.945  27.925  1.00  0.00     0.014 A 
ATOM     33  C   UNL A   1      39.884  26.200  27.081  1.00  0.00     0.010 A 
ATOM     34  C   UNL A   1      41.539  25.173  28.510  1.00  0.00     0.010 A 
ATOM     35  C   UNL A   1      40.885  26.309  28.055  1.00  0.00    -0.014 A 
BRANCH  35  36
ATOM     36  C   UNL A   1      41.069  27.617  28.680  1.00  0.00     0.031 A 
ATOM     37  C   UNL A   1      42.339  28.280  28.274  1.00  0.00     0.074 A 
ATOM     38  C   UNL A   1      40.174  28.223  29.487  1.00  0.00     0.049 A 
ATOM     39  N   UNL A   1      43.356  28.554  29.021  1.00  0.00    -0.248 NA
ATOM     40  C   UNL A   1      42.565  28.531  26.841  1.00  0.00     0.031 C 
ATOM     41  C   UNL A   1      38.791  27.817  29.743  1.00  0.00     0.029 A 
ATOM     42  N   UNL A   1      40.286  29.393  30.192  1.00  0.00    -0.354 N 
ATOM     43  C   UNL A   1      44.276  29.190  28.192  1.00  0.00     0.074 A 
ATOM     44  C   UNL A   1      43.810  29.010  26.844  1.00  0.00     0.031 C 
ATOM     45  C   UNL A   1      38.131  28.831  30.349  1.00  0.00     0.029 A 
ATOM     46  C   UNL A   1      39.073  29.894  30.654  1.00  0.00     0.049 A 
ATOM     47  H   UNL A   1      41.148  29.838  30.357  1.00  0.00     0.167 HD
ATOM     48  C   UNL A   1      45.190  30.052  28.716  1.00  0.00     0.037 A 
ATOM     49  C   UNL A   1      38.855  31.114  31.204  1.00  0.00     0.037 A 
ATOM     50  C   UNL A   1      45.326  29.854  30.133  1.00  0.00     0.049 A 
ATOM     51  C   UNL A   1      40.147  31.604  31.734  1.00  0.00     0.074 A 
ATOM     52  C   UNL A   1      45.887  28.912  30.966  1.00  0.00     0.029 A 
ATOM     53  N   UNL A   1      44.446  30.590  30.877  1.00  0.00    -0.354 N 
ATOM     54  N   UNL A   1      40.760  31.075  32.757  1.00  0.00    -0.248 NA
ATOM     55  C   UNL A   1      40.944  32.525  30.933  1.00  0.00     0.031 C 
ATOM     56  C   UNL A   1      45.159  28.988  32.190  1.00  0.00     0.029 A 
ATOM     57  C   UNL A   1      44.204  29.997  32.081  1.00  0.00     0.049 A 
ATOM     58  H   UNL A   1      44.042  31.438  30.582  1.00  0.00     0.167 HD
ATOM     59  C   UNL A   1      42.098  31.251  32.474  1.00  0.00     0.074 A 
ATOM     60  C   UNL A   1      42.147  32.296  31.461  1.00  0.00     0.031 C 
ATOM     61  C   UNL A   1      43.010  30.305  32.836  1.00  0.00     0.037 A 
BRANCH  48  62
ATOM     62  C   UNL A   1      45.542  31.389  28.092  1.00  0.00     0.064 A 
ATOM     63  C   UNL A   1      44.499  32.269  27.730  1.00  0.00     0.173 A 
ATOM     64  C   UNL A   1      46.802  31.682  27.525  1.00  0.00     0.173 A 
ATOM     65  F   UNL A   1      43.250  32.068  28.177  1.00  0.00    -0.203 F 
ATOM     66  C   UNL A   1      44.693  33.315  26.822  1.00  0.00     0.198 A 
ATOM     67  C   UNL A   1      47.002  32.756  26.659  1.00  0.00     0.198 A 
ATOM     68  F   UNL A   1      47.859  30.879  27.682  1.00  0.00    -0.203 F 
ATOM     69  F   UNL A   1      43.647  34.046  26.412  1.00  0.00    -0.200 F 
ATOM     70  C   UNL A   1      45.944  33.555  26.284  1.00  0.00     0.200 A 
ATOM     71  F   UNL A   1      48.216  32.950  26.124  1.00  0.00    -0.200 F 
ATOM     72  F   UNL A   1      46.122  34.517  25.369  1.00  0.00    -0.200 F 
ENDBRANCH  48  62
BRANCH  49  73
ATOM     73  C   UNL A   1      37.673  32.011  31.093  1.00  0.00     0.064 A 
ATOM     74  C   UNL A   1      37.316  32.586  29.858  1.00  0.00     0.173 A 
ATOM     75  C   UNL A   1      36.700  32.069  32.109  1.00  0.00     0.173 A 
ATOM     76  F   UNL A   1      38.169  32.551  28.824  1.00  0.00    -0.203 F 
ATOM     77  C   UNL A   1      36.045  33.128  29.637  1.00  0.00     0.198 A 
ATOM     78  C   UNL A   1      35.435  32.620  31.889  1.00  0.00     0.198 A 
ATOM     79  F   UNL A   1      36.917  31.504  33.304  1.00  0.00    -0.203 F 
ATOM     80  F   UNL A   1      35.716  33.586  28.420  1.00  0.00    -0.200 F 
ATOM     81  C   UNL A   1      35.100  33.129  30.647  1.00  0.00     0.200 A 
ATOM     82  F   UNL A   1      34.519  32.587  32.866  1.00  0.00    -0.200 F 
ATOM     83  F   UNL A   1      33.858  33.576  30.415  1.00  0.00    -0.200 F 
ENDBRANCH  49  73
BRANCH  61  84
ATOM     84  C   UNL A   1      42.670  29.403  33.978  1.00  0.00     0.064 A 
ATOM     85  C   UNL A   1      41.925  28.220  33.866  1.00  0.00     0.173 A 
ATOM     86  C   UNL A   1      43.254  29.697  35.219  1.00  0.00     0.173 A 
ATOM     87  F   UNL A   1      41.395  27.844  32.694  1.00  0.00    -0.203 F 
ATOM     88  C   UNL A   1      41.768  27.373  34.962  1.00  0.00     0.198 A 
ATOM     89  C   UNL A   1      43.127  28.831  36.296  1.00  0.00     0.198 A 
ATOM     90  F   UNL A   1      44.003  30.802  35.364  1.00  0.00    -0.203 F 
ATOM     91  F   UNL A   1      41.053  26.244  34.841  1.00  0.00    -0.200 F 
ATOM     92  C   UNL A   1      42.381  27.670  36.169  1.00  0.00     0.200 A 
ATOM     93  F   UNL A   1      43.760  29.103  37.447  1.00  0.00    -0.200 F 
ATOM     94  F   UNL A   1      42.276  26.826  37.205  1.00  0.00    -0.200 F 
ENDBRANCH  61  84
ENDBRANCH  35  36
ENDBRANCH  27  30
ENDBRANCH  25  26
ENDBRANCH  24  25
ENDBRANCH   1  24
TORSDOF 14
ENDMDL
