MODEL 1
REMARK VINA RESULT:     -12.9      0.000      0.000
REMARK SMILES N#C/C(=C\c1ccc(-c2cc(C(F)(F)F)ccc2Cl)o1)C(=O)NCCCCNC(=O)c1ccc(-c2c3nc(c(-c4c(F)c(F)c(F)c(F)c4F)c4ccc([nH]4)c(-c4c(F)c(F)c(F)c(F)c4F)c4nc(c(-c5c(F)c(F)c(F)c(F)c5F)c5ccc2[nH]5)C=C4)C=C3)cc1
REMARK SMILES IDX 25 1 24 2 23 3 21 4 22 5 3 7 4 8 2 9 1 10 5 11 6 12 20 13
REMARK SMILES IDX 7 14 8 15 9 16 10 17 18 18 11 19 17 20 19 21 16 22 12 23
REMARK SMILES IDX 13 24 14 25 15 26 26 27 27 28 28 29 29 30 30 32 31 33 32 34
REMARK SMILES IDX 93 35 33 36 92 37 34 38 35 39 36 40 86 41 37 42 91 43 85 44
REMARK SMILES IDX 87 45 38 46 90 47 84 48 83 49 39 51 71 52 51 53 70 54 52 55
REMARK SMILES IDX 55 56 69 57 88 58 53 59 54 60 68 62 89 63 56 64 40 65 41 66
REMARK SMILES IDX 49 67 42 68 43 69 47 70 50 71 44 72 45 73 48 74 46 75 72 76
REMARK SMILES IDX 73 77 81 78 74 79 75 80 79 81 82 82 76 83 77 84 80 85 78 86
REMARK SMILES IDX 57 87 58 88 66 89 59 90 60 91 64 92 67 93 61 94 62 95 65 96
REMARK SMILES IDX 63 97
REMARK H PARENT 23 6 28 31 87 50 55 61
REMARK Flexibility Score: inf
ROOT
ATOM      1  C   UNL A   1      32.294  29.642  27.179  1.00  0.00     0.023 C 
ENDROOT
BRANCH   1   2
ATOM      2  C   UNL A   1      33.673  29.055  26.859  1.00  0.00     0.116 C 
BRANCH   2   3
ATOM      3  N   UNL A   1      33.883  28.935  25.429  1.00  0.00    -0.351 N 
ATOM      4  C   UNL A   1      33.854  27.884  24.563  1.00  0.00     0.262 C 
ATOM      5  O   UNL A   1      34.039  28.147  23.374  1.00  0.00    -0.268 OA
ATOM      6  H   UNL A   1      34.092  29.793  24.992  1.00  0.00     0.163 HD
BRANCH   4   7
ATOM      7  C   UNL A   1      33.618  26.471  24.970  1.00  0.00     0.120 C 
ATOM      8  C   UNL A   1      34.534  25.536  25.321  1.00  0.00     0.072 C 
BRANCH   7   9
ATOM      9  C   UNL A   1      32.186  25.966  24.924  1.00  0.00     0.105 C 
ATOM     10  N   UNL A   1      30.997  25.546  24.886  1.00  0.00    -0.192 NA
ENDBRANCH   7   9
BRANCH   8  11
ATOM     11  C   UNL A   1      34.199  24.174  25.647  1.00  0.00     0.129 A 
ATOM     12  C   UNL A   1      34.001  23.578  26.890  1.00  0.00     0.051 A 
ATOM     13  O   UNL A   1      33.975  23.196  24.688  1.00  0.00    -0.457 OA
ATOM     14  C   UNL A   1      33.712  22.213  26.688  1.00  0.00     0.051 A 
ATOM     15  C   UNL A   1      33.678  22.024  25.327  1.00  0.00     0.136 A 
BRANCH  15  16
ATOM     16  C   UNL A   1      33.378  20.857  24.503  1.00  0.00     0.036 A 
ATOM     17  C   UNL A   1      33.984  19.621  24.794  1.00  0.00     0.026 A 
ATOM     18  C   UNL A   1      32.423  20.904  23.471  1.00  0.00     0.052 A 
ATOM     19  C   UNL A   1      33.634  18.448  24.092  1.00  0.00     0.056 A 
ATOM     20  C   UNL A   1      32.078  19.748  22.762  1.00  0.00     0.022 A 
ATOM     21  Cl  UNL A   1      31.627  22.370  23.004  1.00  0.00    -0.084 Cl
ATOM     22  C   UNL A   1      32.675  18.528  23.073  1.00  0.00     0.014 A 
BRANCH  19  23
ATOM     23  C   UNL A   1      34.272  17.124  24.445  1.00  0.00     0.416 C 
ATOM     24  F   UNL A   1      33.642  16.502  25.479  1.00  0.00    -0.166 F 
ATOM     25  F   UNL A   1      34.254  16.244  23.407  1.00  0.00    -0.166 F 
ATOM     26  F   UNL A   1      35.579  17.234  24.815  1.00  0.00    -0.166 F 
ENDBRANCH  19  23
ENDBRANCH  15  16
ENDBRANCH   8  11
ENDBRANCH   4   7
ENDBRANCH   2   3
ENDBRANCH   1   2
BRANCH   1  27
ATOM     27  C   UNL A   1      32.119  31.105  26.760  1.00  0.00     0.023 C 
BRANCH  27  28
ATOM     28  C   UNL A   1      33.122  32.082  27.372  1.00  0.00     0.116 C 
BRANCH  28  29
ATOM     29  N   UNL A   1      32.599  33.429  27.548  1.00  0.00    -0.352 N 
ATOM     30  C   UNL A   1      33.059  34.415  28.394  1.00  0.00     0.251 C 
ATOM     31  H   UNL A   1      31.821  33.664  26.994  1.00  0.00     0.163 HD
ATOM     32  O   UNL A   1      32.474  35.479  28.493  1.00  0.00    -0.269 OA
BRANCH  30  33
ATOM     33  C   UNL A   1      34.246  34.133  29.226  1.00  0.00     0.039 A 
ATOM     34  C   UNL A   1      34.061  33.527  30.471  1.00  0.00     0.014 A 
ATOM     35  C   UNL A   1      35.531  34.390  28.742  1.00  0.00     0.014 A 
ATOM     36  C   UNL A   1      35.172  33.086  31.191  1.00  0.00     0.010 A 
ATOM     37  C   UNL A   1      36.634  33.901  29.434  1.00  0.00     0.010 A 
ATOM     38  C   UNL A   1      36.461  33.222  30.651  1.00  0.00    -0.014 A 
BRANCH  38  39
ATOM     39  C   UNL A   1      37.637  32.596  31.306  1.00  0.00     0.031 A 
ATOM     40  C   UNL A   1      38.333  31.432  30.667  1.00  0.00     0.074 A 
ATOM     41  C   UNL A   1      38.008  33.023  32.530  1.00  0.00     0.049 A 
ATOM     42  N   UNL A   1      39.310  30.697  31.135  1.00  0.00    -0.248 NA
ATOM     43  C   UNL A   1      37.853  31.019  29.339  1.00  0.00     0.031 C 
ATOM     44  C   UNL A   1      37.366  34.106  33.280  1.00  0.00     0.029 A 
ATOM     45  N   UNL A   1      39.000  32.583  33.371  1.00  0.00    -0.354 N 
ATOM     46  C   UNL A   1      39.548  29.727  30.171  1.00  0.00     0.074 A 
ATOM     47  C   UNL A   1      38.593  29.943  29.106  1.00  0.00     0.031 C 
ATOM     48  C   UNL A   1      37.981  34.247  34.464  1.00  0.00     0.029 A 
ATOM     49  C   UNL A   1      39.038  33.246  34.574  1.00  0.00     0.049 A 
ATOM     50  H   UNL A   1      39.626  31.861  33.134  1.00  0.00     0.167 HD
ATOM     51  C   UNL A   1      40.491  28.757  30.173  1.00  0.00     0.037 A 
ATOM     52  C   UNL A   1      39.822  33.055  35.651  1.00  0.00     0.037 A 
ATOM     53  C   UNL A   1      41.467  28.573  31.215  1.00  0.00     0.049 A 
ATOM     54  C   UNL A   1      40.867  31.973  35.616  1.00  0.00     0.074 A 
ATOM     55  C   UNL A   1      42.535  27.692  31.249  1.00  0.00     0.029 A 
ATOM     56  N   UNL A   1      41.491  29.279  32.407  1.00  0.00    -0.354 N 
ATOM     57  N   UNL A   1      41.149  31.128  34.655  1.00  0.00    -0.248 NA
ATOM     58  C   UNL A   1      41.704  31.818  36.815  1.00  0.00     0.031 C 
ATOM     59  C   UNL A   1      43.177  27.833  32.483  1.00  0.00     0.029 A 
ATOM     60  C   UNL A   1      42.534  28.829  33.200  1.00  0.00     0.049 A 
ATOM     61  H   UNL A   1      40.861  29.994  32.654  1.00  0.00     0.167 HD
ATOM     62  C   UNL A   1      42.200  30.354  35.124  1.00  0.00     0.074 A 
ATOM     63  C   UNL A   1      42.523  30.844  36.448  1.00  0.00     0.031 C 
ATOM     64  C   UNL A   1      42.838  29.326  34.516  1.00  0.00     0.037 A 
BRANCH  51  65
ATOM     65  C   UNL A   1      40.533  27.816  29.007  1.00  0.00     0.064 A 
ATOM     66  C   UNL A   1      39.742  26.659  28.969  1.00  0.00     0.173 A 
ATOM     67  C   UNL A   1      41.312  28.119  27.880  1.00  0.00     0.173 A 
ATOM     68  F   UNL A   1      38.988  26.323  30.026  1.00  0.00    -0.203 F 
ATOM     69  C   UNL A   1      39.737  25.833  27.848  1.00  0.00     0.198 A 
ATOM     70  C   UNL A   1      41.287  27.303  26.753  1.00  0.00     0.198 A 
ATOM     71  F   UNL A   1      42.083  29.217  27.867  1.00  0.00    -0.203 F 
ATOM     72  F   UNL A   1      38.993  24.719  27.843  1.00  0.00    -0.200 F 
ATOM     73  C   UNL A   1      40.501  26.160  26.739  1.00  0.00     0.200 A 
ATOM     74  F   UNL A   1      42.019  27.626  25.677  1.00  0.00    -0.200 F 
ATOM     75  F   UNL A   1      40.482  25.372  25.655  1.00  0.00    -0.200 F 
ENDBRANCH  51  65
BRANCH  52  76
ATOM     76  C   UNL A   1      39.653  33.902  36.860  1.00  0.00     0.064 A 
ATOM     77  C   UNL A   1      38.844  33.483  37.926  1.00  0.00     0.173 A 
ATOM     78  C   UNL A   1      40.271  35.157  36.963  1.00  0.00     0.173 A 
ATOM     79  F   UNL A   1      38.214  32.301  37.863  1.00  0.00    -0.203 F 
ATOM     80  C   UNL A   1      38.637  34.299  39.036  1.00  0.00     0.198 A 
ATOM     81  C   UNL A   1      40.086  35.960  38.086  1.00  0.00     0.198 A 
ATOM     82  F   UNL A   1      41.058  35.601  35.973  1.00  0.00    -0.203 F 
ATOM     83  F   UNL A   1      37.817  33.897  40.017  1.00  0.00    -0.200 F 
ATOM     84  C   UNL A   1      39.261  35.535  39.117  1.00  0.00     0.200 A 
ATOM     85  F   UNL A   1      40.700  37.148  38.166  1.00  0.00    -0.200 F 
ATOM     86  F   UNL A   1      39.059  36.321  40.183  1.00  0.00    -0.200 F 
ENDBRANCH  52  76
BRANCH  64  87
ATOM     87  C   UNL A   1      43.952  28.668  35.272  1.00  0.00     0.064 A 
ATOM     88  C   UNL A   1      45.281  29.092  35.125  1.00  0.00     0.173 A 
ATOM     89  C   UNL A   1      43.687  27.632  36.180  1.00  0.00     0.173 A 
ATOM     90  F   UNL A   1      45.586  30.067  34.254  1.00  0.00    -0.203 F 
ATOM     91  C   UNL A   1      46.308  28.491  35.848  1.00  0.00     0.198 A 
ATOM     92  C   UNL A   1      44.712  27.051  36.921  1.00  0.00     0.198 A 
ATOM     93  F   UNL A   1      42.432  27.195  36.359  1.00  0.00    -0.203 F 
ATOM     94  F   UNL A   1      47.575  28.884  35.663  1.00  0.00    -0.200 F 
ATOM     95  C   UNL A   1      46.021  27.477  36.751  1.00  0.00     0.200 A 
ATOM     96  F   UNL A   1      44.433  26.080  37.800  1.00  0.00    -0.200 F 
ATOM     97  F   UNL A   1      47.009  26.904  37.452  1.00  0.00    -0.200 F 
ENDBRANCH  64  87
ENDBRANCH  38  39
ENDBRANCH  30  33
ENDBRANCH  28  29
ENDBRANCH  27  28
ENDBRANCH   1  27
TORSDOF 15
ENDMDL
MODEL 2
REMARK VINA RESULT:     -12.8      1.069      1.763
REMARK SMILES N#C/C(=C\c1ccc(-c2cc(C(F)(F)F)ccc2Cl)o1)C(=O)NCCCCNC(=O)c1ccc(-c2c3nc(c(-c4c(F)c(F)c(F)c(F)c4F)c4ccc([nH]4)c(-c4c(F)c(F)c(F)c(F)c4F)c4nc(c(-c5c(F)c(F)c(F)c(F)c5F)c5ccc2[nH]5)C=C4)C=C3)cc1
REMARK SMILES IDX 25 1 24 2 23 3 21 4 22 5 3 7 4 8 2 9 1 10 5 11 6 12 20 13
REMARK SMILES IDX 7 14 8 15 9 16 10 17 18 18 11 19 17 20 19 21 16 22 12 23
REMARK SMILES IDX 13 24 14 25 15 26 26 27 27 28 28 29 29 30 30 32 31 33 32 34
REMARK SMILES IDX 93 35 33 36 92 37 34 38 35 39 36 40 86 41 37 42 91 43 85 44
REMARK SMILES IDX 87 45 38 46 90 47 84 48 83 49 39 51 71 52 51 53 70 54 52 55
REMARK SMILES IDX 55 56 69 57 88 58 53 59 54 60 68 62 89 63 56 64 40 65 41 66
REMARK SMILES IDX 49 67 42 68 43 69 47 70 50 71 44 72 45 73 48 74 46 75 72 76
REMARK SMILES IDX 73 77 81 78 74 79 75 80 79 81 82 82 76 83 77 84 80 85 78 86
REMARK SMILES IDX 57 87 58 88 66 89 59 90 60 91 64 92 67 93 61 94 62 95 65 96
REMARK SMILES IDX 63 97
REMARK H PARENT 23 6 28 31 87 50 55 61
REMARK Flexibility Score: inf
ROOT
ATOM      1  C   UNL A   1      32.403  30.215  26.575  1.00  0.00     0.023 C 
ENDROOT
BRANCH   1   2
ATOM      2  C   UNL A   1      31.952  29.673  25.215  1.00  0.00     0.116 C 
BRANCH   2   3
ATOM      3  N   UNL A   1      33.054  29.606  24.275  1.00  0.00    -0.351 N 
ATOM      4  C   UNL A   1      33.583  28.601  23.523  1.00  0.00     0.262 C 
ATOM      5  O   UNL A   1      34.515  28.906  22.777  1.00  0.00    -0.268 OA
ATOM      6  H   UNL A   1      33.517  30.467  24.156  1.00  0.00     0.163 HD
BRANCH   4   7
ATOM      7  C   UNL A   1      33.106  27.191  23.556  1.00  0.00     0.120 C 
ATOM      8  C   UNL A   1      32.630  26.492  24.615  1.00  0.00     0.072 C 
BRANCH   7   9
ATOM      9  C   UNL A   1      33.226  26.387  22.272  1.00  0.00     0.105 C 
ATOM     10  N   UNL A   1      33.325  25.720  21.206  1.00  0.00    -0.192 NA
ENDBRANCH   7   9
BRANCH   8  11
ATOM     11  C   UNL A   1      32.245  25.106  24.548  1.00  0.00     0.129 A 
ATOM     12  C   UNL A   1      30.997  24.539  24.296  1.00  0.00     0.051 A 
ATOM     13  O   UNL A   1      33.142  24.059  24.703  1.00  0.00    -0.457 OA
ATOM     14  C   UNL A   1      31.126  23.137  24.357  1.00  0.00     0.051 A 
ATOM     15  C   UNL A   1      32.458  22.882  24.582  1.00  0.00     0.136 A 
BRANCH  15  16
ATOM     16  C   UNL A   1      33.218  21.640  24.685  1.00  0.00     0.036 A 
ATOM     17  C   UNL A   1      32.705  20.458  24.119  1.00  0.00     0.026 A 
ATOM     18  C   UNL A   1      34.502  21.602  25.259  1.00  0.00     0.052 A 
ATOM     19  C   UNL A   1      33.460  19.265  24.100  1.00  0.00     0.056 A 
ATOM     20  C   UNL A   1      35.253  20.421  25.255  1.00  0.00     0.022 A 
ATOM     21  Cl  UNL A   1      35.229  22.985  26.008  1.00  0.00    -0.084 Cl
ATOM     22  C   UNL A   1      34.739  19.263  24.676  1.00  0.00     0.014 A 
BRANCH  19  23
ATOM     23  C   UNL A   1      32.905  18.016  23.455  1.00  0.00     0.416 C 
ATOM     24  F   UNL A   1      32.402  17.141  24.367  1.00  0.00    -0.166 F 
ATOM     25  F   UNL A   1      31.892  18.284  22.588  1.00  0.00    -0.166 F 
ATOM     26  F   UNL A   1      33.832  17.319  22.739  1.00  0.00    -0.166 F 
ENDBRANCH  19  23
ENDBRANCH  15  16
ENDBRANCH   8  11
ENDBRANCH   4   7
ENDBRANCH   2   3
ENDBRANCH   1   2
BRANCH   1  27
ATOM     27  C   UNL A   1      31.912  31.634  26.882  1.00  0.00     0.023 C 
BRANCH  27  28
ATOM     28  C   UNL A   1      32.974  32.587  27.427  1.00  0.00     0.116 C 
BRANCH  28  29
ATOM     29  N   UNL A   1      32.488  33.938  27.662  1.00  0.00    -0.352 N 
ATOM     30  C   UNL A   1      32.990  34.884  28.529  1.00  0.00     0.251 C 
ATOM     31  H   UNL A   1      31.703  34.211  27.135  1.00  0.00     0.163 HD
ATOM     32  O   UNL A   1      32.434  35.958  28.679  1.00  0.00    -0.269 OA
BRANCH  30  33
ATOM     33  C   UNL A   1      34.190  34.546  29.323  1.00  0.00     0.039 A 
ATOM     34  C   UNL A   1      34.016  34.014  30.603  1.00  0.00     0.014 A 
ATOM     35  C   UNL A   1      35.467  34.677  28.772  1.00  0.00     0.014 A 
ATOM     36  C   UNL A   1      35.122  33.518  31.295  1.00  0.00     0.010 A 
ATOM     37  C   UNL A   1      36.559  34.133  29.440  1.00  0.00     0.010 A 
ATOM     38  C   UNL A   1      36.391  33.526  30.695  1.00  0.00    -0.014 A 
BRANCH  38  39
ATOM     39  C   UNL A   1      37.544  32.839  31.329  1.00  0.00     0.031 A 
ATOM     40  C   UNL A   1      38.178  31.651  30.668  1.00  0.00     0.074 A 
ATOM     41  C   UNL A   1      37.948  33.233  32.552  1.00  0.00     0.049 A 
ATOM     42  N   UNL A   1      39.125  30.866  31.116  1.00  0.00    -0.248 NA
ATOM     43  C   UNL A   1      37.665  31.277  29.341  1.00  0.00     0.031 C 
ATOM     44  C   UNL A   1      37.365  34.335  33.323  1.00  0.00     0.029 A 
ATOM     45  N   UNL A   1      38.927  32.737  33.377  1.00  0.00    -0.354 N 
ATOM     46  C   UNL A   1      39.307  29.898  30.138  1.00  0.00     0.074 A 
ATOM     47  C   UNL A   1      38.350  30.171  29.087  1.00  0.00     0.031 C 
ATOM     48  C   UNL A   1      37.999  34.433  34.501  1.00  0.00     0.029 A 
ATOM     49  C   UNL A   1      39.009  33.383  34.587  1.00  0.00     0.049 A 
ATOM     50  H   UNL A   1      39.516  31.990  33.124  1.00  0.00     0.167 HD
ATOM     51  C   UNL A   1      40.203  28.885  30.118  1.00  0.00     0.037 A 
ATOM     52  C   UNL A   1      39.796  33.143  35.653  1.00  0.00     0.037 A 
ATOM     53  C   UNL A   1      41.181  28.644  31.146  1.00  0.00     0.049 A 
ATOM     54  C   UNL A   1      40.789  32.015  35.593  1.00  0.00     0.074 A 
ATOM     55  C   UNL A   1      42.207  27.714  31.157  1.00  0.00     0.029 A 
ATOM     56  N   UNL A   1      41.251  29.333  32.346  1.00  0.00    -0.354 N 
ATOM     57  N   UNL A   1      41.021  31.169  34.619  1.00  0.00    -0.248 NA
ATOM     58  C   UNL A   1      41.631  31.807  36.780  1.00  0.00     0.031 C 
ATOM     59  C   UNL A   1      42.869  27.810  32.385  1.00  0.00     0.029 A 
ATOM     60  C   UNL A   1      42.281  28.826  33.122  1.00  0.00     0.049 A 
ATOM     61  H   UNL A   1      40.658  30.074  32.608  1.00  0.00     0.167 HD
ATOM     62  C   UNL A   1      42.040  30.342  35.066  1.00  0.00     0.074 A 
ATOM     63  C   UNL A   1      42.400  30.800  36.392  1.00  0.00     0.031 C 
ATOM     64  C   UNL A   1      42.622  29.292  34.439  1.00  0.00     0.037 A 
BRANCH  51  65
ATOM     65  C   UNL A   1      40.189  27.958  28.941  1.00  0.00     0.064 A 
ATOM     66  C   UNL A   1      40.914  28.241  27.774  1.00  0.00     0.173 A 
ATOM     67  C   UNL A   1      39.507  26.734  29.011  1.00  0.00     0.173 A 
ATOM     68  F   UNL A   1      41.574  29.403  27.657  1.00  0.00    -0.203 F 
ATOM     69  C   UNL A   1      40.949  27.336  26.718  1.00  0.00     0.198 A 
ATOM     70  C   UNL A   1      39.563  25.822  27.961  1.00  0.00     0.198 A 
ATOM     71  F   UNL A   1      38.802  26.415  30.108  1.00  0.00    -0.203 F 
ATOM     72  F   UNL A   1      41.628  27.638  25.602  1.00  0.00    -0.200 F 
ATOM     73  C   UNL A   1      40.283  26.124  26.815  1.00  0.00     0.200 A 
ATOM     74  F   UNL A   1      38.926  24.647  28.061  1.00  0.00    -0.200 F 
ATOM     75  F   UNL A   1      40.332  25.248  25.802  1.00  0.00    -0.200 F 
ENDBRANCH  51  65
BRANCH  52  76
ATOM     76  C   UNL A   1      39.680  33.982  36.874  1.00  0.00     0.064 A 
ATOM     77  C   UNL A   1      38.870  33.585  37.947  1.00  0.00     0.173 A 
ATOM     78  C   UNL A   1      40.350  35.209  36.981  1.00  0.00     0.173 A 
ATOM     79  F   UNL A   1      38.192  32.430  37.881  1.00  0.00    -0.203 F 
ATOM     80  C   UNL A   1      38.714  34.395  39.069  1.00  0.00     0.198 A 
ATOM     81  C   UNL A   1      40.215  36.007  38.115  1.00  0.00     0.198 A 
ATOM     82  F   UNL A   1      41.140  35.632  35.983  1.00  0.00    -0.203 F 
ATOM     83  F   UNL A   1      37.893  34.016  40.058  1.00  0.00    -0.200 F 
ATOM     84  C   UNL A   1      39.389  35.604  39.154  1.00  0.00     0.200 A 
ATOM     85  F   UNL A   1      40.878  37.167  38.199  1.00  0.00    -0.200 F 
ATOM     86  F   UNL A   1      39.235  36.385  40.232  1.00  0.00    -0.200 F 
ENDBRANCH  52  76
BRANCH  64  87
ATOM     87  C   UNL A   1      43.713  28.574  35.174  1.00  0.00     0.064 A 
ATOM     88  C   UNL A   1      45.051  28.981  35.070  1.00  0.00     0.173 A 
ATOM     89  C   UNL A   1      43.416  27.496  36.021  1.00  0.00     0.173 A 
ATOM     90  F   UNL A   1      45.387  29.996  34.258  1.00  0.00    -0.203 F 
ATOM     91  C   UNL A   1      46.056  28.323  35.774  1.00  0.00     0.198 A 
ATOM     92  C   UNL A   1      44.419  26.858  36.744  1.00  0.00     0.198 A 
ATOM     93  F   UNL A   1      42.151  27.073  36.158  1.00  0.00    -0.203 F 
ATOM     94  F   UNL A   1      47.333  28.702  35.629  1.00  0.00    -0.200 F 
ATOM     95  C   UNL A   1      45.738  27.267  36.616  1.00  0.00     0.200 A 
ATOM     96  F   UNL A   1      44.109  25.845  37.566  1.00  0.00    -0.200 F 
ATOM     97  F   UNL A   1      46.704  26.640  37.300  1.00  0.00    -0.200 F 
ENDBRANCH  64  87
ENDBRANCH  38  39
ENDBRANCH  30  33
ENDBRANCH  28  29
ENDBRANCH  27  28
ENDBRANCH   1  27
TORSDOF 15
ENDMDL
MODEL 3
REMARK VINA RESULT:     -12.7      6.029     11.273
REMARK SMILES N#C/C(=C\c1ccc(-c2cc(C(F)(F)F)ccc2Cl)o1)C(=O)NCCCCNC(=O)c1ccc(-c2c3nc(c(-c4c(F)c(F)c(F)c(F)c4F)c4ccc([nH]4)c(-c4c(F)c(F)c(F)c(F)c4F)c4nc(c(-c5c(F)c(F)c(F)c(F)c5F)c5ccc2[nH]5)C=C4)C=C3)cc1
REMARK SMILES IDX 25 1 24 2 23 3 21 4 22 5 3 7 4 8 2 9 1 10 5 11 6 12 20 13
REMARK SMILES IDX 7 14 8 15 9 16 10 17 18 18 11 19 17 20 19 21 16 22 12 23
REMARK SMILES IDX 13 24 14 25 15 26 26 27 27 28 28 29 29 30 30 32 31 33 32 34
REMARK SMILES IDX 93 35 33 36 92 37 34 38 35 39 36 40 86 41 37 42 91 43 85 44
REMARK SMILES IDX 87 45 38 46 90 47 84 48 83 49 39 51 71 52 51 53 70 54 52 55
REMARK SMILES IDX 55 56 69 57 88 58 53 59 54 60 68 62 89 63 56 64 40 65 41 66
REMARK SMILES IDX 49 67 42 68 43 69 47 70 50 71 44 72 45 73 48 74 46 75 72 76
REMARK SMILES IDX 73 77 81 78 74 79 75 80 79 81 82 82 76 83 77 84 80 85 78 86
REMARK SMILES IDX 57 87 58 88 66 89 59 90 60 91 64 92 67 93 61 94 62 95 65 96
REMARK SMILES IDX 63 97
REMARK H PARENT 23 6 28 31 87 50 55 61
REMARK Flexibility Score: inf
ROOT
ATOM      1  C   UNL A   1      37.039  19.891  25.007  1.00  0.00     0.023 C 
ENDROOT
BRANCH   1   2
ATOM      2  C   UNL A   1      35.732  20.690  25.008  1.00  0.00     0.116 C 
BRANCH   2   3
ATOM      3  N   UNL A   1      34.592  19.849  25.318  1.00  0.00    -0.351 N 
ATOM      4  C   UNL A   1      33.248  20.067  25.348  1.00  0.00     0.262 C 
ATOM      5  O   UNL A   1      32.540  19.095  25.617  1.00  0.00    -0.268 OA
ATOM      6  H   UNL A   1      34.842  18.927  25.557  1.00  0.00     0.163 HD
BRANCH   4   7
ATOM      7  C   UNL A   1      32.608  21.385  25.084  1.00  0.00     0.120 C 
ATOM      8  C   UNL A   1      32.407  21.994  23.890  1.00  0.00     0.072 C 
BRANCH   7   9
ATOM      9  C   UNL A   1      32.185  22.206  26.290  1.00  0.00     0.105 C 
ATOM     10  N   UNL A   1      31.833  22.888  27.291  1.00  0.00    -0.192 NA
ENDBRANCH   7   9
BRANCH   8  11
ATOM     11  C   UNL A   1      31.822  23.303  23.750  1.00  0.00     0.129 A 
ATOM     12  C   UNL A   1      30.553  23.670  23.310  1.00  0.00     0.051 A 
ATOM     13  O   UNL A   1      32.485  24.472  24.095  1.00  0.00    -0.457 OA
ATOM     14  C   UNL A   1      30.464  25.076  23.333  1.00  0.00     0.051 A 
ATOM     15  C   UNL A   1      31.656  25.530  23.844  1.00  0.00     0.136 A 
BRANCH  15  16
ATOM     16  C   UNL A   1      32.145  26.867  24.162  1.00  0.00     0.036 A 
ATOM     17  C   UNL A   1      31.887  27.423  25.429  1.00  0.00     0.026 A 
ATOM     18  C   UNL A   1      32.954  27.594  23.268  1.00  0.00     0.052 A 
ATOM     19  C   UNL A   1      32.438  28.665  25.813  1.00  0.00     0.056 A 
ATOM     20  C   UNL A   1      33.495  28.830  23.636  1.00  0.00     0.022 A 
ATOM     21  Cl  UNL A   1      33.323  27.025  21.674  1.00  0.00    -0.084 Cl
ATOM     22  C   UNL A   1      33.243  29.360  24.900  1.00  0.00     0.014 A 
BRANCH  19  23
ATOM     23  C   UNL A   1      32.176  29.227  27.191  1.00  0.00     0.416 C 
ATOM     24  F   UNL A   1      31.779  30.528  27.154  1.00  0.00    -0.166 F 
ATOM     25  F   UNL A   1      31.198  28.551  27.852  1.00  0.00    -0.166 F 
ATOM     26  F   UNL A   1      33.267  29.193  28.006  1.00  0.00    -0.166 F 
ENDBRANCH  19  23
ENDBRANCH  15  16
ENDBRANCH   8  11
ENDBRANCH   4   7
ENDBRANCH   2   3
ENDBRANCH   1   2
BRANCH   1  27
ATOM     27  C   UNL A   1      38.305  20.754  24.989  1.00  0.00     0.023 C 
BRANCH  27  28
ATOM     28  C   UNL A   1      39.257  20.538  26.164  1.00  0.00     0.116 C 
BRANCH  28  29
ATOM     29  N   UNL A   1      40.107  19.366  26.025  1.00  0.00    -0.352 N 
ATOM     30  C   UNL A   1      41.480  19.293  26.125  1.00  0.00     0.251 C 
ATOM     31  H   UNL A   1      39.644  18.518  25.836  1.00  0.00     0.163 HD
ATOM     32  O   UNL A   1      42.071  18.249  25.910  1.00  0.00    -0.269 OA
BRANCH  30  33
ATOM     33  C   UNL A   1      42.230  20.527  26.440  1.00  0.00     0.039 A 
ATOM     34  C   UNL A   1      42.711  21.304  25.385  1.00  0.00     0.014 A 
ATOM     35  C   UNL A   1      42.380  20.948  27.763  1.00  0.00     0.014 A 
ATOM     36  C   UNL A   1      43.257  22.560  25.652  1.00  0.00     0.010 A 
ATOM     37  C   UNL A   1      42.875  22.221  28.024  1.00  0.00     0.010 A 
ATOM     38  C   UNL A   1      43.293  23.048  26.968  1.00  0.00    -0.014 A 
BRANCH  38  39
ATOM     39  C   UNL A   1      43.694  24.447  27.258  1.00  0.00     0.031 A 
ATOM     40  C   UNL A   1      42.681  25.447  27.730  1.00  0.00     0.074 A 
ATOM     41  C   UNL A   1      44.958  24.833  26.994  1.00  0.00     0.049 A 
ATOM     42  N   UNL A   1      42.823  26.731  27.938  1.00  0.00    -0.248 NA
ATOM     43  C   UNL A   1      41.320  24.946  27.976  1.00  0.00     0.031 C 
ATOM     44  C   UNL A   1      46.017  23.965  26.470  1.00  0.00     0.029 A 
ATOM     45  N   UNL A   1      45.564  26.060  27.105  1.00  0.00    -0.354 N 
ATOM     46  C   UNL A   1      41.572  27.194  28.319  1.00  0.00     0.074 A 
ATOM     47  C   UNL A   1      40.672  26.061  28.283  1.00  0.00     0.031 C 
ATOM     48  C   UNL A   1      47.139  24.685  26.311  1.00  0.00     0.029 A 
ATOM     49  C   UNL A   1      46.873  26.070  26.687  1.00  0.00     0.049 A 
ATOM     50  H   UNL A   1      45.104  26.858  27.453  1.00  0.00     0.167 HD
ATOM     51  C   UNL A   1      41.216  28.448  28.682  1.00  0.00     0.037 A 
ATOM     52  C   UNL A   1      47.753  27.084  26.598  1.00  0.00     0.037 A 
ATOM     53  C   UNL A   1      42.125  29.561  28.759  1.00  0.00     0.049 A 
ATOM     54  C   UNL A   1      47.327  28.464  27.019  1.00  0.00     0.074 A 
ATOM     55  C   UNL A   1      41.882  30.840  29.228  1.00  0.00     0.029 A 
ATOM     56  N   UNL A   1      43.449  29.528  28.351  1.00  0.00    -0.354 N 
ATOM     57  N   UNL A   1      46.167  28.868  27.475  1.00  0.00    -0.248 NA
ATOM     58  C   UNL A   1      48.333  29.531  26.913  1.00  0.00     0.031 C 
ATOM     59  C   UNL A   1      43.047  31.595  29.061  1.00  0.00     0.029 A 
ATOM     60  C   UNL A   1      44.027  30.776  28.525  1.00  0.00     0.049 A 
ATOM     61  H   UNL A   1      43.911  28.736  27.992  1.00  0.00     0.167 HD
ATOM     62  C   UNL A   1      46.306  30.225  27.724  1.00  0.00     0.074 A 
ATOM     63  C   UNL A   1      47.671  30.575  27.390  1.00  0.00     0.031 C 
ATOM     64  C   UNL A   1      45.385  31.106  28.183  1.00  0.00     0.037 A 
BRANCH  51  65
ATOM     65  C   UNL A   1      39.783  28.694  29.042  1.00  0.00     0.064 A 
ATOM     66  C   UNL A   1      39.319  28.541  30.356  1.00  0.00     0.173 A 
ATOM     67  C   UNL A   1      38.881  29.168  28.077  1.00  0.00     0.173 A 
ATOM     68  F   UNL A   1      40.141  28.082  31.312  1.00  0.00    -0.203 F 
ATOM     69  C   UNL A   1      38.002  28.844  30.689  1.00  0.00     0.198 A 
ATOM     70  C   UNL A   1      37.571  29.491  28.419  1.00  0.00     0.198 A 
ATOM     71  F   UNL A   1      39.278  29.336  26.806  1.00  0.00    -0.203 F 
ATOM     72  F   UNL A   1      37.573  28.666  31.947  1.00  0.00    -0.200 F 
ATOM     73  C   UNL A   1      37.132  29.327  29.724  1.00  0.00     0.200 A 
ATOM     74  F   UNL A   1      36.735  29.968  27.486  1.00  0.00    -0.200 F 
ATOM     75  F   UNL A   1      35.870  29.634  30.051  1.00  0.00    -0.200 F 
ENDBRANCH  51  65
BRANCH  52  76
ATOM     76  C   UNL A   1      49.127  26.841  26.086  1.00  0.00     0.064 A 
ATOM     77  C   UNL A   1      50.168  26.489  26.955  1.00  0.00     0.173 A 
ATOM     78  C   UNL A   1      49.432  26.984  24.725  1.00  0.00     0.173 A 
ATOM     79  F   UNL A   1      49.929  26.362  28.269  1.00  0.00    -0.203 F 
ATOM     80  C   UNL A   1      51.469  26.315  26.487  1.00  0.00     0.198 A 
ATOM     81  C   UNL A   1      50.728  26.783  24.253  1.00  0.00     0.198 A 
ATOM     82  F   UNL A   1      48.470  27.316  23.852  1.00  0.00    -0.203 F 
ATOM     83  F   UNL A   1      52.456  26.030  27.348  1.00  0.00    -0.200 F 
ATOM     84  C   UNL A   1      51.747  26.459  25.136  1.00  0.00     0.200 A 
ATOM     85  F   UNL A   1      50.990  26.912  22.946  1.00  0.00    -0.200 F 
ATOM     86  F   UNL A   1      52.999  26.296  24.687  1.00  0.00    -0.200 F 
ENDBRANCH  52  76
BRANCH  64  87
ATOM     87  C   UNL A   1      45.824  32.528  28.358  1.00  0.00     0.064 A 
ATOM     88  C   UNL A   1      45.653  33.473  27.337  1.00  0.00     0.173 A 
ATOM     89  C   UNL A   1      46.383  32.960  29.570  1.00  0.00     0.173 A 
ATOM     90  F   UNL A   1      45.139  33.103  26.153  1.00  0.00    -0.203 F 
ATOM     91  C   UNL A   1      46.042  34.798  27.515  1.00  0.00     0.198 A 
ATOM     92  C   UNL A   1      46.747  34.290  29.755  1.00  0.00     0.198 A 
ATOM     93  F   UNL A   1      46.562  32.094  30.578  1.00  0.00    -0.203 F 
ATOM     94  F   UNL A   1      45.907  35.676  26.512  1.00  0.00    -0.200 F 
ATOM     95  C   UNL A   1      46.581  35.207  28.727  1.00  0.00     0.200 A 
ATOM     96  F   UNL A   1      47.257  34.687  30.929  1.00  0.00    -0.200 F 
ATOM     97  F   UNL A   1      46.948  36.483  28.901  1.00  0.00    -0.200 F 
ENDBRANCH  64  87
ENDBRANCH  38  39
ENDBRANCH  30  33
ENDBRANCH  28  29
ENDBRANCH  27  28
ENDBRANCH   1  27
TORSDOF 15
ENDMDL
