MODEL 1
REMARK VINA RESULT:     -10.8      0.000      0.000
REMARK SMILES Nc1nc(CC(=O)N(CC(=O)NCCCCNC(=O)c2ccc(-c3c4nc(c(-c5c(F)c(F)c(F)c(F)c5F)c5ccc([nH]5)c(-c5c(F)c(F)c(F)c(F)c5F)c5nc(c(-c6c(F)c(F)c(F)c(F)c6F)c6ccc3[nH]6)C=C5)C=C4)cc2)CC(F)(F)F)cs1
REMARK SMILES IDX 13 1 12 2 10 3 11 4 9 6 8 7 6 8 7 9 5 10 4 11 2 12 3 13
REMARK SMILES IDX 89 14 88 15 1 16 83 19 84 20 85 21 86 22 87 23 14 24 15 25
REMARK SMILES IDX 16 26 17 27 18 28 19 30 20 31 21 32 82 33 22 34 81 35 23 36
REMARK SMILES IDX 24 37 25 38 75 39 26 40 80 41 74 42 76 43 27 44 79 45 73 46
REMARK SMILES IDX 72 47 28 49 60 50 40 51 59 52 41 53 44 54 58 55 77 56 42 57
REMARK SMILES IDX 43 58 57 60 78 61 45 62 29 63 30 64 38 65 31 66 32 67 36 68
REMARK SMILES IDX 39 69 33 70 34 71 37 72 35 73 61 74 62 75 70 76 63 77 64 78
REMARK SMILES IDX 68 79 71 80 65 81 66 82 69 83 67 84 46 85 47 86 55 87 48 88
REMARK SMILES IDX 49 89 53 90 56 91 50 92 51 93 54 94 52 95
REMARK H PARENT 12 5 1 17 1 18 17 29 76 48 44 59
REMARK Flexibility Score: inf
ROOT
ATOM      1  C   UNL A   1      32.769  30.098  26.607  1.00  0.00     0.116 C 
ENDROOT
BRANCH   1   2
ATOM      2  N   UNL A   1      33.422  29.640  25.407  1.00  0.00    -0.355 N 
ATOM      3  C   UNL A   1      33.753  28.354  25.079  1.00  0.00     0.239 C 
ATOM      4  O   UNL A   1      34.036  28.109  23.904  1.00  0.00    -0.273 OA
ATOM      5  H   UNL A   1      33.657  30.331  24.747  1.00  0.00     0.163 HD
BRANCH   3   6
ATOM      6  C   UNL A   1      33.661  27.216  26.117  1.00  0.00     0.219 C 
BRANCH   6   7
ATOM      7  N   UNL A   1      32.681  26.153  25.831  1.00  0.00    -0.324 N 
BRANCH   7   8
ATOM      8  C   UNL A   1      31.328  26.353  25.563  1.00  0.00     0.229 C 
ATOM      9  O   UNL A   1      30.529  26.500  26.493  1.00  0.00    -0.274 OA
BRANCH   8  10
ATOM     10  C   UNL A   1      30.800  26.280  24.130  1.00  0.00     0.157 C 
BRANCH  10  11
ATOM     11  C   UNL A   1      30.043  27.482  23.665  1.00  0.00     0.063 A 
ATOM     12  C   UNL A   1      28.141  28.483  23.088  1.00  0.00     0.180 A 
ATOM     13  N   UNL A   1      28.666  27.367  23.524  1.00  0.00    -0.225 NA
ATOM     14  S   UNL A   1      29.255  29.766  22.854  1.00  0.00    -0.106 S 
ATOM     15  C   UNL A   1      30.538  28.735  23.349  1.00  0.00     0.093 A 
BRANCH  12  16
ATOM     16  N   UNL A   1      26.840  28.609  22.809  1.00  0.00    -0.375 N 
ATOM     17  H   UNL A   1      26.511  28.421  21.901  1.00  0.00     0.159 HD
ATOM     18  H   UNL A   1      26.212  28.888  23.513  1.00  0.00     0.159 HD
ENDBRANCH  12  16
ENDBRANCH  10  11
ENDBRANCH   8  10
ENDBRANCH   7   8
BRANCH   7  19
ATOM     19  C   UNL A   1      33.203  24.766  25.758  1.00  0.00     0.235 C 
BRANCH  19  20
ATOM     20  C   UNL A   1      34.203  24.400  24.655  1.00  0.00     0.406 C 
ATOM     21  F   UNL A   1      34.207  23.090  24.344  1.00  0.00    -0.169 F 
ATOM     22  F   UNL A   1      33.905  25.079  23.518  1.00  0.00    -0.169 F 
ATOM     23  F   UNL A   1      35.462  24.757  24.993  1.00  0.00    -0.169 F 
ENDBRANCH  19  20
ENDBRANCH   7  19
ENDBRANCH   6   7
ENDBRANCH   3   6
ENDBRANCH   1   2
BRANCH   1  24
ATOM     24  C   UNL A   1      31.388  30.697  26.397  1.00  0.00     0.023 C 
BRANCH  24  25
ATOM     25  C   UNL A   1      31.325  32.205  26.560  1.00  0.00     0.023 C 
BRANCH  25  26
ATOM     26  C   UNL A   1      32.622  32.834  27.039  1.00  0.00     0.116 C 
BRANCH  26  27
ATOM     27  N   UNL A   1      32.436  34.131  27.674  1.00  0.00    -0.352 N 
ATOM     28  C   UNL A   1      33.136  34.679  28.724  1.00  0.00     0.251 C 
ATOM     29  H   UNL A   1      31.715  34.690  27.302  1.00  0.00     0.163 HD
ATOM     30  O   UNL A   1      32.784  35.729  29.236  1.00  0.00    -0.269 OA
BRANCH  28  31
ATOM     31  C   UNL A   1      34.317  33.955  29.240  1.00  0.00     0.039 A 
ATOM     32  C   UNL A   1      35.593  34.412  28.909  1.00  0.00     0.014 A 
ATOM     33  C   UNL A   1      34.153  32.856  30.086  1.00  0.00     0.014 A 
ATOM     34  C   UNL A   1      36.709  33.788  29.470  1.00  0.00     0.010 A 
ATOM     35  C   UNL A   1      35.256  32.312  30.730  1.00  0.00     0.010 A 
ATOM     36  C   UNL A   1      36.548  32.750  30.402  1.00  0.00    -0.014 A 
BRANCH  36  37
ATOM     37  C   UNL A   1      37.716  32.056  30.995  1.00  0.00     0.031 A 
ATOM     38  C   UNL A   1      38.172  32.433  32.380  1.00  0.00     0.074 A 
ATOM     39  C   UNL A   1      38.389  31.134  30.283  1.00  0.00     0.049 A 
ATOM     40  N   UNL A   1      39.196  31.992  33.065  1.00  0.00    -0.248 NA
ATOM     41  C   UNL A   1      37.394  33.472  33.074  1.00  0.00     0.031 C 
ATOM     42  C   UNL A   1      38.076  30.726  28.913  1.00  0.00     0.029 A 
ATOM     43  N   UNL A   1      39.482  30.374  30.614  1.00  0.00    -0.354 N 
ATOM     44  C   UNL A   1      39.192  32.712  34.252  1.00  0.00     0.074 A 
ATOM     45  C   UNL A   1      38.115  33.671  34.165  1.00  0.00     0.031 C 
ATOM     46  C   UNL A   1      38.935  29.765  28.532  1.00  0.00     0.029 A 
ATOM     47  C   UNL A   1      39.880  29.516  29.618  1.00  0.00     0.049 A 
ATOM     48  H   UNL A   1      39.937  30.436  31.485  1.00  0.00     0.167 HD
ATOM     49  C   UNL A   1      39.991  32.564  35.334  1.00  0.00     0.037 A 
ATOM     50  C   UNL A   1      40.892  28.629  29.589  1.00  0.00     0.037 A 
ATOM     51  C   UNL A   1      41.038  31.583  35.429  1.00  0.00     0.049 A 
ATOM     52  C   UNL A   1      41.761  28.475  30.810  1.00  0.00     0.074 A 
ATOM     53  C   UNL A   1      41.871  31.309  36.497  1.00  0.00     0.029 A 
ATOM     54  N   UNL A   1      41.392  30.711  34.409  1.00  0.00    -0.354 N 
ATOM     55  N   UNL A   1      41.704  29.112  31.955  1.00  0.00    -0.248 NA
ATOM     56  C   UNL A   1      42.827  27.467  30.739  1.00  0.00     0.031 C 
ATOM     57  C   UNL A   1      42.763  30.304  36.108  1.00  0.00     0.029 A 
ATOM     58  C   UNL A   1      42.442  29.908  34.819  1.00  0.00     0.049 A 
ATOM     59  H   UNL A   1      40.959  30.669  33.526  1.00  0.00     0.167 HD
ATOM     60  C   UNL A   1      42.697  28.556  32.752  1.00  0.00     0.074 A 
ATOM     61  C   UNL A   1      43.331  27.522  31.963  1.00  0.00     0.031 C 
ATOM     62  C   UNL A   1      43.049  28.870  34.024  1.00  0.00     0.037 A 
BRANCH  49  63
ATOM     63  C   UNL A   1      39.753  33.478  36.503  1.00  0.00     0.064 A 
ATOM     64  C   UNL A   1      38.875  33.135  37.543  1.00  0.00     0.173 A 
ATOM     65  C   UNL A   1      40.424  34.707  36.593  1.00  0.00     0.173 A 
ATOM     66  F   UNL A   1      38.194  31.979  37.499  1.00  0.00    -0.203 F 
ATOM     67  C   UNL A   1      38.650  34.002  38.609  1.00  0.00     0.198 A 
ATOM     68  C   UNL A   1      40.225  35.555  37.680  1.00  0.00     0.198 A 
ATOM     69  F   UNL A   1      41.276  35.086  35.629  1.00  0.00    -0.203 F 
ATOM     70  F   UNL A   1      37.760  33.678  39.557  1.00  0.00    -0.200 F 
ATOM     71  C   UNL A   1      39.332  35.206  38.681  1.00  0.00     0.200 A 
ATOM     72  F   UNL A   1      40.894  36.714  37.754  1.00  0.00    -0.200 F 
ATOM     73  F   UNL A   1      39.119  36.037  39.711  1.00  0.00    -0.200 F 
ENDBRANCH  49  63
BRANCH  50  74
ATOM     74  C   UNL A   1      41.116  27.789  28.383  1.00  0.00     0.064 A 
ATOM     75  C   UNL A   1      41.982  28.209  27.363  1.00  0.00     0.173 A 
ATOM     76  C   UNL A   1      40.461  26.560  28.215  1.00  0.00     0.173 A 
ATOM     77  F   UNL A   1      42.618  29.385  27.467  1.00  0.00    -0.203 F 
ATOM     78  C   UNL A   1      42.162  27.447  26.210  1.00  0.00     0.198 A 
ATOM     79  C   UNL A   1      40.665  25.784  27.076  1.00  0.00     0.198 A 
ATOM     80  F   UNL A   1      39.626  26.109  29.163  1.00  0.00    -0.203 F 
ATOM     81  F   UNL A   1      42.954  27.899  25.228  1.00  0.00    -0.200 F 
ATOM     82  C   UNL A   1      41.507  26.232  26.070  1.00  0.00     0.200 A 
ATOM     83  F   UNL A   1      40.043  24.604  26.952  1.00  0.00    -0.200 F 
ATOM     84  F   UNL A   1      41.681  25.500  24.962  1.00  0.00    -0.200 F 
ENDBRANCH  50  74
BRANCH  62  85
ATOM     85  C   UNL A   1      44.131  28.048  34.663  1.00  0.00     0.064 A 
ATOM     86  C   UNL A   1      45.475  28.443  34.639  1.00  0.00     0.173 A 
ATOM     87  C   UNL A   1      43.805  26.863  35.342  1.00  0.00     0.173 A 
ATOM     88  F   UNL A   1      45.840  29.561  33.993  1.00  0.00    -0.203 F 
ATOM     89  C   UNL A   1      46.460  27.666  35.243  1.00  0.00     0.198 A 
ATOM     90  C   UNL A   1      44.787  26.107  35.975  1.00  0.00     0.198 A 
ATOM     91  F   UNL A   1      42.532  26.445  35.405  1.00  0.00    -0.203 F 
ATOM     92  F   UNL A   1      47.746  28.033  35.159  1.00  0.00    -0.200 F 
ATOM     93  C   UNL A   1      46.114  26.503  35.916  1.00  0.00     0.200 A 
ATOM     94  F   UNL A   1      44.449  24.995  36.642  1.00  0.00    -0.200 F 
ATOM     95  F   UNL A   1      47.062  25.760  36.503  1.00  0.00    -0.200 F 
ENDBRANCH  62  85
ENDBRANCH  36  37
ENDBRANCH  28  31
ENDBRANCH  26  27
ENDBRANCH  25  26
ENDBRANCH  24  25
ENDBRANCH   1  24
TORSDOF 18
ENDMDL
MODEL 2
REMARK VINA RESULT:     -10.7      5.724      9.587
REMARK SMILES Nc1nc(CC(=O)N(CC(=O)NCCCCNC(=O)c2ccc(-c3c4nc(c(-c5c(F)c(F)c(F)c(F)c5F)c5ccc([nH]5)c(-c5c(F)c(F)c(F)c(F)c5F)c5nc(c(-c6c(F)c(F)c(F)c(F)c6F)c6ccc3[nH]6)C=C5)C=C4)cc2)CC(F)(F)F)cs1
REMARK SMILES IDX 13 1 12 2 10 3 11 4 9 6 8 7 6 8 7 9 5 10 4 11 2 12 3 13
REMARK SMILES IDX 89 14 88 15 1 16 83 19 84 20 85 21 86 22 87 23 14 24 15 25
REMARK SMILES IDX 16 26 17 27 18 28 19 30 20 31 21 32 82 33 22 34 81 35 23 36
REMARK SMILES IDX 24 37 25 38 75 39 26 40 80 41 74 42 76 43 27 44 79 45 73 46
REMARK SMILES IDX 72 47 28 49 60 50 40 51 59 52 41 53 44 54 58 55 77 56 42 57
REMARK SMILES IDX 43 58 57 60 78 61 45 62 29 63 30 64 38 65 31 66 32 67 36 68
REMARK SMILES IDX 39 69 33 70 34 71 37 72 35 73 61 74 62 75 70 76 63 77 64 78
REMARK SMILES IDX 68 79 71 80 65 81 66 82 69 83 67 84 46 85 47 86 55 87 48 88
REMARK SMILES IDX 49 89 53 90 56 91 50 92 51 93 54 94 52 95
REMARK H PARENT 12 5 1 17 1 18 17 29 76 48 44 59
REMARK Flexibility Score: inf
ROOT
ATOM      1  C   UNL A   1      36.329  21.604  25.688  1.00  0.00     0.116 C 
ENDROOT
BRANCH   1   2
ATOM      2  N   UNL A   1      35.345  21.715  26.736  1.00  0.00    -0.355 N 
ATOM      3  C   UNL A   1      34.400  22.691  26.890  1.00  0.00     0.239 C 
ATOM      4  O   UNL A   1      33.465  22.477  27.664  1.00  0.00    -0.273 OA
ATOM      5  H   UNL A   1      35.355  21.007  27.419  1.00  0.00     0.163 HD
BRANCH   3   6
ATOM      6  C   UNL A   1      34.431  23.975  26.034  1.00  0.00     0.219 C 
BRANCH   6   7
ATOM      7  N   UNL A   1      33.575  23.978  24.835  1.00  0.00    -0.324 N 
BRANCH   7   8
ATOM      8  C   UNL A   1      33.430  22.918  23.942  1.00  0.00     0.229 C 
ATOM      9  O   UNL A   1      34.285  22.720  23.073  1.00  0.00    -0.274 OA
BRANCH   8  10
ATOM     10  C   UNL A   1      32.167  22.058  23.954  1.00  0.00     0.157 C 
BRANCH  10  11
ATOM     11  C   UNL A   1      32.394  20.588  24.107  1.00  0.00     0.063 A 
ATOM     12  C   UNL A   1      32.711  18.787  25.377  1.00  0.00     0.180 A 
ATOM     13  N   UNL A   1      32.487  20.076  25.396  1.00  0.00    -0.225 NA
ATOM     14  S   UNL A   1      32.786  18.088  23.813  1.00  0.00    -0.106 S 
ATOM     15  C   UNL A   1      32.526  19.635  23.112  1.00  0.00     0.093 A 
BRANCH  12  16
ATOM     16  N   UNL A   1      32.903  18.072  26.488  1.00  0.00    -0.375 N 
ATOM     17  H   UNL A   1      33.813  17.791  26.742  1.00  0.00     0.159 HD
ATOM     18  H   UNL A   1      32.136  17.826  27.053  1.00  0.00     0.159 HD
ENDBRANCH  12  16
ENDBRANCH  10  11
ENDBRANCH   8  10
ENDBRANCH   7   8
BRANCH   7  19
ATOM     19  C   UNL A   1      32.749  25.190  24.607  1.00  0.00     0.235 C 
BRANCH  19  20
ATOM     20  C   UNL A   1      33.258  26.272  23.648  1.00  0.00     0.406 C 
ATOM     21  F   UNL A   1      34.020  25.791  22.647  1.00  0.00    -0.169 F 
ATOM     22  F   UNL A   1      32.208  26.914  23.077  1.00  0.00    -0.169 F 
ATOM     23  F   UNL A   1      33.972  27.215  24.302  1.00  0.00    -0.169 F 
ENDBRANCH  19  20
ENDBRANCH   7  19
ENDBRANCH   6   7
ENDBRANCH   3   6
ENDBRANCH   1   2
BRANCH   1  24
ATOM     24  C   UNL A   1      36.385  20.248  25.003  1.00  0.00     0.023 C 
BRANCH  24  25
ATOM     25  C   UNL A   1      37.788  19.754  24.701  1.00  0.00     0.023 C 
BRANCH  25  26
ATOM     26  C   UNL A   1      38.812  20.100  25.767  1.00  0.00     0.116 C 
BRANCH  26  27
ATOM     27  N   UNL A   1      39.899  19.134  25.859  1.00  0.00    -0.352 N 
ATOM     28  C   UNL A   1      41.236  19.370  26.084  1.00  0.00     0.251 C 
ATOM     29  H   UNL A   1      39.644  18.190  25.746  1.00  0.00     0.163 HD
ATOM     30  O   UNL A   1      42.055  18.469  26.008  1.00  0.00    -0.269 OA
BRANCH  28  31
ATOM     31  C   UNL A   1      41.668  20.748  26.398  1.00  0.00     0.039 A 
ATOM     32  C   UNL A   1      41.966  21.083  27.720  1.00  0.00     0.014 A 
ATOM     33  C   UNL A   1      41.818  21.688  25.376  1.00  0.00     0.014 A 
ATOM     34  C   UNL A   1      42.463  22.356  28.007  1.00  0.00     0.010 A 
ATOM     35  C   UNL A   1      42.419  22.909  25.647  1.00  0.00     0.010 A 
ATOM     36  C   UNL A   1      42.716  23.269  26.970  1.00  0.00    -0.014 A 
BRANCH  36  37
ATOM     37  C   UNL A   1      43.222  24.634  27.249  1.00  0.00     0.031 A 
ATOM     38  C   UNL A   1      42.278  25.671  27.798  1.00  0.00     0.074 A 
ATOM     39  C   UNL A   1      44.498  24.955  26.967  1.00  0.00     0.049 A 
ATOM     40  N   UNL A   1      42.496  26.934  28.064  1.00  0.00    -0.248 NA
ATOM     41  C   UNL A   1      40.893  25.240  28.049  1.00  0.00     0.031 C 
ATOM     42  C   UNL A   1      45.489  24.052  26.380  1.00  0.00     0.029 A 
ATOM     43  N   UNL A   1      45.180  26.134  27.133  1.00  0.00    -0.354 N 
ATOM     44  C   UNL A   1      41.277  27.444  28.490  1.00  0.00     0.074 A 
ATOM     45  C   UNL A   1      40.306  26.380  28.376  1.00  0.00     0.031 C 
ATOM     46  C   UNL A   1      46.661  24.699  26.267  1.00  0.00     0.029 A 
ATOM     47  C   UNL A   1      46.494  26.070  26.740  1.00  0.00     0.049 A 
ATOM     48  H   UNL A   1      44.766  26.947  27.501  1.00  0.00     0.167 HD
ATOM     49  C   UNL A   1      40.998  28.678  28.970  1.00  0.00     0.037 A 
ATOM     50  C   UNL A   1      47.454  27.015  26.763  1.00  0.00     0.037 A 
ATOM     51  C   UNL A   1      41.977  29.721  29.117  1.00  0.00     0.049 A 
ATOM     52  C   UNL A   1      47.120  28.378  27.312  1.00  0.00     0.074 A 
ATOM     53  C   UNL A   1      41.815  30.990  29.641  1.00  0.00     0.029 A 
ATOM     54  N   UNL A   1      43.306  29.610  28.735  1.00  0.00    -0.354 N 
ATOM     55  N   UNL A   1      45.980  28.830  27.779  1.00  0.00    -0.248 NA
ATOM     56  C   UNL A   1      48.212  29.360  27.349  1.00  0.00     0.031 C 
ATOM     57  C   UNL A   1      43.036  31.665  29.533  1.00  0.00     0.029 A 
ATOM     58  C   UNL A   1      43.973  30.794  29.000  1.00  0.00     0.049 A 
ATOM     59  H   UNL A   1      43.715  28.808  28.336  1.00  0.00     0.167 HD
ATOM     60  C   UNL A   1      46.228  30.130  28.202  1.00  0.00     0.074 A 
ATOM     61  C   UNL A   1      47.629  30.389  27.946  1.00  0.00     0.031 C 
ATOM     62  C   UNL A   1      45.374  31.026  28.754  1.00  0.00     0.037 A 
BRANCH  49  63
ATOM     63  C   UNL A   1      39.579  28.958  29.380  1.00  0.00     0.064 A 
ATOM     64  C   UNL A   1      39.135  28.749  30.695  1.00  0.00     0.173 A 
ATOM     65  C   UNL A   1      38.656  29.460  28.450  1.00  0.00     0.173 A 
ATOM     66  F   UNL A   1      39.972  28.256  31.621  1.00  0.00    -0.203 F 
ATOM     67  C   UNL A   1      37.812  28.995  31.054  1.00  0.00     0.198 A 
ATOM     68  C   UNL A   1      37.344  29.741  28.822  1.00  0.00     0.198 A 
ATOM     69  F   UNL A   1      39.027  29.682  27.180  1.00  0.00    -0.203 F 
ATOM     70  F   UNL A   1      37.398  28.728  32.299  1.00  0.00    -0.200 F 
ATOM     71  C   UNL A   1      36.921  29.499  30.120  1.00  0.00     0.200 A 
ATOM     72  F   UNL A   1      36.486  30.239  27.921  1.00  0.00    -0.200 F 
ATOM     73  F   UNL A   1      35.650  29.741  30.469  1.00  0.00    -0.200 F 
ENDBRANCH  49  63
BRANCH  50  74
ATOM     74  C   UNL A   1      48.826  26.697  26.293  1.00  0.00     0.064 A 
ATOM     75  C   UNL A   1      49.802  26.224  27.182  1.00  0.00     0.173 A 
ATOM     76  C   UNL A   1      49.200  26.871  24.952  1.00  0.00     0.173 A 
ATOM     77  F   UNL A   1      49.501  26.058  28.479  1.00  0.00    -0.203 F 
ATOM     78  C   UNL A   1      51.104  25.965  26.756  1.00  0.00     0.198 A 
ATOM     79  C   UNL A   1      50.492  26.583  24.519  1.00  0.00     0.198 A 
ATOM     80  F   UNL A   1      48.304  27.315  24.058  1.00  0.00    -0.203 F 
ATOM     81  F   UNL A   1      52.028  25.566  27.640  1.00  0.00    -0.200 F 
ATOM     82  C   UNL A   1      51.446  26.140  25.424  1.00  0.00     0.200 A 
ATOM     83  F   UNL A   1      50.816  26.738  23.229  1.00  0.00    -0.200 F 
ATOM     84  F   UNL A   1      52.697  25.891  25.014  1.00  0.00    -0.200 F 
ENDBRANCH  50  74
BRANCH  62  85
ATOM     85  C   UNL A   1      45.943  32.351  29.176  1.00  0.00     0.064 A 
ATOM     86  C   UNL A   1      45.937  33.465  28.325  1.00  0.00     0.173 A 
ATOM     87  C   UNL A   1      46.468  32.512  30.468  1.00  0.00     0.173 A 
ATOM     88  F   UNL A   1      45.458  33.360  27.076  1.00  0.00    -0.203 F 
ATOM     89  C   UNL A   1      46.467  34.684  28.741  1.00  0.00     0.198 A 
ATOM     90  C   UNL A   1      46.963  33.741  30.892  1.00  0.00     0.198 A 
ATOM     91  F   UNL A   1      46.487  31.481  31.325  1.00  0.00    -0.203 F 
ATOM     92  F   UNL A   1      46.503  35.720  27.892  1.00  0.00    -0.200 F 
ATOM     93  C   UNL A   1      46.972  34.823  30.025  1.00  0.00     0.200 A 
ATOM     94  F   UNL A   1      47.433  33.879  32.140  1.00  0.00    -0.200 F 
ATOM     95  F   UNL A   1      47.474  35.999  30.425  1.00  0.00    -0.200 F 
ENDBRANCH  62  85
ENDBRANCH  36  37
ENDBRANCH  28  31
ENDBRANCH  26  27
ENDBRANCH  25  26
ENDBRANCH  24  25
ENDBRANCH   1  24
TORSDOF 18
ENDMDL
MODEL 3
REMARK VINA RESULT:     -10.7      0.831      7.451
REMARK SMILES Nc1nc(CC(=O)N(CC(=O)NCCCCNC(=O)c2ccc(-c3c4nc(c(-c5c(F)c(F)c(F)c(F)c5F)c5ccc([nH]5)c(-c5c(F)c(F)c(F)c(F)c5F)c5nc(c(-c6c(F)c(F)c(F)c(F)c6F)c6ccc3[nH]6)C=C5)C=C4)cc2)CC(F)(F)F)cs1
REMARK SMILES IDX 13 1 12 2 10 3 11 4 9 6 8 7 6 8 7 9 5 10 4 11 2 12 3 13
REMARK SMILES IDX 89 14 88 15 1 16 83 19 84 20 85 21 86 22 87 23 14 24 15 25
REMARK SMILES IDX 16 26 17 27 18 28 19 30 20 31 21 32 82 33 22 34 81 35 23 36
REMARK SMILES IDX 24 37 25 38 75 39 26 40 80 41 74 42 76 43 27 44 79 45 73 46
REMARK SMILES IDX 72 47 28 49 60 50 40 51 59 52 41 53 44 54 58 55 77 56 42 57
REMARK SMILES IDX 43 58 57 60 78 61 45 62 29 63 30 64 38 65 31 66 32 67 36 68
REMARK SMILES IDX 39 69 33 70 34 71 37 72 35 73 61 74 62 75 70 76 63 77 64 78
REMARK SMILES IDX 68 79 71 80 65 81 66 82 69 83 67 84 46 85 47 86 55 87 48 88
REMARK SMILES IDX 49 89 53 90 56 91 50 92 51 93 54 94 52 95
REMARK H PARENT 12 5 1 17 1 18 17 29 76 48 44 59
REMARK Flexibility Score: inf
ROOT
ATOM      1  C   UNL A   1      31.702  29.754  27.115  1.00  0.00     0.116 C 
ENDROOT
BRANCH   1   2
ATOM      2  N   UNL A   1      33.055  29.431  27.492  1.00  0.00    -0.355 N 
ATOM      3  C   UNL A   1      33.989  28.763  26.748  1.00  0.00     0.239 C 
ATOM      4  O   UNL A   1      35.168  28.830  27.102  1.00  0.00    -0.273 OA
ATOM      5  H   UNL A   1      33.340  29.724  28.387  1.00  0.00     0.163 HD
BRANCH   3   6
ATOM      6  C   UNL A   1      33.602  28.046  25.438  1.00  0.00     0.219 C 
BRANCH   6   7
ATOM      7  N   UNL A   1      32.944  26.735  25.585  1.00  0.00    -0.324 N 
BRANCH   7   8
ATOM      8  C   UNL A   1      31.577  26.497  25.452  1.00  0.00     0.229 C 
ATOM      9  O   UNL A   1      30.878  26.330  26.456  1.00  0.00    -0.274 OA
BRANCH   8  10
ATOM     10  C   UNL A   1      30.948  26.329  24.068  1.00  0.00     0.157 C 
BRANCH  10  11
ATOM     11  C   UNL A   1      30.149  27.496  23.583  1.00  0.00     0.063 A 
ATOM     12  C   UNL A   1      28.202  28.450  23.083  1.00  0.00     0.180 A 
ATOM     13  N   UNL A   1      28.766  27.367  23.552  1.00  0.00    -0.225 NA
ATOM     14  S   UNL A   1      29.285  29.718  22.683  1.00  0.00    -0.106 S 
ATOM     15  C   UNL A   1      30.610  28.726  23.149  1.00  0.00     0.093 A 
BRANCH  12  16
ATOM     16  N   UNL A   1      26.883  28.553  22.894  1.00  0.00    -0.375 N 
ATOM     17  H   UNL A   1      26.532  28.841  22.020  1.00  0.00     0.159 HD
ATOM     18  H   UNL A   1      26.263  28.339  23.628  1.00  0.00     0.159 HD
ENDBRANCH  12  16
ENDBRANCH  10  11
ENDBRANCH   8  10
ENDBRANCH   7   8
BRANCH   7  19
ATOM     19  C   UNL A   1      33.828  25.568  25.827  1.00  0.00     0.235 C 
BRANCH  19  20
ATOM     20  C   UNL A   1      34.316  24.739  24.633  1.00  0.00     0.406 C 
ATOM     21  F   UNL A   1      33.632  23.593  24.457  1.00  0.00    -0.169 F 
ATOM     22  F   UNL A   1      34.191  25.459  23.490  1.00  0.00    -0.169 F 
ATOM     23  F   UNL A   1      35.627  24.433  24.749  1.00  0.00    -0.169 F 
ENDBRANCH  19  20
ENDBRANCH   7  19
ENDBRANCH   6   7
ENDBRANCH   3   6
ENDBRANCH   1   2
BRANCH   1  24
ATOM     24  C   UNL A   1      31.571  30.870  26.091  1.00  0.00     0.023 C 
BRANCH  24  25
ATOM     25  C   UNL A   1      31.340  32.247  26.687  1.00  0.00     0.023 C 
BRANCH  25  26
ATOM     26  C   UNL A   1      32.614  32.993  27.043  1.00  0.00     0.116 C 
BRANCH  26  27
ATOM     27  N   UNL A   1      32.371  34.314  27.606  1.00  0.00    -0.352 N 
ATOM     28  C   UNL A   1      32.999  34.919  28.671  1.00  0.00     0.251 C 
ATOM     29  H   UNL A   1      31.667  34.844  27.168  1.00  0.00     0.163 HD
ATOM     30  O   UNL A   1      32.602  35.985  29.113  1.00  0.00    -0.269 OA
BRANCH  28  31
ATOM     31  C   UNL A   1      34.157  34.239  29.288  1.00  0.00     0.039 A 
ATOM     32  C   UNL A   1      35.445  34.565  28.862  1.00  0.00     0.014 A 
ATOM     33  C   UNL A   1      33.962  33.314  30.318  1.00  0.00     0.014 A 
ATOM     34  C   UNL A   1      36.544  33.994  29.507  1.00  0.00     0.010 A 
ATOM     35  C   UNL A   1      35.053  32.837  31.029  1.00  0.00     0.010 A 
ATOM     36  C   UNL A   1      36.356  33.145  30.610  1.00  0.00    -0.014 A 
BRANCH  36  37
ATOM     37  C   UNL A   1      37.504  32.507  31.298  1.00  0.00     0.031 A 
ATOM     38  C   UNL A   1      38.243  31.387  30.615  1.00  0.00     0.074 A 
ATOM     39  C   UNL A   1      37.849  32.893  32.540  1.00  0.00     0.049 A 
ATOM     40  N   UNL A   1      39.236  30.658  31.054  1.00  0.00    -0.248 NA
ATOM     41  C   UNL A   1      37.778  31.011  29.269  1.00  0.00     0.031 C 
ATOM     42  C   UNL A   1      37.174  33.927  33.325  1.00  0.00     0.029 A 
ATOM     43  N   UNL A   1      38.856  32.456  33.363  1.00  0.00    -0.354 N 
ATOM     44  C   UNL A   1      39.496  29.733  30.052  1.00  0.00     0.074 A 
ATOM     45  C   UNL A   1      38.511  29.939  29.016  1.00  0.00     0.031 C 
ATOM     46  C   UNL A   1      37.805  34.069  34.503  1.00  0.00     0.029 A 
ATOM     47  C   UNL A   1      38.907  33.112  34.569  1.00  0.00     0.049 A 
ATOM     48  H   UNL A   1      39.483  31.740  33.113  1.00  0.00     0.167 HD
ATOM     49  C   UNL A   1      40.491  28.818  29.982  1.00  0.00     0.037 A 
ATOM     50  C   UNL A   1      39.751  32.957  35.607  1.00  0.00     0.037 A 
ATOM     51  C   UNL A   1      41.491  28.644  31.001  1.00  0.00     0.049 A 
ATOM     52  C   UNL A   1      40.855  31.939  35.501  1.00  0.00     0.074 A 
ATOM     53  C   UNL A   1      42.574  27.784  31.009  1.00  0.00     0.029 A 
ATOM     54  N   UNL A   1      41.528  29.348  32.196  1.00  0.00    -0.354 N 
ATOM     55  N   UNL A   1      41.136  31.117  34.518  1.00  0.00    -0.248 NA
ATOM     56  C   UNL A   1      41.771  31.836  36.646  1.00  0.00     0.031 C 
ATOM     57  C   UNL A   1      43.240  27.934  32.230  1.00  0.00     0.029 A 
ATOM     58  C   UNL A   1      42.608  28.932  32.955  1.00  0.00     0.049 A 
ATOM     59  H   UNL A   1      40.882  30.042  32.463  1.00  0.00     0.167 HD
ATOM     60  C   UNL A   1      42.280  30.431  34.907  1.00  0.00     0.074 A 
ATOM     61  C   UNL A   1      42.646  30.943  36.211  1.00  0.00     0.031 C 
ATOM     62  C   UNL A   1      42.967  29.468  34.244  1.00  0.00     0.037 A 
BRANCH  49  63
ATOM     63  C   UNL A   1      40.547  27.946  28.760  1.00  0.00     0.064 A 
ATOM     64  C   UNL A   1      39.867  26.720  28.695  1.00  0.00     0.173 A 
ATOM     65  C   UNL A   1      41.275  28.350  27.631  1.00  0.00     0.173 A 
ATOM     66  F   UNL A   1      39.169  26.278  29.753  1.00  0.00    -0.203 F 
ATOM     67  C   UNL A   1      39.945  25.914  27.562  1.00  0.00     0.198 A 
ATOM     68  C   UNL A   1      41.320  27.559  26.486  1.00  0.00     0.198 A 
ATOM     69  F   UNL A   1      41.942  29.514  27.635  1.00  0.00    -0.203 F 
ATOM     70  F   UNL A   1      39.339  24.719  27.550  1.00  0.00    -0.200 F 
ATOM     71  C   UNL A   1      40.664  26.338  26.456  1.00  0.00     0.200 A 
ATOM     72  F   UNL A   1      42.005  27.976  25.412  1.00  0.00    -0.200 F 
ATOM     73  F   UNL A   1      40.733  25.564  25.364  1.00  0.00    -0.200 F 
ENDBRANCH  49  63
BRANCH  50  74
ATOM     74  C   UNL A   1      39.613  33.810  36.815  1.00  0.00     0.064 A 
ATOM     75  C   UNL A   1      38.850  33.387  37.914  1.00  0.00     0.173 A 
ATOM     76  C   UNL A   1      40.225  35.070  36.896  1.00  0.00     0.173 A 
ATOM     77  F   UNL A   1      38.229  32.198  37.879  1.00  0.00    -0.203 F 
ATOM     78  C   UNL A   1      38.681  34.201  39.033  1.00  0.00     0.198 A 
ATOM     79  C   UNL A   1      40.081  35.870  38.028  1.00  0.00     0.198 A 
ATOM     80  F   UNL A   1      40.971  35.521  35.877  1.00  0.00    -0.203 F 
ATOM     81  F   UNL A   1      37.902  33.792  40.043  1.00  0.00    -0.200 F 
ATOM     82  C   UNL A   1      39.301  35.440  39.090  1.00  0.00     0.200 A 
ATOM     83  F   UNL A   1      40.694  37.060  38.087  1.00  0.00    -0.200 F 
ATOM     84  F   UNL A   1      39.139  36.222  40.166  1.00  0.00    -0.200 F 
ENDBRANCH  50  74
BRANCH  62  85
ATOM     85  C   UNL A   1      44.218  28.945  34.889  1.00  0.00     0.064 A 
ATOM     86  C   UNL A   1      44.206  27.827  35.735  1.00  0.00     0.173 A 
ATOM     87  C   UNL A   1      45.454  29.555  34.623  1.00  0.00     0.173 A 
ATOM     88  F   UNL A   1      43.049  27.215  36.030  1.00  0.00    -0.203 F 
ATOM     89  C   UNL A   1      45.380  27.358  36.318  1.00  0.00     0.198 A 
ATOM     90  C   UNL A   1      46.631  29.062  35.179  1.00  0.00     0.198 A 
ATOM     91  F   UNL A   1      45.523  30.621  33.812  1.00  0.00    -0.203 F 
ATOM     92  F   UNL A   1      45.337  26.324  37.168  1.00  0.00    -0.200 F 
ATOM     93  C   UNL A   1      46.592  27.971  36.034  1.00  0.00     0.200 A 
ATOM     94  F   UNL A   1      47.803  29.644  34.888  1.00  0.00    -0.200 F 
ATOM     95  F   UNL A   1      47.722  27.515  36.590  1.00  0.00    -0.200 F 
ENDBRANCH  62  85
ENDBRANCH  36  37
ENDBRANCH  28  31
ENDBRANCH  26  27
ENDBRANCH  25  26
ENDBRANCH  24  25
ENDBRANCH   1  24
TORSDOF 18
ENDMDL
