MODEL 1
REMARK VINA RESULT:     -12.0      0.000      0.000
REMARK SMILES CC(C)C[C@H](NC(=O)Cc1ccccc1)C(=O)NCCCCNC(=O)c1ccc(-c2c3nc(c(-c4c(F)c(F)c(F)c(F)c4F)c4ccc([nH]4)c(-c4c(F)c(F)c(F)c(F)c4F)c4nc(c(-c5c(F)c(F)c(F)c(F)c5F)c5ccc2[nH]5)C=C4)C=C3)cc1
REMARK SMILES IDX 20 1 19 2 18 3 16 4 17 5 5 7 4 8 2 9 1 10 3 11 6 12 7 13
REMARK SMILES IDX 8 15 9 16 10 17 11 18 15 19 12 20 14 21 13 22 21 23 22 24
REMARK SMILES IDX 23 25 24 26 25 28 26 29 27 30 88 31 28 32 87 33 29 34 30 35
REMARK SMILES IDX 31 36 81 37 32 38 86 39 80 40 82 41 33 42 85 43 79 44 78 45
REMARK SMILES IDX 34 47 66 48 46 49 65 50 47 51 50 52 64 53 83 54 48 55 49 56
REMARK SMILES IDX 63 58 84 59 51 60 35 61 36 62 44 63 37 64 38 65 42 66 45 67
REMARK SMILES IDX 39 68 40 69 43 70 41 71 67 72 68 73 76 74 69 75 70 76 74 77
REMARK SMILES IDX 77 78 71 79 72 80 75 81 73 82 52 83 53 84 61 85 54 86 55 87
REMARK SMILES IDX 59 88 62 89 56 90 57 91 60 92 58 93
REMARK H PARENT 18 6 6 14 23 27 82 46 50 57
REMARK Flexibility Score: inf
ROOT
ATOM      1  C   UNL A   1      32.443  30.097  25.865  1.00  0.00     0.023 C 
ENDROOT
BRANCH   1   2
ATOM      2  C   UNL A   1      31.327  29.600  24.951  1.00  0.00     0.116 C 
BRANCH   2   3
ATOM      3  N   UNL A   1      31.654  29.445  23.534  1.00  0.00    -0.354 N 
ATOM      4  C   UNL A   1      30.745  28.946  22.611  1.00  0.00     0.242 C 
ATOM      5  O   UNL A   1      30.285  29.725  21.773  1.00  0.00    -0.273 OA
ATOM      6  H   UNL A   1      32.551  29.705  23.223  1.00  0.00     0.163 HD
BRANCH   4   7
ATOM      7  C   UNL A   1      30.522  27.387  22.490  1.00  0.00     0.171 C 
BRANCH   7   8
ATOM      8  C   UNL A   1      29.914  26.636  23.739  1.00  0.00     0.038 C 
BRANCH   8   9
ATOM      9  C   UNL A   1      30.869  25.850  24.676  1.00  0.00    -0.015 C 
ATOM     10  C   UNL A   1      30.836  26.323  26.138  1.00  0.00     0.007 C 
ATOM     11  C   UNL A   1      30.635  24.338  24.659  1.00  0.00     0.007 C 
ENDBRANCH   8   9
ENDBRANCH   7   8
BRANCH   7  12
ATOM     12  N   UNL A   1      31.482  26.697  21.634  1.00  0.00    -0.344 N 
ATOM     13  C   UNL A   1      32.783  26.346  21.646  1.00  0.00     0.225 C 
ATOM     14  H   UNL A   1      31.052  26.401  20.800  1.00  0.00     0.164 HD
ATOM     15  O   UNL A   1      33.184  25.956  20.535  1.00  0.00    -0.275 OA
BRANCH  13  16
ATOM     16  C   UNL A   1      33.749  26.255  22.825  1.00  0.00     0.135 C 
BRANCH  16  17
ATOM     17  C   UNL A   1      34.043  24.999  23.624  1.00  0.00    -0.039 A 
ATOM     18  C   UNL A   1      34.053  23.698  23.118  1.00  0.00     0.004 A 
ATOM     19  C   UNL A   1      34.415  25.138  24.966  1.00  0.00     0.004 A 
ATOM     20  C   UNL A   1      34.298  22.574  23.910  1.00  0.00     0.000 A 
ATOM     21  C   UNL A   1      34.710  24.025  25.762  1.00  0.00     0.000 A 
ATOM     22  C   UNL A   1      34.620  22.739  25.244  1.00  0.00     0.000 A 
ENDBRANCH  16  17
ENDBRANCH  13  16
ENDBRANCH   7  12
ENDBRANCH   4   7
ENDBRANCH   2   3
ENDBRANCH   1   2
BRANCH   1  23
ATOM     23  C   UNL A   1      32.025  31.200  26.861  1.00  0.00     0.023 C 
BRANCH  23  24
ATOM     24  C   UNL A   1      33.046  32.259  27.300  1.00  0.00     0.116 C 
BRANCH  24  25
ATOM     25  N   UNL A   1      32.517  33.584  27.562  1.00  0.00    -0.352 N 
ATOM     26  C   UNL A   1      33.040  34.565  28.386  1.00  0.00     0.251 C 
ATOM     27  H   UNL A   1      31.680  33.814  27.096  1.00  0.00     0.163 HD
ATOM     28  O   UNL A   1      32.504  35.668  28.459  1.00  0.00    -0.269 OA
BRANCH  26  29
ATOM     29  C   UNL A   1      34.229  34.285  29.232  1.00  0.00     0.039 A 
ATOM     30  C   UNL A   1      34.031  33.804  30.531  1.00  0.00     0.014 A 
ATOM     31  C   UNL A   1      35.530  34.457  28.752  1.00  0.00     0.014 A 
ATOM     32  C   UNL A   1      35.126  33.378  31.294  1.00  0.00     0.010 A 
ATOM     33  C   UNL A   1      36.620  34.008  29.500  1.00  0.00     0.010 A 
ATOM     34  C   UNL A   1      36.423  33.420  30.757  1.00  0.00    -0.014 A 
BRANCH  34  35
ATOM     35  C   UNL A   1      37.555  32.711  31.414  1.00  0.00     0.031 A 
ATOM     36  C   UNL A   1      38.220  31.526  30.781  1.00  0.00     0.074 A 
ATOM     37  C   UNL A   1      37.899  33.085  32.663  1.00  0.00     0.049 A 
ATOM     38  N   UNL A   1      39.180  30.769  31.251  1.00  0.00    -0.248 NA
ATOM     39  C   UNL A   1      37.724  31.117  29.459  1.00  0.00     0.031 C 
ATOM     40  C   UNL A   1      37.270  34.169  33.422  1.00  0.00     0.029 A 
ATOM     41  N   UNL A   1      38.846  32.588  33.524  1.00  0.00    -0.354 N 
ATOM     42  C   UNL A   1      39.404  29.794  30.288  1.00  0.00     0.074 A 
ATOM     43  C   UNL A   1      38.445  30.027  29.227  1.00  0.00     0.031 C 
ATOM     44  C   UNL A   1      37.860  34.268  34.622  1.00  0.00     0.029 A 
ATOM     45  C   UNL A   1      38.890  33.240  34.732  1.00  0.00     0.049 A 
ATOM     46  H   UNL A   1      39.439  31.834  33.296  1.00  0.00     0.167 HD
ATOM     47  C   UNL A   1      40.333  28.807  30.285  1.00  0.00     0.037 A 
ATOM     48  C   UNL A   1      39.671  33.035  35.809  1.00  0.00     0.037 A 
ATOM     49  C   UNL A   1      41.292  28.586  31.339  1.00  0.00     0.049 A 
ATOM     50  C   UNL A   1      40.704  31.944  35.772  1.00  0.00     0.074 A 
ATOM     51  C   UNL A   1      42.324  27.663  31.390  1.00  0.00     0.029 A 
ATOM     52  N   UNL A   1      41.330  29.290  32.534  1.00  0.00    -0.354 N 
ATOM     53  N   UNL A   1      40.976  31.095  34.811  1.00  0.00    -0.248 NA
ATOM     54  C   UNL A   1      41.546  31.788  36.966  1.00  0.00     0.031 C 
ATOM     55  C   UNL A   1      42.957  27.779  32.632  1.00  0.00     0.029 A 
ATOM     56  C   UNL A   1      42.352  28.806  33.338  1.00  0.00     0.049 A 
ATOM     57  H   UNL A   1      40.721  30.024  32.777  1.00  0.00     0.167 HD
ATOM     58  C   UNL A   1      42.036  30.328  35.268  1.00  0.00     0.074 A 
ATOM     59  C   UNL A   1      42.368  30.818  36.591  1.00  0.00     0.031 C 
ATOM     60  C   UNL A   1      42.678  29.308  34.648  1.00  0.00     0.037 A 
BRANCH  47  61
ATOM     61  C   UNL A   1      40.372  27.891  29.096  1.00  0.00     0.064 A 
ATOM     62  C   UNL A   1      39.621  26.706  29.061  1.00  0.00     0.173 A 
ATOM     63  C   UNL A   1      41.122  28.224  27.958  1.00  0.00     0.173 A 
ATOM     64  F   UNL A   1      38.889  26.339  30.123  1.00  0.00    -0.203 F 
ATOM     65  C   UNL A   1      39.644  25.876  27.943  1.00  0.00     0.198 A 
ATOM     66  C   UNL A   1      41.120  27.406  26.831  1.00  0.00     0.198 A 
ATOM     67  F   UNL A   1      41.849  29.352  27.934  1.00  0.00    -0.203 F 
ATOM     68  F   UNL A   1      38.953  24.727  27.951  1.00  0.00    -0.200 F 
ATOM     69  C   UNL A   1      40.388  26.228  26.828  1.00  0.00     0.200 A 
ATOM     70  F   UNL A   1      41.828  27.755  25.749  1.00  0.00    -0.200 F 
ATOM     71  F   UNL A   1      40.402  25.431  25.751  1.00  0.00    -0.200 F 
ENDBRANCH  47  61
BRANCH  48  72
ATOM     72  C   UNL A   1      39.539  33.916  36.999  1.00  0.00     0.064 A 
ATOM     73  C   UNL A   1      38.751  33.527  38.092  1.00  0.00     0.173 A 
ATOM     74  C   UNL A   1      40.192  35.154  37.071  1.00  0.00     0.173 A 
ATOM     75  F   UNL A   1      38.093  32.359  38.059  1.00  0.00    -0.203 F 
ATOM     76  C   UNL A   1      38.603  34.354  39.202  1.00  0.00     0.198 A 
ATOM     77  C   UNL A   1      40.065  35.968  38.196  1.00  0.00     0.198 A 
ATOM     78  F   UNL A   1      40.965  35.567  36.057  1.00  0.00    -0.203 F 
ATOM     79  F   UNL A   1      37.807  33.977  40.213  1.00  0.00    -0.200 F 
ATOM     80  C   UNL A   1      39.264  35.572  39.256  1.00  0.00     0.200 A 
ATOM     81  F   UNL A   1      40.716  37.138  38.250  1.00  0.00    -0.200 F 
ATOM     82  F   UNL A   1      39.122  36.365  40.326  1.00  0.00    -0.200 F 
ENDBRANCH  48  72
BRANCH  60  83
ATOM     83  C   UNL A   1      43.827  28.675  35.377  1.00  0.00     0.064 A 
ATOM     84  C   UNL A   1      43.642  27.577  36.232  1.00  0.00     0.173 A 
ATOM     85  C   UNL A   1      45.133  29.152  35.193  1.00  0.00     0.173 A 
ATOM     86  F   UNL A   1      42.410  27.095  36.455  1.00  0.00    -0.203 F 
ATOM     87  C   UNL A   1      44.721  26.996  36.892  1.00  0.00     0.198 A 
ATOM     88  C   UNL A   1      46.213  28.550  35.832  1.00  0.00     0.198 A 
ATOM     89  F   UNL A   1      45.363  30.197  34.384  1.00  0.00    -0.203 F 
ATOM     90  F   UNL A   1      44.516  25.977  37.738  1.00  0.00    -0.200 F 
ATOM     91  C   UNL A   1      46.006  27.477  36.687  1.00  0.00     0.200 A 
ATOM     92  F   UNL A   1      47.454  29.009  35.624  1.00  0.00    -0.200 F 
ATOM     93  F   UNL A   1      47.044  26.911  37.318  1.00  0.00    -0.200 F 
ENDBRANCH  60  83
ENDBRANCH  34  35
ENDBRANCH  26  29
ENDBRANCH  24  25
ENDBRANCH  23  24
ENDBRANCH   1  23
TORSDOF 16
ENDMDL
MODEL 2
REMARK VINA RESULT:     -11.8      1.826      3.245
REMARK SMILES CC(C)C[C@H](NC(=O)Cc1ccccc1)C(=O)NCCCCNC(=O)c1ccc(-c2c3nc(c(-c4c(F)c(F)c(F)c(F)c4F)c4ccc([nH]4)c(-c4c(F)c(F)c(F)c(F)c4F)c4nc(c(-c5c(F)c(F)c(F)c(F)c5F)c5ccc2[nH]5)C=C4)C=C3)cc1
REMARK SMILES IDX 20 1 19 2 18 3 16 4 17 5 5 7 4 8 2 9 1 10 3 11 6 12 7 13
REMARK SMILES IDX 8 15 9 16 10 17 11 18 15 19 12 20 14 21 13 22 21 23 22 24
REMARK SMILES IDX 23 25 24 26 25 28 26 29 27 30 88 31 28 32 87 33 29 34 30 35
REMARK SMILES IDX 31 36 81 37 32 38 86 39 80 40 82 41 33 42 85 43 79 44 78 45
REMARK SMILES IDX 34 47 66 48 46 49 65 50 47 51 50 52 64 53 83 54 48 55 49 56
REMARK SMILES IDX 63 58 84 59 51 60 35 61 36 62 44 63 37 64 38 65 42 66 45 67
REMARK SMILES IDX 39 68 40 69 43 70 41 71 67 72 68 73 76 74 69 75 70 76 74 77
REMARK SMILES IDX 77 78 71 79 72 80 75 81 73 82 52 83 53 84 61 85 54 86 55 87
REMARK SMILES IDX 59 88 62 89 56 90 57 91 60 92 58 93
REMARK H PARENT 18 6 6 14 23 27 82 46 50 57
REMARK Flexibility Score: inf
ROOT
ATOM      1  C   UNL A   1      32.089  28.942  25.006  1.00  0.00     0.023 C 
ENDROOT
BRANCH   1   2
ATOM      2  C   UNL A   1      31.095  28.398  23.983  1.00  0.00     0.116 C 
BRANCH   2   3
ATOM      3  N   UNL A   1      30.353  27.196  24.359  1.00  0.00    -0.354 N 
ATOM      4  C   UNL A   1      30.817  26.305  25.320  1.00  0.00     0.242 C 
ATOM      5  O   UNL A   1      30.217  26.250  26.396  1.00  0.00    -0.273 OA
ATOM      6  H   UNL A   1      29.494  27.010  23.917  1.00  0.00     0.163 HD
BRANCH   4   7
ATOM      7  C   UNL A   1      31.907  25.229  24.933  1.00  0.00     0.171 C 
BRANCH   7   8
ATOM      8  C   UNL A   1      32.725  24.562  26.109  1.00  0.00     0.038 C 
BRANCH   8   9
ATOM      9  C   UNL A   1      32.037  23.473  26.973  1.00  0.00    -0.015 C 
ATOM     10  C   UNL A   1      30.999  22.635  26.210  1.00  0.00     0.007 C 
ATOM     11  C   UNL A   1      33.022  22.515  27.647  1.00  0.00     0.007 C 
ENDBRANCH   8   9
ENDBRANCH   7   8
BRANCH   7  12
ATOM     12  N   UNL A   1      32.553  25.450  23.643  1.00  0.00    -0.344 N 
ATOM     13  C   UNL A   1      33.633  25.020  22.963  1.00  0.00     0.225 C 
ATOM     14  H   UNL A   1      32.050  26.110  23.113  1.00  0.00     0.164 HD
ATOM     15  O   UNL A   1      33.871  25.711  21.955  1.00  0.00    -0.275 OA
BRANCH  13  16
ATOM     16  C   UNL A   1      34.489  23.777  23.192  1.00  0.00     0.135 C 
BRANCH  16  17
ATOM     17  C   UNL A   1      33.963  22.412  23.596  1.00  0.00    -0.039 A 
ATOM     18  C   UNL A   1      32.822  21.795  23.082  1.00  0.00     0.004 A 
ATOM     19  C   UNL A   1      34.713  21.655  24.505  1.00  0.00     0.004 A 
ATOM     20  C   UNL A   1      32.367  20.549  23.517  1.00  0.00     0.000 A 
ATOM     21  C   UNL A   1      34.295  20.384  24.917  1.00  0.00     0.000 A 
ATOM     22  C   UNL A   1      33.104  19.842  24.449  1.00  0.00     0.000 A 
ENDBRANCH  16  17
ENDBRANCH  13  16
ENDBRANCH   7  12
ENDBRANCH   4   7
ENDBRANCH   2   3
ENDBRANCH   1   2
BRANCH   1  23
ATOM     23  C   UNL A   1      31.705  30.302  25.626  1.00  0.00     0.023 C 
BRANCH  23  24
ATOM     24  C   UNL A   1      32.299  30.719  26.979  1.00  0.00     0.116 C 
BRANCH  24  25
ATOM     25  N   UNL A   1      32.325  32.144  27.250  1.00  0.00    -0.352 N 
ATOM     26  C   UNL A   1      33.394  32.911  27.678  1.00  0.00     0.251 C 
ATOM     27  H   UNL A   1      31.477  32.625  27.113  1.00  0.00     0.163 HD
ATOM     28  O   UNL A   1      33.275  34.128  27.807  1.00  0.00    -0.269 OA
BRANCH  26  29
ATOM     29  C   UNL A   1      34.688  32.273  28.035  1.00  0.00     0.039 A 
ATOM     30  C   UNL A   1      35.830  33.075  28.124  1.00  0.00     0.014 A 
ATOM     31  C   UNL A   1      34.781  30.907  28.313  1.00  0.00     0.014 A 
ATOM     32  C   UNL A   1      37.027  32.536  28.613  1.00  0.00     0.010 A 
ATOM     33  C   UNL A   1      35.965  30.374  28.827  1.00  0.00     0.010 A 
ATOM     34  C   UNL A   1      37.083  31.195  29.027  1.00  0.00    -0.014 A 
BRANCH  34  35
ATOM     35  C   UNL A   1      38.234  30.677  29.817  1.00  0.00     0.031 A 
ATOM     36  C   UNL A   1      39.173  29.648  29.262  1.00  0.00     0.074 A 
ATOM     37  C   UNL A   1      38.349  31.067  31.103  1.00  0.00     0.049 A 
ATOM     38  N   UNL A   1      40.188  29.059  29.844  1.00  0.00    -0.248 NA
ATOM     39  C   UNL A   1      38.926  29.200  27.885  1.00  0.00     0.031 C 
ATOM     40  C   UNL A   1      37.446  31.998  31.785  1.00  0.00     0.029 A 
ATOM     41  N   UNL A   1      39.256  30.718  32.073  1.00  0.00    -0.354 N 
ATOM     42  C   UNL A   1      40.700  28.170  28.910  1.00  0.00     0.074 A 
ATOM     43  C   UNL A   1      39.853  28.263  27.737  1.00  0.00     0.031 C 
ATOM     44  C   UNL A   1      37.857  32.162  33.051  1.00  0.00     0.029 A 
ATOM     45  C   UNL A   1      39.032  31.329  33.282  1.00  0.00     0.049 A 
ATOM     46  H   UNL A   1      39.997  30.089  31.915  1.00  0.00     0.167 HD
ATOM     47  C   UNL A   1      41.785  27.363  29.016  1.00  0.00     0.037 A 
ATOM     48  C   UNL A   1      39.698  31.232  34.448  1.00  0.00     0.037 A 
ATOM     49  C   UNL A   1      42.630  27.282  30.181  1.00  0.00     0.049 A 
ATOM     50  C   UNL A   1      40.906  30.343  34.532  1.00  0.00     0.074 A 
ATOM     51  C   UNL A   1      43.796  26.555  30.354  1.00  0.00     0.029 A 
ATOM     52  N   UNL A   1      42.393  27.943  31.378  1.00  0.00    -0.354 N 
ATOM     53  N   UNL A   1      41.443  29.586  33.606  1.00  0.00    -0.248 NA
ATOM     54  C   UNL A   1      41.609  30.300  35.823  1.00  0.00     0.031 C 
ATOM     55  C   UNL A   1      44.240  26.742  31.668  1.00  0.00     0.029 A 
ATOM     56  C   UNL A   1      43.378  27.623  32.301  1.00  0.00     0.049 A 
ATOM     57  H   UNL A   1      41.638  28.551  31.547  1.00  0.00     0.167 HD
ATOM     58  C   UNL A   1      42.559  29.004  34.188  1.00  0.00     0.074 A 
ATOM     59  C   UNL A   1      42.632  29.504  35.546  1.00  0.00     0.031 C 
ATOM     60  C   UNL A   1      43.445  28.133  33.646  1.00  0.00     0.037 A 
BRANCH  47  61
ATOM     61  C   UNL A   1      42.134  26.505  27.833  1.00  0.00     0.064 A 
ATOM     62  C   UNL A   1      43.098  26.907  26.897  1.00  0.00     0.173 A 
ATOM     63  C   UNL A   1      41.539  25.246  27.662  1.00  0.00     0.173 A 
ATOM     64  F   UNL A   1      43.694  28.103  27.012  1.00  0.00    -0.203 F 
ATOM     65  C   UNL A   1      43.432  26.092  25.818  1.00  0.00     0.198 A 
ATOM     66  C   UNL A   1      41.897  24.422  26.598  1.00  0.00     0.198 A 
ATOM     67  F   UNL A   1      40.619  24.808  28.536  1.00  0.00    -0.203 F 
ATOM     68  F   UNL A   1      44.325  26.517  24.912  1.00  0.00    -0.200 F 
ATOM     69  C   UNL A   1      42.836  24.849  25.672  1.00  0.00     0.200 A 
ATOM     70  F   UNL A   1      41.331  23.214  26.467  1.00  0.00    -0.200 F 
ATOM     71  F   UNL A   1      43.165  24.064  24.638  1.00  0.00    -0.200 F 
ENDBRANCH  47  61
BRANCH  48  72
ATOM     72  C   UNL A   1      39.264  32.038  35.619  1.00  0.00     0.064 A 
ATOM     73  C   UNL A   1      39.704  33.359  35.780  1.00  0.00     0.173 A 
ATOM     74  C   UNL A   1      38.409  31.510  36.595  1.00  0.00     0.173 A 
ATOM     75  F   UNL A   1      40.539  33.900  34.879  1.00  0.00    -0.203 F 
ATOM     76  C   UNL A   1      39.322  34.116  36.884  1.00  0.00     0.198 A 
ATOM     77  C   UNL A   1      38.004  32.278  37.687  1.00  0.00     0.198 A 
ATOM     78  F   UNL A   1      37.953  30.254  36.484  1.00  0.00    -0.203 F 
ATOM     79  F   UNL A   1      39.794  35.361  37.035  1.00  0.00    -0.200 F 
ATOM     80  C   UNL A   1      38.468  33.576  37.835  1.00  0.00     0.200 A 
ATOM     81  F   UNL A   1      37.169  31.758  38.596  1.00  0.00    -0.200 F 
ATOM     82  F   UNL A   1      38.100  34.306  38.896  1.00  0.00    -0.200 F 
ENDBRANCH  48  72
BRANCH  60  83
ATOM     83  C   UNL A   1      44.590  27.691  34.510  1.00  0.00     0.064 A 
ATOM     84  C   UNL A   1      45.790  28.417  34.570  1.00  0.00     0.173 A 
ATOM     85  C   UNL A   1      44.473  26.546  35.311  1.00  0.00     0.173 A 
ATOM     86  F   UNL A   1      45.957  29.509  33.808  1.00  0.00    -0.203 F 
ATOM     87  C   UNL A   1      46.838  27.998  35.385  1.00  0.00     0.198 A 
ATOM     88  C   UNL A   1      45.512  26.146  36.146  1.00  0.00     0.198 A 
ATOM     89  F   UNL A   1      43.345  25.820  35.292  1.00  0.00    -0.203 F 
ATOM     90  F   UNL A   1      47.991  28.680  35.393  1.00  0.00    -0.200 F 
ATOM     91  C   UNL A   1      46.696  26.869  36.177  1.00  0.00     0.200 A 
ATOM     92  F   UNL A   1      45.369  25.062  36.919  1.00  0.00    -0.200 F 
ATOM     93  F   UNL A   1      47.704  26.471  36.966  1.00  0.00    -0.200 F 
ENDBRANCH  60  83
ENDBRANCH  34  35
ENDBRANCH  26  29
ENDBRANCH  24  25
ENDBRANCH  23  24
ENDBRANCH   1  23
TORSDOF 16
ENDMDL
MODEL 3
REMARK VINA RESULT:     -11.8      5.726     10.092
REMARK SMILES CC(C)C[C@H](NC(=O)Cc1ccccc1)C(=O)NCCCCNC(=O)c1ccc(-c2c3nc(c(-c4c(F)c(F)c(F)c(F)c4F)c4ccc([nH]4)c(-c4c(F)c(F)c(F)c(F)c4F)c4nc(c(-c5c(F)c(F)c(F)c(F)c5F)c5ccc2[nH]5)C=C4)C=C3)cc1
REMARK SMILES IDX 20 1 19 2 18 3 16 4 17 5 5 7 4 8 2 9 1 10 3 11 6 12 7 13
REMARK SMILES IDX 8 15 9 16 10 17 11 18 15 19 12 20 14 21 13 22 21 23 22 24
REMARK SMILES IDX 23 25 24 26 25 28 26 29 27 30 88 31 28 32 87 33 29 34 30 35
REMARK SMILES IDX 31 36 81 37 32 38 86 39 80 40 82 41 33 42 85 43 79 44 78 45
REMARK SMILES IDX 34 47 66 48 46 49 65 50 47 51 50 52 64 53 83 54 48 55 49 56
REMARK SMILES IDX 63 58 84 59 51 60 35 61 36 62 44 63 37 64 38 65 42 66 45 67
REMARK SMILES IDX 39 68 40 69 43 70 41 71 67 72 68 73 76 74 69 75 70 76 74 77
REMARK SMILES IDX 77 78 71 79 72 80 75 81 73 82 52 83 53 84 61 85 54 86 55 87
REMARK SMILES IDX 59 88 62 89 56 90 57 91 60 92 58 93
REMARK H PARENT 18 6 6 14 23 27 82 46 50 57
REMARK Flexibility Score: inf
ROOT
ATOM      1  C   UNL A   1      37.082  21.815  24.483  1.00  0.00     0.023 C 
ENDROOT
BRANCH   1   2
ATOM      2  C   UNL A   1      37.129  23.034  25.400  1.00  0.00     0.116 C 
BRANCH   2   3
ATOM      3  N   UNL A   1      36.191  23.051  26.522  1.00  0.00    -0.354 N 
ATOM      4  C   UNL A   1      34.904  22.536  26.424  1.00  0.00     0.242 C 
ATOM      5  O   UNL A   1      34.647  21.500  27.042  1.00  0.00    -0.273 OA
ATOM      6  H   UNL A   1      36.481  23.441  27.378  1.00  0.00     0.163 HD
BRANCH   4   7
ATOM      7  C   UNL A   1      33.760  23.397  25.757  1.00  0.00     0.171 C 
BRANCH   7   8
ATOM      8  C   UNL A   1      34.187  24.715  24.997  1.00  0.00     0.038 C 
BRANCH   8   9
ATOM      9  C   UNL A   1      34.164  24.723  23.446  1.00  0.00    -0.015 C 
ATOM     10  C   UNL A   1      33.358  23.569  22.828  1.00  0.00     0.007 C 
ATOM     11  C   UNL A   1      33.652  26.036  22.850  1.00  0.00     0.007 C 
ENDBRANCH   8   9
ENDBRANCH   7   8
BRANCH   7  12
ATOM     12  N   UNL A   1      32.477  23.350  26.451  1.00  0.00    -0.344 N 
ATOM     13  C   UNL A   1      31.260  23.922  26.372  1.00  0.00     0.225 C 
ATOM     14  H   UNL A   1      32.511  22.710  27.198  1.00  0.00     0.164 HD
ATOM     15  O   UNL A   1      30.559  23.697  27.376  1.00  0.00    -0.275 OA
BRANCH  13  16
ATOM     16  C   UNL A   1      30.618  24.674  25.209  1.00  0.00     0.135 C 
BRANCH  16  17
ATOM     17  C   UNL A   1      30.746  26.163  24.948  1.00  0.00    -0.039 A 
ATOM     18  C   UNL A   1      31.444  27.071  25.746  1.00  0.00     0.004 A 
ATOM     19  C   UNL A   1      30.192  26.681  23.771  1.00  0.00     0.004 A 
ATOM     20  C   UNL A   1      31.501  28.439  25.474  1.00  0.00     0.000 A 
ATOM     21  C   UNL A   1      30.279  28.042  23.460  1.00  0.00     0.000 A 
ATOM     22  C   UNL A   1      30.905  28.930  24.327  1.00  0.00     0.000 A 
ENDBRANCH  16  17
ENDBRANCH  13  16
ENDBRANCH   7  12
ENDBRANCH   4   7
ENDBRANCH   2   3
ENDBRANCH   1   2
BRANCH   1  23
ATOM     23  C   UNL A   1      37.785  20.558  25.036  1.00  0.00     0.023 C 
BRANCH  23  24
ATOM     24  C   UNL A   1      39.139  20.690  25.746  1.00  0.00     0.116 C 
BRANCH  24  25
ATOM     25  N   UNL A   1      39.979  19.506  25.742  1.00  0.00    -0.352 N 
ATOM     26  C   UNL A   1      41.305  19.400  26.122  1.00  0.00     0.251 C 
ATOM     27  H   UNL A   1      39.551  18.676  25.430  1.00  0.00     0.163 HD
ATOM     28  O   UNL A   1      41.867  18.307  26.119  1.00  0.00    -0.269 OA
BRANCH  26  29
ATOM     29  C   UNL A   1      42.084  20.610  26.493  1.00  0.00     0.039 A 
ATOM     30  C   UNL A   1      42.682  21.361  25.475  1.00  0.00     0.014 A 
ATOM     31  C   UNL A   1      42.203  21.029  27.819  1.00  0.00     0.014 A 
ATOM     32  C   UNL A   1      43.284  22.590  25.774  1.00  0.00     0.010 A 
ATOM     33  C   UNL A   1      42.778  22.266  28.117  1.00  0.00     0.010 A 
ATOM     34  C   UNL A   1      43.279  23.079  27.091  1.00  0.00    -0.014 A 
BRANCH  34  35
ATOM     35  C   UNL A   1      43.638  24.492  27.392  1.00  0.00     0.031 A 
ATOM     36  C   UNL A   1      45.065  24.949  27.451  1.00  0.00     0.074 A 
ATOM     37  C   UNL A   1      42.647  25.341  27.733  1.00  0.00     0.049 A 
ATOM     38  N   UNL A   1      45.541  26.131  27.754  1.00  0.00    -0.248 NA
ATOM     39  C   UNL A   1      46.096  23.942  27.162  1.00  0.00     0.031 C 
ATOM     40  C   UNL A   1      41.226  24.993  27.797  1.00  0.00     0.029 A 
ATOM     41  N   UNL A   1      42.681  26.661  28.110  1.00  0.00    -0.354 N 
ATOM     42  C   UNL A   1      46.923  26.013  27.695  1.00  0.00     0.074 A 
ATOM     43  C   UNL A   1      47.211  24.630  27.374  1.00  0.00     0.031 C 
ATOM     44  C   UNL A   1      40.524  26.075  28.166  1.00  0.00     0.029 A 
ATOM     45  C   UNL A   1      41.444  27.185  28.394  1.00  0.00     0.049 A 
ATOM     46  H   UNL A   1      43.515  27.182  28.170  1.00  0.00     0.167 HD
ATOM     47  C   UNL A   1      47.862  26.974  27.876  1.00  0.00     0.037 A 
ATOM     48  C   UNL A   1      41.087  28.420  28.792  1.00  0.00     0.037 A 
ATOM     49  C   UNL A   1      47.570  28.352  28.186  1.00  0.00     0.049 A 
ATOM     50  C   UNL A   1      42.147  29.470  28.970  1.00  0.00     0.074 A 
ATOM     51  C   UNL A   1      48.449  29.415  28.310  1.00  0.00     0.029 A 
ATOM     52  N   UNL A   1      46.301  28.855  28.432  1.00  0.00    -0.354 N 
ATOM     53  N   UNL A   1      43.444  29.371  28.808  1.00  0.00    -0.248 NA
ATOM     54  C   UNL A   1      41.694  30.807  29.378  1.00  0.00     0.031 C 
ATOM     55  C   UNL A   1      47.717  30.551  28.673  1.00  0.00     0.029 A 
ATOM     56  C   UNL A   1      46.376  30.208  28.729  1.00  0.00     0.049 A 
ATOM     57  H   UNL A   1      45.469  28.330  28.400  1.00  0.00     0.167 HD
ATOM     58  C   UNL A   1      43.958  30.635  29.061  1.00  0.00     0.074 A 
ATOM     59  C   UNL A   1      42.831  31.488  29.378  1.00  0.00     0.031 C 
ATOM     60  C   UNL A   1      45.247  31.049  29.034  1.00  0.00     0.037 A 
BRANCH  47  61
ATOM     61  C   UNL A   1      49.303  26.576  27.734  1.00  0.00     0.064 A 
ATOM     62  C   UNL A   1      49.905  26.446  26.474  1.00  0.00     0.173 A 
ATOM     63  C   UNL A   1      50.106  26.375  28.867  1.00  0.00     0.173 A 
ATOM     64  F   UNL A   1      49.182  26.624  25.359  1.00  0.00    -0.203 F 
ATOM     65  C   UNL A   1      51.249  26.100  26.354  1.00  0.00     0.198 A 
ATOM     66  C   UNL A   1      51.456  26.058  28.744  1.00  0.00     0.198 A 
ATOM     67  F   UNL A   1      49.583  26.499  30.097  1.00  0.00    -0.203 F 
ATOM     68  F   UNL A   1      51.791  25.939  25.138  1.00  0.00    -0.200 F 
ATOM     69  C   UNL A   1      52.025  25.912  27.487  1.00  0.00     0.200 A 
ATOM     70  F   UNL A   1      52.209  25.891  29.840  1.00  0.00    -0.200 F 
ATOM     71  F   UNL A   1      53.319  25.588  27.369  1.00  0.00    -0.200 F 
ENDBRANCH  47  61
BRANCH  48  72
ATOM     72  C   UNL A   1      39.652  28.746  29.003  1.00  0.00     0.064 A 
ATOM     73  C   UNL A   1      38.862  29.211  27.943  1.00  0.00     0.173 A 
ATOM     74  C   UNL A   1      39.045  28.600  30.258  1.00  0.00     0.173 A 
ATOM     75  F   UNL A   1      39.405  29.382  26.729  1.00  0.00    -0.203 F 
ATOM     76  C   UNL A   1      37.522  29.540  28.135  1.00  0.00     0.198 A 
ATOM     77  C   UNL A   1      37.696  28.904  30.442  1.00  0.00     0.198 A 
ATOM     78  F   UNL A   1      39.755  28.150  31.302  1.00  0.00    -0.203 F 
ATOM     79  F   UNL A   1      36.802  30.026  27.114  1.00  0.00    -0.200 F 
ATOM     80  C   UNL A   1      36.939  29.382  29.383  1.00  0.00     0.200 A 
ATOM     81  F   UNL A   1      37.133  28.737  31.646  1.00  0.00    -0.200 F 
ATOM     82  F   UNL A   1      35.650  29.697  29.566  1.00  0.00    -0.200 F 
ENDBRANCH  48  72
BRANCH  60  83
ATOM     83  C   UNL A   1      45.508  32.500  29.321  1.00  0.00     0.064 A 
ATOM     84  C   UNL A   1      45.786  32.955  30.619  1.00  0.00     0.173 A 
ATOM     85  C   UNL A   1      45.513  33.439  28.279  1.00  0.00     0.173 A 
ATOM     86  F   UNL A   1      45.776  32.098  31.652  1.00  0.00    -0.203 F 
ATOM     87  C   UNL A   1      46.036  34.302  30.866  1.00  0.00     0.198 A 
ATOM     88  C   UNL A   1      45.792  34.781  28.526  1.00  0.00     0.198 A 
ATOM     89  F   UNL A   1      45.257  33.054  27.020  1.00  0.00    -0.203 F 
ATOM     90  F   UNL A   1      46.255  34.723  32.120  1.00  0.00    -0.200 F 
ATOM     91  C   UNL A   1      46.047  35.212  29.819  1.00  0.00     0.200 A 
ATOM     92  F   UNL A   1      45.813  35.656  27.512  1.00  0.00    -0.200 F 
ATOM     93  F   UNL A   1      46.295  36.507  30.058  1.00  0.00    -0.200 F 
ENDBRANCH  60  83
ENDBRANCH  34  35
ENDBRANCH  26  29
ENDBRANCH  24  25
ENDBRANCH  23  24
ENDBRANCH   1  23
TORSDOF 16
ENDMDL
