MODEL 1
REMARK VINA RESULT:     -13.7      0.000      0.000
REMARK SMILES O=C(CN1C(=O)/C(=C/c2cccs2)SC1=S)Nc1ccc(O)cc1C(=O)NCCCCNC(=O)c1ccc(-c2c3nc(c(-c4c(F)c(F)c(F)c(F)c4F)c4ccc([nH]4)c(-c4c(F)c(F)c(F)c(F)c4F)c4nc(c(-c5c(F)c(F)c(F)c(F)c5F)c5ccc2[nH]5)C=C4)C=C3)cc1
REMARK SMILES IDX 28 1 27 2 25 3 26 4 24 6 18 7 19 8 20 9 23 10 21 11 17 12
REMARK SMILES IDX 1 13 2 14 3 16 4 17 5 18 15 19 6 20 7 21 14 22 16 23 8 24
REMARK SMILES IDX 9 25 10 26 13 27 11 28 12 29 22 30 29 32 30 33 31 34 32 35
REMARK SMILES IDX 33 36 34 38 35 39 36 40 97 41 37 42 96 43 38 44 39 45 40 46
REMARK SMILES IDX 90 47 41 48 95 49 89 50 91 51 42 52 94 53 88 54 87 55 43 57
REMARK SMILES IDX 75 58 55 59 74 60 56 61 59 62 73 63 92 64 57 65 58 66 72 68
REMARK SMILES IDX 93 69 60 70 44 71 45 72 53 73 46 74 47 75 51 76 54 77 48 78
REMARK SMILES IDX 49 79 52 80 50 81 76 82 77 83 85 84 78 85 79 86 83 87 86 88
REMARK SMILES IDX 80 89 81 90 84 91 82 92 61 93 62 94 70 95 63 96 64 97 68 98
REMARK SMILES IDX 71 99 65 100 66 101 69 102 67 103
REMARK H PARENT 27 5 17 15 22 31 32 37 91 56 59 67
REMARK Flexibility Score: inf
ROOT
ATOM      1  C   UNL A   1      33.179  29.456  26.161  1.00  0.00     0.116 C 
ENDROOT
BRANCH   1   2
ATOM      2  N   UNL A   1      33.651  29.306  24.830  1.00  0.00    -0.352 N 
ATOM      3  C   UNL A   1      33.014  28.911  23.697  1.00  0.00     0.253 C 
ATOM      4  O   UNL A   1      33.723  28.977  22.686  1.00  0.00    -0.269 OA
ATOM      5  H   UNL A   1      34.603  29.525  24.708  1.00  0.00     0.163 HD
BRANCH   3   6
ATOM      6  C   UNL A   1      31.608  28.377  23.579  1.00  0.00     0.067 A 
ATOM      7  C   UNL A   1      30.911  27.304  24.200  1.00  0.00     0.054 A 
ATOM      8  C   UNL A   1      29.530  27.158  23.909  1.00  0.00     0.031 A 
ATOM      9  C   UNL A   1      28.850  27.980  23.006  1.00  0.00     0.048 A 
ATOM     10  C   UNL A   1      30.900  29.142  22.606  1.00  0.00     0.062 A 
ATOM     11  C   UNL A   1      29.556  28.950  22.330  1.00  0.00     0.116 A 
BRANCH   7  12
ATOM     12  N   UNL A   1      31.410  26.372  25.174  1.00  0.00    -0.324 N 
ATOM     13  O   UNL A   1      32.731  25.180  23.693  1.00  0.00    -0.273 OA
ATOM     14  C   UNL A   1      32.231  25.287  24.815  1.00  0.00     0.244 C 
ATOM     15  H   UNL A   1      31.171  26.498  26.121  1.00  0.00     0.170 HD
BRANCH  14  16
ATOM     16  C   UNL A   1      32.588  24.242  25.907  1.00  0.00     0.227 C 
BRANCH  16  17
ATOM     17  N   UNL A   1      33.308  23.061  25.364  1.00  0.00    -0.283 N 
ATOM     18  C   UNL A   1      32.529  22.029  24.933  1.00  0.00     0.266 C 
ATOM     19  C   UNL A   1      34.654  22.851  25.222  1.00  0.00     0.148 C 
ATOM     20  O   UNL A   1      31.319  22.090  25.038  1.00  0.00    -0.268 OA
ATOM     21  C   UNL A   1      33.319  20.820  24.509  1.00  0.00     0.081 C 
ATOM     22  S   UNL A   1      34.968  21.144  24.784  1.00  0.00    -0.054 SA
ATOM     23  S   UNL A   1      35.872  23.973  25.368  1.00  0.00    -0.052 S 
ATOM     24  C   UNL A   1      32.645  19.721  24.144  1.00  0.00     0.040 C 
BRANCH  24  25
ATOM     25  C   UNL A   1      32.960  18.324  24.127  1.00  0.00     0.028 A 
ATOM     26  C   UNL A   1      33.679  17.514  23.265  1.00  0.00     0.020 A 
ATOM     27  S   UNL A   1      32.660  17.437  25.591  1.00  0.00    -0.144 S 
ATOM     28  C   UNL A   1      33.997  16.224  23.820  1.00  0.00     0.012 A 
ATOM     29  C   UNL A   1      33.486  16.054  25.082  1.00  0.00     0.065 A 
ENDBRANCH  24  25
ENDBRANCH  16  17
ENDBRANCH  14  16
ENDBRANCH   7  12
BRANCH  11  30
ATOM     30  O   UNL A   1      28.978  29.755  21.396  1.00  0.00    -0.508 OA
ATOM     31  H   UNL A   1      29.016  30.686  21.493  1.00  0.00     0.293 HD
ENDBRANCH  11  30
ENDBRANCH   3   6
ENDBRANCH   1   2
BRANCH   1  32
ATOM     32  C   UNL A   1      34.162  30.178  27.050  1.00  0.00     0.023 C 
BRANCH  32  33
ATOM     33  C   UNL A   1      33.695  31.468  27.751  1.00  0.00     0.023 C 
BRANCH  33  34
ATOM     34  C   UNL A   1      32.670  32.486  27.182  1.00  0.00     0.116 C 
BRANCH  34  35
ATOM     35  N   UNL A   1      32.514  33.835  27.736  1.00  0.00    -0.352 N 
ATOM     36  C   UNL A   1      33.162  34.727  28.563  1.00  0.00     0.251 C 
ATOM     37  H   UNL A   1      31.674  34.232  27.412  1.00  0.00     0.163 HD
ATOM     38  O   UNL A   1      32.634  35.822  28.773  1.00  0.00    -0.269 OA
BRANCH  36  39
ATOM     39  C   UNL A   1      34.374  34.393  29.336  1.00  0.00     0.039 A 
ATOM     40  C   UNL A   1      34.238  33.829  30.625  1.00  0.00     0.014 A 
ATOM     41  C   UNL A   1      35.635  34.573  28.803  1.00  0.00     0.014 A 
ATOM     42  C   UNL A   1      35.360  33.374  31.333  1.00  0.00     0.010 A 
ATOM     43  C   UNL A   1      36.735  34.041  29.464  1.00  0.00     0.010 A 
ATOM     44  C   UNL A   1      36.621  33.438  30.735  1.00  0.00    -0.014 A 
BRANCH  44  45
ATOM     45  C   UNL A   1      37.883  32.950  31.362  1.00  0.00     0.031 A 
ATOM     46  C   UNL A   1      38.551  31.757  30.731  1.00  0.00     0.074 A 
ATOM     47  C   UNL A   1      38.305  33.401  32.559  1.00  0.00     0.049 A 
ATOM     48  N   UNL A   1      39.398  30.904  31.242  1.00  0.00    -0.248 NA
ATOM     49  C   UNL A   1      38.135  31.444  29.353  1.00  0.00     0.031 C 
ATOM     50  C   UNL A   1      37.764  34.544  33.290  1.00  0.00     0.029 A 
ATOM     51  N   UNL A   1      39.258  32.891  33.413  1.00  0.00    -0.354 N 
ATOM     52  C   UNL A   1      39.567  29.927  30.270  1.00  0.00     0.074 A 
ATOM     53  C   UNL A   1      38.669  30.246  29.182  1.00  0.00     0.031 C 
ATOM     54  C   UNL A   1      38.335  34.611  34.504  1.00  0.00     0.029 A 
ATOM     55  C   UNL A   1      39.285  33.513  34.641  1.00  0.00     0.049 A 
ATOM     56  H   UNL A   1      39.862  32.154  33.168  1.00  0.00     0.167 HD
ATOM     57  C   UNL A   1      40.420  28.877  30.267  1.00  0.00     0.037 A 
ATOM     58  C   UNL A   1      39.980  33.217  35.756  1.00  0.00     0.037 A 
ATOM     59  C   UNL A   1      41.357  28.613  31.324  1.00  0.00     0.049 A 
ATOM     60  C   UNL A   1      40.940  32.056  35.734  1.00  0.00     0.074 A 
ATOM     61  C   UNL A   1      42.351  27.654  31.376  1.00  0.00     0.029 A 
ATOM     62  N   UNL A   1      41.418  29.322  32.516  1.00  0.00    -0.354 N 
ATOM     63  N   UNL A   1      41.158  31.183  34.781  1.00  0.00    -0.248 NA
ATOM     64  C   UNL A   1      41.770  31.856  36.930  1.00  0.00     0.031 C 
ATOM     65  C   UNL A   1      42.980  27.746  32.622  1.00  0.00     0.029 A 
ATOM     66  C   UNL A   1      42.417  28.803  33.322  1.00  0.00     0.049 A 
ATOM     67  H   UNL A   1      40.837  30.080  32.752  1.00  0.00     0.167 HD
ATOM     68  C   UNL A   1      42.177  30.358  35.243  1.00  0.00     0.074 A 
ATOM     69  C   UNL A   1      42.536  30.840  36.559  1.00  0.00     0.031 C 
ATOM     70  C   UNL A   1      42.766  29.303  34.628  1.00  0.00     0.037 A 
BRANCH  57  71
ATOM     71  C   UNL A   1      40.389  27.959  29.078  1.00  0.00     0.064 A 
ATOM     72  C   UNL A   1      39.602  26.797  29.059  1.00  0.00     0.173 A 
ATOM     73  C   UNL A   1      41.156  28.246  27.939  1.00  0.00     0.173 A 
ATOM     74  F   UNL A   1      38.857  26.467  30.125  1.00  0.00    -0.203 F 
ATOM     75  C   UNL A   1      39.623  25.931  27.970  1.00  0.00     0.198 A 
ATOM     76  C   UNL A   1      41.142  27.400  26.832  1.00  0.00     0.198 A 
ATOM     77  F   UNL A   1      41.924  29.345  27.898  1.00  0.00    -0.203 F 
ATOM     78  F   UNL A   1      38.924  24.788  28.010  1.00  0.00    -0.200 F 
ATOM     79  C   UNL A   1      40.387  26.237  26.854  1.00  0.00     0.200 A 
ATOM     80  F   UNL A   1      41.868  27.705  25.748  1.00  0.00    -0.200 F 
ATOM     81  F   UNL A   1      40.405  25.405  25.804  1.00  0.00    -0.200 F 
ENDBRANCH  57  71
BRANCH  58  82
ATOM     82  C   UNL A   1      39.833  34.061  36.974  1.00  0.00     0.064 A 
ATOM     83  C   UNL A   1      40.566  35.248  37.113  1.00  0.00     0.173 A 
ATOM     84  C   UNL A   1      38.965  33.706  38.017  1.00  0.00     0.173 A 
ATOM     85  F   UNL A   1      41.424  35.621  36.153  1.00  0.00    -0.203 F 
ATOM     86  C   UNL A   1      40.456  36.036  38.259  1.00  0.00     0.198 A 
ATOM     87  C   UNL A   1      38.836  34.508  39.151  1.00  0.00     0.198 A 
ATOM     88  F   UNL A   1      38.234  32.585  37.933  1.00  0.00    -0.203 F 
ATOM     89  F   UNL A   1      41.204  37.141  38.383  1.00  0.00    -0.200 F 
ATOM     90  C   UNL A   1      39.587  35.668  39.274  1.00  0.00     0.200 A 
ATOM     91  F   UNL A   1      37.986  34.156  40.126  1.00  0.00    -0.200 F 
ATOM     92  F   UNL A   1      39.479  36.426  40.374  1.00  0.00    -0.200 F 
ENDBRANCH  58  82
BRANCH  70  93
ATOM     93  C   UNL A   1      43.891  28.621  35.351  1.00  0.00     0.064 A 
ATOM     94  C   UNL A   1      45.228  28.996  35.158  1.00  0.00     0.173 A 
ATOM     95  C   UNL A   1      43.620  27.615  36.292  1.00  0.00     0.173 A 
ATOM     96  F   UNL A   1      45.541  29.942  34.260  1.00  0.00    -0.203 F 
ATOM     97  C   UNL A   1      46.254  28.371  35.862  1.00  0.00     0.198 A 
ATOM     98  C   UNL A   1      44.645  27.019  37.020  1.00  0.00     0.198 A 
ATOM     99  F   UNL A   1      42.357  27.225  36.521  1.00  0.00    -0.203 F 
ATOM    100  F   UNL A   1      47.529  28.711  35.625  1.00  0.00    -0.200 F 
ATOM    101  C   UNL A   1      45.961  27.391  36.798  1.00  0.00     0.200 A 
ATOM    102  F   UNL A   1      44.357  26.086  37.938  1.00  0.00    -0.200 F 
ATOM    103  F   UNL A   1      46.950  26.801  37.485  1.00  0.00    -0.200 F 
ENDBRANCH  70  93
ENDBRANCH  44  45
ENDBRANCH  36  39
ENDBRANCH  34  35
ENDBRANCH  33  34
ENDBRANCH  32  33
ENDBRANCH   1  32
TORSDOF 16
ENDMDL
MODEL 2
REMARK VINA RESULT:     -13.6      4.702      8.702
REMARK SMILES O=C(CN1C(=O)/C(=C/c2cccs2)SC1=S)Nc1ccc(O)cc1C(=O)NCCCCNC(=O)c1ccc(-c2c3nc(c(-c4c(F)c(F)c(F)c(F)c4F)c4ccc([nH]4)c(-c4c(F)c(F)c(F)c(F)c4F)c4nc(c(-c5c(F)c(F)c(F)c(F)c5F)c5ccc2[nH]5)C=C4)C=C3)cc1
REMARK SMILES IDX 28 1 27 2 25 3 26 4 24 6 18 7 19 8 20 9 23 10 21 11 17 12
REMARK SMILES IDX 1 13 2 14 3 16 4 17 5 18 15 19 6 20 7 21 14 22 16 23 8 24
REMARK SMILES IDX 9 25 10 26 13 27 11 28 12 29 22 30 29 32 30 33 31 34 32 35
REMARK SMILES IDX 33 36 34 38 35 39 36 40 97 41 37 42 96 43 38 44 39 45 40 46
REMARK SMILES IDX 90 47 41 48 95 49 89 50 91 51 42 52 94 53 88 54 87 55 43 57
REMARK SMILES IDX 75 58 55 59 74 60 56 61 59 62 73 63 92 64 57 65 58 66 72 68
REMARK SMILES IDX 93 69 60 70 44 71 45 72 53 73 46 74 47 75 51 76 54 77 48 78
REMARK SMILES IDX 49 79 52 80 50 81 76 82 77 83 85 84 78 85 79 86 83 87 86 88
REMARK SMILES IDX 80 89 81 90 84 91 82 92 61 93 62 94 70 95 63 96 64 97 68 98
REMARK SMILES IDX 71 99 65 100 66 101 69 102 67 103
REMARK H PARENT 27 5 17 15 22 31 32 37 91 56 59 67
REMARK Flexibility Score: inf
ROOT
ATOM      1  C   UNL A   1      33.241  29.103  26.333  1.00  0.00     0.116 C 
ENDROOT
BRANCH   1   2
ATOM      2  N   UNL A   1      33.680  29.073  24.983  1.00  0.00    -0.352 N 
ATOM      3  C   UNL A   1      33.016  28.778  23.835  1.00  0.00     0.253 C 
ATOM      4  O   UNL A   1      33.700  28.935  22.816  1.00  0.00    -0.269 OA
ATOM      5  H   UNL A   1      34.629  29.305  24.858  1.00  0.00     0.163 HD
BRANCH   3   6
ATOM      6  C   UNL A   1      31.609  28.252  23.705  1.00  0.00     0.067 A 
ATOM      7  C   UNL A   1      30.904  27.174  24.309  1.00  0.00     0.054 A 
ATOM      8  C   UNL A   1      29.523  27.038  24.010  1.00  0.00     0.031 A 
ATOM      9  C   UNL A   1      28.851  27.875  23.115  1.00  0.00     0.048 A 
ATOM     10  C   UNL A   1      30.907  29.032  22.739  1.00  0.00     0.062 A 
ATOM     11  C   UNL A   1      29.564  28.851  22.455  1.00  0.00     0.116 A 
BRANCH   7  12
ATOM     12  N   UNL A   1      31.395  26.227  25.272  1.00  0.00    -0.324 N 
ATOM     13  O   UNL A   1      32.189  24.709  23.715  1.00  0.00    -0.273 OA
ATOM     14  C   UNL A   1      31.928  24.983  24.889  1.00  0.00     0.244 C 
ATOM     15  H   UNL A   1      31.358  26.457  26.229  1.00  0.00     0.170 HD
BRANCH  14  16
ATOM     16  C   UNL A   1      32.283  23.960  26.003  1.00  0.00     0.227 C 
BRANCH  16  17
ATOM     17  N   UNL A   1      33.162  22.863  25.523  1.00  0.00    -0.283 N 
ATOM     18  C   UNL A   1      32.540  21.700  25.183  1.00  0.00     0.266 C 
ATOM     19  C   UNL A   1      34.523  22.845  25.361  1.00  0.00     0.148 C 
ATOM     20  O   UNL A   1      31.336  21.588  25.314  1.00  0.00    -0.268 OA
ATOM     21  C   UNL A   1      33.495  20.594  24.821  1.00  0.00     0.081 C 
ATOM     22  S   UNL A   1      35.081  21.177  25.031  1.00  0.00    -0.054 SA
ATOM     23  S   UNL A   1      35.562  24.142  25.399  1.00  0.00    -0.052 S 
ATOM     24  C   UNL A   1      32.987  19.384  24.548  1.00  0.00     0.040 C 
BRANCH  24  25
ATOM     25  C   UNL A   1      33.506  18.051  24.617  1.00  0.00     0.028 A 
ATOM     26  C   UNL A   1      34.742  17.489  24.346  1.00  0.00     0.020 A 
ATOM     27  S   UNL A   1      32.549  16.882  25.475  1.00  0.00    -0.144 S 
ATOM     28  C   UNL A   1      34.892  16.154  24.865  1.00  0.00     0.012 A 
ATOM     29  C   UNL A   1      33.759  15.704  25.494  1.00  0.00     0.065 A 
ENDBRANCH  24  25
ENDBRANCH  16  17
ENDBRANCH  14  16
ENDBRANCH   7  12
BRANCH  11  30
ATOM     30  O   UNL A   1      28.993  29.671  21.530  1.00  0.00    -0.508 OA
ATOM     31  H   UNL A   1      29.290  29.652  20.641  1.00  0.00     0.293 HD
ENDBRANCH  11  30
ENDBRANCH   3   6
ENDBRANCH   1   2
BRANCH   1  32
ATOM     32  C   UNL A   1      33.079  30.506  26.862  1.00  0.00     0.023 C 
BRANCH  32  33
ATOM     33  C   UNL A   1      34.258  31.135  27.628  1.00  0.00     0.023 C 
BRANCH  33  34
ATOM     34  C   UNL A   1      34.192  32.423  28.493  1.00  0.00     0.116 C 
BRANCH  34  35
ATOM     35  N   UNL A   1      34.246  32.387  29.958  1.00  0.00    -0.352 N 
ATOM     36  C   UNL A   1      35.134  32.153  30.985  1.00  0.00     0.251 C 
ATOM     37  H   UNL A   1      33.358  32.599  30.328  1.00  0.00     0.163 HD
ATOM     38  O   UNL A   1      34.723  32.232  32.146  1.00  0.00    -0.269 OA
BRANCH  36  39
ATOM     39  C   UNL A   1      36.512  31.664  30.779  1.00  0.00     0.039 A 
ATOM     40  C   UNL A   1      37.124  30.881  31.783  1.00  0.00     0.014 A 
ATOM     41  C   UNL A   1      37.192  31.916  29.604  1.00  0.00     0.014 A 
ATOM     42  C   UNL A   1      38.377  30.287  31.568  1.00  0.00     0.010 A 
ATOM     43  C   UNL A   1      38.388  31.255  29.356  1.00  0.00     0.010 A 
ATOM     44  C   UNL A   1      39.002  30.435  30.328  1.00  0.00    -0.014 A 
BRANCH  44  45
ATOM     45  C   UNL A   1      40.309  29.821  29.958  1.00  0.00     0.031 A 
ATOM     46  C   UNL A   1      41.482  30.748  29.776  1.00  0.00     0.074 A 
ATOM     47  C   UNL A   1      40.411  28.529  29.587  1.00  0.00     0.049 A 
ATOM     48  N   UNL A   1      42.593  30.574  29.112  1.00  0.00    -0.248 NA
ATOM     49  C   UNL A   1      41.334  32.091  30.364  1.00  0.00     0.031 C 
ATOM     50  C   UNL A   1      39.368  27.514  29.706  1.00  0.00     0.029 A 
ATOM     51  N   UNL A   1      41.440  27.867  28.956  1.00  0.00    -0.354 N 
ATOM     52  C   UNL A   1      43.243  31.801  29.155  1.00  0.00     0.074 A 
ATOM     53  C   UNL A   1      42.363  32.728  29.830  1.00  0.00     0.031 C 
ATOM     54  C   UNL A   1      39.776  26.382  29.108  1.00  0.00     0.029 A 
ATOM     55  C   UNL A   1      41.111  26.590  28.560  1.00  0.00     0.049 A 
ATOM     56  H   UNL A   1      42.327  28.267  28.805  1.00  0.00     0.167 HD
ATOM     57  C   UNL A   1      44.478  32.117  28.704  1.00  0.00     0.037 A 
ATOM     58  C   UNL A   1      41.800  25.698  27.821  1.00  0.00     0.037 A 
ATOM     59  C   UNL A   1      45.371  31.167  28.098  1.00  0.00     0.049 A 
ATOM     60  C   UNL A   1      43.182  26.058  27.341  1.00  0.00     0.074 A 
ATOM     61  C   UNL A   1      46.687  31.343  27.715  1.00  0.00     0.029 A 
ATOM     62  N   UNL A   1      45.034  29.855  27.796  1.00  0.00    -0.354 N 
ATOM     63  N   UNL A   1      43.827  27.193  27.456  1.00  0.00    -0.248 NA
ATOM     64  C   UNL A   1      43.941  25.005  26.653  1.00  0.00     0.031 C 
ATOM     65  C   UNL A   1      47.132  30.152  27.131  1.00  0.00     0.029 A 
ATOM     66  C   UNL A   1      46.111  29.216  27.206  1.00  0.00     0.049 A 
ATOM     67  H   UNL A   1      44.159  29.441  27.975  1.00  0.00     0.167 HD
ATOM     68  C   UNL A   1      45.081  26.980  26.895  1.00  0.00     0.074 A 
ATOM     69  C   UNL A   1      45.105  25.604  26.446  1.00  0.00     0.031 C 
ATOM     70  C   UNL A   1      46.119  27.842  26.772  1.00  0.00     0.037 A 
BRANCH  57  71
ATOM     71  C   UNL A   1      44.936  33.539  28.872  1.00  0.00     0.064 A 
ATOM     72  C   UNL A   1      45.623  33.965  30.020  1.00  0.00     0.173 A 
ATOM     73  C   UNL A   1      44.686  34.489  27.871  1.00  0.00     0.173 A 
ATOM     74  F   UNL A   1      45.880  33.103  31.015  1.00  0.00    -0.203 F 
ATOM     75  C   UNL A   1      45.995  35.297  30.182  1.00  0.00     0.198 A 
ATOM     76  C   UNL A   1      45.098  35.811  28.017  1.00  0.00     0.198 A 
ATOM     77  F   UNL A   1      44.038  34.138  26.750  1.00  0.00    -0.203 F 
ATOM     78  F   UNL A   1      46.579  35.694  31.322  1.00  0.00    -0.200 F 
ATOM     79  C   UNL A   1      45.739  36.217  29.177  1.00  0.00     0.200 A 
ATOM     80  F   UNL A   1      44.865  36.697  27.038  1.00  0.00    -0.200 F 
ATOM     81  F   UNL A   1      46.101  37.498  29.333  1.00  0.00    -0.200 F 
ENDBRANCH  57  71
BRANCH  58  82
ATOM     82  C   UNL A   1      41.215  24.360  27.530  1.00  0.00     0.064 A 
ATOM     83  C   UNL A   1      41.695  23.214  28.180  1.00  0.00     0.173 A 
ATOM     84  C   UNL A   1      40.173  24.196  26.605  1.00  0.00     0.173 A 
ATOM     85  F   UNL A   1      42.704  23.316  29.057  1.00  0.00    -0.203 F 
ATOM     86  C   UNL A   1      41.174  21.952  27.899  1.00  0.00     0.198 A 
ATOM     87  C   UNL A   1      39.634  22.935  26.345  1.00  0.00     0.198 A 
ATOM     88  F   UNL A   1      39.671  25.259  25.961  1.00  0.00    -0.203 F 
ATOM     89  F   UNL A   1      41.685  20.870  28.501  1.00  0.00    -0.200 F 
ATOM     90  C   UNL A   1      40.140  21.815  26.985  1.00  0.00     0.200 A 
ATOM     91  F   UNL A   1      38.626  22.808  25.470  1.00  0.00    -0.200 F 
ATOM     92  F   UNL A   1      39.636  20.602  26.718  1.00  0.00    -0.200 F 
ENDBRANCH  58  82
BRANCH  70  93
ATOM     93  C   UNL A   1      47.387  27.316  26.165  1.00  0.00     0.064 A 
ATOM     94  C   UNL A   1      47.662  27.449  24.796  1.00  0.00     0.173 A 
ATOM     95  C   UNL A   1      48.365  26.720  26.977  1.00  0.00     0.173 A 
ATOM     96  F   UNL A   1      46.754  27.999  23.976  1.00  0.00    -0.203 F 
ATOM     97  C   UNL A   1      48.858  26.981  24.259  1.00  0.00     0.198 A 
ATOM     98  C   UNL A   1      49.574  26.287  26.442  1.00  0.00     0.198 A 
ATOM     99  F   UNL A   1      48.156  26.576  28.294  1.00  0.00    -0.203 F 
ATOM    100  F   UNL A   1      49.078  27.074  22.941  1.00  0.00    -0.200 F 
ATOM    101  C   UNL A   1      49.816  26.410  25.083  1.00  0.00     0.200 A 
ATOM    102  F   UNL A   1      50.506  25.753  27.244  1.00  0.00    -0.200 F 
ATOM    103  F   UNL A   1      50.973  25.973  24.565  1.00  0.00    -0.200 F 
ENDBRANCH  70  93
ENDBRANCH  44  45
ENDBRANCH  36  39
ENDBRANCH  34  35
ENDBRANCH  33  34
ENDBRANCH  32  33
ENDBRANCH   1  32
TORSDOF 16
ENDMDL
MODEL 3
REMARK VINA RESULT:     -13.3      4.778      8.816
REMARK SMILES O=C(CN1C(=O)/C(=C/c2cccs2)SC1=S)Nc1ccc(O)cc1C(=O)NCCCCNC(=O)c1ccc(-c2c3nc(c(-c4c(F)c(F)c(F)c(F)c4F)c4ccc([nH]4)c(-c4c(F)c(F)c(F)c(F)c4F)c4nc(c(-c5c(F)c(F)c(F)c(F)c5F)c5ccc2[nH]5)C=C4)C=C3)cc1
REMARK SMILES IDX 28 1 27 2 25 3 26 4 24 6 18 7 19 8 20 9 23 10 21 11 17 12
REMARK SMILES IDX 1 13 2 14 3 16 4 17 5 18 15 19 6 20 7 21 14 22 16 23 8 24
REMARK SMILES IDX 9 25 10 26 13 27 11 28 12 29 22 30 29 32 30 33 31 34 32 35
REMARK SMILES IDX 33 36 34 38 35 39 36 40 97 41 37 42 96 43 38 44 39 45 40 46
REMARK SMILES IDX 90 47 41 48 95 49 89 50 91 51 42 52 94 53 88 54 87 55 43 57
REMARK SMILES IDX 75 58 55 59 74 60 56 61 59 62 73 63 92 64 57 65 58 66 72 68
REMARK SMILES IDX 93 69 60 70 44 71 45 72 53 73 46 74 47 75 51 76 54 77 48 78
REMARK SMILES IDX 49 79 52 80 50 81 76 82 77 83 85 84 78 85 79 86 83 87 86 88
REMARK SMILES IDX 80 89 81 90 84 91 82 92 61 93 62 94 70 95 63 96 64 97 68 98
REMARK SMILES IDX 71 99 65 100 66 101 69 102 67 103
REMARK H PARENT 27 5 17 15 22 31 32 37 91 56 59 67
REMARK Flexibility Score: inf
ROOT
ATOM      1  C   UNL A   1      34.056  29.800  26.878  1.00  0.00     0.116 C 
ENDROOT
BRANCH   1   2
ATOM      2  N   UNL A   1      32.865  29.311  27.476  1.00  0.00    -0.352 N 
ATOM      3  C   UNL A   1      31.891  28.499  26.990  1.00  0.00     0.253 C 
ATOM      4  O   UNL A   1      31.028  28.209  27.828  1.00  0.00    -0.269 OA
ATOM      5  H   UNL A   1      32.720  29.614  28.402  1.00  0.00     0.163 HD
BRANCH   3   6
ATOM      6  C   UNL A   1      31.748  27.989  25.578  1.00  0.00     0.067 A 
ATOM      7  C   UNL A   1      31.957  26.721  24.967  1.00  0.00     0.054 A 
ATOM      8  C   UNL A   1      31.617  26.584  23.596  1.00  0.00     0.031 A 
ATOM      9  C   UNL A   1      31.144  27.646  22.819  1.00  0.00     0.048 A 
ATOM     10  C   UNL A   1      31.341  29.063  24.733  1.00  0.00     0.062 A 
ATOM     11  C   UNL A   1      31.043  28.894  23.391  1.00  0.00     0.116 A 
BRANCH   7  12
ATOM     12  N   UNL A   1      32.401  25.503  25.589  1.00  0.00    -0.324 N 
ATOM     13  O   UNL A   1      30.347  24.950  26.501  1.00  0.00    -0.273 OA
ATOM     14  C   UNL A   1      31.559  24.739  26.416  1.00  0.00     0.244 C 
ATOM     15  H   UNL A   1      33.323  25.195  25.429  1.00  0.00     0.170 HD
BRANCH  14  16
ATOM     16  C   UNL A   1      32.172  23.528  27.173  1.00  0.00     0.227 C 
BRANCH  16  17
ATOM     17  N   UNL A   1      32.908  22.599  26.278  1.00  0.00    -0.283 N 
ATOM     18  C   UNL A   1      32.179  21.583  25.738  1.00  0.00     0.266 C 
ATOM     19  C   UNL A   1      34.225  22.612  25.902  1.00  0.00     0.148 C 
ATOM     20  O   UNL A   1      31.004  21.452  26.024  1.00  0.00    -0.268 OA
ATOM     21  C   UNL A   1      33.007  20.610  24.941  1.00  0.00     0.081 C 
ATOM     22  S   UNL A   1      34.636  21.095  25.046  1.00  0.00    -0.054 SA
ATOM     23  S   UNL A   1      35.328  23.836  26.126  1.00  0.00    -0.052 S 
ATOM     24  C   UNL A   1      32.398  19.530  24.433  1.00  0.00     0.040 C 
BRANCH  24  25
ATOM     25  C   UNL A   1      32.848  18.224  24.053  1.00  0.00     0.028 A 
ATOM     26  C   UNL A   1      33.486  17.719  22.933  1.00  0.00     0.020 A 
ATOM     27  S   UNL A   1      32.903  17.020  25.304  1.00  0.00    -0.144 S 
ATOM     28  C   UNL A   1      34.028  16.400  23.126  1.00  0.00     0.012 A 
ATOM     29  C   UNL A   1      33.766  15.902  24.378  1.00  0.00     0.065 A 
ENDBRANCH  24  25
ENDBRANCH  16  17
ENDBRANCH  14  16
ENDBRANCH   7  12
BRANCH  11  30
ATOM     30  O   UNL A   1      30.642  29.989  22.687  1.00  0.00    -0.508 OA
ATOM     31  H   UNL A   1      29.834  29.971  22.215  1.00  0.00     0.293 HD
ENDBRANCH  11  30
ENDBRANCH   3   6
ENDBRANCH   1   2
BRANCH   1  32
ATOM     32  C   UNL A   1      34.977  30.465  27.871  1.00  0.00     0.023 C 
BRANCH  32  33
ATOM     33  C   UNL A   1      35.077  32.002  27.851  1.00  0.00     0.023 C 
BRANCH  33  34
ATOM     34  C   UNL A   1      34.357  32.968  28.831  1.00  0.00     0.116 C 
BRANCH  34  35
ATOM     35  N   UNL A   1      34.350  32.753  30.282  1.00  0.00    -0.352 N 
ATOM     36  C   UNL A   1      35.179  32.332  31.299  1.00  0.00     0.251 C 
ATOM     37  H   UNL A   1      33.466  32.985  30.647  1.00  0.00     0.163 HD
ATOM     38  O   UNL A   1      34.729  32.302  32.447  1.00  0.00    -0.269 OA
BRANCH  36  39
ATOM     39  C   UNL A   1      36.525  31.770  31.076  1.00  0.00     0.039 A 
ATOM     40  C   UNL A   1      36.891  30.574  31.734  1.00  0.00     0.014 A 
ATOM     41  C   UNL A   1      37.412  32.363  30.200  1.00  0.00     0.014 A 
ATOM     42  C   UNL A   1      38.108  29.938  31.445  1.00  0.00     0.010 A 
ATOM     43  C   UNL A   1      38.573  31.687  29.848  1.00  0.00     0.010 A 
ATOM     44  C   UNL A   1      38.944  30.471  30.461  1.00  0.00    -0.014 A 
BRANCH  44  45
ATOM     45  C   UNL A   1      40.239  29.869  30.031  1.00  0.00     0.031 A 
ATOM     46  C   UNL A   1      41.402  30.804  29.830  1.00  0.00     0.074 A 
ATOM     47  C   UNL A   1      40.329  28.587  29.626  1.00  0.00     0.049 A 
ATOM     48  N   UNL A   1      42.489  30.649  29.122  1.00  0.00    -0.248 NA
ATOM     49  C   UNL A   1      41.272  32.132  30.454  1.00  0.00     0.031 C 
ATOM     50  C   UNL A   1      39.294  27.566  29.758  1.00  0.00     0.029 A 
ATOM     51  N   UNL A   1      41.337  27.942  28.944  1.00  0.00    -0.354 N 
ATOM     52  C   UNL A   1      43.137  31.876  29.171  1.00  0.00     0.074 A 
ATOM     53  C   UNL A   1      42.280  32.784  29.899  1.00  0.00     0.031 C 
ATOM     54  C   UNL A   1      39.682  26.449  29.119  1.00  0.00     0.029 A 
ATOM     55  C   UNL A   1      40.997  26.675  28.529  1.00  0.00     0.049 A 
ATOM     56  H   UNL A   1      42.217  28.349  28.770  1.00  0.00     0.167 HD
ATOM     57  C   UNL A   1      44.356  32.207  28.684  1.00  0.00     0.037 A 
ATOM     58  C   UNL A   1      41.661  25.803  27.746  1.00  0.00     0.037 A 
ATOM     59  C   UNL A   1      45.228  31.274  28.025  1.00  0.00     0.049 A 
ATOM     60  C   UNL A   1      43.024  26.178  27.225  1.00  0.00     0.074 A 
ATOM     61  C   UNL A   1      46.529  31.463  27.600  1.00  0.00     0.029 A 
ATOM     62  N   UNL A   1      44.883  29.968  27.705  1.00  0.00    -0.354 N 
ATOM     63  N   UNL A   1      43.671  27.311  27.344  1.00  0.00    -0.248 NA
ATOM     64  C   UNL A   1      43.760  25.143  26.486  1.00  0.00     0.031 C 
ATOM     65  C   UNL A   1      46.955  30.287  26.972  1.00  0.00     0.029 A 
ATOM     66  C   UNL A   1      45.940  29.347  27.061  1.00  0.00     0.049 A 
ATOM     67  H   UNL A   1      44.016  29.548  27.904  1.00  0.00     0.167 HD
ATOM     68  C   UNL A   1      44.904  27.115  26.734  1.00  0.00     0.074 A 
ATOM     69  C   UNL A   1      44.916  25.750  26.252  1.00  0.00     0.031 C 
ATOM     70  C   UNL A   1      45.935  27.983  26.595  1.00  0.00     0.037 A 
BRANCH  57  71
ATOM     71  C   UNL A   1      44.816  33.625  28.870  1.00  0.00     0.064 A 
ATOM     72  C   UNL A   1      45.532  34.029  30.008  1.00  0.00     0.173 A 
ATOM     73  C   UNL A   1      44.539  34.595  27.895  1.00  0.00     0.173 A 
ATOM     74  F   UNL A   1      45.815  33.147  30.978  1.00  0.00    -0.203 F 
ATOM     75  C   UNL A   1      45.907  35.358  30.188  1.00  0.00     0.198 A 
ATOM     76  C   UNL A   1      44.954  35.915  28.058  1.00  0.00     0.198 A 
ATOM     77  F   UNL A   1      43.862  34.267  26.785  1.00  0.00    -0.203 F 
ATOM     78  F   UNL A   1      46.519  35.732  31.320  1.00  0.00    -0.200 F 
ATOM     79  C   UNL A   1      45.624  36.298  29.209  1.00  0.00     0.200 A 
ATOM     80  F   UNL A   1      44.694  36.820  27.104  1.00  0.00    -0.200 F 
ATOM     81  F   UNL A   1      45.988  37.576  29.382  1.00  0.00    -0.200 F 
ENDBRANCH  57  71
BRANCH  58  82
ATOM     82  C   UNL A   1      41.069  24.470  27.444  1.00  0.00     0.064 A 
ATOM     83  C   UNL A   1      40.029  24.345  26.512  1.00  0.00     0.173 A 
ATOM     84  C   UNL A   1      41.525  23.301  28.071  1.00  0.00     0.173 A 
ATOM     85  F   UNL A   1      39.544  25.435  25.900  1.00  0.00    -0.203 F 
ATOM     86  C   UNL A   1      39.449  23.107  26.237  1.00  0.00     0.198 A 
ATOM     87  C   UNL A   1      40.961  22.059  27.776  1.00  0.00     0.198 A 
ATOM     88  F   UNL A   1      42.523  23.362  28.965  1.00  0.00    -0.203 F 
ATOM     89  F   UNL A   1      38.425  23.026  25.377  1.00  0.00    -0.200 F 
ATOM     90  C   UNL A   1      39.920  21.964  26.866  1.00  0.00     0.200 A 
ATOM     91  F   UNL A   1      41.428  20.955  28.376  1.00  0.00    -0.200 F 
ATOM     92  F   UNL A   1      39.365  20.774  26.599  1.00  0.00    -0.200 F 
ENDBRANCH  58  82
BRANCH  70  93
ATOM     93  C   UNL A   1      47.183  27.475  25.931  1.00  0.00     0.064 A 
ATOM     94  C   UNL A   1      48.192  26.823  26.654  1.00  0.00     0.173 A 
ATOM     95  C   UNL A   1      47.343  27.596  24.542  1.00  0.00     0.173 A 
ATOM     96  F   UNL A   1      48.092  26.696  27.986  1.00  0.00    -0.203 F 
ATOM     97  C   UNL A   1      49.327  26.333  26.014  1.00  0.00     0.198 A 
ATOM     98  C   UNL A   1      48.461  27.071  23.900  1.00  0.00     0.198 A 
ATOM     99  F   UNL A   1      46.402  28.203  23.802  1.00  0.00    -0.203 F 
ATOM    100  F   UNL A   1      50.300  25.757  26.732  1.00  0.00    -0.200 F 
ATOM    101  C   UNL A   1      49.455  26.448  24.638  1.00  0.00     0.200 A 
ATOM    102  F   UNL A   1      48.574  27.167  22.569  1.00  0.00    -0.200 F 
ATOM    103  F   UNL A   1      50.542  25.963  24.022  1.00  0.00    -0.200 F 
ENDBRANCH  70  93
ENDBRANCH  44  45
ENDBRANCH  36  39
ENDBRANCH  34  35
ENDBRANCH  33  34
ENDBRANCH  32  33
ENDBRANCH   1  32
TORSDOF 16
ENDMDL
