MODEL 1
REMARK VINA RESULT:     -13.2      0.000      0.000
REMARK SMILES O=C(NCCCCNC(=O)c1ccc(NC(=O)c2ccc([N+](=O)[O-])cc2Cl)cc1Cl)c1ccc(-c2c3nc(c(-c4c(F)c(F)c(F)c(F)c4F)c4ccc([nH]4)c(-c4c(F)c(F)c(F)c(F)c4F)c4nc(c(-c5c(F)c(F)c(F)c(F)c5F)c5ccc2[nH]5)C=C4)C=C3)cc1
REMARK SMILES IDX 6 1 5 2 4 3 3 4 1 5 2 6 31 8 32 9 93 10 33 11 92 12 34 13
REMARK SMILES IDX 35 14 36 15 86 16 37 17 91 18 85 19 87 20 38 21 90 22 84 23
REMARK SMILES IDX 83 24 39 26 71 27 51 28 70 29 52 30 55 31 69 32 88 33 53 34
REMARK SMILES IDX 54 35 68 37 89 38 56 39 40 40 41 41 49 42 42 43 43 44 47 45
REMARK SMILES IDX 50 46 44 47 45 48 48 49 46 50 72 51 73 52 81 53 74 54 75 55
REMARK SMILES IDX 79 56 82 57 76 58 77 59 80 60 78 61 57 62 58 63 66 64 59 65
REMARK SMILES IDX 60 66 64 67 67 68 61 69 62 70 65 71 63 72 7 73 8 74 9 75
REMARK SMILES IDX 10 77 11 78 12 79 29 80 13 81 28 82 30 83 14 84 15 85 16 86
REMARK SMILES IDX 17 88 18 89 19 90 26 91 20 92 25 93 27 94 21 95 22 96 23 97
REMARK SMILES IDX 24 98
REMARK H PARENT 3 7 87 25 55 36 8 76 15 87
REMARK Flexibility Score: inf
ROOT
ATOM      1  C   UNL A   1      31.416  30.898  26.423  1.00  0.00     0.023 C 
ENDROOT
BRANCH   1   2
ATOM      2  C   UNL A   1      31.394  32.414  26.604  1.00  0.00     0.023 C 
BRANCH   2   3
ATOM      3  C   UNL A   1      32.653  33.031  27.199  1.00  0.00     0.116 C 
BRANCH   3   4
ATOM      4  N   UNL A   1      32.436  34.362  27.742  1.00  0.00    -0.352 N 
ATOM      5  O   UNL A   1      32.664  36.088  29.176  1.00  0.00    -0.269 OA
ATOM      6  C   UNL A   1      33.076  35.002  28.775  1.00  0.00     0.251 C 
ATOM      7  H   UNL A   1      31.726  34.883  27.303  1.00  0.00     0.163 HD
BRANCH   6   8
ATOM      8  C   UNL A   1      34.242  34.374  29.432  1.00  0.00     0.039 A 
ATOM      9  C   UNL A   1      35.541  34.610  28.977  1.00  0.00     0.014 A 
ATOM     10  C   UNL A   1      34.027  33.544  30.537  1.00  0.00     0.014 A 
ATOM     11  C   UNL A   1      36.609  33.911  29.534  1.00  0.00     0.010 A 
ATOM     12  C   UNL A   1      35.109  32.904  31.146  1.00  0.00     0.010 A 
ATOM     13  C   UNL A   1      36.405  33.058  30.630  1.00  0.00    -0.014 A 
BRANCH  13  14
ATOM     14  C   UNL A   1      37.563  32.382  31.265  1.00  0.00     0.031 A 
ATOM     15  C   UNL A   1      38.255  31.233  30.590  1.00  0.00     0.074 A 
ATOM     16  C   UNL A   1      37.978  32.806  32.473  1.00  0.00     0.049 A 
ATOM     17  N   UNL A   1      39.252  30.500  31.022  1.00  0.00    -0.248 NA
ATOM     18  C   UNL A   1      37.758  30.847  29.262  1.00  0.00     0.031 C 
ATOM     19  C   UNL A   1      37.371  33.899  33.234  1.00  0.00     0.029 A 
ATOM     20  N   UNL A   1      38.998  32.366  33.278  1.00  0.00    -0.354 N 
ATOM     21  C   UNL A   1      39.486  29.556  30.032  1.00  0.00     0.074 A 
ATOM     22  C   UNL A   1      38.513  29.793  28.987  1.00  0.00     0.031 C 
ATOM     23  C   UNL A   1      38.035  34.054  34.386  1.00  0.00     0.029 A 
ATOM     24  C   UNL A   1      39.077  33.037  34.472  1.00  0.00     0.049 A 
ATOM     25  H   UNL A   1      39.613  31.640  33.023  1.00  0.00     0.167 HD
ATOM     26  C   UNL A   1      40.431  28.585  30.000  1.00  0.00     0.037 A 
ATOM     27  C   UNL A   1      39.878  32.837  35.535  1.00  0.00     0.037 A 
ATOM     28  C   UNL A   1      41.406  28.368  31.039  1.00  0.00     0.049 A 
ATOM     29  C   UNL A   1      40.906  31.746  35.483  1.00  0.00     0.074 A 
ATOM     30  C   UNL A   1      42.445  27.453  31.071  1.00  0.00     0.029 A 
ATOM     31  N   UNL A   1      41.454  29.067  32.237  1.00  0.00    -0.354 N 
ATOM     32  N   UNL A   1      41.155  30.893  34.520  1.00  0.00    -0.248 NA
ATOM     33  C   UNL A   1      41.765  31.587  36.665  1.00  0.00     0.031 C 
ATOM     34  C   UNL A   1      43.088  27.564  32.308  1.00  0.00     0.029 A 
ATOM     35  C   UNL A   1      42.485  28.582  33.029  1.00  0.00     0.049 A 
ATOM     36  H   UNL A   1      40.847  29.800  32.488  1.00  0.00     0.167 HD
ATOM     37  C   UNL A   1      42.204  30.105  34.968  1.00  0.00     0.074 A 
ATOM     38  C   UNL A   1      42.556  30.591  36.287  1.00  0.00     0.031 C 
ATOM     39  C   UNL A   1      42.818  29.073  34.343  1.00  0.00     0.037 A 
BRANCH  26  40
ATOM     40  C   UNL A   1      40.444  27.665  28.813  1.00  0.00     0.064 A 
ATOM     41  C   UNL A   1      41.237  27.921  27.684  1.00  0.00     0.173 A 
ATOM     42  C   UNL A   1      39.673  26.491  28.819  1.00  0.00     0.173 A 
ATOM     43  F   UNL A   1      41.986  29.032  27.624  1.00  0.00    -0.203 F 
ATOM     44  C   UNL A   1      41.232  27.054  26.593  1.00  0.00     0.198 A 
ATOM     45  C   UNL A   1      39.693  25.613  27.739  1.00  0.00     0.198 A 
ATOM     46  F   UNL A   1      38.903  26.193  29.876  1.00  0.00    -0.203 F 
ATOM     47  F   UNL A   1      41.960  27.345  25.506  1.00  0.00    -0.200 F 
ATOM     48  C   UNL A   1      40.465  25.900  26.624  1.00  0.00     0.200 A 
ATOM     49  F   UNL A   1      38.960  24.492  27.774  1.00  0.00    -0.200 F 
ATOM     50  F   UNL A   1      40.463  25.066  25.574  1.00  0.00    -0.200 F 
ENDBRANCH  26  40
BRANCH  27  51
ATOM     51  C   UNL A   1      39.710  33.695  36.736  1.00  0.00     0.064 A 
ATOM     52  C   UNL A   1      40.354  34.934  36.836  1.00  0.00     0.173 A 
ATOM     53  C   UNL A   1      38.852  33.314  37.779  1.00  0.00     0.173 A 
ATOM     54  F   UNL A   1      41.196  35.331  35.869  1.00  0.00    -0.203 F 
ATOM     55  C   UNL A   1      40.149  35.762  37.937  1.00  0.00     0.198 A 
ATOM     56  C   UNL A   1      38.627  34.154  38.866  1.00  0.00     0.198 A 
ATOM     57  F   UNL A   1      38.207  32.141  37.723  1.00  0.00    -0.203 F 
ATOM     58  F   UNL A   1      40.794  36.932  38.022  1.00  0.00    -0.200 F 
ATOM     59  C   UNL A   1      39.277  35.376  38.946  1.00  0.00     0.200 A 
ATOM     60  F   UNL A   1      37.769  33.786  39.828  1.00  0.00    -0.200 F 
ATOM     61  F   UNL A   1      39.064  36.181  39.994  1.00  0.00    -0.200 F 
ENDBRANCH  27  51
BRANCH  39  62
ATOM     62  C   UNL A   1      43.949  28.405  35.068  1.00  0.00     0.064 A 
ATOM     63  C   UNL A   1      43.739  27.278  35.874  1.00  0.00     0.173 A 
ATOM     64  C   UNL A   1      45.264  28.871  34.914  1.00  0.00     0.173 A 
ATOM     65  F   UNL A   1      42.497  26.807  36.066  1.00  0.00    -0.203 F 
ATOM     66  C   UNL A   1      44.804  26.647  36.512  1.00  0.00     0.198 A 
ATOM     67  C   UNL A   1      46.329  28.223  35.533  1.00  0.00     0.198 A 
ATOM     68  F   UNL A   1      45.516  29.944  34.151  1.00  0.00    -0.203 F 
ATOM     69  F   UNL A   1      44.577  25.592  37.307  1.00  0.00    -0.200 F 
ATOM     70  C   UNL A   1      46.098  27.115  36.334  1.00  0.00     0.200 A 
ATOM     71  F   UNL A   1      47.580  28.669  35.351  1.00  0.00    -0.200 F 
ATOM     72  F   UNL A   1      47.123  26.500  36.940  1.00  0.00    -0.200 F 
ENDBRANCH  39  62
ENDBRANCH  13  14
ENDBRANCH   6   8
ENDBRANCH   3   4
ENDBRANCH   2   3
ENDBRANCH   1   2
BRANCH   1  73
ATOM     73  C   UNL A   1      32.799  30.258  26.331  1.00  0.00     0.116 C 
BRANCH  73  74
ATOM     74  N   UNL A   1      33.278  30.078  24.971  1.00  0.00    -0.352 N 
ATOM     75  C   UNL A   1      33.070  29.028  24.110  1.00  0.00     0.252 C 
ATOM     76  H   UNL A   1      33.830  30.813  24.616  1.00  0.00     0.163 HD
ATOM     77  O   UNL A   1      33.540  29.055  22.976  1.00  0.00    -0.269 OA
BRANCH  75  78
ATOM     78  C   UNL A   1      32.398  27.805  24.584  1.00  0.00     0.058 A 
ATOM     79  C   UNL A   1      33.208  26.866  25.225  1.00  0.00     0.017 A 
ATOM     80  C   UNL A   1      31.035  27.546  24.438  1.00  0.00     0.055 A 
ATOM     81  C   UNL A   1      32.637  25.745  25.829  1.00  0.00     0.027 A 
ATOM     82  C   UNL A   1      30.464  26.453  25.104  1.00  0.00     0.047 A 
ATOM     83  Cl  UNL A   1      30.003  28.513  23.448  1.00  0.00    -0.083 Cl
ATOM     84  C   UNL A   1      31.253  25.580  25.867  1.00  0.00     0.043 A 
BRANCH  84  85
ATOM     85  N   UNL A   1      30.572  24.610  26.631  1.00  0.00    -0.322 N 
ATOM     86  C   UNL A   1      30.800  23.272  26.874  1.00  0.00     0.257 C 
ATOM     87  H   UNL A   1      29.770  24.959  27.082  1.00  0.00     0.170 HD
ATOM     88  O   UNL A   1      30.011  22.622  27.557  1.00  0.00    -0.269 OA
BRANCH  86  89
ATOM     89  C   UNL A   1      31.958  22.568  26.308  1.00  0.00     0.059 A 
ATOM     90  C   UNL A   1      32.935  22.137  27.218  1.00  0.00     0.022 A 
ATOM     91  C   UNL A   1      32.072  22.269  24.944  1.00  0.00     0.060 A 
ATOM     92  C   UNL A   1      33.972  21.311  26.784  1.00  0.00     0.086 A 
ATOM     93  C   UNL A   1      33.102  21.433  24.506  1.00  0.00     0.107 A 
ATOM     94  Cl  UNL A   1      30.939  22.843  23.775  1.00  0.00    -0.083 Cl
ATOM     95  C   UNL A   1      34.029  20.935  25.434  1.00  0.00     0.270 A 
BRANCH  95  96
ATOM     96  N   UNL A   1      35.040  19.964  24.998  1.00  0.00     0.062 N 
ATOM     97  O   UNL A   1      34.643  18.851  24.626  1.00  0.00    -0.258 OA
ATOM     98  O   UNL A   1      36.223  20.329  25.005  1.00  0.00    -0.258 OA
ENDBRANCH  95  96
ENDBRANCH  86  89
ENDBRANCH  84  85
ENDBRANCH  75  78
ENDBRANCH  73  74
ENDBRANCH   1  73
TORSDOF 14
ENDMDL
MODEL 2
REMARK VINA RESULT:     -13.1      0.229      1.574
REMARK SMILES O=C(NCCCCNC(=O)c1ccc(NC(=O)c2ccc([N+](=O)[O-])cc2Cl)cc1Cl)c1ccc(-c2c3nc(c(-c4c(F)c(F)c(F)c(F)c4F)c4ccc([nH]4)c(-c4c(F)c(F)c(F)c(F)c4F)c4nc(c(-c5c(F)c(F)c(F)c(F)c5F)c5ccc2[nH]5)C=C4)C=C3)cc1
REMARK SMILES IDX 6 1 5 2 4 3 3 4 1 5 2 6 31 8 32 9 93 10 33 11 92 12 34 13
REMARK SMILES IDX 35 14 36 15 86 16 37 17 91 18 85 19 87 20 38 21 90 22 84 23
REMARK SMILES IDX 83 24 39 26 71 27 51 28 70 29 52 30 55 31 69 32 88 33 53 34
REMARK SMILES IDX 54 35 68 37 89 38 56 39 40 40 41 41 49 42 42 43 43 44 47 45
REMARK SMILES IDX 50 46 44 47 45 48 48 49 46 50 72 51 73 52 81 53 74 54 75 55
REMARK SMILES IDX 79 56 82 57 76 58 77 59 80 60 78 61 57 62 58 63 66 64 59 65
REMARK SMILES IDX 60 66 64 67 67 68 61 69 62 70 65 71 63 72 7 73 8 74 9 75
REMARK SMILES IDX 10 77 11 78 12 79 29 80 13 81 28 82 30 83 14 84 15 85 16 86
REMARK SMILES IDX 17 88 18 89 19 90 26 91 20 92 25 93 27 94 21 95 22 96 23 97
REMARK SMILES IDX 24 98
REMARK H PARENT 3 7 87 25 55 36 8 76 15 87
REMARK Flexibility Score: inf
ROOT
ATOM      1  C   UNL A   1      31.427  30.987  26.368  1.00  0.00     0.023 C 
ENDROOT
BRANCH   1   2
ATOM      2  C   UNL A   1      31.434  32.503  26.555  1.00  0.00     0.023 C 
BRANCH   2   3
ATOM      3  C   UNL A   1      32.659  33.080  27.252  1.00  0.00     0.116 C 
BRANCH   3   4
ATOM      4  N   UNL A   1      32.440  34.418  27.779  1.00  0.00    -0.352 N 
ATOM      5  O   UNL A   1      32.658  36.158  29.197  1.00  0.00    -0.269 OA
ATOM      6  C   UNL A   1      33.072  35.067  28.811  1.00  0.00     0.251 C 
ATOM      7  H   UNL A   1      31.734  34.934  27.329  1.00  0.00     0.163 HD
BRANCH   6   8
ATOM      8  C   UNL A   1      34.232  34.444  29.484  1.00  0.00     0.039 A 
ATOM      9  C   UNL A   1      35.523  34.573  28.965  1.00  0.00     0.014 A 
ATOM     10  C   UNL A   1      34.021  33.730  30.668  1.00  0.00     0.014 A 
ATOM     11  C   UNL A   1      36.577  33.875  29.547  1.00  0.00     0.010 A 
ATOM     12  C   UNL A   1      35.095  33.096  31.297  1.00  0.00     0.010 A 
ATOM     13  C   UNL A   1      36.377  33.137  30.724  1.00  0.00    -0.014 A 
BRANCH  13  14
ATOM     14  C   UNL A   1      37.525  32.465  31.380  1.00  0.00     0.031 A 
ATOM     15  C   UNL A   1      38.236  31.322  30.716  1.00  0.00     0.074 A 
ATOM     16  C   UNL A   1      37.914  32.887  32.597  1.00  0.00     0.049 A 
ATOM     17  N   UNL A   1      39.228  30.593  31.165  1.00  0.00    -0.248 NA
ATOM     18  C   UNL A   1      37.766  30.937  29.377  1.00  0.00     0.031 C 
ATOM     19  C   UNL A   1      37.287  33.975  33.349  1.00  0.00     0.029 A 
ATOM     20  N   UNL A   1      38.921  32.451  33.421  1.00  0.00    -0.354 N 
ATOM     21  C   UNL A   1      39.486  29.652  30.177  1.00  0.00     0.074 A 
ATOM     22  C   UNL A   1      38.532  29.887  29.113  1.00  0.00     0.031 C 
ATOM     23  C   UNL A   1      37.928  34.131  34.515  1.00  0.00     0.029 A 
ATOM     24  C   UNL A   1      38.973  33.118  34.618  1.00  0.00     0.049 A 
ATOM     25  H   UNL A   1      39.544  31.729  33.176  1.00  0.00     0.167 HD
ATOM     26  C   UNL A   1      40.437  28.686  30.160  1.00  0.00     0.037 A 
ATOM     27  C   UNL A   1      39.754  32.920  35.696  1.00  0.00     0.037 A 
ATOM     28  C   UNL A   1      41.392  28.471  31.217  1.00  0.00     0.049 A 
ATOM     29  C   UNL A   1      40.789  31.833  35.661  1.00  0.00     0.074 A 
ATOM     30  C   UNL A   1      42.435  27.561  31.267  1.00  0.00     0.029 A 
ATOM     31  N   UNL A   1      41.414  29.167  32.418  1.00  0.00    -0.354 N 
ATOM     32  N   UNL A   1      41.060  30.985  34.700  1.00  0.00    -0.248 NA
ATOM     33  C   UNL A   1      41.625  31.675  36.858  1.00  0.00     0.031 C 
ATOM     34  C   UNL A   1      43.053  27.672  32.517  1.00  0.00     0.029 A 
ATOM     35  C   UNL A   1      42.431  28.685  33.228  1.00  0.00     0.049 A 
ATOM     36  H   UNL A   1      40.797  29.896  32.659  1.00  0.00     0.167 HD
ATOM     37  C   UNL A   1      42.104  30.201  35.166  1.00  0.00     0.074 A 
ATOM     38  C   UNL A   1      42.429  30.685  36.494  1.00  0.00     0.031 C 
ATOM     39  C   UNL A   1      42.736  29.173  34.550  1.00  0.00     0.037 A 
BRANCH  26  40
ATOM     40  C   UNL A   1      40.477  27.769  28.972  1.00  0.00     0.064 A 
ATOM     41  C   UNL A   1      41.317  28.014  27.875  1.00  0.00     0.173 A 
ATOM     42  C   UNL A   1      39.683  26.611  28.944  1.00  0.00     0.173 A 
ATOM     43  F   UNL A   1      42.091  29.110  27.848  1.00  0.00    -0.203 F 
ATOM     44  C   UNL A   1      41.338  27.150  26.781  1.00  0.00     0.198 A 
ATOM     45  C   UNL A   1      39.728  25.737  27.861  1.00  0.00     0.198 A 
ATOM     46  F   UNL A   1      38.868  26.325  29.969  1.00  0.00    -0.203 F 
ATOM     47  F   UNL A   1      42.113  27.430  25.724  1.00  0.00    -0.200 F 
ATOM     48  C   UNL A   1      40.548  26.011  26.778  1.00  0.00     0.200 A 
ATOM     49  F   UNL A   1      38.973  24.630  27.864  1.00  0.00    -0.200 F 
ATOM     50  F   UNL A   1      40.570  25.181  25.725  1.00  0.00    -0.200 F 
ENDBRANCH  26  40
BRANCH  27  51
ATOM     51  C   UNL A   1      39.559  33.773  36.895  1.00  0.00     0.064 A 
ATOM     52  C   UNL A   1      38.689  33.389  37.923  1.00  0.00     0.173 A 
ATOM     53  C   UNL A   1      40.287  34.961  37.061  1.00  0.00     0.173 A 
ATOM     54  F   UNL A   1      37.961  32.269  37.800  1.00  0.00    -0.203 F 
ATOM     55  C   UNL A   1      38.552  34.163  39.073  1.00  0.00     0.198 A 
ATOM     56  C   UNL A   1      40.170  35.719  38.222  1.00  0.00     0.198 A 
ATOM     57  F   UNL A   1      41.139  35.364  36.108  1.00  0.00    -0.203 F 
ATOM     58  F   UNL A   1      37.696  33.787  40.032  1.00  0.00    -0.200 F 
ATOM     59  C   UNL A   1      39.301  35.321  39.226  1.00  0.00     0.200 A 
ATOM     60  F   UNL A   1      40.909  36.826  38.374  1.00  0.00    -0.200 F 
ATOM     61  F   UNL A   1      39.184  36.054  40.342  1.00  0.00    -0.200 F 
ENDBRANCH  27  51
BRANCH  39  62
ATOM     62  C   UNL A   1      43.856  28.509  35.296  1.00  0.00     0.064 A 
ATOM     63  C   UNL A   1      45.176  28.974  35.201  1.00  0.00     0.173 A 
ATOM     64  C   UNL A   1      43.596  27.429  36.152  1.00  0.00     0.173 A 
ATOM     65  F   UNL A   1      45.476  29.993  34.382  1.00  0.00    -0.203 F 
ATOM     66  C   UNL A   1      46.199  28.369  35.928  1.00  0.00     0.198 A 
ATOM     67  C   UNL A   1      44.617  26.844  36.895  1.00  0.00     0.198 A 
ATOM     68  F   UNL A   1      42.349  26.951  36.278  1.00  0.00    -0.203 F 
ATOM     69  F   UNL A   1      47.459  28.806  35.796  1.00  0.00    -0.200 F 
ATOM     70  C   UNL A   1      45.917  27.312  36.781  1.00  0.00     0.200 A 
ATOM     71  F   UNL A   1      44.341  25.829  37.727  1.00  0.00    -0.200 F 
ATOM     72  F   UNL A   1      46.901  26.740  37.488  1.00  0.00    -0.200 F 
ENDBRANCH  39  62
ENDBRANCH  13  14
ENDBRANCH   6   8
ENDBRANCH   3   4
ENDBRANCH   2   3
ENDBRANCH   1   2
BRANCH   1  73
ATOM     73  C   UNL A   1      32.793  30.307  26.386  1.00  0.00     0.116 C 
BRANCH  73  74
ATOM     74  N   UNL A   1      33.371  30.105  25.068  1.00  0.00    -0.352 N 
ATOM     75  C   UNL A   1      33.230  29.039  24.213  1.00  0.00     0.252 C 
ATOM     76  H   UNL A   1      33.945  30.835  24.741  1.00  0.00     0.163 HD
ATOM     77  O   UNL A   1      33.781  29.049  23.116  1.00  0.00    -0.269 OA
BRANCH  75  78
ATOM     78  C   UNL A   1      32.527  27.822  24.657  1.00  0.00     0.058 A 
ATOM     79  C   UNL A   1      33.311  26.855  25.288  1.00  0.00     0.017 A 
ATOM     80  C   UNL A   1      31.161  27.595  24.494  1.00  0.00     0.055 A 
ATOM     81  C   UNL A   1      32.711  25.735  25.867  1.00  0.00     0.027 A 
ATOM     82  C   UNL A   1      30.560  26.502  25.133  1.00  0.00     0.047 A 
ATOM     83  Cl  UNL A   1      30.159  28.601  23.512  1.00  0.00    -0.083 Cl
ATOM     84  C   UNL A   1      31.324  25.599  25.888  1.00  0.00     0.043 A 
BRANCH  84  85
ATOM     85  N   UNL A   1      30.615  24.630  26.627  1.00  0.00    -0.322 N 
ATOM     86  C   UNL A   1      30.818  23.285  26.855  1.00  0.00     0.257 C 
ATOM     87  H   UNL A   1      29.811  24.985  27.070  1.00  0.00     0.170 HD
ATOM     88  O   UNL A   1      30.008  22.638  27.516  1.00  0.00    -0.269 OA
BRANCH  86  89
ATOM     89  C   UNL A   1      31.973  22.570  26.298  1.00  0.00     0.059 A 
ATOM     90  C   UNL A   1      32.922  22.100  27.218  1.00  0.00     0.022 A 
ATOM     91  C   UNL A   1      32.110  22.299  24.931  1.00  0.00     0.060 A 
ATOM     92  C   UNL A   1      33.952  21.263  26.788  1.00  0.00     0.086 A 
ATOM     93  C   UNL A   1      33.133  21.452  24.495  1.00  0.00     0.107 A 
ATOM     94  Cl  UNL A   1      31.014  22.920  23.751  1.00  0.00    -0.083 Cl
ATOM     95  C   UNL A   1      34.031  20.915  25.432  1.00  0.00     0.270 A 
BRANCH  95  96
ATOM     96  N   UNL A   1      35.031  19.933  24.996  1.00  0.00     0.062 N 
ATOM     97  O   UNL A   1      34.623  18.824  24.626  1.00  0.00    -0.258 OA
ATOM     98  O   UNL A   1      36.218  20.287  25.000  1.00  0.00    -0.258 OA
ENDBRANCH  95  96
ENDBRANCH  86  89
ENDBRANCH  84  85
ENDBRANCH  75  78
ENDBRANCH  73  74
ENDBRANCH   1  73
TORSDOF 14
ENDMDL
MODEL 3
REMARK VINA RESULT:     -13.0      3.587      8.411
REMARK SMILES O=C(NCCCCNC(=O)c1ccc(NC(=O)c2ccc([N+](=O)[O-])cc2Cl)cc1Cl)c1ccc(-c2c3nc(c(-c4c(F)c(F)c(F)c(F)c4F)c4ccc([nH]4)c(-c4c(F)c(F)c(F)c(F)c4F)c4nc(c(-c5c(F)c(F)c(F)c(F)c5F)c5ccc2[nH]5)C=C4)C=C3)cc1
REMARK SMILES IDX 6 1 5 2 4 3 3 4 1 5 2 6 31 8 32 9 93 10 33 11 92 12 34 13
REMARK SMILES IDX 35 14 36 15 86 16 37 17 91 18 85 19 87 20 38 21 90 22 84 23
REMARK SMILES IDX 83 24 39 26 71 27 51 28 70 29 52 30 55 31 69 32 88 33 53 34
REMARK SMILES IDX 54 35 68 37 89 38 56 39 40 40 41 41 49 42 42 43 43 44 47 45
REMARK SMILES IDX 50 46 44 47 45 48 48 49 46 50 72 51 73 52 81 53 74 54 75 55
REMARK SMILES IDX 79 56 82 57 76 58 77 59 80 60 78 61 57 62 58 63 66 64 59 65
REMARK SMILES IDX 60 66 64 67 67 68 61 69 62 70 65 71 63 72 7 73 8 74 9 75
REMARK SMILES IDX 10 77 11 78 12 79 29 80 13 81 28 82 30 83 14 84 15 85 16 86
REMARK SMILES IDX 17 88 18 89 19 90 26 91 20 92 25 93 27 94 21 95 22 96 23 97
REMARK SMILES IDX 24 98
REMARK H PARENT 3 7 87 25 55 36 8 76 15 87
REMARK Flexibility Score: inf
ROOT
ATOM      1  C   UNL A   1      33.312  29.273  24.286  1.00  0.00     0.023 C 
ENDROOT
BRANCH   1   2
ATOM      2  C   UNL A   1      34.027  28.134  25.011  1.00  0.00     0.023 C 
BRANCH   2   3
ATOM      3  C   UNL A   1      34.019  28.208  26.533  1.00  0.00     0.116 C 
BRANCH   3   4
ATOM      4  N   UNL A   1      33.768  29.547  27.039  1.00  0.00    -0.352 N 
ATOM      5  O   UNL A   1      34.114  31.407  28.267  1.00  0.00    -0.269 OA
ATOM      6  C   UNL A   1      34.555  30.346  27.833  1.00  0.00     0.251 C 
ATOM      7  H   UNL A   1      32.905  29.940  26.775  1.00  0.00     0.163 HD
BRANCH   6   8
ATOM      8  C   UNL A   1      35.924  29.918  28.194  1.00  0.00     0.039 A 
ATOM      9  C   UNL A   1      36.197  29.351  29.441  1.00  0.00     0.014 A 
ATOM     10  C   UNL A   1      36.949  30.076  27.256  1.00  0.00     0.014 A 
ATOM     11  C   UNL A   1      37.513  29.072  29.802  1.00  0.00     0.010 A 
ATOM     12  C   UNL A   1      38.257  29.721  27.591  1.00  0.00     0.010 A 
ATOM     13  C   UNL A   1      38.555  29.245  28.878  1.00  0.00    -0.014 A 
BRANCH  13  14
ATOM     14  C   UNL A   1      39.941  28.868  29.249  1.00  0.00     0.031 A 
ATOM     15  C   UNL A   1      40.807  29.793  30.054  1.00  0.00     0.074 A 
ATOM     16  C   UNL A   1      40.422  27.681  28.835  1.00  0.00     0.049 A 
ATOM     17  N   UNL A   1      42.054  29.641  30.427  1.00  0.00    -0.248 NA
ATOM     18  C   UNL A   1      40.200  31.059  30.488  1.00  0.00     0.031 C 
ATOM     19  C   UNL A   1      39.680  26.709  28.031  1.00  0.00     0.029 A 
ATOM     20  N   UNL A   1      41.646  27.092  29.024  1.00  0.00    -0.354 N 
ATOM     21  C   UNL A   1      42.387  30.798  31.119  1.00  0.00     0.074 A 
ATOM     22  C   UNL A   1      41.219  31.653  31.095  1.00  0.00     0.031 C 
ATOM     23  C   UNL A   1      40.456  25.641  27.805  1.00  0.00     0.029 A 
ATOM     24  C   UNL A   1      41.768  25.877  28.399  1.00  0.00     0.049 A 
ATOM     25  H   UNL A   1      42.367  27.502  29.555  1.00  0.00     0.167 HD
ATOM     26  C   UNL A   1      43.559  31.111  31.723  1.00  0.00     0.037 A 
ATOM     27  C   UNL A   1      42.827  25.054  28.288  1.00  0.00     0.037 A 
ATOM     28  C   UNL A   1      44.711  30.246  31.755  1.00  0.00     0.049 A 
ATOM     29  C   UNL A   1      44.120  25.429  28.950  1.00  0.00     0.074 A 
ATOM     30  C   UNL A   1      45.923  30.444  32.395  1.00  0.00     0.029 A 
ATOM     31  N   UNL A   1      44.798  29.021  31.109  1.00  0.00    -0.354 N 
ATOM     32  N   UNL A   1      44.407  26.501  29.648  1.00  0.00    -0.248 NA
ATOM     33  C   UNL A   1      45.236  24.484  28.811  1.00  0.00     0.031 C 
ATOM     34  C   UNL A   1      46.759  29.365  32.092  1.00  0.00     0.029 A 
ATOM     35  C   UNL A   1      46.055  28.467  31.307  1.00  0.00     0.049 A 
ATOM     36  H   UNL A   1      44.074  28.605  30.586  1.00  0.00     0.167 HD
ATOM     37  C   UNL A   1      45.729  26.356  30.043  1.00  0.00     0.074 A 
ATOM     38  C   UNL A   1      46.184  25.084  29.519  1.00  0.00     0.031 C 
ATOM     39  C   UNL A   1      46.494  27.202  30.773  1.00  0.00     0.037 A 
BRANCH  26  40
ATOM     40  C   UNL A   1      43.666  32.458  32.378  1.00  0.00     0.064 A 
ATOM     41  C   UNL A   1      44.102  33.592  31.676  1.00  0.00     0.173 A 
ATOM     42  C   UNL A   1      43.297  32.622  33.723  1.00  0.00     0.173 A 
ATOM     43  F   UNL A   1      44.475  33.489  30.391  1.00  0.00    -0.203 F 
ATOM     44  C   UNL A   1      44.195  34.833  32.304  1.00  0.00     0.198 A 
ATOM     45  C   UNL A   1      43.364  33.869  34.339  1.00  0.00     0.198 A 
ATOM     46  F   UNL A   1      42.865  31.574  34.438  1.00  0.00    -0.203 F 
ATOM     47  F   UNL A   1      44.661  35.891  31.627  1.00  0.00    -0.200 F 
ATOM     48  C   UNL A   1      43.822  34.971  33.632  1.00  0.00     0.200 A 
ATOM     49  F   UNL A   1      42.992  34.004  35.619  1.00  0.00    -0.200 F 
ATOM     50  F   UNL A   1      43.910  36.165  34.234  1.00  0.00    -0.200 F 
ENDBRANCH  26  40
BRANCH  27  51
ATOM     51  C   UNL A   1      42.689  23.804  27.498  1.00  0.00     0.064 A 
ATOM     52  C   UNL A   1      43.052  23.757  26.147  1.00  0.00     0.173 A 
ATOM     53  C   UNL A   1      42.247  22.616  28.101  1.00  0.00     0.173 A 
ATOM     54  F   UNL A   1      43.465  24.872  25.526  1.00  0.00    -0.203 F 
ATOM     55  C   UNL A   1      42.977  22.568  25.425  1.00  0.00     0.198 A 
ATOM     56  C   UNL A   1      42.198  21.423  27.386  1.00  0.00     0.198 A 
ATOM     57  F   UNL A   1      41.898  22.610  29.395  1.00  0.00    -0.203 F 
ATOM     58  F   UNL A   1      43.307  22.554  24.127  1.00  0.00    -0.200 F 
ATOM     59  C   UNL A   1      42.560  21.400  26.048  1.00  0.00     0.200 A 
ATOM     60  F   UNL A   1      41.814  20.294  27.996  1.00  0.00    -0.200 F 
ATOM     61  F   UNL A   1      42.508  20.253  25.358  1.00  0.00    -0.200 F 
ENDBRANCH  27  51
BRANCH  39  62
ATOM     62  C   UNL A   1      47.902  26.775  31.066  1.00  0.00     0.064 A 
ATOM     63  C   UNL A   1      48.979  27.212  30.282  1.00  0.00     0.173 A 
ATOM     64  C   UNL A   1      48.180  25.959  32.173  1.00  0.00     0.173 A 
ATOM     65  F   UNL A   1      48.761  27.979  29.204  1.00  0.00    -0.203 F 
ATOM     66  C   UNL A   1      50.284  26.836  30.589  1.00  0.00     0.198 A 
ATOM     67  C   UNL A   1      49.488  25.606  32.491  1.00  0.00     0.198 A 
ATOM     68  F   UNL A   1      47.183  25.517  32.955  1.00  0.00    -0.203 F 
ATOM     69  F   UNL A   1      51.296  27.236  29.806  1.00  0.00    -0.200 F 
ATOM     70  C   UNL A   1      50.538  26.042  31.697  1.00  0.00     0.200 A 
ATOM     71  F   UNL A   1      49.733  24.847  33.568  1.00  0.00    -0.200 F 
ATOM     72  F   UNL A   1      51.796  25.690  31.997  1.00  0.00    -0.200 F 
ENDBRANCH  39  62
ENDBRANCH  13  14
ENDBRANCH   6   8
ENDBRANCH   3   4
ENDBRANCH   2   3
ENDBRANCH   1   2
BRANCH   1  73
ATOM     73  C   UNL A   1      33.200  29.131  22.770  1.00  0.00     0.116 C 
BRANCH  73  74
ATOM     74  N   UNL A   1      31.854  29.323  22.256  1.00  0.00    -0.352 N 
ATOM     75  C   UNL A   1      30.724  28.576  22.482  1.00  0.00     0.252 C 
ATOM     76  H   UNL A   1      31.736  30.099  21.660  1.00  0.00     0.163 HD
ATOM     77  O   UNL A   1      29.655  28.902  21.974  1.00  0.00    -0.269 OA
BRANCH  75  78
ATOM     78  C   UNL A   1      30.814  27.305  23.224  1.00  0.00     0.058 A 
ATOM     79  C   UNL A   1      30.382  27.336  24.550  1.00  0.00     0.017 A 
ATOM     80  C   UNL A   1      31.284  26.108  22.685  1.00  0.00     0.055 A 
ATOM     81  C   UNL A   1      30.298  26.153  25.287  1.00  0.00     0.027 A 
ATOM     82  C   UNL A   1      31.135  24.917  23.410  1.00  0.00     0.047 A 
ATOM     83  Cl  UNL A   1      32.070  26.021  21.150  1.00  0.00    -0.083 Cl
ATOM     84  C   UNL A   1      30.572  24.921  24.694  1.00  0.00     0.043 A 
BRANCH  84  85
ATOM     85  N   UNL A   1      30.311  23.664  25.277  1.00  0.00    -0.322 N 
ATOM     86  C   UNL A   1      31.124  22.624  25.676  1.00  0.00     0.257 C 
ATOM     87  H   UNL A   1      29.354  23.495  25.432  1.00  0.00     0.170 HD
ATOM     88  O   UNL A   1      30.634  21.591  26.127  1.00  0.00    -0.269 OA
BRANCH  86  89
ATOM     89  C   UNL A   1      32.586  22.690  25.550  1.00  0.00     0.059 A 
ATOM     90  C   UNL A   1      33.282  23.256  26.628  1.00  0.00     0.022 A 
ATOM     91  C   UNL A   1      33.277  22.162  24.452  1.00  0.00     0.060 A 
ATOM     92  C   UNL A   1      34.676  23.195  26.663  1.00  0.00     0.086 A 
ATOM     93  C   UNL A   1      34.672  22.088  24.487  1.00  0.00     0.107 A 
ATOM     94  Cl  UNL A   1      32.465  21.526  23.067  1.00  0.00    -0.083 Cl
ATOM     95  C   UNL A   1      35.362  22.579  25.607  1.00  0.00     0.270 A 
BRANCH  95  96
ATOM     96  N   UNL A   1      36.815  22.396  25.699  1.00  0.00     0.062 N 
ATOM     97  O   UNL A   1      37.519  23.414  25.746  1.00  0.00    -0.258 OA
ATOM     98  O   UNL A   1      37.243  21.236  25.751  1.00  0.00    -0.258 OA
ENDBRANCH  95  96
ENDBRANCH  86  89
ENDBRANCH  84  85
ENDBRANCH  75  78
ENDBRANCH  73  74
ENDBRANCH   1  73
TORSDOF 14
ENDMDL
