MODEL 1
REMARK VINA RESULT:     -11.2      0.000      0.000
REMARK SMILES CC[C@@H](C)CN(CC)C(=O)N1CC[C@@](CC)(C(=O)NCCCCNC(=O)c2ccc(-c3c4nc(c(-c5c(F)c(F)c(F)c(F)c5F)c5ccc([nH]5)c(-c5c(F)c(F)c(F)c(F)c5F)c5nc(c(-c6c(F)c(F)c(F)c(F)c6F)c6ccc3[nH]6)C=C5)C=C4)cc2)C1
REMARK SMILES IDX 20 1 19 2 17 3 18 4 14 6 11 7 12 8 90 9 13 10 9 11 10 12
REMARK SMILES IDX 6 13 5 14 3 15 4 16 2 17 1 18 7 19 8 20 15 21 16 22 21 23
REMARK SMILES IDX 22 24 23 25 24 26 25 27 26 29 27 30 28 31 89 32 29 33 88 34
REMARK SMILES IDX 30 35 31 36 32 37 82 38 33 39 87 40 81 41 83 42 34 43 86 44
REMARK SMILES IDX 80 45 79 46 35 48 67 49 47 50 66 51 48 52 51 53 65 54 84 55
REMARK SMILES IDX 49 56 50 57 64 59 85 60 52 61 36 62 37 63 45 64 38 65 39 66
REMARK SMILES IDX 43 67 46 68 40 69 41 70 44 71 42 72 68 73 69 74 77 75 70 76
REMARK SMILES IDX 71 77 75 78 78 79 72 80 73 81 76 82 74 83 53 84 54 85 62 86
REMARK SMILES IDX 55 87 56 88 60 89 63 90 57 91 58 92 61 93 59 94
REMARK H PARENT 19 5 24 28 83 47 51 58
REMARK Flexibility Score: inf
ROOT
ATOM      1  C   UNL A   1      33.571  29.639  26.604  1.00  0.00     0.116 C 
ENDROOT
BRANCH   1   2
ATOM      2  N   UNL A   1      33.679  29.463  25.171  1.00  0.00    -0.356 N 
ATOM      3  C   UNL A   1      33.283  28.467  24.332  1.00  0.00     0.228 C 
ATOM      4  O   UNL A   1      33.391  28.725  23.130  1.00  0.00    -0.274 OA
ATOM      5  H   UNL A   1      34.129  30.210  24.712  1.00  0.00     0.163 HD
BRANCH   3   6
ATOM      6  C   UNL A   1      32.667  27.143  24.823  1.00  0.00     0.068 C 
ATOM      7  N   UNL A   1      33.669  25.020  24.237  1.00  0.00    -0.324 N 
ATOM      8  C   UNL A   1      34.449  25.578  25.305  1.00  0.00     0.122 C 
ATOM      9  C   UNL A   1      32.824  26.071  23.687  1.00  0.00     0.138 C 
ATOM     10  C   UNL A   1      33.443  26.483  25.989  1.00  0.00     0.040 C 
BRANCH   7  11
ATOM     11  C   UNL A   1      33.935  23.905  23.486  1.00  0.00     0.320 C 
ATOM     12  O   UNL A   1      33.736  23.929  22.270  1.00  0.00    -0.248 OA
BRANCH  11  13
ATOM     13  N   UNL A   1      34.276  22.731  24.141  1.00  0.00    -0.325 N 
BRANCH  13  14
ATOM     14  C   UNL A   1      33.231  22.070  24.935  1.00  0.00     0.124 C 
BRANCH  14  15
ATOM     15  C   UNL A   1      33.074  22.670  26.362  1.00  0.00     0.005 C 
ATOM     16  C   UNL A   1      33.855  21.807  27.357  1.00  0.00     0.009 C 
BRANCH  15  17
ATOM     17  C   UNL A   1      31.585  22.803  26.759  1.00  0.00     0.002 C 
ATOM     18  C   UNL A   1      30.769  23.786  25.933  1.00  0.00     0.004 C 
ENDBRANCH  15  17
ENDBRANCH  14  15
ENDBRANCH  13  14
BRANCH  13  19
ATOM     19  C   UNL A   1      35.605  22.127  24.217  1.00  0.00     0.118 C 
ATOM     20  C   UNL A   1      36.668  23.074  23.665  1.00  0.00     0.027 C 
ENDBRANCH  13  19
ENDBRANCH  11  13
ENDBRANCH   7  11
BRANCH   6  21
ATOM     21  C   UNL A   1      31.143  27.304  25.075  1.00  0.00     0.015 C 
ATOM     22  C   UNL A   1      30.194  27.191  23.895  1.00  0.00     0.005 C 
ENDBRANCH   6  21
ENDBRANCH   3   6
ENDBRANCH   1   2
BRANCH   1  23
ATOM     23  C   UNL A   1      32.183  30.105  27.032  1.00  0.00     0.023 C 
BRANCH  23  24
ATOM     24  C   UNL A   1      31.925  31.597  26.837  1.00  0.00     0.023 C 
BRANCH  24  25
ATOM     25  C   UNL A   1      32.972  32.523  27.445  1.00  0.00     0.116 C 
BRANCH  25  26
ATOM     26  N   UNL A   1      32.498  33.886  27.653  1.00  0.00    -0.352 N 
ATOM     27  C   UNL A   1      32.992  34.844  28.504  1.00  0.00     0.251 C 
ATOM     28  H   UNL A   1      31.722  34.155  27.112  1.00  0.00     0.163 HD
ATOM     29  O   UNL A   1      32.434  35.931  28.622  1.00  0.00    -0.269 OA
BRANCH  27  30
ATOM     30  C   UNL A   1      34.179  34.524  29.318  1.00  0.00     0.039 A 
ATOM     31  C   UNL A   1      33.994  34.027  30.609  1.00  0.00     0.014 A 
ATOM     32  C   UNL A   1      35.457  34.618  28.764  1.00  0.00     0.014 A 
ATOM     33  C   UNL A   1      35.090  33.529  31.314  1.00  0.00     0.010 A 
ATOM     34  C   UNL A   1      36.535  34.056  29.437  1.00  0.00     0.010 A 
ATOM     35  C   UNL A   1      36.358  33.490  30.710  1.00  0.00    -0.014 A 
BRANCH  35  36
ATOM     36  C   UNL A   1      37.508  32.830  31.372  1.00  0.00     0.031 A 
ATOM     37  C   UNL A   1      38.172  31.651  30.723  1.00  0.00     0.074 A 
ATOM     38  C   UNL A   1      37.887  33.232  32.601  1.00  0.00     0.049 A 
ATOM     39  N   UNL A   1      39.115  30.873  31.190  1.00  0.00    -0.248 NA
ATOM     40  C   UNL A   1      37.691  31.278  29.384  1.00  0.00     0.031 C 
ATOM     41  C   UNL A   1      37.279  34.327  33.359  1.00  0.00     0.029 A 
ATOM     42  N   UNL A   1      38.863  32.752  33.438  1.00  0.00    -0.354 N 
ATOM     43  C   UNL A   1      39.321  29.908  30.214  1.00  0.00     0.074 A 
ATOM     44  C   UNL A   1      38.377  30.170  29.149  1.00  0.00     0.031 C 
ATOM     45  C   UNL A   1      37.904  34.445  34.542  1.00  0.00     0.029 A 
ATOM     46  C   UNL A   1      38.931  33.412  34.641  1.00  0.00     0.049 A 
ATOM     47  H   UNL A   1      39.458  32.006  33.199  1.00  0.00     0.167 HD
ATOM     48  C   UNL A   1      40.233  28.907  30.200  1.00  0.00     0.037 A 
ATOM     49  C   UNL A   1      39.724  33.200  35.708  1.00  0.00     0.037 A 
ATOM     50  C   UNL A   1      41.195  28.673  31.243  1.00  0.00     0.049 A 
ATOM     51  C   UNL A   1      40.736  32.088  35.660  1.00  0.00     0.074 A 
ATOM     52  C   UNL A   1      42.215  27.739  31.283  1.00  0.00     0.029 A 
ATOM     53  N   UNL A   1      41.254  29.382  32.434  1.00  0.00    -0.354 N 
ATOM     54  N   UNL A   1      40.976  31.230  34.699  1.00  0.00    -0.248 NA
ATOM     55  C   UNL A   1      41.587  31.916  36.846  1.00  0.00     0.031 C 
ATOM     56  C   UNL A   1      42.867  27.856  32.514  1.00  0.00     0.029 A 
ATOM     57  C   UNL A   1      42.278  28.890  33.226  1.00  0.00     0.049 A 
ATOM     58  H   UNL A   1      40.656  30.124  32.681  1.00  0.00     0.167 HD
ATOM     59  C   UNL A   1      42.017  30.432  35.152  1.00  0.00     0.074 A 
ATOM     60  C   UNL A   1      42.373  30.917  36.469  1.00  0.00     0.031 C 
ATOM     61  C   UNL A   1      42.621  29.390  34.532  1.00  0.00     0.037 A 
BRANCH  48  62
ATOM     62  C   UNL A   1      40.238  27.992  29.011  1.00  0.00     0.064 A 
ATOM     63  C   UNL A   1      40.963  28.301  27.851  1.00  0.00     0.173 A 
ATOM     64  C   UNL A   1      39.539  26.777  29.047  1.00  0.00     0.173 A 
ATOM     65  F   UNL A   1      41.637  29.458  27.763  1.00  0.00    -0.203 F 
ATOM     66  C   UNL A   1      40.966  27.438  26.758  1.00  0.00     0.198 A 
ATOM     67  C   UNL A   1      39.567  25.903  27.963  1.00  0.00     0.198 A 
ATOM     68  F   UNL A   1      38.833  26.433  30.135  1.00  0.00    -0.203 F 
ATOM     69  F   UNL A   1      41.628  27.775  25.643  1.00  0.00    -0.200 F 
ATOM     70  C   UNL A   1      40.274  26.237  26.817  1.00  0.00     0.200 A 
ATOM     71  F   UNL A   1      38.906  24.738  28.025  1.00  0.00    -0.200 F 
ATOM     72  F   UNL A   1      40.284  25.404  25.767  1.00  0.00    -0.200 F 
ENDBRANCH  48  62
BRANCH  49  73
ATOM     73  C   UNL A   1      39.607  34.071  36.905  1.00  0.00     0.064 A 
ATOM     74  C   UNL A   1      40.281  35.298  36.969  1.00  0.00     0.173 A 
ATOM     75  C   UNL A   1      38.823  33.700  38.007  1.00  0.00     0.173 A 
ATOM     76  F   UNL A   1      41.059  35.686  35.948  1.00  0.00    -0.203 F 
ATOM     77  C   UNL A   1      40.191  36.112  38.096  1.00  0.00     0.198 A 
ATOM     78  C   UNL A   1      38.713  34.526  39.123  1.00  0.00     0.198 A 
ATOM     79  F   UNL A   1      38.153  32.537  37.993  1.00  0.00    -0.203 F 
ATOM     80  F   UNL A   1      40.880  37.260  38.147  1.00  0.00    -0.200 F 
ATOM     81  C   UNL A   1      39.403  35.727  39.170  1.00  0.00     0.200 A 
ATOM     82  F   UNL A   1      37.941  34.157  40.154  1.00  0.00    -0.200 F 
ATOM     83  F   UNL A   1      39.314  36.512  40.253  1.00  0.00    -0.200 F 
ENDBRANCH  49  73
BRANCH  61  84
ATOM     84  C   UNL A   1      43.748  28.718  35.260  1.00  0.00     0.064 A 
ATOM     85  C   UNL A   1      43.517  27.645  36.133  1.00  0.00     0.173 A 
ATOM     86  C   UNL A   1      45.074  29.120  35.042  1.00  0.00     0.173 A 
ATOM     87  F   UNL A   1      42.265  27.238  36.385  1.00  0.00    -0.203 F 
ATOM     88  C   UNL A   1      44.575  27.010  36.777  1.00  0.00     0.198 A 
ATOM     89  C   UNL A   1      46.131  28.464  35.667  1.00  0.00     0.198 A 
ATOM     90  F   UNL A   1      45.345  30.137  34.212  1.00  0.00    -0.203 F 
ATOM     91  F   UNL A   1      44.332  26.012  37.637  1.00  0.00    -0.200 F 
ATOM     92  C   UNL A   1      45.881  27.414  36.537  1.00  0.00     0.200 A 
ATOM     93  F   UNL A   1      47.392  28.849  35.426  1.00  0.00    -0.200 F 
ATOM     94  F   UNL A   1      46.899  26.794  37.150  1.00  0.00    -0.200 F 
ENDBRANCH  61  84
ENDBRANCH  35  36
ENDBRANCH  27  30
ENDBRANCH  25  26
ENDBRANCH  24  25
ENDBRANCH  23  24
ENDBRANCH   1  23
TORSDOF 18
ENDMDL
MODEL 2
REMARK VINA RESULT:     -11.2      0.567      2.116
REMARK SMILES CC[C@@H](C)CN(CC)C(=O)N1CC[C@@](CC)(C(=O)NCCCCNC(=O)c2ccc(-c3c4nc(c(-c5c(F)c(F)c(F)c(F)c5F)c5ccc([nH]5)c(-c5c(F)c(F)c(F)c(F)c5F)c5nc(c(-c6c(F)c(F)c(F)c(F)c6F)c6ccc3[nH]6)C=C5)C=C4)cc2)C1
REMARK SMILES IDX 20 1 19 2 17 3 18 4 14 6 11 7 12 8 90 9 13 10 9 11 10 12
REMARK SMILES IDX 6 13 5 14 3 15 4 16 2 17 1 18 7 19 8 20 15 21 16 22 21 23
REMARK SMILES IDX 22 24 23 25 24 26 25 27 26 29 27 30 28 31 89 32 29 33 88 34
REMARK SMILES IDX 30 35 31 36 32 37 82 38 33 39 87 40 81 41 83 42 34 43 86 44
REMARK SMILES IDX 80 45 79 46 35 48 67 49 47 50 66 51 48 52 51 53 65 54 84 55
REMARK SMILES IDX 49 56 50 57 64 59 85 60 52 61 36 62 37 63 45 64 38 65 39 66
REMARK SMILES IDX 43 67 46 68 40 69 41 70 44 71 42 72 68 73 69 74 77 75 70 76
REMARK SMILES IDX 71 77 75 78 78 79 72 80 73 81 76 82 74 83 53 84 54 85 62 86
REMARK SMILES IDX 55 87 56 88 60 89 63 90 57 91 58 92 61 93 59 94
REMARK H PARENT 19 5 24 28 83 47 51 58
REMARK Flexibility Score: inf
ROOT
ATOM      1  C   UNL A   1      33.391  29.431  26.658  1.00  0.00     0.116 C 
ENDROOT
BRANCH   1   2
ATOM      2  N   UNL A   1      33.618  29.490  25.229  1.00  0.00    -0.356 N 
ATOM      3  C   UNL A   1      33.238  28.683  24.201  1.00  0.00     0.228 C 
ATOM      4  O   UNL A   1      33.471  29.130  23.074  1.00  0.00    -0.274 OA
ATOM      5  H   UNL A   1      34.154  30.267  24.944  1.00  0.00     0.163 HD
BRANCH   3   6
ATOM      6  C   UNL A   1      32.499  27.347  24.404  1.00  0.00     0.068 C 
ATOM      7  N   UNL A   1      33.511  25.257  23.725  1.00  0.00    -0.324 N 
ATOM      8  C   UNL A   1      34.111  25.635  24.973  1.00  0.00     0.122 C 
ATOM      9  C   UNL A   1      32.814  26.414  23.181  1.00  0.00     0.138 C 
ATOM     10  C   UNL A   1      33.035  26.506  25.589  1.00  0.00     0.040 C 
BRANCH   7  11
ATOM     11  C   UNL A   1      33.864  24.228  22.891  1.00  0.00     0.320 C 
ATOM     12  O   UNL A   1      33.553  24.277  21.699  1.00  0.00    -0.248 OA
BRANCH  11  13
ATOM     13  N   UNL A   1      34.428  23.090  23.446  1.00  0.00    -0.325 N 
BRANCH  13  14
ATOM     14  C   UNL A   1      35.894  22.997  23.460  1.00  0.00     0.124 C 
BRANCH  14  15
ATOM     15  C   UNL A   1      36.470  22.604  24.850  1.00  0.00     0.005 C 
ATOM     16  C   UNL A   1      37.073  23.847  25.513  1.00  0.00     0.009 C 
BRANCH  15  17
ATOM     17  C   UNL A   1      37.502  21.459  24.731  1.00  0.00     0.002 C 
ATOM     18  C   UNL A   1      38.650  21.500  25.729  1.00  0.00     0.004 C 
ENDBRANCH  15  17
ENDBRANCH  14  15
ENDBRANCH  13  14
BRANCH  13  19
ATOM     19  C   UNL A   1      33.715  21.907  23.929  1.00  0.00     0.118 C 
ATOM     20  C   UNL A   1      32.915  22.229  25.190  1.00  0.00     0.027 C 
ENDBRANCH  13  19
ENDBRANCH  11  13
ENDBRANCH   7  11
BRANCH   6  21
ATOM     21  C   UNL A   1      30.961  27.564  24.414  1.00  0.00     0.015 C 
ATOM     22  C   UNL A   1      30.059  26.370  24.672  1.00  0.00     0.005 C 
ENDBRANCH   6  21
ENDBRANCH   3   6
ENDBRANCH   1   2
BRANCH   1  23
ATOM     23  C   UNL A   1      32.060  30.054  27.063  1.00  0.00     0.023 C 
BRANCH  23  24
ATOM     24  C   UNL A   1      31.934  31.544  26.757  1.00  0.00     0.023 C 
BRANCH  24  25
ATOM     25  C   UNL A   1      32.943  32.442  27.466  1.00  0.00     0.116 C 
BRANCH  25  26
ATOM     26  N   UNL A   1      32.476  33.808  27.662  1.00  0.00    -0.352 N 
ATOM     27  C   UNL A   1      32.974  34.772  28.504  1.00  0.00     0.251 C 
ATOM     28  H   UNL A   1      31.700  34.075  27.118  1.00  0.00     0.163 HD
ATOM     29  O   UNL A   1      32.421  35.862  28.611  1.00  0.00    -0.269 OA
BRANCH  27  30
ATOM     30  C   UNL A   1      34.159  34.454  29.321  1.00  0.00     0.039 A 
ATOM     31  C   UNL A   1      33.971  33.970  30.616  1.00  0.00     0.014 A 
ATOM     32  C   UNL A   1      35.437  34.538  28.766  1.00  0.00     0.014 A 
ATOM     33  C   UNL A   1      35.065  33.474  31.326  1.00  0.00     0.010 A 
ATOM     34  C   UNL A   1      36.512  33.977  29.444  1.00  0.00     0.010 A 
ATOM     35  C   UNL A   1      36.333  33.424  30.722  1.00  0.00    -0.014 A 
BRANCH  35  36
ATOM     36  C   UNL A   1      37.480  32.764  31.391  1.00  0.00     0.031 A 
ATOM     37  C   UNL A   1      38.140  31.578  30.751  1.00  0.00     0.074 A 
ATOM     38  C   UNL A   1      37.860  33.175  32.617  1.00  0.00     0.049 A 
ATOM     39  N   UNL A   1      39.080  30.799  31.226  1.00  0.00    -0.248 NA
ATOM     40  C   UNL A   1      37.659  31.196  29.415  1.00  0.00     0.031 C 
ATOM     41  C   UNL A   1      37.255  34.278  33.366  1.00  0.00     0.029 A 
ATOM     42  N   UNL A   1      38.833  32.698  33.458  1.00  0.00    -0.354 N 
ATOM     43  C   UNL A   1      39.283  29.826  30.258  1.00  0.00     0.074 A 
ATOM     44  C   UNL A   1      38.341  30.083  29.190  1.00  0.00     0.031 C 
ATOM     45  C   UNL A   1      37.880  34.403  34.548  1.00  0.00     0.029 A 
ATOM     46  C   UNL A   1      38.902  33.367  34.656  1.00  0.00     0.049 A 
ATOM     47  H   UNL A   1      39.426  31.947  33.226  1.00  0.00     0.167 HD
ATOM     48  C   UNL A   1      40.191  28.822  30.252  1.00  0.00     0.037 A 
ATOM     49  C   UNL A   1      39.693  33.161  35.726  1.00  0.00     0.037 A 
ATOM     50  C   UNL A   1      41.152  28.592  31.299  1.00  0.00     0.049 A 
ATOM     51  C   UNL A   1      40.701  32.044  35.688  1.00  0.00     0.074 A 
ATOM     52  C   UNL A   1      42.167  27.655  31.347  1.00  0.00     0.029 A 
ATOM     53  N   UNL A   1      41.212  29.311  32.483  1.00  0.00    -0.354 N 
ATOM     54  N   UNL A   1      40.939  31.178  34.733  1.00  0.00    -0.248 NA
ATOM     55  C   UNL A   1      41.551  31.879  36.875  1.00  0.00     0.031 C 
ATOM     56  C   UNL A   1      42.819  27.779  32.578  1.00  0.00     0.029 A 
ATOM     57  C   UNL A   1      42.234  28.821  33.280  1.00  0.00     0.049 A 
ATOM     58  H   UNL A   1      40.616  30.057  32.724  1.00  0.00     0.167 HD
ATOM     59  C   UNL A   1      41.977  30.379  35.194  1.00  0.00     0.074 A 
ATOM     60  C   UNL A   1      42.334  30.873  36.507  1.00  0.00     0.031 C 
ATOM     61  C   UNL A   1      42.578  29.330  34.582  1.00  0.00     0.037 A 
BRANCH  48  62
ATOM     62  C   UNL A   1      40.193  27.897  29.071  1.00  0.00     0.064 A 
ATOM     63  C   UNL A   1      40.916  28.197  27.906  1.00  0.00     0.173 A 
ATOM     64  C   UNL A   1      39.496  26.682  29.118  1.00  0.00     0.173 A 
ATOM     65  F   UNL A   1      41.588  29.354  27.808  1.00  0.00    -0.203 F 
ATOM     66  C   UNL A   1      40.916  27.325  26.821  1.00  0.00     0.198 A 
ATOM     67  C   UNL A   1      39.521  25.800  28.041  1.00  0.00     0.198 A 
ATOM     68  F   UNL A   1      38.792  26.346  30.211  1.00  0.00    -0.203 F 
ATOM     69  F   UNL A   1      41.575  27.654  25.701  1.00  0.00    -0.200 F 
ATOM     70  C   UNL A   1      40.225  26.125  26.891  1.00  0.00     0.200 A 
ATOM     71  F   UNL A   1      38.861  24.635  28.114  1.00  0.00    -0.200 F 
ATOM     72  F   UNL A   1      40.233  25.284  25.848  1.00  0.00    -0.200 F 
ENDBRANCH  48  62
BRANCH  49  73
ATOM     73  C   UNL A   1      39.579  34.042  36.916  1.00  0.00     0.064 A 
ATOM     74  C   UNL A   1      38.817  33.651  38.027  1.00  0.00     0.173 A 
ATOM     75  C   UNL A   1      40.223  35.285  36.971  1.00  0.00     0.173 A 
ATOM     76  F   UNL A   1      38.166  32.480  38.011  1.00  0.00    -0.203 F 
ATOM     77  C   UNL A   1      38.690  34.481  39.139  1.00  0.00     0.198 A 
ATOM     78  C   UNL A   1      40.116  36.103  38.094  1.00  0.00     0.198 A 
ATOM     79  F   UNL A   1      40.969  35.701  35.936  1.00  0.00    -0.203 F 
ATOM     80  F   UNL A   1      37.922  34.102  40.169  1.00  0.00    -0.200 F 
ATOM     81  C   UNL A   1      39.343  35.703  39.173  1.00  0.00     0.200 A 
ATOM     82  F   UNL A   1      40.759  37.278  38.129  1.00  0.00    -0.200 F 
ATOM     83  F   UNL A   1      39.223  36.499  40.245  1.00  0.00    -0.200 F 
ENDBRANCH  49  73
BRANCH  61  84
ATOM     84  C   UNL A   1      43.701  28.660  35.317  1.00  0.00     0.064 A 
ATOM     85  C   UNL A   1      45.035  29.045  35.122  1.00  0.00     0.173 A 
ATOM     86  C   UNL A   1      43.433  27.657  36.260  1.00  0.00     0.173 A 
ATOM     87  F   UNL A   1      45.340  29.987  34.217  1.00  0.00    -0.203 F 
ATOM     88  C   UNL A   1      46.065  28.435  35.834  1.00  0.00     0.198 A 
ATOM     89  C   UNL A   1      44.463  27.069  36.990  1.00  0.00     0.198 A 
ATOM     90  F   UNL A   1      42.173  27.259  36.486  1.00  0.00    -0.203 F 
ATOM     91  F   UNL A   1      47.336  28.790  35.606  1.00  0.00    -0.200 F 
ATOM     92  C   UNL A   1      45.777  27.455  36.773  1.00  0.00     0.200 A 
ATOM     93  F   UNL A   1      44.183  26.130  37.905  1.00  0.00    -0.200 F 
ATOM     94  F   UNL A   1      46.769  26.877  37.465  1.00  0.00    -0.200 F 
ENDBRANCH  61  84
ENDBRANCH  35  36
ENDBRANCH  27  30
ENDBRANCH  25  26
ENDBRANCH  24  25
ENDBRANCH  23  24
ENDBRANCH   1  23
TORSDOF 18
ENDMDL
MODEL 3
REMARK VINA RESULT:     -11.0      0.953      7.325
REMARK SMILES CC[C@@H](C)CN(CC)C(=O)N1CC[C@@](CC)(C(=O)NCCCCNC(=O)c2ccc(-c3c4nc(c(-c5c(F)c(F)c(F)c(F)c5F)c5ccc([nH]5)c(-c5c(F)c(F)c(F)c(F)c5F)c5nc(c(-c6c(F)c(F)c(F)c(F)c6F)c6ccc3[nH]6)C=C5)C=C4)cc2)C1
REMARK SMILES IDX 20 1 19 2 17 3 18 4 14 6 11 7 12 8 90 9 13 10 9 11 10 12
REMARK SMILES IDX 6 13 5 14 3 15 4 16 2 17 1 18 7 19 8 20 15 21 16 22 21 23
REMARK SMILES IDX 22 24 23 25 24 26 25 27 26 29 27 30 28 31 89 32 29 33 88 34
REMARK SMILES IDX 30 35 31 36 32 37 82 38 33 39 87 40 81 41 83 42 34 43 86 44
REMARK SMILES IDX 80 45 79 46 35 48 67 49 47 50 66 51 48 52 51 53 65 54 84 55
REMARK SMILES IDX 49 56 50 57 64 59 85 60 52 61 36 62 37 63 45 64 38 65 39 66
REMARK SMILES IDX 43 67 46 68 40 69 41 70 44 71 42 72 68 73 69 74 77 75 70 76
REMARK SMILES IDX 71 77 75 78 78 79 72 80 73 81 76 82 74 83 53 84 54 85 62 86
REMARK SMILES IDX 55 87 56 88 60 89 63 90 57 91 58 92 61 93 59 94
REMARK H PARENT 19 5 24 28 83 47 51 58
REMARK Flexibility Score: inf
ROOT
ATOM      1  C   UNL A   1      33.333  29.627  26.577  1.00  0.00     0.116 C 
ENDROOT
BRANCH   1   2
ATOM      2  N   UNL A   1      33.586  29.655  25.151  1.00  0.00    -0.356 N 
ATOM      3  C   UNL A   1      33.191  28.847  24.130  1.00  0.00     0.228 C 
ATOM      4  O   UNL A   1      33.460  29.267  23.001  1.00  0.00    -0.274 OA
ATOM      5  H   UNL A   1      34.155  30.406  24.864  1.00  0.00     0.163 HD
BRANCH   3   6
ATOM      6  C   UNL A   1      32.397  27.544  24.341  1.00  0.00     0.068 C 
ATOM      7  N   UNL A   1      33.331  25.408  23.695  1.00  0.00    -0.324 N 
ATOM      8  C   UNL A   1      33.934  25.775  24.945  1.00  0.00     0.122 C 
ATOM      9  C   UNL A   1      32.686  26.585  23.132  1.00  0.00     0.138 C 
ATOM     10  C   UNL A   1      32.887  26.696  25.540  1.00  0.00     0.040 C 
BRANCH   7  11
ATOM     11  C   UNL A   1      33.651  24.356  22.877  1.00  0.00     0.320 C 
ATOM     12  O   UNL A   1      33.612  24.503  21.654  1.00  0.00    -0.248 OA
BRANCH  11  13
ATOM     13  N   UNL A   1      33.860  23.110  23.450  1.00  0.00    -0.325 N 
BRANCH  13  14
ATOM     14  C   UNL A   1      35.240  22.609  23.496  1.00  0.00     0.124 C 
BRANCH  14  15
ATOM     15  C   UNL A   1      35.817  22.532  24.938  1.00  0.00     0.005 C 
ATOM     16  C   UNL A   1      36.954  23.550  25.078  1.00  0.00     0.009 C 
BRANCH  15  17
ATOM     17  C   UNL A   1      36.281  21.099  25.286  1.00  0.00     0.002 C 
ATOM     18  C   UNL A   1      37.746  20.796  25.009  1.00  0.00     0.004 C 
ENDBRANCH  15  17
ENDBRANCH  14  15
ENDBRANCH  13  14
BRANCH  13  19
ATOM     19  C   UNL A   1      32.834  22.182  23.924  1.00  0.00     0.118 C 
ATOM     20  C   UNL A   1      32.230  21.397  22.762  1.00  0.00     0.027 C 
ENDBRANCH  13  19
ENDBRANCH  11  13
ENDBRANCH   7  11
BRANCH   6  21
ATOM     21  C   UNL A   1      30.869  27.822  24.332  1.00  0.00     0.015 C 
ATOM     22  C   UNL A   1      29.914  26.645  24.426  1.00  0.00     0.005 C 
ENDBRANCH   6  21
ENDBRANCH   3   6
ENDBRANCH   1   2
BRANCH   1  23
ATOM     23  C   UNL A   1      31.955  30.174  26.937  1.00  0.00     0.023 C 
BRANCH  23  24
ATOM     24  C   UNL A   1      31.801  31.681  26.756  1.00  0.00     0.023 C 
BRANCH  24  25
ATOM     25  C   UNL A   1      32.936  32.525  27.326  1.00  0.00     0.116 C 
BRANCH  25  26
ATOM     26  N   UNL A   1      32.551  33.898  27.626  1.00  0.00    -0.352 N 
ATOM     27  C   UNL A   1      33.085  34.753  28.559  1.00  0.00     0.251 C 
ATOM     28  H   UNL A   1      31.811  34.261  27.089  1.00  0.00     0.163 HD
ATOM     29  O   UNL A   1      32.601  35.865  28.747  1.00  0.00    -0.269 OA
BRANCH  27  30
ATOM     30  C   UNL A   1      34.223  34.290  29.374  1.00  0.00     0.039 A 
ATOM     31  C   UNL A   1      33.966  33.534  30.519  1.00  0.00     0.014 A 
ATOM     32  C   UNL A   1      35.532  34.517  28.945  1.00  0.00     0.014 A 
ATOM     33  C   UNL A   1      35.026  32.918  31.184  1.00  0.00     0.010 A 
ATOM     34  C   UNL A   1      36.579  33.845  29.565  1.00  0.00     0.010 A 
ATOM     35  C   UNL A   1      36.333  33.025  30.678  1.00  0.00    -0.014 A 
BRANCH  35  36
ATOM     36  C   UNL A   1      37.455  32.260  31.273  1.00  0.00     0.031 A 
ATOM     37  C   UNL A   1      38.004  32.651  32.613  1.00  0.00     0.074 A 
ATOM     38  C   UNL A   1      38.039  31.276  30.560  1.00  0.00     0.049 A 
ATOM     39  N   UNL A   1      39.047  32.181  33.249  1.00  0.00    -0.248 NA
ATOM     40  C   UNL A   1      37.309  33.739  33.318  1.00  0.00     0.031 C 
ATOM     41  C   UNL A   1      37.632  30.844  29.221  1.00  0.00     0.029 A 
ATOM     42  N   UNL A   1      39.113  30.475  30.854  1.00  0.00    -0.354 N 
ATOM     43  C   UNL A   1      39.144  32.929  34.413  1.00  0.00     0.074 A 
ATOM     44  C   UNL A   1      38.084  33.913  34.377  1.00  0.00     0.031 C 
ATOM     45  C   UNL A   1      38.437  29.848  28.817  1.00  0.00     0.029 A 
ATOM     46  C   UNL A   1      39.437  29.596  29.849  1.00  0.00     0.049 A 
ATOM     47  H   UNL A   1      39.606  30.525  31.704  1.00  0.00     0.167 HD
ATOM     48  C   UNL A   1      40.026  32.791  35.431  1.00  0.00     0.037 A 
ATOM     49  C   UNL A   1      40.436  28.697  29.765  1.00  0.00     0.037 A 
ATOM     50  C   UNL A   1      41.055  31.786  35.481  1.00  0.00     0.049 A 
ATOM     51  C   UNL A   1      41.394  28.556  30.916  1.00  0.00     0.074 A 
ATOM     52  C   UNL A   1      41.942  31.510  36.505  1.00  0.00     0.029 A 
ATOM     53  N   UNL A   1      41.332  30.893  34.457  1.00  0.00    -0.354 N 
ATOM     54  N   UNL A   1      41.429  29.216  32.048  1.00  0.00    -0.248 NA
ATOM     55  C   UNL A   1      42.452  27.546  30.777  1.00  0.00     0.031 C 
ATOM     56  C   UNL A   1      42.784  30.475  36.086  1.00  0.00     0.029 A 
ATOM     57  C   UNL A   1      42.395  30.079  34.816  1.00  0.00     0.049 A 
ATOM     58  H   UNL A   1      40.848  30.844  33.601  1.00  0.00     0.167 HD
ATOM     59  C   UNL A   1      42.494  28.688  32.765  1.00  0.00     0.074 A 
ATOM     60  C   UNL A   1      43.071  27.643  31.946  1.00  0.00     0.031 C 
ATOM     61  C   UNL A   1      42.952  29.040  33.990  1.00  0.00     0.037 A 
BRANCH  48  62
ATOM     62  C   UNL A   1      39.910  33.746  36.582  1.00  0.00     0.064 A 
ATOM     63  C   UNL A   1      40.616  34.958  36.603  1.00  0.00     0.173 A 
ATOM     64  C   UNL A   1      39.057  33.463  37.658  1.00  0.00     0.173 A 
ATOM     65  F   UNL A   1      41.455  35.268  35.602  1.00  0.00    -0.203 F 
ATOM     66  C   UNL A   1      40.492  35.840  37.673  1.00  0.00     0.198 A 
ATOM     67  C   UNL A   1      38.915  34.359  38.714  1.00  0.00     0.198 A 
ATOM     68  F   UNL A   1      38.357  32.318  37.685  1.00  0.00    -0.203 F 
ATOM     69  F   UNL A   1      41.212  36.971  37.694  1.00  0.00    -0.200 F 
ATOM     70  C   UNL A   1      39.637  35.543  38.724  1.00  0.00     0.200 A 
ATOM     71  F   UNL A   1      38.080  34.077  39.724  1.00  0.00    -0.200 F 
ATOM     72  F   UNL A   1      39.514  36.397  39.750  1.00  0.00    -0.200 F 
ENDBRANCH  48  62
BRANCH  49  73
ATOM     73  C   UNL A   1      40.569  27.845  28.556  1.00  0.00     0.064 A 
ATOM     74  C   UNL A   1      41.331  28.272  27.458  1.00  0.00     0.173 A 
ATOM     75  C   UNL A   1      39.943  26.594  28.469  1.00  0.00     0.173 A 
ATOM     76  F   UNL A   1      41.931  29.470  27.487  1.00  0.00    -0.203 F 
ATOM     77  C   UNL A   1      41.445  27.486  26.314  1.00  0.00     0.198 A 
ATOM     78  C   UNL A   1      40.079  25.798  27.333  1.00  0.00     0.198 A 
ATOM     79  F   UNL A   1      39.208  26.138  29.495  1.00  0.00    -0.203 F 
ATOM     80  F   UNL A   1      42.145  27.936  25.263  1.00  0.00    -0.200 F 
ATOM     81  C   UNL A   1      40.823  26.249  26.254  1.00  0.00     0.200 A 
ATOM     82  F   UNL A   1      39.487  24.597  27.285  1.00  0.00    -0.200 F 
ATOM     83  F   UNL A   1      40.937  25.492  25.154  1.00  0.00    -0.200 F 
ENDBRANCH  49  73
BRANCH  61  84
ATOM     84  C   UNL A   1      44.121  28.273  34.532  1.00  0.00     0.064 A 
ATOM     85  C   UNL A   1      43.943  27.096  35.273  1.00  0.00     0.173 A 
ATOM     86  C   UNL A   1      45.432  28.693  34.264  1.00  0.00     0.173 A 
ATOM     87  F   UNL A   1      42.708  26.665  35.569  1.00  0.00    -0.203 F 
ATOM     88  C   UNL A   1      45.039  26.376  35.743  1.00  0.00     0.198 A 
ATOM     89  C   UNL A   1      46.525  27.956  34.712  1.00  0.00     0.198 A 
ATOM     90  F   UNL A   1      45.653  29.809  33.554  1.00  0.00    -0.203 F 
ATOM     91  F   UNL A   1      44.848  25.275  36.482  1.00  0.00    -0.200 F 
ATOM     92  C   UNL A   1      46.328  26.802  35.455  1.00  0.00     0.200 A 
ATOM     93  F   UNL A   1      47.769  28.363  34.423  1.00  0.00    -0.200 F 
ATOM     94  F   UNL A   1      47.381  26.102  35.899  1.00  0.00    -0.200 F 
ENDBRANCH  61  84
ENDBRANCH  35  36
ENDBRANCH  27  30
ENDBRANCH  25  26
ENDBRANCH  24  25
ENDBRANCH  23  24
ENDBRANCH   1  23
TORSDOF 18
ENDMDL
