MODEL 1
REMARK VINA RESULT:     -12.3      0.000      0.000
REMARK SMILES CCC[C@H](Cc1ccn(-c2ccccc2)n1)C(=O)NCCCCNC(=O)c1ccc(-c2c3nc(c(-c4c(F)c(F)c(F)c(F)c4F)c4ccc([nH]4)c(-c4c(F)c(F)c(F)c(F)c4F)c4nc(c(-c5c(F)c(F)c(F)c(F)c5F)c5ccc2[nH]5)C=C4)C=C3)cc1
REMARK SMILES IDX 21 1 20 2 19 3 17 4 18 5 4 7 3 8 2 9 1 10 5 11 6 12 7 13
REMARK SMILES IDX 16 14 8 15 9 16 10 17 11 18 15 19 12 20 14 21 13 22 22 23
REMARK SMILES IDX 23 24 24 25 25 26 26 28 27 29 28 30 89 31 29 32 88 33 30 34
REMARK SMILES IDX 31 35 32 36 82 37 33 38 87 39 81 40 83 41 34 42 86 43 80 44
REMARK SMILES IDX 79 45 35 47 67 48 47 49 66 50 48 51 51 52 65 53 84 54 49 55
REMARK SMILES IDX 50 56 64 58 85 59 52 60 36 61 37 62 45 63 38 64 39 65 43 66
REMARK SMILES IDX 46 67 40 68 41 69 44 70 42 71 68 72 69 73 77 74 70 75 71 76
REMARK SMILES IDX 75 77 78 78 72 79 73 80 76 81 74 82 53 83 54 84 62 85 55 86
REMARK SMILES IDX 56 87 60 88 63 89 57 90 58 91 61 92 59 93
REMARK H PARENT 19 6 24 27 83 46 51 57
REMARK Flexibility Score: inf
ROOT
ATOM      1  C   UNL A   1      32.900  27.667  26.765  1.00  0.00     0.023 C 
ENDROOT
BRANCH   1   2
ATOM      2  C   UNL A   1      31.701  27.054  26.031  1.00  0.00     0.116 C 
BRANCH   2   3
ATOM      3  N   UNL A   1      31.249  25.827  26.653  1.00  0.00    -0.356 N 
ATOM      4  C   UNL A   1      31.786  24.582  26.680  1.00  0.00     0.223 C 
ATOM      5  O   UNL A   1      31.123  23.713  27.258  1.00  0.00    -0.275 OA
ATOM      6  H   UNL A   1      30.401  25.912  27.145  1.00  0.00     0.163 HD
BRANCH   4   7
ATOM      7  C   UNL A   1      33.162  24.217  26.107  1.00  0.00     0.084 C 
BRANCH   7   8
ATOM      8  C   UNL A   1      33.103  23.834  24.615  1.00  0.00     0.013 C 
BRANCH   8   9
ATOM      9  C   UNL A   1      34.075  24.577  23.691  1.00  0.00    -0.003 C 
ATOM     10  C   UNL A   1      33.416  25.702  22.906  1.00  0.00     0.004 C 
ENDBRANCH   8   9
ENDBRANCH   7   8
BRANCH   7  11
ATOM     11  C   UNL A   1      34.004  23.288  27.021  1.00  0.00     0.071 C 
BRANCH  11  12
ATOM     12  C   UNL A   1      34.669  22.121  26.352  1.00  0.00     0.064 A 
ATOM     13  C   UNL A   1      35.985  22.026  25.839  1.00  0.00     0.046 A 
ATOM     14  N   UNL A   1      33.989  20.993  26.131  1.00  0.00    -0.173 NA
ATOM     15  C   UNL A   1      35.991  20.865  25.103  1.00  0.00     0.115 A 
ATOM     16  N   UNL A   1      34.773  20.271  25.305  1.00  0.00    -0.241 N 
BRANCH  16  17
ATOM     17  C   UNL A   1      34.228  19.221  24.550  1.00  0.00     0.065 A 
ATOM     18  C   UNL A   1      34.925  18.017  24.460  1.00  0.00     0.028 A 
ATOM     19  C   UNL A   1      32.983  19.393  23.933  1.00  0.00     0.028 A 
ATOM     20  C   UNL A   1      34.368  16.968  23.729  1.00  0.00     0.002 A 
ATOM     21  C   UNL A   1      32.438  18.339  23.206  1.00  0.00     0.002 A 
ATOM     22  C   UNL A   1      33.126  17.128  23.109  1.00  0.00     0.000 A 
ENDBRANCH  16  17
ENDBRANCH  11  12
ENDBRANCH   7  11
ENDBRANCH   4   7
ENDBRANCH   2   3
ENDBRANCH   1   2
BRANCH   1  23
ATOM     23  C   UNL A   1      33.615  28.811  26.038  1.00  0.00     0.023 C 
BRANCH  23  24
ATOM     24  C   UNL A   1      34.783  29.411  26.817  1.00  0.00     0.116 C 
BRANCH  24  25
ATOM     25  N   UNL A   1      34.559  30.793  27.242  1.00  0.00    -0.352 N 
ATOM     26  C   UNL A   1      35.055  31.426  28.369  1.00  0.00     0.251 C 
ATOM     27  H   UNL A   1      33.986  31.339  26.656  1.00  0.00     0.163 HD
ATOM     28  O   UNL A   1      34.515  32.405  28.853  1.00  0.00    -0.269 OA
BRANCH  26  29
ATOM     29  C   UNL A   1      36.281  30.884  28.984  1.00  0.00     0.039 A 
ATOM     30  C   UNL A   1      36.281  29.628  29.594  1.00  0.00     0.014 A 
ATOM     31  C   UNL A   1      37.452  31.631  28.883  1.00  0.00     0.014 A 
ATOM     32  C   UNL A   1      37.497  29.073  29.977  1.00  0.00     0.010 A 
ATOM     33  C   UNL A   1      38.662  31.035  29.140  1.00  0.00     0.010 A 
ATOM     34  C   UNL A   1      38.692  29.759  29.697  1.00  0.00    -0.014 A 
BRANCH  34  35
ATOM     35  C   UNL A   1      39.973  29.059  29.788  1.00  0.00     0.031 A 
ATOM     36  C   UNL A   1      40.467  28.879  31.189  1.00  0.00     0.074 A 
ATOM     37  C   UNL A   1      40.545  28.415  28.749  1.00  0.00     0.049 A 
ATOM     38  N   UNL A   1      41.537  29.371  31.720  1.00  0.00    -0.248 NA
ATOM     39  C   UNL A   1      39.596  28.184  32.154  1.00  0.00     0.031 C 
ATOM     40  C   UNL A   1      40.019  28.220  27.394  1.00  0.00     0.029 A 
ATOM     41  N   UNL A   1      41.701  27.696  28.722  1.00  0.00    -0.354 N 
ATOM     42  C   UNL A   1      41.575  28.903  33.034  1.00  0.00     0.074 A 
ATOM     43  C   UNL A   1      40.282  28.331  33.290  1.00  0.00     0.031 C 
ATOM     44  C   UNL A   1      40.724  27.251  26.768  1.00  0.00     0.029 A 
ATOM     45  C   UNL A   1      41.849  26.881  27.606  1.00  0.00     0.049 A 
ATOM     46  H   UNL A   1      42.377  27.749  29.435  1.00  0.00     0.167 HD
ATOM     47  C   UNL A   1      42.757  28.817  33.709  1.00  0.00     0.037 A 
ATOM     48  C   UNL A   1      42.811  25.946  27.406  1.00  0.00     0.037 A 
ATOM     49  C   UNL A   1      43.767  29.620  33.063  1.00  0.00     0.049 A 
ATOM     50  C   UNL A   1      43.926  26.258  28.334  1.00  0.00     0.074 A 
ATOM     51  C   UNL A   1      43.915  30.964  32.778  1.00  0.00     0.029 A 
ATOM     52  N   UNL A   1      44.678  28.974  32.265  1.00  0.00    -0.354 N 
ATOM     53  N   UNL A   1      44.674  27.321  28.234  1.00  0.00    -0.248 NA
ATOM     54  C   UNL A   1      43.899  25.633  29.647  1.00  0.00     0.031 C 
ATOM     55  C   UNL A   1      44.531  31.000  31.490  1.00  0.00     0.029 A 
ATOM     56  C   UNL A   1      44.789  29.686  31.102  1.00  0.00     0.049 A 
ATOM     57  H   UNL A   1      45.163  28.146  32.489  1.00  0.00     0.167 HD
ATOM     58  C   UNL A   1      44.848  27.751  29.540  1.00  0.00     0.074 A 
ATOM     59  C   UNL A   1      44.418  26.628  30.372  1.00  0.00     0.031 C 
ATOM     60  C   UNL A   1      45.043  29.072  29.821  1.00  0.00     0.037 A 
BRANCH  47  61
ATOM     61  C   UNL A   1      43.135  27.703  34.670  1.00  0.00     0.064 A 
ATOM     62  C   UNL A   1      43.415  28.043  36.013  1.00  0.00     0.173 A 
ATOM     63  C   UNL A   1      43.565  26.419  34.276  1.00  0.00     0.173 A 
ATOM     64  F   UNL A   1      43.032  29.226  36.516  1.00  0.00    -0.203 F 
ATOM     65  C   UNL A   1      44.198  27.229  36.837  1.00  0.00     0.198 A 
ATOM     66  C   UNL A   1      44.304  25.587  35.118  1.00  0.00     0.198 A 
ATOM     67  F   UNL A   1      43.388  25.946  33.039  1.00  0.00    -0.203 F 
ATOM     68  F   UNL A   1      44.574  27.672  38.044  1.00  0.00    -0.200 F 
ATOM     69  C   UNL A   1      44.659  26.011  36.380  1.00  0.00     0.200 A 
ATOM     70  F   UNL A   1      44.745  24.409  34.656  1.00  0.00    -0.200 F 
ATOM     71  F   UNL A   1      45.480  25.267  37.134  1.00  0.00    -0.200 F 
ENDBRANCH  47  61
BRANCH  48  72
ATOM     72  C   UNL A   1      42.702  24.641  26.711  1.00  0.00     0.064 A 
ATOM     73  C   UNL A   1      43.397  24.393  25.514  1.00  0.00     0.173 A 
ATOM     74  C   UNL A   1      42.148  23.517  27.354  1.00  0.00     0.173 A 
ATOM     75  F   UNL A   1      43.994  25.401  24.862  1.00  0.00    -0.203 F 
ATOM     76  C   UNL A   1      43.550  23.097  25.008  1.00  0.00     0.198 A 
ATOM     77  C   UNL A   1      42.297  22.225  26.845  1.00  0.00     0.198 A 
ATOM     78  F   UNL A   1      41.535  23.639  28.540  1.00  0.00    -0.203 F 
ATOM     79  F   UNL A   1      44.273  22.894  23.897  1.00  0.00    -0.200 F 
ATOM     80  C   UNL A   1      43.011  22.014  25.681  1.00  0.00     0.200 A 
ATOM     81  F   UNL A   1      41.803  21.182  27.527  1.00  0.00    -0.200 F 
ATOM     82  F   UNL A   1      43.212  20.767  25.232  1.00  0.00    -0.200 F 
ENDBRANCH  48  72
BRANCH  60  83
ATOM     83  C   UNL A   1      45.331  30.000  28.675  1.00  0.00     0.064 A 
ATOM     84  C   UNL A   1      44.343  30.667  27.930  1.00  0.00     0.173 A 
ATOM     85  C   UNL A   1      46.667  30.339  28.424  1.00  0.00     0.173 A 
ATOM     86  F   UNL A   1      43.042  30.472  28.176  1.00  0.00    -0.203 F 
ATOM     87  C   UNL A   1      44.683  31.598  26.950  1.00  0.00     0.198 A 
ATOM     88  C   UNL A   1      47.002  31.297  27.471  1.00  0.00     0.198 A 
ATOM     89  F   UNL A   1      47.649  29.776  29.144  1.00  0.00    -0.203 F 
ATOM     90  F   UNL A   1      43.722  32.213  26.244  1.00  0.00    -0.200 F 
ATOM     91  C   UNL A   1      46.012  31.917  26.728  1.00  0.00     0.200 A 
ATOM     92  F   UNL A   1      48.285  31.638  27.296  1.00  0.00    -0.200 F 
ATOM     93  F   UNL A   1      46.338  32.844  25.815  1.00  0.00    -0.200 F 
ENDBRANCH  60  83
ENDBRANCH  34  35
ENDBRANCH  26  29
ENDBRANCH  24  25
ENDBRANCH  23  24
ENDBRANCH   1  23
TORSDOF 16
ENDMDL
MODEL 2
REMARK VINA RESULT:     -12.2      3.374      9.049
REMARK SMILES CCC[C@H](Cc1ccn(-c2ccccc2)n1)C(=O)NCCCCNC(=O)c1ccc(-c2c3nc(c(-c4c(F)c(F)c(F)c(F)c4F)c4ccc([nH]4)c(-c4c(F)c(F)c(F)c(F)c4F)c4nc(c(-c5c(F)c(F)c(F)c(F)c5F)c5ccc2[nH]5)C=C4)C=C3)cc1
REMARK SMILES IDX 21 1 20 2 19 3 17 4 18 5 4 7 3 8 2 9 1 10 5 11 6 12 7 13
REMARK SMILES IDX 16 14 8 15 9 16 10 17 11 18 15 19 12 20 14 21 13 22 22 23
REMARK SMILES IDX 23 24 24 25 25 26 26 28 27 29 28 30 89 31 29 32 88 33 30 34
REMARK SMILES IDX 31 35 32 36 82 37 33 38 87 39 81 40 83 41 34 42 86 43 80 44
REMARK SMILES IDX 79 45 35 47 67 48 47 49 66 50 48 51 51 52 65 53 84 54 49 55
REMARK SMILES IDX 50 56 64 58 85 59 52 60 36 61 37 62 45 63 38 64 39 65 43 66
REMARK SMILES IDX 46 67 40 68 41 69 44 70 42 71 68 72 69 73 77 74 70 75 71 76
REMARK SMILES IDX 75 77 78 78 72 79 73 80 76 81 74 82 53 83 54 84 62 85 55 86
REMARK SMILES IDX 56 87 60 88 63 89 57 90 58 91 61 92 59 93
REMARK H PARENT 19 6 24 27 83 46 51 57
REMARK Flexibility Score: inf
ROOT
ATOM      1  C   UNL A   1      35.547  21.974  26.137  1.00  0.00     0.023 C 
ENDROOT
BRANCH   1   2
ATOM      2  C   UNL A   1      34.131  21.835  25.564  1.00  0.00     0.116 C 
BRANCH   2   3
ATOM      3  N   UNL A   1      33.113  22.184  26.533  1.00  0.00    -0.356 N 
ATOM      4  C   UNL A   1      32.299  23.265  26.633  1.00  0.00     0.223 C 
ATOM      5  O   UNL A   1      31.562  23.304  27.624  1.00  0.00    -0.275 OA
ATOM      6  H   UNL A   1      32.990  21.519  27.247  1.00  0.00     0.163 HD
BRANCH   4   7
ATOM      7  C   UNL A   1      32.200  24.378  25.581  1.00  0.00     0.084 C 
BRANCH   7   8
ATOM      8  C   UNL A   1      32.616  25.757  26.130  1.00  0.00     0.013 C 
BRANCH   8   9
ATOM      9  C   UNL A   1      33.863  26.386  25.496  1.00  0.00    -0.003 C 
ATOM     10  C   UNL A   1      33.647  27.822  25.044  1.00  0.00     0.004 C 
ENDBRANCH   8   9
ENDBRANCH   7   8
BRANCH   7  11
ATOM     11  C   UNL A   1      30.898  24.339  24.738  1.00  0.00     0.071 C 
BRANCH  11  12
ATOM     12  C   UNL A   1      30.705  25.462  23.761  1.00  0.00     0.064 A 
ATOM     13  C   UNL A   1      31.520  25.833  22.665  1.00  0.00     0.046 A 
ATOM     14  N   UNL A   1      29.673  26.301  23.893  1.00  0.00    -0.173 NA
ATOM     15  C   UNL A   1      31.049  27.065  22.279  1.00  0.00     0.115 A 
ATOM     16  N   UNL A   1      29.937  27.311  23.041  1.00  0.00    -0.241 N 
BRANCH  16  17
ATOM     17  C   UNL A   1      29.293  28.549  23.190  1.00  0.00     0.065 A 
ATOM     18  C   UNL A   1      30.052  29.678  23.493  1.00  0.00     0.028 A 
ATOM     19  C   UNL A   1      27.908  28.629  22.999  1.00  0.00     0.028 A 
ATOM     20  C   UNL A   1      29.411  30.910  23.616  1.00  0.00     0.002 A 
ATOM     21  C   UNL A   1      27.279  29.865  23.125  1.00  0.00     0.002 A 
ATOM     22  C   UNL A   1      28.030  31.003  23.427  1.00  0.00     0.000 A 
ENDBRANCH  16  17
ENDBRANCH  11  12
ENDBRANCH   7  11
ENDBRANCH   4   7
ENDBRANCH   2   3
ENDBRANCH   1   2
BRANCH   1  23
ATOM     23  C   UNL A   1      36.159  23.377  26.072  1.00  0.00     0.023 C 
BRANCH  23  24
ATOM     24  C   UNL A   1      37.643  23.393  25.715  1.00  0.00     0.116 C 
BRANCH  24  25
ATOM     25  N   UNL A   1      38.445  22.444  26.487  1.00  0.00    -0.352 N 
ATOM     26  C   UNL A   1      39.721  22.626  26.993  1.00  0.00     0.251 C 
ATOM     27  H   UNL A   1      38.028  21.571  26.669  1.00  0.00     0.163 HD
ATOM     28  O   UNL A   1      40.454  21.688  27.254  1.00  0.00    -0.269 OA
BRANCH  26  29
ATOM     29  C   UNL A   1      40.186  24.006  27.220  1.00  0.00     0.039 A 
ATOM     30  C   UNL A   1      39.654  25.070  26.490  1.00  0.00     0.014 A 
ATOM     31  C   UNL A   1      41.124  24.226  28.227  1.00  0.00     0.014 A 
ATOM     32  C   UNL A   1      39.970  26.369  26.876  1.00  0.00     0.010 A 
ATOM     33  C   UNL A   1      41.336  25.502  28.690  1.00  0.00     0.010 A 
ATOM     34  C   UNL A   1      40.770  26.579  28.013  1.00  0.00    -0.014 A 
BRANCH  34  35
ATOM     35  C   UNL A   1      40.840  27.908  28.619  1.00  0.00     0.031 A 
ATOM     36  C   UNL A   1      41.914  28.779  28.048  1.00  0.00     0.074 A 
ATOM     37  C   UNL A   1      39.886  28.406  29.434  1.00  0.00     0.049 A 
ATOM     38  N   UNL A   1      42.951  29.257  28.654  1.00  0.00    -0.248 NA
ATOM     39  C   UNL A   1      41.911  29.034  26.596  1.00  0.00     0.031 C 
ATOM     40  C   UNL A   1      38.609  27.799  29.823  1.00  0.00     0.029 A 
ATOM     41  N   UNL A   1      39.817  29.634  30.017  1.00  0.00    -0.354 N 
ATOM     42  C   UNL A   1      43.638  30.023  27.712  1.00  0.00     0.074 A 
ATOM     43  C   UNL A   1      43.052  29.707  26.438  1.00  0.00     0.031 C 
ATOM     44  C   UNL A   1      37.805  28.740  30.365  1.00  0.00     0.029 A 
ATOM     45  C   UNL A   1      38.564  29.966  30.520  1.00  0.00     0.049 A 
ATOM     46  H   UNL A   1      40.592  30.238  30.078  1.00  0.00     0.167 HD
ATOM     47  C   UNL A   1      44.469  31.030  28.107  1.00  0.00     0.037 A 
ATOM     48  C   UNL A   1      38.176  31.176  30.996  1.00  0.00     0.037 A 
ATOM     49  C   UNL A   1      44.816  30.884  29.499  1.00  0.00     0.049 A 
ATOM     50  C   UNL A   1      39.408  31.933  31.327  1.00  0.00     0.074 A 
ATOM     51  C   UNL A   1      45.465  29.922  30.250  1.00  0.00     0.029 A 
ATOM     52  N   UNL A   1      44.148  31.668  30.407  1.00  0.00    -0.354 N 
ATOM     53  N   UNL A   1      40.221  31.605  32.291  1.00  0.00    -0.248 NA
ATOM     54  C   UNL A   1      39.979  32.772  30.284  1.00  0.00     0.031 C 
ATOM     55  C   UNL A   1      44.754  29.881  31.488  1.00  0.00     0.029 A 
ATOM     56  C   UNL A   1      43.767  30.866  31.447  1.00  0.00     0.049 A 
ATOM     57  H   UNL A   1      43.975  32.634  30.323  1.00  0.00     0.167 HD
ATOM     58  C   UNL A   1      41.488  31.809  31.766  1.00  0.00     0.074 A 
ATOM     59  C   UNL A   1      41.276  32.605  30.558  1.00  0.00     0.031 C 
ATOM     60  C   UNL A   1      42.551  31.069  32.196  1.00  0.00     0.037 A 
BRANCH  47  61
ATOM     61  C   UNL A   1      44.624  32.364  27.395  1.00  0.00     0.064 A 
ATOM     62  C   UNL A   1      45.791  32.582  26.628  1.00  0.00     0.173 A 
ATOM     63  C   UNL A   1      43.884  33.524  27.701  1.00  0.00     0.173 A 
ATOM     64  F   UNL A   1      46.565  31.554  26.248  1.00  0.00    -0.203 F 
ATOM     65  C   UNL A   1      46.256  33.867  26.334  1.00  0.00     0.198 A 
ATOM     66  C   UNL A   1      44.326  34.803  27.363  1.00  0.00     0.198 A 
ATOM     67  F   UNL A   1      42.762  33.495  28.426  1.00  0.00    -0.203 F 
ATOM     68  F   UNL A   1      47.452  34.022  25.749  1.00  0.00    -0.200 F 
ATOM     69  C   UNL A   1      45.533  34.977  26.720  1.00  0.00     0.200 A 
ATOM     70  F   UNL A   1      43.612  35.870  27.749  1.00  0.00    -0.200 F 
ATOM     71  F   UNL A   1      46.016  36.210  26.517  1.00  0.00    -0.200 F 
ENDBRANCH  47  61
BRANCH  48  72
ATOM     72  C   UNL A   1      36.850  31.830  30.886  1.00  0.00     0.064 A 
ATOM     73  C   UNL A   1      36.042  32.032  32.019  1.00  0.00     0.173 A 
ATOM     74  C   UNL A   1      36.476  32.527  29.721  1.00  0.00     0.173 A 
ATOM     75  F   UNL A   1      36.354  31.442  33.181  1.00  0.00    -0.203 F 
ATOM     76  C   UNL A   1      34.944  32.899  31.993  1.00  0.00     0.198 A 
ATOM     77  C   UNL A   1      35.377  33.389  29.695  1.00  0.00     0.198 A 
ATOM     78  F   UNL A   1      37.227  32.463  28.612  1.00  0.00    -0.203 F 
ATOM     79  F   UNL A   1      34.234  33.114  33.110  1.00  0.00    -0.200 F 
ATOM     80  C   UNL A   1      34.620  33.586  30.835  1.00  0.00     0.200 A 
ATOM     81  F   UNL A   1      35.099  34.076  28.578  1.00  0.00    -0.200 F 
ATOM     82  F   UNL A   1      33.609  34.466  30.827  1.00  0.00    -0.200 F 
ENDBRANCH  48  72
BRANCH  60  83
ATOM     83  C   UNL A   1      42.369  30.227  33.427  1.00  0.00     0.064 A 
ATOM     84  C   UNL A   1      42.454  30.719  34.742  1.00  0.00     0.173 A 
ATOM     85  C   UNL A   1      41.946  28.902  33.260  1.00  0.00     0.173 A 
ATOM     86  F   UNL A   1      42.756  32.000  34.982  1.00  0.00    -0.203 F 
ATOM     87  C   UNL A   1      42.168  29.906  35.837  1.00  0.00     0.198 A 
ATOM     88  C   UNL A   1      41.625  28.103  34.354  1.00  0.00     0.198 A 
ATOM     89  F   UNL A   1      41.794  28.397  32.027  1.00  0.00    -0.203 F 
ATOM     90  F   UNL A   1      42.266  30.395  37.082  1.00  0.00    -0.200 F 
ATOM     91  C   UNL A   1      41.746  28.602  35.640  1.00  0.00     0.200 A 
ATOM     92  F   UNL A   1      41.169  26.860  34.156  1.00  0.00    -0.200 F 
ATOM     93  F   UNL A   1      41.429  27.831  36.691  1.00  0.00    -0.200 F 
ENDBRANCH  60  83
ENDBRANCH  34  35
ENDBRANCH  26  29
ENDBRANCH  24  25
ENDBRANCH  23  24
ENDBRANCH   1  23
TORSDOF 16
ENDMDL
MODEL 3
REMARK VINA RESULT:     -12.1      1.029      2.010
REMARK SMILES CCC[C@H](Cc1ccn(-c2ccccc2)n1)C(=O)NCCCCNC(=O)c1ccc(-c2c3nc(c(-c4c(F)c(F)c(F)c(F)c4F)c4ccc([nH]4)c(-c4c(F)c(F)c(F)c(F)c4F)c4nc(c(-c5c(F)c(F)c(F)c(F)c5F)c5ccc2[nH]5)C=C4)C=C3)cc1
REMARK SMILES IDX 21 1 20 2 19 3 17 4 18 5 4 7 3 8 2 9 1 10 5 11 6 12 7 13
REMARK SMILES IDX 16 14 8 15 9 16 10 17 11 18 15 19 12 20 14 21 13 22 22 23
REMARK SMILES IDX 23 24 24 25 25 26 26 28 27 29 28 30 89 31 29 32 88 33 30 34
REMARK SMILES IDX 31 35 32 36 82 37 33 38 87 39 81 40 83 41 34 42 86 43 80 44
REMARK SMILES IDX 79 45 35 47 67 48 47 49 66 50 48 51 51 52 65 53 84 54 49 55
REMARK SMILES IDX 50 56 64 58 85 59 52 60 36 61 37 62 45 63 38 64 39 65 43 66
REMARK SMILES IDX 46 67 40 68 41 69 44 70 42 71 68 72 69 73 77 74 70 75 71 76
REMARK SMILES IDX 75 77 78 78 72 79 73 80 76 81 74 82 53 83 54 84 62 85 55 86
REMARK SMILES IDX 56 87 60 88 63 89 57 90 58 91 61 92 59 93
REMARK H PARENT 19 6 24 27 83 46 51 57
REMARK Flexibility Score: inf
ROOT
ATOM      1  C   UNL A   1      32.979  27.680  26.018  1.00  0.00     0.023 C 
ENDROOT
BRANCH   1   2
ATOM      2  C   UNL A   1      33.237  26.171  26.122  1.00  0.00     0.116 C 
BRANCH   2   3
ATOM      3  N   UNL A   1      32.082  25.453  26.620  1.00  0.00    -0.356 N 
ATOM      4  C   UNL A   1      31.226  24.594  26.011  1.00  0.00     0.223 C 
ATOM      5  O   UNL A   1      30.285  24.182  26.700  1.00  0.00    -0.275 OA
ATOM      6  H   UNL A   1      31.882  25.617  27.569  1.00  0.00     0.163 HD
BRANCH   4   7
ATOM      7  C   UNL A   1      31.392  24.072  24.578  1.00  0.00     0.084 C 
BRANCH   7   8
ATOM      8  C   UNL A   1      30.504  24.820  23.564  1.00  0.00     0.013 C 
BRANCH   8   9
ATOM      9  C   UNL A   1      30.392  26.337  23.758  1.00  0.00    -0.003 C 
ATOM     10  C   UNL A   1      31.014  27.135  22.621  1.00  0.00     0.004 C 
ENDBRANCH   8   9
ENDBRANCH   7   8
BRANCH   7  11
ATOM     11  C   UNL A   1      31.409  22.524  24.465  1.00  0.00     0.071 C 
BRANCH  11  12
ATOM     12  C   UNL A   1      32.756  21.867  24.534  1.00  0.00     0.064 A 
ATOM     13  C   UNL A   1      33.066  20.497  24.704  1.00  0.00     0.046 A 
ATOM     14  N   UNL A   1      33.869  22.605  24.478  1.00  0.00    -0.173 NA
ATOM     15  C   UNL A   1      34.415  20.473  24.969  1.00  0.00     0.115 A 
ATOM     16  N   UNL A   1      34.862  21.760  24.822  1.00  0.00    -0.241 N 
BRANCH  16  17
ATOM     17  C   UNL A   1      36.099  22.261  25.254  1.00  0.00     0.065 A 
ATOM     18  C   UNL A   1      36.188  23.591  25.663  1.00  0.00     0.028 A 
ATOM     19  C   UNL A   1      37.208  21.408  25.298  1.00  0.00     0.028 A 
ATOM     20  C   UNL A   1      37.415  24.078  26.115  1.00  0.00     0.002 A 
ATOM     21  C   UNL A   1      38.427  21.905  25.751  1.00  0.00     0.002 A 
ATOM     22  C   UNL A   1      38.528  23.236  26.163  1.00  0.00     0.000 A 
ENDBRANCH  16  17
ENDBRANCH  11  12
ENDBRANCH   7  11
ENDBRANCH   4   7
ENDBRANCH   2   3
ENDBRANCH   1   2
BRANCH   1  23
ATOM     23  C   UNL A   1      33.478  28.526  27.194  1.00  0.00     0.023 C 
BRANCH  23  24
ATOM     24  C   UNL A   1      34.694  29.388  26.869  1.00  0.00     0.116 C 
BRANCH  24  25
ATOM     25  N   UNL A   1      34.536  30.794  27.243  1.00  0.00    -0.352 N 
ATOM     26  C   UNL A   1      35.076  31.448  28.337  1.00  0.00     0.251 C 
ATOM     27  H   UNL A   1      33.978  31.341  26.643  1.00  0.00     0.163 HD
ATOM     28  O   UNL A   1      34.585  32.468  28.789  1.00  0.00    -0.269 OA
BRANCH  26  29
ATOM     29  C   UNL A   1      36.287  30.878  28.956  1.00  0.00     0.039 A 
ATOM     30  C   UNL A   1      36.265  29.608  29.535  1.00  0.00     0.014 A 
ATOM     31  C   UNL A   1      37.468  31.615  28.889  1.00  0.00     0.014 A 
ATOM     32  C   UNL A   1      37.469  29.031  29.922  1.00  0.00     0.010 A 
ATOM     33  C   UNL A   1      38.667  30.999  29.150  1.00  0.00     0.010 A 
ATOM     34  C   UNL A   1      38.676  29.711  29.676  1.00  0.00    -0.014 A 
BRANCH  34  35
ATOM     35  C   UNL A   1      39.947  28.995  29.768  1.00  0.00     0.031 A 
ATOM     36  C   UNL A   1      40.443  28.818  31.169  1.00  0.00     0.074 A 
ATOM     37  C   UNL A   1      40.508  28.336  28.732  1.00  0.00     0.049 A 
ATOM     38  N   UNL A   1      41.522  29.300  31.693  1.00  0.00    -0.248 NA
ATOM     39  C   UNL A   1      39.566  28.142  32.141  1.00  0.00     0.031 C 
ATOM     40  C   UNL A   1      39.976  28.138  27.380  1.00  0.00     0.029 A 
ATOM     41  N   UNL A   1      41.654  27.602  28.707  1.00  0.00    -0.354 N 
ATOM     42  C   UNL A   1      41.558  28.841  33.011  1.00  0.00     0.074 A 
ATOM     43  C   UNL A   1      40.257  28.287  33.274  1.00  0.00     0.031 C 
ATOM     44  C   UNL A   1      40.666  27.156  26.759  1.00  0.00     0.029 A 
ATOM     45  C   UNL A   1      41.788  26.777  27.596  1.00  0.00     0.049 A 
ATOM     46  H   UNL A   1      42.333  27.651  29.417  1.00  0.00     0.167 HD
ATOM     47  C   UNL A   1      42.740  28.745  33.682  1.00  0.00     0.037 A 
ATOM     48  C   UNL A   1      42.738  25.828  27.400  1.00  0.00     0.037 A 
ATOM     49  C   UNL A   1      43.759  29.530  33.028  1.00  0.00     0.049 A 
ATOM     50  C   UNL A   1      43.859  26.133  28.323  1.00  0.00     0.074 A 
ATOM     51  C   UNL A   1      43.923  30.870  32.733  1.00  0.00     0.029 A 
ATOM     52  N   UNL A   1      44.659  28.866  32.231  1.00  0.00    -0.354 N 
ATOM     53  N   UNL A   1      44.621  27.185  28.212  1.00  0.00    -0.248 NA
ATOM     54  C   UNL A   1      43.828  25.517  29.641  1.00  0.00     0.031 C 
ATOM     55  C   UNL A   1      44.535  30.889  31.443  1.00  0.00     0.029 A 
ATOM     56  C   UNL A   1      44.775  29.568  31.064  1.00  0.00     0.049 A 
ATOM     57  H   UNL A   1      45.133  28.034  32.460  1.00  0.00     0.167 HD
ATOM     58  C   UNL A   1      44.805  27.622  29.515  1.00  0.00     0.074 A 
ATOM     59  C   UNL A   1      44.362  26.511  30.356  1.00  0.00     0.031 C 
ATOM     60  C   UNL A   1      45.018  28.942  29.787  1.00  0.00     0.037 A 
BRANCH  47  61
ATOM     61  C   UNL A   1      43.106  27.632  34.650  1.00  0.00     0.064 A 
ATOM     62  C   UNL A   1      43.376  27.976  35.994  1.00  0.00     0.173 A 
ATOM     63  C   UNL A   1      43.535  26.346  34.264  1.00  0.00     0.173 A 
ATOM     64  F   UNL A   1      42.993  29.162  36.491  1.00  0.00    -0.203 F 
ATOM     65  C   UNL A   1      44.149  27.162  36.828  1.00  0.00     0.198 A 
ATOM     66  C   UNL A   1      44.265  25.515  35.115  1.00  0.00     0.198 A 
ATOM     67  F   UNL A   1      43.368  25.870  33.027  1.00  0.00    -0.203 F 
ATOM     68  F   UNL A   1      44.516  27.608  38.037  1.00  0.00    -0.200 F 
ATOM     69  C   UNL A   1      44.611  25.942  36.379  1.00  0.00     0.200 A 
ATOM     70  F   UNL A   1      44.706  24.334  34.661  1.00  0.00    -0.200 F 
ATOM     71  F   UNL A   1      45.423  25.197  37.142  1.00  0.00    -0.200 F 
ENDBRANCH  47  61
BRANCH  48  72
ATOM     72  C   UNL A   1      42.610  24.520  26.714  1.00  0.00     0.064 A 
ATOM     73  C   UNL A   1      43.392  24.208  25.588  1.00  0.00     0.173 A 
ATOM     74  C   UNL A   1      41.932  23.444  27.319  1.00  0.00     0.173 A 
ATOM     75  F   UNL A   1      44.107  25.166  24.980  1.00  0.00    -0.203 F 
ATOM     76  C   UNL A   1      43.508  22.896  25.115  1.00  0.00     0.198 A 
ATOM     77  C   UNL A   1      42.045  22.136  26.843  1.00  0.00     0.198 A 
ATOM     78  F   UNL A   1      41.224  23.624  28.444  1.00  0.00    -0.203 F 
ATOM     79  F   UNL A   1      44.314  22.629  24.076  1.00  0.00    -0.200 F 
ATOM     80  C   UNL A   1      42.845  21.861  25.750  1.00  0.00     0.200 A 
ATOM     81  F   UNL A   1      41.427  21.138  27.490  1.00  0.00    -0.200 F 
ATOM     82  F   UNL A   1      43.007  20.596  25.337  1.00  0.00    -0.200 F 
ENDBRANCH  48  72
BRANCH  60  83
ATOM     83  C   UNL A   1      45.314  29.859  28.633  1.00  0.00     0.064 A 
ATOM     84  C   UNL A   1      44.333  30.540  27.892  1.00  0.00     0.173 A 
ATOM     85  C   UNL A   1      46.654  30.171  28.370  1.00  0.00     0.173 A 
ATOM     86  F   UNL A   1      43.031  30.372  28.149  1.00  0.00    -0.203 F 
ATOM     87  C   UNL A   1      44.682  31.459  26.904  1.00  0.00     0.198 A 
ATOM     88  C   UNL A   1      47.000  31.116  27.409  1.00  0.00     0.198 A 
ATOM     89  F   UNL A   1      47.631  29.592  29.085  1.00  0.00    -0.203 F 
ATOM     90  F   UNL A   1      43.728  32.089  26.203  1.00  0.00    -0.200 F 
ATOM     91  C   UNL A   1      46.016  31.751  26.670  1.00  0.00     0.200 A 
ATOM     92  F   UNL A   1      48.288  31.432  27.222  1.00  0.00    -0.200 F 
ATOM     93  F   UNL A   1      46.353  32.667  25.750  1.00  0.00    -0.200 F 
ENDBRANCH  60  83
ENDBRANCH  34  35
ENDBRANCH  26  29
ENDBRANCH  24  25
ENDBRANCH  23  24
ENDBRANCH   1  23
TORSDOF 16
ENDMDL
