MODEL 1
REMARK VINA RESULT:     -11.5      0.000      0.000
REMARK SMILES C[NH2+][C@@]1(C(=O)NCCCCNC(=O)c2ccc(-c3c4nc(c(-c5c(F)c(F)c(F)c(F)c5F)c5ccc([nH]5)c(-c5c(F)c(F)c(F)c(F)c5F)c5nc(c(-c6c(F)c(F)c(F)c(F)c6F)c6ccc3[nH]6)C=C5)C=C4)cc2)CC[C@H](SC(C)C)C1
REMARK SMILES IDX 8 1 7 2 6 3 4 4 5 5 3 7 77 8 84 9 78 10 79 11 2 12 1 13
REMARK SMILES IDX 80 16 81 17 82 18 83 19 9 20 10 21 11 22 12 23 13 25 14 26
REMARK SMILES IDX 15 27 76 28 16 29 75 30 17 31 18 32 19 33 69 34 20 35 74 36
REMARK SMILES IDX 68 37 70 38 21 39 73 40 67 41 66 42 22 44 54 45 34 46 53 47
REMARK SMILES IDX 35 48 38 49 52 50 71 51 36 52 37 53 51 55 72 56 39 57 23 58
REMARK SMILES IDX 24 59 32 60 25 61 26 62 30 63 33 64 27 65 28 66 31 67 29 68
REMARK SMILES IDX 55 69 56 70 64 71 57 72 58 73 62 74 65 75 59 76 60 77 63 78
REMARK SMILES IDX 61 79 40 80 41 81 49 82 42 83 43 84 47 85 50 86 44 87 45 88
REMARK SMILES IDX 48 89 46 90
REMARK H PARENT 6 6 2 14 2 15 11 24 70 43 38 54
REMARK Flexibility Score: inf
ROOT
ATOM      1  C   UNL A   1      32.190  29.891  27.108  1.00  0.00     0.023 C 
ENDROOT
BRANCH   1   2
ATOM      2  C   UNL A   1      33.429  29.018  26.950  1.00  0.00     0.116 C 
BRANCH   2   3
ATOM      3  N   UNL A   1      33.941  28.985  25.607  1.00  0.00    -0.351 N 
ATOM      4  C   UNL A   1      33.539  28.326  24.485  1.00  0.00     0.281 C 
ATOM      5  O   UNL A   1      34.300  28.512  23.524  1.00  0.00    -0.268 OA
ATOM      6  H   UNL A   1      34.737  29.548  25.473  1.00  0.00     0.163 HD
BRANCH   4   7
ATOM      7  C   UNL A   1      32.232  27.403  24.377  1.00  0.00     0.176 C 
ATOM      8  C   UNL A   1      32.163  26.483  23.150  1.00  0.00     0.080 C 
ATOM      9  C   UNL A   1      30.944  28.256  24.300  1.00  0.00     0.093 C 
ATOM     10  C   UNL A   1      31.202  27.107  22.144  1.00  0.00     0.022 C 
ATOM     11  C   UNL A   1      30.241  27.986  22.939  1.00  0.00     0.054 C 
BRANCH   7  12
ATOM     12  N   UNL A   1      32.144  26.581  25.626  1.00  0.00    -0.336 N 
ATOM     13  C   UNL A   1      30.792  26.341  26.127  1.00  0.00     0.331 C 
ATOM     14  H   UNL A   1      32.574  25.675  25.437  1.00  0.00     0.346 HD
ATOM     15  H   UNL A   1      32.621  27.118  26.350  1.00  0.00     0.346 HD
ENDBRANCH   7  12
BRANCH  11  16
ATOM     16  S   UNL A   1      29.646  29.633  22.343  1.00  0.00    -0.155 SA
BRANCH  16  17
ATOM     17  C   UNL A   1      27.852  29.856  22.675  1.00  0.00     0.040 C 
ATOM     18  C   UNL A   1      27.029  28.717  23.250  1.00  0.00     0.019 C 
ATOM     19  C   UNL A   1      27.626  31.149  23.448  1.00  0.00     0.019 C 
ENDBRANCH  16  17
ENDBRANCH  11  16
ENDBRANCH   4   7
ENDBRANCH   2   3
ENDBRANCH   1   2
BRANCH   1  20
ATOM     20  C   UNL A   1      32.354  31.327  26.632  1.00  0.00     0.023 C 
BRANCH  20  21
ATOM     21  C   UNL A   1      33.124  32.247  27.575  1.00  0.00     0.116 C 
BRANCH  21  22
ATOM     22  N   UNL A   1      32.580  33.595  27.701  1.00  0.00    -0.352 N 
ATOM     23  C   UNL A   1      33.045  34.639  28.471  1.00  0.00     0.251 C 
ATOM     24  H   UNL A   1      31.775  33.783  27.166  1.00  0.00     0.163 HD
ATOM     25  O   UNL A   1      32.464  35.716  28.488  1.00  0.00    -0.269 OA
BRANCH  23  26
ATOM     26  C   UNL A   1      34.225  34.411  29.330  1.00  0.00     0.039 A 
ATOM     27  C   UNL A   1      34.032  33.908  30.619  1.00  0.00     0.014 A 
ATOM     28  C   UNL A   1      35.512  34.569  28.814  1.00  0.00     0.014 A 
ATOM     29  C   UNL A   1      35.131  33.448  31.346  1.00  0.00     0.010 A 
ATOM     30  C   UNL A   1      36.592  34.032  29.503  1.00  0.00     0.010 A 
ATOM     31  C   UNL A   1      36.409  33.444  30.765  1.00  0.00    -0.014 A 
BRANCH  31  32
ATOM     32  C   UNL A   1      37.566  32.795  31.432  1.00  0.00     0.031 A 
ATOM     33  C   UNL A   1      38.271  31.648  30.766  1.00  0.00     0.074 A 
ATOM     34  C   UNL A   1      37.905  33.161  32.684  1.00  0.00     0.049 A 
ATOM     35  N   UNL A   1      39.206  30.864  31.239  1.00  0.00    -0.248 NA
ATOM     36  C   UNL A   1      37.837  31.311  29.401  1.00  0.00     0.031 C 
ATOM     37  C   UNL A   1      37.248  34.207  33.470  1.00  0.00     0.029 A 
ATOM     38  N   UNL A   1      38.879  32.679  33.524  1.00  0.00    -0.354 N 
ATOM     39  C   UNL A   1      39.440  29.920  30.248  1.00  0.00     0.074 A 
ATOM     40  C   UNL A   1      38.525  30.204  29.165  1.00  0.00     0.031 C 
ATOM     41  C   UNL A   1      37.851  34.305  34.666  1.00  0.00     0.029 A 
ATOM     42  C   UNL A   1      38.913  33.307  34.745  1.00  0.00     0.049 A 
ATOM     43  H   UNL A   1      39.493  31.953  33.275  1.00  0.00     0.167 HD
ATOM     44  C   UNL A   1      40.353  28.920  30.235  1.00  0.00     0.037 A 
ATOM     45  C   UNL A   1      39.709  33.099  35.810  1.00  0.00     0.037 A 
ATOM     46  C   UNL A   1      41.303  28.677  31.287  1.00  0.00     0.049 A 
ATOM     47  C   UNL A   1      40.763  32.028  35.741  1.00  0.00     0.074 A 
ATOM     48  C   UNL A   1      42.325  27.745  31.329  1.00  0.00     0.029 A 
ATOM     49  N   UNL A   1      41.354  29.383  32.480  1.00  0.00    -0.354 N 
ATOM     50  N   UNL A   1      41.022  31.185  34.772  1.00  0.00    -0.248 NA
ATOM     51  C   UNL A   1      41.641  31.885  36.912  1.00  0.00     0.031 C 
ATOM     52  C   UNL A   1      42.980  27.871  32.558  1.00  0.00     0.029 A 
ATOM     53  C   UNL A   1      42.387  28.902  33.268  1.00  0.00     0.049 A 
ATOM     54  H   UNL A   1      40.746  30.116  32.729  1.00  0.00     0.167 HD
ATOM     55  C   UNL A   1      42.100  30.427  35.203  1.00  0.00     0.074 A 
ATOM     56  C   UNL A   1      42.459  30.919  36.518  1.00  0.00     0.031 C 
ATOM     57  C   UNL A   1      42.735  29.413  34.568  1.00  0.00     0.037 A 
BRANCH  44  58
ATOM     58  C   UNL A   1      40.373  28.021  29.035  1.00  0.00     0.064 A 
ATOM     59  C   UNL A   1      39.629  26.832  28.996  1.00  0.00     0.173 A 
ATOM     60  C   UNL A   1      41.129  28.362  27.904  1.00  0.00     0.173 A 
ATOM     61  F   UNL A   1      38.905  26.455  30.060  1.00  0.00    -0.203 F 
ATOM     62  C   UNL A   1      39.665  26.002  27.880  1.00  0.00     0.198 A 
ATOM     63  C   UNL A   1      41.140  27.543  26.778  1.00  0.00     0.198 A 
ATOM     64  F   UNL A   1      41.855  29.490  27.889  1.00  0.00    -0.203 F 
ATOM     65  F   UNL A   1      38.988  24.846  27.885  1.00  0.00    -0.200 F 
ATOM     66  C   UNL A   1      40.415  26.360  26.771  1.00  0.00     0.200 A 
ATOM     67  F   UNL A   1      41.858  27.894  25.703  1.00  0.00    -0.200 F 
ATOM     68  F   UNL A   1      40.447  25.561  25.695  1.00  0.00    -0.200 F 
ENDBRANCH  44  58
BRANCH  45  69
ATOM     69  C   UNL A   1      39.568  33.950  37.020  1.00  0.00     0.064 A 
ATOM     70  C   UNL A   1      40.182  35.208  37.082  1.00  0.00     0.173 A 
ATOM     71  C   UNL A   1      38.820  33.530  38.128  1.00  0.00     0.173 A 
ATOM     72  F   UNL A   1      40.926  35.642  36.054  1.00  0.00    -0.203 F 
ATOM     73  C   UNL A   1      40.066  36.009  38.216  1.00  0.00     0.198 A 
ATOM     74  C   UNL A   1      38.686  34.341  39.253  1.00  0.00     0.198 A 
ATOM     75  F   UNL A   1      38.208  32.337  38.112  1.00  0.00    -0.203 F 
ATOM     76  F   UNL A   1      40.694  37.192  38.265  1.00  0.00    -0.200 F 
ATOM     77  C   UNL A   1      39.315  35.577  39.298  1.00  0.00     0.200 A 
ATOM     78  F   UNL A   1      37.950  33.927  40.292  1.00  0.00    -0.200 F 
ATOM     79  F   UNL A   1      39.201  36.350  40.388  1.00  0.00    -0.200 F 
ENDBRANCH  45  69
BRANCH  57  80
ATOM     80  C   UNL A   1      43.901  28.787  35.270  1.00  0.00     0.064 A 
ATOM     81  C   UNL A   1      45.209  29.252  35.072  1.00  0.00     0.173 A 
ATOM     82  C   UNL A   1      43.701  27.744  36.186  1.00  0.00     0.173 A 
ATOM     83  F   UNL A   1      45.449  30.237  34.195  1.00  0.00    -0.203 F 
ATOM     84  C   UNL A   1      46.279  28.682  35.756  1.00  0.00     0.198 A 
ATOM     85  C   UNL A   1      44.770  27.191  36.884  1.00  0.00     0.198 A 
ATOM     86  F   UNL A   1      42.467  27.269  36.410  1.00  0.00    -0.203 F 
ATOM     87  F   UNL A   1      47.526  29.117  35.528  1.00  0.00    -0.200 F 
ATOM     88  C   UNL A   1      46.058  27.658  36.666  1.00  0.00     0.200 A 
ATOM     89  F   UNL A   1      44.555  26.209  37.769  1.00  0.00    -0.200 F 
ATOM     90  F   UNL A   1      47.088  27.117  37.330  1.00  0.00    -0.200 F 
ENDBRANCH  57  80
ENDBRANCH  31  32
ENDBRANCH  23  26
ENDBRANCH  21  22
ENDBRANCH  20  21
ENDBRANCH   1  20
TORSDOF 14
ENDMDL
MODEL 2
REMARK VINA RESULT:     -11.5      0.563      7.626
REMARK SMILES C[NH2+][C@@]1(C(=O)NCCCCNC(=O)c2ccc(-c3c4nc(c(-c5c(F)c(F)c(F)c(F)c5F)c5ccc([nH]5)c(-c5c(F)c(F)c(F)c(F)c5F)c5nc(c(-c6c(F)c(F)c(F)c(F)c6F)c6ccc3[nH]6)C=C5)C=C4)cc2)CC[C@H](SC(C)C)C1
REMARK SMILES IDX 8 1 7 2 6 3 4 4 5 5 3 7 77 8 84 9 78 10 79 11 2 12 1 13
REMARK SMILES IDX 80 16 81 17 82 18 83 19 9 20 10 21 11 22 12 23 13 25 14 26
REMARK SMILES IDX 15 27 76 28 16 29 75 30 17 31 18 32 19 33 69 34 20 35 74 36
REMARK SMILES IDX 68 37 70 38 21 39 73 40 67 41 66 42 22 44 54 45 34 46 53 47
REMARK SMILES IDX 35 48 38 49 52 50 71 51 36 52 37 53 51 55 72 56 39 57 23 58
REMARK SMILES IDX 24 59 32 60 25 61 26 62 30 63 33 64 27 65 28 66 31 67 29 68
REMARK SMILES IDX 55 69 56 70 64 71 57 72 58 73 62 74 65 75 59 76 60 77 63 78
REMARK SMILES IDX 61 79 40 80 41 81 49 82 42 83 43 84 47 85 50 86 44 87 45 88
REMARK SMILES IDX 48 89 46 90
REMARK H PARENT 6 6 2 14 2 15 11 24 70 43 38 54
REMARK Flexibility Score: inf
ROOT
ATOM      1  C   UNL A   1      31.892  30.249  26.917  1.00  0.00     0.023 C 
ENDROOT
BRANCH   1   2
ATOM      2  C   UNL A   1      33.229  29.518  26.861  1.00  0.00     0.116 C 
BRANCH   2   3
ATOM      3  N   UNL A   1      33.769  29.409  25.533  1.00  0.00    -0.351 N 
ATOM      4  C   UNL A   1      33.430  28.638  24.463  1.00  0.00     0.281 C 
ATOM      5  O   UNL A   1      34.197  28.792  23.502  1.00  0.00    -0.268 OA
ATOM      6  H   UNL A   1      34.531  30.007  25.366  1.00  0.00     0.163 HD
BRANCH   4   7
ATOM      7  C   UNL A   1      32.183  27.630  24.411  1.00  0.00     0.176 C 
ATOM      8  C   UNL A   1      32.180  26.631  23.245  1.00  0.00     0.080 C 
ATOM      9  C   UNL A   1      30.846  28.395  24.276  1.00  0.00     0.093 C 
ATOM     10  C   UNL A   1      31.188  27.128  22.198  1.00  0.00     0.022 C 
ATOM     11  C   UNL A   1      30.170  27.995  22.932  1.00  0.00     0.054 C 
BRANCH   7  12
ATOM     12  N   UNL A   1      32.138  26.885  25.710  1.00  0.00    -0.336 N 
ATOM     13  C   UNL A   1      31.223  25.747  25.750  1.00  0.00     0.331 C 
ATOM     14  H   UNL A   1      33.078  26.540  25.907  1.00  0.00     0.346 HD
ATOM     15  H   UNL A   1      31.791  27.549  26.402  1.00  0.00     0.346 HD
ENDBRANCH   7  12
BRANCH  11  16
ATOM     16  S   UNL A   1      29.478  29.560  22.230  1.00  0.00    -0.155 SA
BRANCH  16  17
ATOM     17  C   UNL A   1      27.732  29.810  22.747  1.00  0.00     0.040 C 
ATOM     18  C   UNL A   1      26.944  28.672  23.370  1.00  0.00     0.019 C 
ATOM     19  C   UNL A   1      27.616  31.083  23.575  1.00  0.00     0.019 C 
ENDBRANCH  16  17
ENDBRANCH  11  16
ENDBRANCH   4   7
ENDBRANCH   2   3
ENDBRANCH   1   2
BRANCH   1  20
ATOM     20  C   UNL A   1      31.958  31.730  26.575  1.00  0.00     0.023 C 
BRANCH  20  21
ATOM     21  C   UNL A   1      32.895  32.563  27.446  1.00  0.00     0.116 C 
BRANCH  21  22
ATOM     22  N   UNL A   1      32.451  33.930  27.698  1.00  0.00    -0.352 N 
ATOM     23  C   UNL A   1      32.993  34.864  28.553  1.00  0.00     0.251 C 
ATOM     24  H   UNL A   1      31.660  34.222  27.190  1.00  0.00     0.163 HD
ATOM     25  O   UNL A   1      32.492  35.974  28.672  1.00  0.00    -0.269 OA
BRANCH  23  26
ATOM     26  C   UNL A   1      34.157  34.475  29.377  1.00  0.00     0.039 A 
ATOM     27  C   UNL A   1      33.932  33.897  30.627  1.00  0.00     0.014 A 
ATOM     28  C   UNL A   1      35.449  34.564  28.855  1.00  0.00     0.014 A 
ATOM     29  C   UNL A   1      34.994  33.294  31.304  1.00  0.00     0.010 A 
ATOM     30  C   UNL A   1      36.485  33.889  29.487  1.00  0.00     0.010 A 
ATOM     31  C   UNL A   1      36.263  33.227  30.705  1.00  0.00    -0.014 A 
BRANCH  31  32
ATOM     32  C   UNL A   1      37.366  32.436  31.307  1.00  0.00     0.031 A 
ATOM     33  C   UNL A   1      37.879  32.781  32.676  1.00  0.00     0.074 A 
ATOM     34  C   UNL A   1      37.981  31.485  30.576  1.00  0.00     0.049 A 
ATOM     35  N   UNL A   1      38.917  32.306  33.316  1.00  0.00    -0.248 NA
ATOM     36  C   UNL A   1      37.154  33.833  33.405  1.00  0.00     0.031 C 
ATOM     37  C   UNL A   1      37.629  31.108  29.205  1.00  0.00     0.029 A 
ATOM     38  N   UNL A   1      39.046  30.672  30.878  1.00  0.00    -0.354 N 
ATOM     39  C   UNL A   1      38.990  33.027  34.499  1.00  0.00     0.074 A 
ATOM     40  C   UNL A   1      37.919  33.998  34.473  1.00  0.00     0.031 C 
ATOM     41  C   UNL A   1      38.445  30.124  28.794  1.00  0.00     0.029 A 
ATOM     42  C   UNL A   1      39.399  29.824  29.857  1.00  0.00     0.049 A 
ATOM     43  H   UNL A   1      39.512  30.696  31.744  1.00  0.00     0.167 HD
ATOM     44  C   UNL A   1      39.861  32.877  35.526  1.00  0.00     0.037 A 
ATOM     45  C   UNL A   1      40.384  28.910  29.785  1.00  0.00     0.037 A 
ATOM     46  C   UNL A   1      40.887  31.871  35.576  1.00  0.00     0.049 A 
ATOM     47  C   UNL A   1      41.292  28.714  30.968  1.00  0.00     0.074 A 
ATOM     48  C   UNL A   1      41.763  31.582  36.608  1.00  0.00     0.029 A 
ATOM     49  N   UNL A   1      41.168  30.980  34.550  1.00  0.00    -0.354 N 
ATOM     50  N   UNL A   1      41.310  29.355  32.110  1.00  0.00    -0.248 NA
ATOM     51  C   UNL A   1      42.313  27.662  30.853  1.00  0.00     0.031 C 
ATOM     52  C   UNL A   1      42.589  30.530  36.198  1.00  0.00     0.029 A 
ATOM     53  C   UNL A   1      42.207  30.144  34.923  1.00  0.00     0.049 A 
ATOM     54  H   UNL A   1      40.698  30.948  33.685  1.00  0.00     0.167 HD
ATOM     55  C   UNL A   1      42.324  28.775  32.858  1.00  0.00     0.074 A 
ATOM     56  C   UNL A   1      42.891  27.719  32.045  1.00  0.00     0.031 C 
ATOM     57  C   UNL A   1      42.749  29.090  34.105  1.00  0.00     0.037 A 
BRANCH  44  58
ATOM     58  C   UNL A   1      39.729  33.819  36.684  1.00  0.00     0.064 A 
ATOM     59  C   UNL A   1      40.390  35.056  36.703  1.00  0.00     0.173 A 
ATOM     60  C   UNL A   1      38.917  33.490  37.779  1.00  0.00     0.173 A 
ATOM     61  F   UNL A   1      41.192  35.408  35.687  1.00  0.00    -0.203 F 
ATOM     62  C   UNL A   1      40.267  35.917  37.790  1.00  0.00     0.198 A 
ATOM     63  C   UNL A   1      38.774  34.365  38.852  1.00  0.00     0.198 A 
ATOM     64  F   UNL A   1      38.260  32.320  37.808  1.00  0.00    -0.203 F 
ATOM     65  F   UNL A   1      40.949  37.070  37.810  1.00  0.00    -0.200 F 
ATOM     66  C   UNL A   1      39.455  35.574  38.860  1.00  0.00     0.200 A 
ATOM     67  F   UNL A   1      37.982  34.038  39.882  1.00  0.00    -0.200 F 
ATOM     68  F   UNL A   1      39.336  36.404  39.905  1.00  0.00    -0.200 F 
ENDBRANCH  44  58
BRANCH  45  69
ATOM     69  C   UNL A   1      40.538  28.079  28.563  1.00  0.00     0.064 A 
ATOM     70  C   UNL A   1      39.900  26.836  28.460  1.00  0.00     0.173 A 
ATOM     71  C   UNL A   1      41.316  28.508  27.479  1.00  0.00     0.173 A 
ATOM     72  F   UNL A   1      39.162  26.376  29.481  1.00  0.00    -0.203 F 
ATOM     73  C   UNL A   1      40.048  26.044  27.323  1.00  0.00     0.198 A 
ATOM     74  C   UNL A   1      41.445  27.726  26.334  1.00  0.00     0.198 A 
ATOM     75  F   UNL A   1      41.941  29.694  27.528  1.00  0.00    -0.203 F 
ATOM     76  F   UNL A   1      39.456  24.843  27.266  1.00  0.00    -0.200 F 
ATOM     77  C   UNL A   1      40.815  26.491  26.260  1.00  0.00     0.200 A 
ATOM     78  F   UNL A   1      42.178  28.165  25.302  1.00  0.00    -0.200 F 
ATOM     79  F   UNL A   1      40.954  25.731  25.164  1.00  0.00    -0.200 F 
ENDBRANCH  45  69
BRANCH  57  80
ATOM     80  C   UNL A   1      43.859  28.266  34.680  1.00  0.00     0.064 A 
ATOM     81  C   UNL A   1      45.200  28.662  34.565  1.00  0.00     0.173 A 
ATOM     82  C   UNL A   1      43.575  27.093  35.395  1.00  0.00     0.173 A 
ATOM     83  F   UNL A   1      45.519  29.767  33.877  1.00  0.00    -0.203 F 
ATOM     84  C   UNL A   1      46.218  27.902  35.133  1.00  0.00     0.198 A 
ATOM     85  C   UNL A   1      44.594  26.348  35.980  1.00  0.00     0.198 A 
ATOM     86  F   UNL A   1      42.307  26.678  35.535  1.00  0.00    -0.203 F 
ATOM     87  F   UNL A   1      47.495  28.278  34.982  1.00  0.00    -0.200 F 
ATOM     88  C   UNL A   1      45.915  26.750  35.846  1.00  0.00     0.200 A 
ATOM     89  F   UNL A   1      44.299  25.242  36.676  1.00  0.00    -0.200 F 
ATOM     90  F   UNL A   1      46.896  26.026  36.398  1.00  0.00    -0.200 F 
ENDBRANCH  57  80
ENDBRANCH  31  32
ENDBRANCH  23  26
ENDBRANCH  21  22
ENDBRANCH  20  21
ENDBRANCH   1  20
TORSDOF 14
ENDMDL
MODEL 3
REMARK VINA RESULT:     -11.4      3.059      4.495
REMARK SMILES C[NH2+][C@@]1(C(=O)NCCCCNC(=O)c2ccc(-c3c4nc(c(-c5c(F)c(F)c(F)c(F)c5F)c5ccc([nH]5)c(-c5c(F)c(F)c(F)c(F)c5F)c5nc(c(-c6c(F)c(F)c(F)c(F)c6F)c6ccc3[nH]6)C=C5)C=C4)cc2)CC[C@H](SC(C)C)C1
REMARK SMILES IDX 8 1 7 2 6 3 4 4 5 5 3 7 77 8 84 9 78 10 79 11 2 12 1 13
REMARK SMILES IDX 80 16 81 17 82 18 83 19 9 20 10 21 11 22 12 23 13 25 14 26
REMARK SMILES IDX 15 27 76 28 16 29 75 30 17 31 18 32 19 33 69 34 20 35 74 36
REMARK SMILES IDX 68 37 70 38 21 39 73 40 67 41 66 42 22 44 54 45 34 46 53 47
REMARK SMILES IDX 35 48 38 49 52 50 71 51 36 52 37 53 51 55 72 56 39 57 23 58
REMARK SMILES IDX 24 59 32 60 25 61 26 62 30 63 33 64 27 65 28 66 31 67 29 68
REMARK SMILES IDX 55 69 56 70 64 71 57 72 58 73 62 74 65 75 59 76 60 77 63 78
REMARK SMILES IDX 61 79 40 80 41 81 49 82 42 83 43 84 47 85 50 86 44 87 45 88
REMARK SMILES IDX 48 89 46 90
REMARK H PARENT 6 6 2 14 2 15 11 24 70 43 38 54
REMARK Flexibility Score: inf
ROOT
ATOM      1  C   UNL A   1      32.308  27.310  26.822  1.00  0.00     0.023 C 
ENDROOT
BRANCH   1   2
ATOM      2  C   UNL A   1      31.711  26.141  26.047  1.00  0.00     0.116 C 
BRANCH   2   3
ATOM      3  N   UNL A   1      31.558  24.948  26.835  1.00  0.00    -0.351 N 
ATOM      4  C   UNL A   1      32.130  23.715  26.758  1.00  0.00     0.281 C 
ATOM      5  O   UNL A   1      31.674  22.925  27.596  1.00  0.00    -0.268 OA
ATOM      6  H   UNL A   1      30.914  25.042  27.573  1.00  0.00     0.163 HD
BRANCH   4   7
ATOM      7  C   UNL A   1      33.271  23.292  25.713  1.00  0.00     0.176 C 
ATOM      8  C   UNL A   1      32.866  23.330  24.232  1.00  0.00     0.080 C 
ATOM      9  C   UNL A   1      33.743  21.839  25.953  1.00  0.00     0.093 C 
ATOM     10  C   UNL A   1      32.608  21.898  23.775  1.00  0.00     0.022 C 
ATOM     11  C   UNL A   1      33.423  20.989  24.690  1.00  0.00     0.054 C 
BRANCH   7  12
ATOM     12  N   UNL A   1      34.452  24.185  25.933  1.00  0.00    -0.336 N 
ATOM     13  C   UNL A   1      35.522  24.067  24.945  1.00  0.00     0.331 C 
ATOM     14  H   UNL A   1      34.122  25.150  25.926  1.00  0.00     0.346 HD
ATOM     15  H   UNL A   1      34.859  23.897  26.824  1.00  0.00     0.346 HD
ENDBRANCH   7  12
BRANCH  11  16
ATOM     16  S   UNL A   1      32.802  19.364  25.319  1.00  0.00    -0.155 SA
BRANCH  16  17
ATOM     17  C   UNL A   1      33.069  18.025  24.089  1.00  0.00     0.040 C 
ATOM     18  C   UNL A   1      32.478  18.133  22.694  1.00  0.00     0.019 C 
ATOM     19  C   UNL A   1      34.546  17.657  24.039  1.00  0.00     0.019 C 
ENDBRANCH  16  17
ENDBRANCH  11  16
ENDBRANCH   4   7
ENDBRANCH   2   3
ENDBRANCH   1   2
BRANCH   1  20
ATOM     20  C   UNL A   1      31.716  28.671  26.483  1.00  0.00     0.023 C 
BRANCH  20  21
ATOM     21  C   UNL A   1      32.727  29.750  26.105  1.00  0.00     0.116 C 
BRANCH  21  22
ATOM     22  N   UNL A   1      32.416  31.086  26.603  1.00  0.00    -0.352 N 
ATOM     23  C   UNL A   1      33.218  31.938  27.331  1.00  0.00     0.251 C 
ATOM     24  H   UNL A   1      31.515  31.423  26.391  1.00  0.00     0.163 HD
ATOM     25  O   UNL A   1      32.807  33.031  27.696  1.00  0.00    -0.269 OA
BRANCH  23  26
ATOM     26  C   UNL A   1      34.568  31.478  27.718  1.00  0.00     0.039 A 
ATOM     27  C   UNL A   1      35.594  32.419  27.824  1.00  0.00     0.014 A 
ATOM     28  C   UNL A   1      34.777  30.151  28.097  1.00  0.00     0.014 A 
ATOM     29  C   UNL A   1      36.798  32.054  28.430  1.00  0.00     0.010 A 
ATOM     30  C   UNL A   1      35.941  29.813  28.777  1.00  0.00     0.010 A 
ATOM     31  C   UNL A   1      36.953  30.767  28.971  1.00  0.00    -0.014 A 
BRANCH  31  32
ATOM     32  C   UNL A   1      38.141  30.401  29.782  1.00  0.00     0.031 A 
ATOM     33  C   UNL A   1      39.159  29.442  29.235  1.00  0.00     0.074 A 
ATOM     34  C   UNL A   1      38.243  30.842  31.052  1.00  0.00     0.049 A 
ATOM     35  N   UNL A   1      40.186  28.893  29.832  1.00  0.00    -0.248 NA
ATOM     36  C   UNL A   1      38.971  29.007  27.841  1.00  0.00     0.031 C 
ATOM     37  C   UNL A   1      37.281  31.715  31.727  1.00  0.00     0.029 A 
ATOM     38  N   UNL A   1      39.197  30.599  32.009  1.00  0.00    -0.354 N 
ATOM     39  C   UNL A   1      40.739  28.023  28.903  1.00  0.00     0.074 A 
ATOM     40  C   UNL A   1      39.914  28.085  27.717  1.00  0.00     0.031 C 
ATOM     41  C   UNL A   1      37.705  31.954  32.979  1.00  0.00     0.029 A 
ATOM     42  C   UNL A   1      38.949  31.225  33.207  1.00  0.00     0.049 A 
ATOM     43  H   UNL A   1      39.984  30.030  31.853  1.00  0.00     0.167 HD
ATOM     44  C   UNL A   1      41.850  27.257  29.023  1.00  0.00     0.037 A 
ATOM     45  C   UNL A   1      39.643  31.209  34.359  1.00  0.00     0.037 A 
ATOM     46  C   UNL A   1      42.702  27.242  30.180  1.00  0.00     0.049 A 
ATOM     47  C   UNL A   1      40.912  30.406  34.441  1.00  0.00     0.074 A 
ATOM     48  C   UNL A   1      43.896  26.567  30.365  1.00  0.00     0.029 A 
ATOM     49  N   UNL A   1      42.455  27.947  31.349  1.00  0.00    -0.354 N 
ATOM     50  N   UNL A   1      41.464  29.639  33.533  1.00  0.00    -0.248 NA
ATOM     51  C   UNL A   1      41.659  30.473  35.706  1.00  0.00     0.031 C 
ATOM     52  C   UNL A   1      44.361  26.846  31.655  1.00  0.00     0.029 A 
ATOM     53  C   UNL A   1      43.473  27.719  32.261  1.00  0.00     0.049 A 
ATOM     54  H   UNL A   1      41.673  28.524  31.507  1.00  0.00     0.167 HD
ATOM     55  C   UNL A   1      42.629  29.149  34.104  1.00  0.00     0.074 A 
ATOM     56  C   UNL A   1      42.713  29.716  35.434  1.00  0.00     0.031 C 
ATOM     57  C   UNL A   1      43.545  28.303  33.575  1.00  0.00     0.037 A 
BRANCH  44  58
ATOM     58  C   UNL A   1      42.210  26.380  27.861  1.00  0.00     0.064 A 
ATOM     59  C   UNL A   1      41.661  25.097  27.713  1.00  0.00     0.173 A 
ATOM     60  C   UNL A   1      43.098  26.835  26.876  1.00  0.00     0.173 A 
ATOM     61  F   UNL A   1      40.820  24.612  28.638  1.00  0.00    -0.203 F 
ATOM     62  C   UNL A   1      42.012  24.290  26.635  1.00  0.00     0.198 A 
ATOM     63  C   UNL A   1      43.425  26.035  25.784  1.00  0.00     0.198 A 
ATOM     64  F   UNL A   1      43.647  28.055  26.969  1.00  0.00    -0.203 F 
ATOM     65  F   UNL A   1      41.516  23.049  26.541  1.00  0.00    -0.200 F 
ATOM     66  C   UNL A   1      42.888  24.760  25.669  1.00  0.00     0.200 A 
ATOM     67  F   UNL A   1      44.265  26.493  24.846  1.00  0.00    -0.200 F 
ATOM     68  F   UNL A   1      43.224  23.982  24.631  1.00  0.00    -0.200 F 
ENDBRANCH  44  58
BRANCH  45  69
ATOM     69  C   UNL A   1      39.175  32.012  35.518  1.00  0.00     0.064 A 
ATOM     70  C   UNL A   1      38.381  31.430  36.516  1.00  0.00     0.173 A 
ATOM     71  C   UNL A   1      39.512  33.365  35.655  1.00  0.00     0.173 A 
ATOM     72  F   UNL A   1      38.017  30.143  36.416  1.00  0.00    -0.203 F 
ATOM     73  C   UNL A   1      37.928  32.178  37.600  1.00  0.00     0.198 A 
ATOM     74  C   UNL A   1      39.076  34.107  36.751  1.00  0.00     0.198 A 
ATOM     75  F   UNL A   1      40.275  33.965  34.729  1.00  0.00    -0.203 F 
ATOM     76  F   UNL A   1      37.140  31.606  38.521  1.00  0.00    -0.200 F 
ATOM     77  C   UNL A   1      38.279  33.513  37.720  1.00  0.00     0.200 A 
ATOM     78  F   UNL A   1      39.426  35.394  36.870  1.00  0.00    -0.200 F 
ATOM     79  F   UNL A   1      37.845  34.231  38.766  1.00  0.00    -0.200 F 
ENDBRANCH  45  69
BRANCH  57  80
ATOM     80  C   UNL A   1      44.733  27.963  34.422  1.00  0.00     0.064 A 
ATOM     81  C   UNL A   1      44.738  26.836  35.257  1.00  0.00     0.173 A 
ATOM     82  C   UNL A   1      45.895  28.745  34.360  1.00  0.00     0.173 A 
ATOM     83  F   UNL A   1      43.644  26.068  35.359  1.00  0.00    -0.203 F 
ATOM     84  C   UNL A   1      45.862  26.514  36.012  1.00  0.00     0.198 A 
ATOM     85  C   UNL A   1      47.024  28.409  35.100  1.00  0.00     0.198 A 
ATOM     86  F   UNL A   1      45.938  29.831  33.572  1.00  0.00    -0.203 F 
ATOM     87  F   UNL A   1      45.835  25.453  36.830  1.00  0.00    -0.200 F 
ATOM     88  C   UNL A   1      47.006  27.296  35.929  1.00  0.00     0.200 A 
ATOM     89  F   UNL A   1      48.131  29.158  35.011  1.00  0.00    -0.200 F 
ATOM     90  F   UNL A   1      48.088  26.980  36.651  1.00  0.00    -0.200 F 
ENDBRANCH  57  80
ENDBRANCH  31  32
ENDBRANCH  23  26
ENDBRANCH  21  22
ENDBRANCH  20  21
ENDBRANCH   1  20
TORSDOF 14
ENDMDL
