MODEL 1
REMARK VINA RESULT:     -12.9      0.000      0.000
REMARK SMILES CC(C)(C)OC(=O)N1CCN(c2nc3ccccc3s2)[C@H](C(=O)NCCCCNC(=O)c2ccc(-c3c4nc(c(-c5c(F)c(F)c(F)c(F)c5F)c5ccc([nH]5)c(-c5c(F)c(F)c(F)c(F)c5F)c5nc(c(-c6c(F)c(F)c(F)c(F)c6F)c6ccc3[nH]6)C=C5)C=C4)cc2)C1
REMARK SMILES IDX 26 1 25 2 24 3 22 4 23 5 21 7 8 8 9 9 95 10 10 11 11 12 6 13
REMARK SMILES IDX 7 14 5 15 2 16 1 17 3 18 4 19 12 20 13 21 20 22 14 23 19 24
REMARK SMILES IDX 15 25 18 26 16 27 17 28 27 29 28 30 29 31 30 32 31 34 32 35
REMARK SMILES IDX 33 36 94 37 34 38 93 39 35 40 36 41 37 42 87 43 38 44 92 45
REMARK SMILES IDX 86 46 88 47 39 48 91 49 85 50 84 51 40 53 72 54 52 55 71 56
REMARK SMILES IDX 53 57 56 58 70 59 89 60 54 61 55 62 69 64 90 65 57 66 41 67
REMARK SMILES IDX 42 68 50 69 43 70 44 71 48 72 51 73 45 74 46 75 49 76 47 77
REMARK SMILES IDX 73 78 74 79 82 80 75 81 76 82 80 83 83 84 77 85 78 86 81 87
REMARK SMILES IDX 79 88 58 89 59 90 67 91 60 92 61 93 65 94 68 95 62 96 63 97
REMARK SMILES IDX 66 98 64 99
REMARK H PARENT 24 6 29 33 88 52 56 63
REMARK Flexibility Score: inf
ROOT
ATOM      1  C   UNL A   1      31.773  30.518  26.877  1.00  0.00     0.023 C 
ENDROOT
BRANCH   1   2
ATOM      2  C   UNL A   1      33.222  30.053  26.708  1.00  0.00     0.116 C 
BRANCH   2   3
ATOM      3  N   UNL A   1      33.531  29.839  25.307  1.00  0.00    -0.354 N 
ATOM      4  C   UNL A   1      33.403  28.709  24.545  1.00  0.00     0.244 C 
ATOM      5  O   UNL A   1      34.031  28.701  23.485  1.00  0.00    -0.273 OA
ATOM      6  H   UNL A   1      33.886  30.625  24.833  1.00  0.00     0.163 HD
BRANCH   4   7
ATOM      7  C   UNL A   1      32.536  27.544  25.063  1.00  0.00     0.193 C 
ATOM      8  N   UNL A   1      32.614  25.070  25.420  1.00  0.00    -0.304 N 
ATOM      9  C   UNL A   1      31.263  24.911  24.871  1.00  0.00     0.144 C 
ATOM     10  C   UNL A   1      33.361  26.245  24.945  1.00  0.00     0.158 C 
ATOM     11  C   UNL A   1      30.455  26.222  24.952  1.00  0.00     0.141 C 
ATOM     12  N   UNL A   1      31.241  27.316  24.366  1.00  0.00    -0.332 N 
BRANCH   8  13
ATOM     13  C   UNL A   1      33.178  24.060  26.164  1.00  0.00     0.410 C 
ATOM     14  O   UNL A   1      32.531  23.349  26.929  1.00  0.00    -0.224 OA
BRANCH  13  15
ATOM     15  O   UNL A   1      34.520  23.982  25.989  1.00  0.00    -0.444 OA
BRANCH  15  16
ATOM     16  C   UNL A   1      35.130  22.895  25.241  1.00  0.00     0.106 C 
ATOM     17  C   UNL A   1      36.520  23.421  24.847  1.00  0.00     0.056 C 
ATOM     18  C   UNL A   1      34.311  22.636  23.975  1.00  0.00     0.056 C 
ATOM     19  C   UNL A   1      35.327  21.613  26.061  1.00  0.00     0.056 C 
ENDBRANCH  15  16
ENDBRANCH  13  15
ENDBRANCH   8  13
BRANCH  12  20
ATOM     20  C   UNL A   1      30.559  28.352  23.820  1.00  0.00     0.187 A 
ATOM     21  N   UNL A   1      30.266  29.471  24.442  1.00  0.00    -0.220 NA
ATOM     22  S   UNL A   1      29.907  28.203  22.230  1.00  0.00    -0.097 S 
ATOM     23  C   UNL A   1      29.598  30.329  23.576  1.00  0.00     0.084 A 
ATOM     24  C   UNL A   1      29.369  29.829  22.295  1.00  0.00     0.056 A 
ATOM     25  C   UNL A   1      29.153  31.635  23.873  1.00  0.00     0.030 A 
ATOM     26  C   UNL A   1      28.770  30.598  21.282  1.00  0.00     0.021 A 
ATOM     27  C   UNL A   1      28.542  32.407  22.877  1.00  0.00     0.002 A 
ATOM     28  C   UNL A   1      28.368  31.898  21.593  1.00  0.00     0.002 A 
ENDBRANCH  12  20
ENDBRANCH   4   7
ENDBRANCH   2   3
ENDBRANCH   1   2
BRANCH   1  29
ATOM     29  C   UNL A   1      31.584  32.039  26.866  1.00  0.00     0.023 C 
BRANCH  29  30
ATOM     30  C   UNL A   1      32.818  32.848  27.251  1.00  0.00     0.116 C 
BRANCH  30  31
ATOM     31  N   UNL A   1      32.494  34.208  27.649  1.00  0.00    -0.352 N 
ATOM     32  C   UNL A   1      33.029  34.965  28.662  1.00  0.00     0.251 C 
ATOM     33  H   UNL A   1      31.793  34.648  27.115  1.00  0.00     0.163 HD
ATOM     34  O   UNL A   1      32.531  36.048  28.951  1.00  0.00    -0.269 OA
BRANCH  32  35
ATOM     35  C   UNL A   1      34.185  34.456  29.429  1.00  0.00     0.039 A 
ATOM     36  C   UNL A   1      33.950  33.755  30.615  1.00  0.00     0.014 A 
ATOM     37  C   UNL A   1      35.493  34.658  28.980  1.00  0.00     0.014 A 
ATOM     38  C   UNL A   1      35.022  33.199  31.315  1.00  0.00     0.010 A 
ATOM     39  C   UNL A   1      36.555  34.044  29.641  1.00  0.00     0.010 A 
ATOM     40  C   UNL A   1      36.330  33.307  30.814  1.00  0.00    -0.014 A 
BRANCH  40  41
ATOM     41  C   UNL A   1      37.472  32.649  31.498  1.00  0.00     0.031 A 
ATOM     42  C   UNL A   1      38.171  31.484  30.853  1.00  0.00     0.074 A 
ATOM     43  C   UNL A   1      37.838  33.057  32.729  1.00  0.00     0.049 A 
ATOM     44  N   UNL A   1      39.134  30.732  31.323  1.00  0.00    -0.248 NA
ATOM     45  C   UNL A   1      37.708  31.094  29.511  1.00  0.00     0.031 C 
ATOM     46  C   UNL A   1      37.207  34.144  33.481  1.00  0.00     0.029 A 
ATOM     47  N   UNL A   1      38.818  32.596  33.573  1.00  0.00    -0.354 N 
ATOM     48  C   UNL A   1      39.381  29.777  30.347  1.00  0.00     0.074 A 
ATOM     49  C   UNL A   1      38.434  30.011  29.278  1.00  0.00     0.031 C 
ATOM     50  C   UNL A   1      37.827  34.277  34.665  1.00  0.00     0.029 A 
ATOM     51  C   UNL A   1      38.871  33.263  34.773  1.00  0.00     0.049 A 
ATOM     52  H   UNL A   1      39.426  31.858  33.339  1.00  0.00     0.167 HD
ATOM     53  C   UNL A   1      40.325  28.806  30.334  1.00  0.00     0.037 A 
ATOM     54  C   UNL A   1      39.664  33.070  35.844  1.00  0.00     0.037 A 
ATOM     55  C   UNL A   1      41.283  28.594  31.387  1.00  0.00     0.049 A 
ATOM     56  C   UNL A   1      40.703  31.981  35.803  1.00  0.00     0.074 A 
ATOM     57  C   UNL A   1      42.320  27.677  31.436  1.00  0.00     0.029 A 
ATOM     58  N   UNL A   1      41.322  29.306  32.575  1.00  0.00    -0.354 N 
ATOM     59  N   UNL A   1      40.975  31.131  34.842  1.00  0.00    -0.248 NA
ATOM     60  C   UNL A   1      41.554  31.831  36.992  1.00  0.00     0.031 C 
ATOM     61  C   UNL A   1      42.956  27.803  32.674  1.00  0.00     0.029 A 
ATOM     62  C   UNL A   1      42.351  28.833  33.375  1.00  0.00     0.049 A 
ATOM     63  H   UNL A   1      40.709  30.037  32.816  1.00  0.00     0.167 HD
ATOM     64  C   UNL A   1      42.043  30.370  35.296  1.00  0.00     0.074 A 
ATOM     65  C   UNL A   1      42.380  30.867  36.613  1.00  0.00     0.031 C 
ATOM     66  C   UNL A   1      42.685  29.350  34.678  1.00  0.00     0.037 A 
BRANCH  53  67
ATOM     67  C   UNL A   1      40.377  27.898  29.139  1.00  0.00     0.064 A 
ATOM     68  C   UNL A   1      39.637  26.707  29.088  1.00  0.00     0.173 A 
ATOM     69  C   UNL A   1      41.133  28.250  28.011  1.00  0.00     0.173 A 
ATOM     70  F   UNL A   1      38.906  26.321  30.144  1.00  0.00    -0.203 F 
ATOM     71  C   UNL A   1      39.669  25.892  27.960  1.00  0.00     0.198 A 
ATOM     72  C   UNL A   1      41.139  27.446  26.873  1.00  0.00     0.198 A 
ATOM     73  F   UNL A   1      41.855  29.380  28.005  1.00  0.00    -0.203 F 
ATOM     74  F   UNL A   1      38.986  24.738  27.949  1.00  0.00    -0.200 F 
ATOM     75  C   UNL A   1      40.412  26.266  26.850  1.00  0.00     0.200 A 
ATOM     76  F   UNL A   1      41.846  27.817  25.797  1.00  0.00    -0.200 F 
ATOM     77  F   UNL A   1      40.432  25.486  25.761  1.00  0.00    -0.200 F 
ENDBRANCH  53  67
BRANCH  54  78
ATOM     78  C   UNL A   1      39.521  33.934  37.045  1.00  0.00     0.064 A 
ATOM     79  C   UNL A   1      38.741  33.528  38.137  1.00  0.00     0.173 A 
ATOM     80  C   UNL A   1      40.142  35.190  37.119  1.00  0.00     0.173 A 
ATOM     81  F   UNL A   1      38.109  32.346  38.105  1.00  0.00    -0.203 F 
ATOM     82  C   UNL A   1      38.565  34.354  39.245  1.00  0.00     0.198 A 
ATOM     83  C   UNL A   1      39.991  36.003  38.241  1.00  0.00     0.198 A 
ATOM     84  F   UNL A   1      40.904  35.623  36.105  1.00  0.00    -0.203 F 
ATOM     85  F   UNL A   1      37.770  33.964  40.249  1.00  0.00    -0.200 F 
ATOM     86  C   UNL A   1      39.194  35.589  39.298  1.00  0.00     0.200 A 
ATOM     87  F   UNL A   1      40.613  37.188  38.295  1.00  0.00    -0.200 F 
ATOM     88  F   UNL A   1      39.025  36.384  40.363  1.00  0.00    -0.200 F 
ENDBRANCH  54  78
BRANCH  66  89
ATOM     89  C   UNL A   1      43.848  28.730  35.397  1.00  0.00     0.064 A 
ATOM     90  C   UNL A   1      45.164  29.169  35.190  1.00  0.00     0.173 A 
ATOM     91  C   UNL A   1      43.636  27.711  36.338  1.00  0.00     0.173 A 
ATOM     92  F   UNL A   1      45.421  30.131  34.289  1.00  0.00    -0.203 F 
ATOM     93  C   UNL A   1      46.227  28.593  35.879  1.00  0.00     0.198 A 
ATOM     94  C   UNL A   1      44.698  27.159  37.049  1.00  0.00     0.198 A 
ATOM     95  F   UNL A   1      42.397  27.260  36.580  1.00  0.00    -0.203 F 
ATOM     96  F   UNL A   1      47.481  28.995  35.631  1.00  0.00    -0.200 F 
ATOM     97  C   UNL A   1      45.993  27.595  36.815  1.00  0.00     0.200 A 
ATOM     98  F   UNL A   1      44.468  26.206  37.963  1.00  0.00    -0.200 F 
ATOM     99  F   UNL A   1      47.017  27.048  37.484  1.00  0.00    -0.200 F 
ENDBRANCH  66  89
ENDBRANCH  40  41
ENDBRANCH  32  35
ENDBRANCH  30  31
ENDBRANCH  29  30
ENDBRANCH   1  29
TORSDOF 15
ENDMDL
MODEL 2
REMARK VINA RESULT:     -12.6      5.606     11.398
REMARK SMILES CC(C)(C)OC(=O)N1CCN(c2nc3ccccc3s2)[C@H](C(=O)NCCCCNC(=O)c2ccc(-c3c4nc(c(-c5c(F)c(F)c(F)c(F)c5F)c5ccc([nH]5)c(-c5c(F)c(F)c(F)c(F)c5F)c5nc(c(-c6c(F)c(F)c(F)c(F)c6F)c6ccc3[nH]6)C=C5)C=C4)cc2)C1
REMARK SMILES IDX 26 1 25 2 24 3 22 4 23 5 21 7 8 8 9 9 95 10 10 11 11 12 6 13
REMARK SMILES IDX 7 14 5 15 2 16 1 17 3 18 4 19 12 20 13 21 20 22 14 23 19 24
REMARK SMILES IDX 15 25 18 26 16 27 17 28 27 29 28 30 29 31 30 32 31 34 32 35
REMARK SMILES IDX 33 36 94 37 34 38 93 39 35 40 36 41 37 42 87 43 38 44 92 45
REMARK SMILES IDX 86 46 88 47 39 48 91 49 85 50 84 51 40 53 72 54 52 55 71 56
REMARK SMILES IDX 53 57 56 58 70 59 89 60 54 61 55 62 69 64 90 65 57 66 41 67
REMARK SMILES IDX 42 68 50 69 43 70 44 71 48 72 51 73 45 74 46 75 49 76 47 77
REMARK SMILES IDX 73 78 74 79 82 80 75 81 76 82 80 83 83 84 77 85 78 86 81 87
REMARK SMILES IDX 79 88 58 89 59 90 67 91 60 92 61 93 65 94 68 95 62 96 63 97
REMARK SMILES IDX 66 98 64 99
REMARK H PARENT 24 6 29 33 88 52 56 63
REMARK Flexibility Score: inf
ROOT
ATOM      1  C   UNL A   1      36.414  20.255  25.002  1.00  0.00     0.023 C 
ENDROOT
BRANCH   1   2
ATOM      2  C   UNL A   1      35.985  21.627  25.529  1.00  0.00     0.116 C 
BRANCH   2   3
ATOM      3  N   UNL A   1      35.201  21.488  26.740  1.00  0.00    -0.354 N 
ATOM      4  C   UNL A   1      34.038  22.111  27.106  1.00  0.00     0.244 C 
ATOM      5  O   UNL A   1      33.755  22.061  28.303  1.00  0.00    -0.273 OA
ATOM      6  H   UNL A   1      35.558  20.850  27.398  1.00  0.00     0.163 HD
BRANCH   4   7
ATOM      7  C   UNL A   1      33.203  22.839  26.034  1.00  0.00     0.193 C 
ATOM      8  N   UNL A   1      31.552  24.701  25.787  1.00  0.00    -0.304 N 
ATOM      9  C   UNL A   1      30.721  23.894  24.887  1.00  0.00     0.144 C 
ATOM     10  C   UNL A   1      32.385  23.944  26.735  1.00  0.00     0.158 C 
ATOM     11  C   UNL A   1      31.530  22.764  24.220  1.00  0.00     0.141 C 
ATOM     12  N   UNL A   1      32.248  22.005  25.252  1.00  0.00    -0.332 N 
BRANCH   8  13
ATOM     13  C   UNL A   1      31.380  26.064  25.845  1.00  0.00     0.410 C 
ATOM     14  O   UNL A   1      31.077  26.659  26.877  1.00  0.00    -0.224 OA
BRANCH  13  15
ATOM     15  O   UNL A   1      31.532  26.653  24.633  1.00  0.00    -0.444 OA
BRANCH  15  16
ATOM     16  C   UNL A   1      32.815  27.179  24.196  1.00  0.00     0.106 C 
ATOM     17  C   UNL A   1      32.463  28.303  23.209  1.00  0.00     0.056 C 
ATOM     18  C   UNL A   1      33.582  26.080  23.458  1.00  0.00     0.056 C 
ATOM     19  C   UNL A   1      33.652  27.791  25.328  1.00  0.00     0.056 C 
ENDBRANCH  15  16
ENDBRANCH  13  15
ENDBRANCH   8  13
BRANCH  12  20
ATOM     20  C   UNL A   1      32.522  20.703  24.994  1.00  0.00     0.187 A 
ATOM     21  N   UNL A   1      32.553  19.747  25.893  1.00  0.00    -0.220 NA
ATOM     22  S   UNL A   1      32.979  20.226  23.400  1.00  0.00    -0.097 S 
ATOM     23  C   UNL A   1      32.824  18.531  25.279  1.00  0.00     0.084 A 
ATOM     24  C   UNL A   1      33.024  18.588  23.899  1.00  0.00     0.056 A 
ATOM     25  C   UNL A   1      32.903  17.273  25.913  1.00  0.00     0.030 A 
ATOM     26  C   UNL A   1      33.236  17.437  23.121  1.00  0.00     0.021 A 
ATOM     27  C   UNL A   1      33.129  16.119  25.152  1.00  0.00     0.002 A 
ATOM     28  C   UNL A   1      33.277  16.202  23.770  1.00  0.00     0.002 A 
ENDBRANCH  12  20
ENDBRANCH   4   7
ENDBRANCH   2   3
ENDBRANCH   1   2
BRANCH   1  29
ATOM     29  C   UNL A   1      37.898  20.146  24.632  1.00  0.00     0.023 C 
BRANCH  29  30
ATOM     30  C   UNL A   1      38.868  20.292  25.799  1.00  0.00     0.116 C 
BRANCH  30  31
ATOM     31  N   UNL A   1      39.844  19.216  25.853  1.00  0.00    -0.352 N 
ATOM     32  C   UNL A   1      41.204  19.288  26.028  1.00  0.00     0.251 C 
ATOM     33  H   UNL A   1      39.477  18.307  25.752  1.00  0.00     0.163 HD
ATOM     34  O   UNL A   1      41.895  18.282  25.900  1.00  0.00    -0.269 OA
BRANCH  32  35
ATOM     35  C   UNL A   1      41.839  20.587  26.334  1.00  0.00     0.039 A 
ATOM     36  C   UNL A   1      42.162  21.443  25.279  1.00  0.00     0.014 A 
ATOM     37  C   UNL A   1      42.107  20.965  27.653  1.00  0.00     0.014 A 
ATOM     38  C   UNL A   1      42.691  22.706  25.549  1.00  0.00     0.010 A 
ATOM     39  C   UNL A   1      42.569  22.251  27.924  1.00  0.00     0.010 A 
ATOM     40  C   UNL A   1      42.865  23.135  26.875  1.00  0.00    -0.014 A 
BRANCH  40  41
ATOM     41  C   UNL A   1      43.344  24.506  27.184  1.00  0.00     0.031 A 
ATOM     42  C   UNL A   1      42.395  25.533  27.737  1.00  0.00     0.074 A 
ATOM     43  C   UNL A   1      44.618  24.846  26.904  1.00  0.00     0.049 A 
ATOM     44  N   UNL A   1      42.604  26.799  27.998  1.00  0.00    -0.248 NA
ATOM     45  C   UNL A   1      41.020  25.085  28.009  1.00  0.00     0.031 C 
ATOM     46  C   UNL A   1      45.622  23.955  26.321  1.00  0.00     0.029 A 
ATOM     47  N   UNL A   1      45.282  26.038  27.057  1.00  0.00    -0.354 N 
ATOM     48  C   UNL A   1      41.390  27.299  28.448  1.00  0.00     0.074 A 
ATOM     49  C   UNL A   1      40.435  26.215  28.379  1.00  0.00     0.031 C 
ATOM     50  C   UNL A   1      46.777  24.624  26.182  1.00  0.00     0.029 A 
ATOM     51  C   UNL A   1      46.586  26.001  26.629  1.00  0.00     0.049 A 
ATOM     52  H   UNL A   1      44.863  26.843  27.439  1.00  0.00     0.167 HD
ATOM     53  C   UNL A   1      41.103  28.544  28.898  1.00  0.00     0.037 A 
ATOM     54  C   UNL A   1      47.521  26.970  26.590  1.00  0.00     0.037 A 
ATOM     55  C   UNL A   1      42.064  29.613  28.992  1.00  0.00     0.049 A 
ATOM     56  C   UNL A   1      47.173  28.346  27.095  1.00  0.00     0.074 A 
ATOM     57  C   UNL A   1      41.885  30.890  29.495  1.00  0.00     0.029 A 
ATOM     58  N   UNL A   1      43.382  29.529  28.573  1.00  0.00    -0.354 N 
ATOM     59  N   UNL A   1      46.041  28.786  27.586  1.00  0.00    -0.248 NA
ATOM     60  C   UNL A   1      48.238  29.358  27.047  1.00  0.00     0.031 C 
ATOM     61  C   UNL A   1      43.081  31.594  29.336  1.00  0.00     0.029 A 
ATOM     62  C   UNL A   1      44.023  30.740  28.785  1.00  0.00     0.049 A 
ATOM     63  H   UNL A   1      43.801  28.729  28.181  1.00  0.00     0.167 HD
ATOM     64  C   UNL A   1      46.265  30.111  27.935  1.00  0.00     0.074 A 
ATOM     65  C   UNL A   1      47.645  30.400  27.611  1.00  0.00     0.031 C 
ATOM     66  C   UNL A   1      45.403  31.008  28.473  1.00  0.00     0.037 A 
BRANCH  53  67
ATOM     67  C   UNL A   1      39.694  28.823  29.332  1.00  0.00     0.064 A 
ATOM     68  C   UNL A   1      39.264  28.568  30.643  1.00  0.00     0.173 A 
ATOM     69  C   UNL A   1      38.776  29.403  28.442  1.00  0.00     0.173 A 
ATOM     70  F   UNL A   1      40.098  28.005  31.529  1.00  0.00    -0.203 F 
ATOM     71  C   UNL A   1      37.962  28.863  31.040  1.00  0.00     0.198 A 
ATOM     72  C   UNL A   1      37.485  29.724  28.852  1.00  0.00     0.198 A 
ATOM     73  F   UNL A   1      39.137  29.672  27.179  1.00  0.00    -0.203 F 
ATOM     74  F   UNL A   1      37.562  28.572  32.286  1.00  0.00    -0.200 F 
ATOM     75  C   UNL A   1      37.077  29.449  30.148  1.00  0.00     0.200 A 
ATOM     76  F   UNL A   1      36.635  30.303  27.992  1.00  0.00    -0.200 F 
ATOM     77  F   UNL A   1      35.829  29.743  30.535  1.00  0.00    -0.200 F 
ENDBRANCH  53  67
BRANCH  54  78
ATOM     78  C   UNL A   1      48.881  26.677  26.068  1.00  0.00     0.064 A 
ATOM     79  C   UNL A   1      49.865  26.117  26.896  1.00  0.00     0.173 A 
ATOM     80  C   UNL A   1      49.233  26.965  24.741  1.00  0.00     0.173 A 
ATOM     81  F   UNL A   1      49.584  25.843  28.178  1.00  0.00    -0.203 F 
ATOM     82  C   UNL A   1      51.155  25.884  26.426  1.00  0.00     0.198 A 
ATOM     83  C   UNL A   1      50.515  26.702  24.263  1.00  0.00     0.198 A 
ATOM     84  F   UNL A   1      48.327  27.495  23.906  1.00  0.00    -0.203 F 
ATOM     85  F   UNL A   1      52.091  25.400  27.254  1.00  0.00    -0.200 F 
ATOM     86  C   UNL A   1      51.478  26.172  25.108  1.00  0.00     0.200 A 
ATOM     87  F   UNL A   1      50.818  26.968  22.985  1.00  0.00    -0.200 F 
ATOM     88  F   UNL A   1      52.719  25.948  24.656  1.00  0.00    -0.200 F 
ENDBRANCH  54  78
BRANCH  66  89
ATOM     89  C   UNL A   1      45.938  32.374  28.790  1.00  0.00     0.064 A 
ATOM     90  C   UNL A   1      46.550  32.661  30.018  1.00  0.00     0.173 A 
ATOM     91  C   UNL A   1      45.874  33.399  27.832  1.00  0.00     0.173 A 
ATOM     92  F   UNL A   1      46.622  31.721  30.973  1.00  0.00    -0.203 F 
ATOM     93  C   UNL A   1      47.055  33.930  30.287  1.00  0.00     0.198 A 
ATOM     94  C   UNL A   1      46.409  34.657  28.092  1.00  0.00     0.198 A 
ATOM     95  F   UNL A   1      45.307  33.174  26.638  1.00  0.00    -0.203 F 
ATOM     96  F   UNL A   1      47.593  34.196  31.485  1.00  0.00    -0.200 F 
ATOM     97  C   UNL A   1      46.993  34.925  29.320  1.00  0.00     0.200 A 
ATOM     98  F   UNL A   1      46.361  35.611  27.151  1.00  0.00    -0.200 F 
ATOM     99  F   UNL A   1      47.488  36.143  29.577  1.00  0.00    -0.200 F 
ENDBRANCH  66  89
ENDBRANCH  40  41
ENDBRANCH  32  35
ENDBRANCH  30  31
ENDBRANCH  29  30
ENDBRANCH   1  29
TORSDOF 15
ENDMDL
MODEL 3
REMARK VINA RESULT:     -12.5      5.329     10.136
REMARK SMILES CC(C)(C)OC(=O)N1CCN(c2nc3ccccc3s2)[C@H](C(=O)NCCCCNC(=O)c2ccc(-c3c4nc(c(-c5c(F)c(F)c(F)c(F)c5F)c5ccc([nH]5)c(-c5c(F)c(F)c(F)c(F)c5F)c5nc(c(-c6c(F)c(F)c(F)c(F)c6F)c6ccc3[nH]6)C=C5)C=C4)cc2)C1
REMARK SMILES IDX 26 1 25 2 24 3 22 4 23 5 21 7 8 8 9 9 95 10 10 11 11 12 6 13
REMARK SMILES IDX 7 14 5 15 2 16 1 17 3 18 4 19 12 20 13 21 20 22 14 23 19 24
REMARK SMILES IDX 15 25 18 26 16 27 17 28 27 29 28 30 29 31 30 32 31 34 32 35
REMARK SMILES IDX 33 36 94 37 34 38 93 39 35 40 36 41 37 42 87 43 38 44 92 45
REMARK SMILES IDX 86 46 88 47 39 48 91 49 85 50 84 51 40 53 72 54 52 55 71 56
REMARK SMILES IDX 53 57 56 58 70 59 89 60 54 61 55 62 69 64 90 65 57 66 41 67
REMARK SMILES IDX 42 68 50 69 43 70 44 71 48 72 51 73 45 74 46 75 49 76 47 77
REMARK SMILES IDX 73 78 74 79 82 80 75 81 76 82 80 83 83 84 77 85 78 86 81 87
REMARK SMILES IDX 79 88 58 89 59 90 67 91 60 92 61 93 65 94 68 95 62 96 63 97
REMARK SMILES IDX 66 98 64 99
REMARK H PARENT 24 6 29 33 88 52 56 63
REMARK Flexibility Score: inf
ROOT
ATOM      1  C   UNL A   1      36.225  20.407  25.031  1.00  0.00     0.023 C 
ENDROOT
BRANCH   1   2
ATOM      2  C   UNL A   1      35.850  21.756  25.651  1.00  0.00     0.116 C 
BRANCH   2   3
ATOM      3  N   UNL A   1      35.013  21.567  26.820  1.00  0.00    -0.354 N 
ATOM      4  C   UNL A   1      33.823  22.158  27.149  1.00  0.00     0.244 C 
ATOM      5  O   UNL A   1      33.487  22.069  28.330  1.00  0.00    -0.273 OA
ATOM      6  H   UNL A   1      35.352  20.917  27.476  1.00  0.00     0.163 HD
BRANCH   4   7
ATOM      7  C   UNL A   1      33.024  22.902  26.060  1.00  0.00     0.193 C 
ATOM      8  N   UNL A   1      31.363  24.751  25.788  1.00  0.00    -0.304 N 
ATOM      9  C   UNL A   1      30.579  23.957  24.835  1.00  0.00     0.144 C 
ATOM     10  C   UNL A   1      32.165  23.982  26.751  1.00  0.00     0.158 C 
ATOM     11  C   UNL A   1      31.429  22.852  24.177  1.00  0.00     0.141 C 
ATOM     12  N   UNL A   1      32.113  22.076  25.220  1.00  0.00    -0.332 N 
BRANCH   8  13
ATOM     13  C   UNL A   1      31.172  26.111  25.870  1.00  0.00     0.410 C 
ATOM     14  O   UNL A   1      31.378  26.757  26.895  1.00  0.00    -0.224 OA
BRANCH  13  15
ATOM     15  O   UNL A   1      30.688  26.632  24.716  1.00  0.00    -0.444 OA
BRANCH  15  16
ATOM     16  C   UNL A   1      31.436  27.614  23.949  1.00  0.00     0.106 C 
ATOM     17  C   UNL A   1      30.759  27.635  22.570  1.00  0.00     0.056 C 
ATOM     18  C   UNL A   1      32.881  27.135  23.795  1.00  0.00     0.056 C 
ATOM     19  C   UNL A   1      31.369  29.034  24.528  1.00  0.00     0.056 C 
ENDBRANCH  15  16
ENDBRANCH  13  15
ENDBRANCH   8  13
BRANCH  12  20
ATOM     20  C   UNL A   1      32.412  20.784  24.944  1.00  0.00     0.187 A 
ATOM     21  N   UNL A   1      32.477  19.819  25.831  1.00  0.00    -0.220 NA
ATOM     22  S   UNL A   1      32.859  20.336  23.339  1.00  0.00    -0.097 S 
ATOM     23  C   UNL A   1      32.768  18.616  25.200  1.00  0.00     0.084 A 
ATOM     24  C   UNL A   1      32.948  18.693  23.819  1.00  0.00     0.056 A 
ATOM     25  C   UNL A   1      32.884  17.353  25.819  1.00  0.00     0.030 A 
ATOM     26  C   UNL A   1      33.176  17.556  23.025  1.00  0.00     0.021 A 
ATOM     27  C   UNL A   1      33.125  16.214  25.042  1.00  0.00     0.002 A 
ATOM     28  C   UNL A   1      33.254  16.315  23.659  1.00  0.00     0.002 A 
ENDBRANCH  12  20
ENDBRANCH   4   7
ENDBRANCH   2   3
ENDBRANCH   1   2
BRANCH   1  29
ATOM     29  C   UNL A   1      37.706  20.260  24.666  1.00  0.00     0.023 C 
BRANCH  29  30
ATOM     30  C   UNL A   1      38.682  20.474  25.818  1.00  0.00     0.116 C 
BRANCH  30  31
ATOM     31  N   UNL A   1      39.701  19.439  25.887  1.00  0.00    -0.352 N 
ATOM     32  C   UNL A   1      41.053  19.567  26.092  1.00  0.00     0.251 C 
ATOM     33  H   UNL A   1      39.375  18.517  25.773  1.00  0.00     0.163 HD
ATOM     34  O   UNL A   1      41.789  18.593  25.974  1.00  0.00    -0.269 OA
BRANCH  32  35
ATOM     35  C   UNL A   1      41.625  20.890  26.419  1.00  0.00     0.039 A 
ATOM     36  C   UNL A   1      42.054  21.714  25.376  1.00  0.00     0.014 A 
ATOM     37  C   UNL A   1      41.732  21.321  27.744  1.00  0.00     0.014 A 
ATOM     38  C   UNL A   1      42.526  22.997  25.657  1.00  0.00     0.010 A 
ATOM     39  C   UNL A   1      42.137  22.625  28.017  1.00  0.00     0.010 A 
ATOM     40  C   UNL A   1      42.537  23.478  26.977  1.00  0.00    -0.014 A 
BRANCH  40  41
ATOM     41  C   UNL A   1      42.954  24.869  27.286  1.00  0.00     0.031 A 
ATOM     42  C   UNL A   1      44.369  25.309  27.035  1.00  0.00     0.074 A 
ATOM     43  C   UNL A   1      42.074  25.717  27.855  1.00  0.00     0.049 A 
ATOM     44  N   UNL A   1      44.942  26.455  27.309  1.00  0.00    -0.248 NA
ATOM     45  C   UNL A   1      45.270  24.323  26.417  1.00  0.00     0.031 C 
ATOM     46  C   UNL A   1      40.686  25.395  28.193  1.00  0.00     0.029 A 
ATOM     47  N   UNL A   1      42.221  27.019  28.265  1.00  0.00    -0.354 N 
ATOM     48  C   UNL A   1      46.265  26.321  26.913  1.00  0.00     0.074 A 
ATOM     49  C   UNL A   1      46.426  24.969  26.426  1.00  0.00     0.031 C 
ATOM     50  C   UNL A   1      40.105  26.474  28.741  1.00  0.00     0.029 A 
ATOM     51  C   UNL A   1      41.087  27.550  28.830  1.00  0.00     0.049 A 
ATOM     52  H   UNL A   1      43.059  27.525  28.163  1.00  0.00     0.167 HD
ATOM     53  C   UNL A   1      47.251  27.249  26.935  1.00  0.00     0.037 A 
ATOM     54  C   UNL A   1      40.867  28.765  29.370  1.00  0.00     0.037 A 
ATOM     55  C   UNL A   1      47.080  28.603  27.394  1.00  0.00     0.049 A 
ATOM     56  C   UNL A   1      41.983  29.776  29.382  1.00  0.00     0.074 A 
ATOM     57  C   UNL A   1      48.002  29.635  27.395  1.00  0.00     0.029 A 
ATOM     58  N   UNL A   1      45.910  29.111  27.936  1.00  0.00    -0.354 N 
ATOM     59  N   UNL A   1      43.210  29.661  28.937  1.00  0.00    -0.248 NA
ATOM     60  C   UNL A   1      41.679  31.091  29.965  1.00  0.00     0.031 C 
ATOM     61  C   UNL A   1      47.405  30.755  27.981  1.00  0.00     0.029 A 
ATOM     62  C   UNL A   1      46.093  30.437  28.296  1.00  0.00     0.049 A 
ATOM     63  H   UNL A   1      45.073  28.605  28.049  1.00  0.00     0.167 HD
ATOM     64  C   UNL A   1      43.813  30.892  29.156  1.00  0.00     0.074 A 
ATOM     65  C   UNL A   1      42.813  31.745  29.761  1.00  0.00     0.031 C 
ATOM     66  C   UNL A   1      45.082  31.279  28.882  1.00  0.00     0.037 A 
BRANCH  53  67
ATOM     67  C   UNL A   1      48.608  26.838  26.441  1.00  0.00     0.064 A 
ATOM     68  C   UNL A   1      48.987  27.012  25.102  1.00  0.00     0.173 A 
ATOM     69  C   UNL A   1      49.560  26.315  27.330  1.00  0.00     0.173 A 
ATOM     70  F   UNL A   1      48.111  27.499  24.210  1.00  0.00    -0.203 F 
ATOM     71  C   UNL A   1      50.261  26.658  24.666  1.00  0.00     0.198 A 
ATOM     72  C   UNL A   1      50.843  25.989  26.896  1.00  0.00     0.198 A 
ATOM     73  F   UNL A   1      49.252  26.133  28.622  1.00  0.00    -0.203 F 
ATOM     74  F   UNL A   1      50.587  26.794  23.372  1.00  0.00    -0.200 F 
ATOM     75  C   UNL A   1      51.191  26.156  25.564  1.00  0.00     0.200 A 
ATOM     76  F   UNL A   1      51.744  25.518  27.768  1.00  0.00    -0.200 F 
ATOM     77  F   UNL A   1      52.420  25.826  25.145  1.00  0.00    -0.200 F 
ENDBRANCH  53  67
BRANCH  54  78
ATOM     78  C   UNL A   1      39.533  29.102  29.930  1.00  0.00     0.064 A 
ATOM     79  C   UNL A   1      38.561  29.738  29.145  1.00  0.00     0.173 A 
ATOM     80  C   UNL A   1      39.207  28.816  31.264  1.00  0.00     0.173 A 
ATOM     81  F   UNL A   1      38.831  30.052  27.869  1.00  0.00    -0.203 F 
ATOM     82  C   UNL A   1      37.325  30.100  29.678  1.00  0.00     0.198 A 
ATOM     83  C   UNL A   1      37.960  29.150  31.788  1.00  0.00     0.198 A 
ATOM     84  F   UNL A   1      40.098  28.203  32.057  1.00  0.00    -0.203 F 
ATOM     85  F   UNL A   1      36.437  30.756  28.920  1.00  0.00    -0.200 F 
ATOM     86  C   UNL A   1      37.024  29.801  30.999  1.00  0.00     0.200 A 
ATOM     87  F   UNL A   1      37.667  28.846  33.060  1.00  0.00    -0.200 F 
ATOM     88  F   UNL A   1      35.837  30.149  31.512  1.00  0.00    -0.200 F 
ENDBRANCH  54  78
BRANCH  66  89
ATOM     89  C   UNL A   1      45.451  32.701  29.189  1.00  0.00     0.064 A 
ATOM     90  C   UNL A   1      46.030  33.067  30.413  1.00  0.00     0.173 A 
ATOM     91  C   UNL A   1      45.260  33.706  28.227  1.00  0.00     0.173 A 
ATOM     92  F   UNL A   1      46.220  32.146  31.371  1.00  0.00    -0.203 F 
ATOM     93  C   UNL A   1      46.381  34.389  30.673  1.00  0.00     0.198 A 
ATOM     94  C   UNL A   1      45.640  35.020  28.478  1.00  0.00     0.198 A 
ATOM     95  F   UNL A   1      44.717  33.409  27.038  1.00  0.00    -0.203 F 
ATOM     96  F   UNL A   1      46.888  34.723  31.866  1.00  0.00    -0.200 F 
ATOM     97  C   UNL A   1      46.194  35.363  29.702  1.00  0.00     0.200 A 
ATOM     98  F   UNL A   1      45.473  35.957  27.534  1.00  0.00    -0.200 F 
ATOM     99  F   UNL A   1      46.540  36.633  29.951  1.00  0.00    -0.200 F 
ENDBRANCH  66  89
ENDBRANCH  40  41
ENDBRANCH  32  35
ENDBRANCH  30  31
ENDBRANCH  29  30
ENDBRANCH   1  29
TORSDOF 15
ENDMDL
