MODEL 1
REMARK VINA RESULT:     -13.9      0.000      0.000
REMARK SMILES O=C(NCCCCNC(=O)c1ccc(-c2c3nc(c(-c4c(F)c(F)c(F)c(F)c4F)c4ccc([nH]4)c(-c4c(F)c(F)c(F)c(F)c4F)c4nc(c(-c5c(F)c(F)c(F)c(F)c5F)c5ccc2[nH]5)C=C4)C=C3)cc1)C1=N[C@@H]2NC=NN2[C@@H]([C@H]2C=NN=C2c2ccc(F)cc2)C1
REMARK SMILES IDX 5 1 4 2 3 3 1 4 2 5 74 7 75 8 94 9 76 10 81 11 77 12 80 13
REMARK SMILES IDX 78 14 79 16 82 17 83 18 86 19 84 20 85 21 87 22 88 23 93 24
REMARK SMILES IDX 89 25 92 26 90 27 91 28 6 29 7 30 8 31 9 32 10 34 11 35
REMARK SMILES IDX 12 36 73 37 13 38 72 39 14 40 15 41 16 42 66 43 17 44 71 45
REMARK SMILES IDX 65 46 67 47 18 48 70 49 64 50 63 51 19 53 51 54 31 55 50 56
REMARK SMILES IDX 32 57 35 58 49 59 68 60 33 61 34 62 48 64 69 65 36 66 20 67
REMARK SMILES IDX 21 68 29 69 22 70 23 71 27 72 30 73 24 74 25 75 28 76 26 77
REMARK SMILES IDX 52 78 53 79 61 80 54 81 55 82 59 83 62 84 56 85 57 86 60 87
REMARK SMILES IDX 58 88 37 89 38 90 46 91 39 92 40 93 44 94 47 95 41 96 42 97
REMARK SMILES IDX 45 98 43 99
REMARK H PARENT 3 6 77 15 8 33 67 52 35 63
REMARK Flexibility Score: inf
ROOT
ATOM      1  C   UNL A   1      31.233  28.288  24.328  1.00  0.00     0.023 C 
ENDROOT
BRANCH   1   2
ATOM      2  C   UNL A   1      30.922  26.796  24.275  1.00  0.00     0.116 C 
BRANCH   2   3
ATOM      3  N   UNL A   1      29.863  26.327  25.142  1.00  0.00    -0.351 N 
ATOM      4  O   UNL A   1      28.961  25.204  26.875  1.00  0.00    -0.268 OA
ATOM      5  C   UNL A   1      29.890  25.315  26.081  1.00  0.00     0.265 C 
ATOM      6  H   UNL A   1      29.002  26.796  25.050  1.00  0.00     0.163 HD
BRANCH   5   7
ATOM      7  C   UNL A   1      31.001  24.248  26.094  1.00  0.00     0.106 C 
ATOM      8  N   UNL A   1      31.259  23.710  27.238  1.00  0.00    -0.237 NA
ATOM      9  C   UNL A   1      31.732  23.920  24.817  1.00  0.00     0.090 C 
ATOM     10  C   UNL A   1      32.071  22.519  27.291  1.00  0.00     0.319 C 
ATOM     11  C   UNL A   1      32.892  22.962  25.081  1.00  0.00     0.127 C 
ATOM     12  N   UNL A   1      33.262  22.504  28.091  1.00  0.00    -0.335 N 
ATOM     13  N   UNL A   1      32.492  21.883  26.018  1.00  0.00    -0.249 NA
ATOM     14  C   UNL A   1      34.028  21.538  27.508  1.00  0.00     0.217 C 
ATOM     15  H   UNL A   1      33.476  23.059  28.876  1.00  0.00     0.165 HD
ATOM     16  N   UNL A   1      33.614  21.084  26.352  1.00  0.00    -0.164 NA
BRANCH  11  17
ATOM     17  C   UNL A   1      33.534  22.330  23.836  1.00  0.00     0.109 C 
ATOM     18  C   UNL A   1      32.932  22.782  22.548  1.00  0.00     0.120 C 
ATOM     19  C   UNL A   1      34.935  22.776  23.558  1.00  0.00     0.081 C 
ATOM     20  N   UNL A   1      33.788  23.327  21.747  1.00  0.00    -0.162 NA
ATOM     21  N   UNL A   1      35.061  23.332  22.390  1.00  0.00    -0.155 NA
BRANCH  19  22
ATOM     22  C   UNL A   1      36.012  22.685  24.559  1.00  0.00    -0.001 A 
ATOM     23  C   UNL A   1      36.378  23.780  25.350  1.00  0.00     0.013 A 
ATOM     24  C   UNL A   1      36.762  21.503  24.596  1.00  0.00     0.013 A 
ATOM     25  C   UNL A   1      37.539  23.715  26.122  1.00  0.00     0.040 A 
ATOM     26  C   UNL A   1      37.918  21.442  25.373  1.00  0.00     0.040 A 
ATOM     27  C   UNL A   1      38.304  22.553  26.114  1.00  0.00     0.123 A 
ATOM     28  F   UNL A   1      39.438  22.508  26.824  1.00  0.00    -0.207 F 
ENDBRANCH  19  22
ENDBRANCH  11  17
ENDBRANCH   5   7
ENDBRANCH   2   3
ENDBRANCH   1   2
BRANCH   1  29
ATOM     29  C   UNL A   1      31.579  28.903  25.680  1.00  0.00     0.023 C 
BRANCH  29  30
ATOM     30  C   UNL A   1      32.841  29.758  25.747  1.00  0.00     0.116 C 
BRANCH  30  31
ATOM     31  N   UNL A   1      32.628  31.082  26.310  1.00  0.00    -0.352 N 
ATOM     32  C   UNL A   1      33.334  31.801  27.246  1.00  0.00     0.251 C 
ATOM     33  H   UNL A   1      31.835  31.548  25.957  1.00  0.00     0.163 HD
ATOM     34  O   UNL A   1      32.890  32.879  27.626  1.00  0.00    -0.269 OA
BRANCH  32  35
ATOM     35  C   UNL A   1      34.596  31.290  27.841  1.00  0.00     0.039 A 
ATOM     36  C   UNL A   1      35.659  32.187  28.001  1.00  0.00     0.014 A 
ATOM     37  C   UNL A   1      34.768  29.956  28.209  1.00  0.00     0.014 A 
ATOM     38  C   UNL A   1      36.849  31.766  28.600  1.00  0.00     0.010 A 
ATOM     39  C   UNL A   1      35.919  29.559  28.894  1.00  0.00     0.010 A 
ATOM     40  C   UNL A   1      36.974  30.459  29.101  1.00  0.00    -0.014 A 
BRANCH  40  41
ATOM     41  C   UNL A   1      38.186  30.057  29.865  1.00  0.00     0.031 A 
ATOM     42  C   UNL A   1      38.407  30.515  31.282  1.00  0.00     0.074 A 
ATOM     43  C   UNL A   1      39.117  29.290  29.262  1.00  0.00     0.049 A 
ATOM     44  N   UNL A   1      39.379  30.213  32.108  1.00  0.00    -0.248 NA
ATOM     45  C   UNL A   1      37.425  31.457  31.836  1.00  0.00     0.031 C 
ATOM     46  C   UNL A   1      39.061  28.834  27.872  1.00  0.00     0.029 A 
ATOM     47  N   UNL A   1      40.284  28.748  29.740  1.00  0.00    -0.354 N 
ATOM     48  C   UNL A   1      39.129  30.931  33.271  1.00  0.00     0.074 A 
ATOM     49  C   UNL A   1      37.949  31.730  33.022  1.00  0.00     0.031 C 
ATOM     50  C   UNL A   1      40.111  28.036  27.626  1.00  0.00     0.029 A 
ATOM     51  C   UNL A   1      40.937  27.954  28.826  1.00  0.00     0.049 A 
ATOM     52  H   UNL A   1      40.622  28.911  30.650  1.00  0.00     0.167 HD
ATOM     53  C   UNL A   1      39.806  30.908  34.444  1.00  0.00     0.037 A 
ATOM     54  C   UNL A   1      42.066  27.231  28.945  1.00  0.00     0.037 A 
ATOM     55  C   UNL A   1      40.975  30.102  34.692  1.00  0.00     0.049 A 
ATOM     56  C   UNL A   1      42.795  27.220  30.260  1.00  0.00     0.074 A 
ATOM     57  C   UNL A   1      41.689  29.953  35.870  1.00  0.00     0.029 A 
ATOM     58  N   UNL A   1      41.612  29.317  33.741  1.00  0.00    -0.354 N 
ATOM     59  N   UNL A   1      42.493  27.824  31.383  1.00  0.00    -0.248 NA
ATOM     60  C   UNL A   1      44.019  26.410  30.325  1.00  0.00     0.031 C 
ATOM     61  C   UNL A   1      42.795  29.134  35.613  1.00  0.00     0.029 A 
ATOM     62  C   UNL A   1      42.731  28.711  34.295  1.00  0.00     0.049 A 
ATOM     63  H   UNL A   1      41.314  29.207  32.809  1.00  0.00     0.167 HD
ATOM     64  C   UNL A   1      43.469  27.445  32.295  1.00  0.00     0.074 A 
ATOM     65  C   UNL A   1      44.357  26.537  31.600  1.00  0.00     0.031 C 
ATOM     66  C   UNL A   1      43.617  27.816  33.592  1.00  0.00     0.037 A 
BRANCH  53  67
ATOM     67  C   UNL A   1      39.305  31.794  35.554  1.00  0.00     0.064 A 
ATOM     68  C   UNL A   1      38.397  31.333  36.521  1.00  0.00     0.173 A 
ATOM     69  C   UNL A   1      39.762  33.117  35.669  1.00  0.00     0.173 A 
ATOM     70  F   UNL A   1      37.921  30.080  36.457  1.00  0.00    -0.203 F 
ATOM     71  C   UNL A   1      37.936  32.172  37.533  1.00  0.00     0.198 A 
ATOM     72  C   UNL A   1      39.327  33.941  36.704  1.00  0.00     0.198 A 
ATOM     73  F   UNL A   1      40.637  33.610  34.780  1.00  0.00    -0.203 F 
ATOM     74  F   UNL A   1      37.022  31.726  38.406  1.00  0.00    -0.200 F 
ATOM     75  C   UNL A   1      38.407  33.472  37.628  1.00  0.00     0.200 A 
ATOM     76  F   UNL A   1      39.797  35.193  36.804  1.00  0.00    -0.200 F 
ATOM     77  F   UNL A   1      37.966  34.276  38.605  1.00  0.00    -0.200 F 
ENDBRANCH  53  67
BRANCH  54  78
ATOM     78  C   UNL A   1      42.551  26.415  27.799  1.00  0.00     0.064 A 
ATOM     79  C   UNL A   1      43.502  26.925  26.905  1.00  0.00     0.173 A 
ATOM     80  C   UNL A   1      42.072  25.117  27.570  1.00  0.00     0.173 A 
ATOM     81  F   UNL A   1      43.977  28.169  27.069  1.00  0.00    -0.203 F 
ATOM     82  C   UNL A   1      43.941  26.178  25.813  1.00  0.00     0.198 A 
ATOM     83  C   UNL A   1      42.534  24.358  26.497  1.00  0.00     0.198 A 
ATOM     84  F   UNL A   1      41.164  24.579  28.398  1.00  0.00    -0.203 F 
ATOM     85  F   UNL A   1      44.812  26.710  24.946  1.00  0.00    -0.200 F 
ATOM     86  C   UNL A   1      43.460  24.892  25.614  1.00  0.00     0.200 A 
ATOM     87  F   UNL A   1      42.081  23.110  26.318  1.00  0.00    -0.200 F 
ATOM     88  F   UNL A   1      43.885  24.171  24.567  1.00  0.00    -0.200 F 
ENDBRANCH  54  78
BRANCH  66  89
ATOM     89  C   UNL A   1      44.767  27.208  34.348  1.00  0.00     0.064 A 
ATOM     90  C   UNL A   1      46.023  27.831  34.416  1.00  0.00     0.173 A 
ATOM     91  C   UNL A   1      44.615  25.976  35.004  1.00  0.00     0.173 A 
ATOM     92  F   UNL A   1      46.230  29.004  33.797  1.00  0.00    -0.203 F 
ATOM     93  C   UNL A   1      47.096  27.218  35.060  1.00  0.00     0.198 A 
ATOM     94  C   UNL A   1      45.677  25.386  35.683  1.00  0.00     0.198 A 
ATOM     95  F   UNL A   1      43.433  25.340  34.983  1.00  0.00    -0.203 F 
ATOM     96  F   UNL A   1      48.305  27.794  35.040  1.00  0.00    -0.200 F 
ATOM     97  C   UNL A   1      46.920  26.000  35.697  1.00  0.00     0.200 A 
ATOM     98  F   UNL A   1      45.501  24.217  36.313  1.00  0.00    -0.200 F 
ATOM     99  F   UNL A   1      47.954  25.408  36.311  1.00  0.00    -0.200 F 
ENDBRANCH  66  89
ENDBRANCH  40  41
ENDBRANCH  32  35
ENDBRANCH  30  31
ENDBRANCH  29  30
ENDBRANCH   1  29
TORSDOF 13
ENDMDL
MODEL 2
REMARK VINA RESULT:     -13.7      2.790      3.905
REMARK SMILES O=C(NCCCCNC(=O)c1ccc(-c2c3nc(c(-c4c(F)c(F)c(F)c(F)c4F)c4ccc([nH]4)c(-c4c(F)c(F)c(F)c(F)c4F)c4nc(c(-c5c(F)c(F)c(F)c(F)c5F)c5ccc2[nH]5)C=C4)C=C3)cc1)C1=N[C@@H]2NC=NN2[C@@H]([C@H]2C=NN=C2c2ccc(F)cc2)C1
REMARK SMILES IDX 5 1 4 2 3 3 1 4 2 5 74 7 75 8 94 9 76 10 81 11 77 12 80 13
REMARK SMILES IDX 78 14 79 16 82 17 83 18 86 19 84 20 85 21 87 22 88 23 93 24
REMARK SMILES IDX 89 25 92 26 90 27 91 28 6 29 7 30 8 31 9 32 10 34 11 35
REMARK SMILES IDX 12 36 73 37 13 38 72 39 14 40 15 41 16 42 66 43 17 44 71 45
REMARK SMILES IDX 65 46 67 47 18 48 70 49 64 50 63 51 19 53 51 54 31 55 50 56
REMARK SMILES IDX 32 57 35 58 49 59 68 60 33 61 34 62 48 64 69 65 36 66 20 67
REMARK SMILES IDX 21 68 29 69 22 70 23 71 27 72 30 73 24 74 25 75 28 76 26 77
REMARK SMILES IDX 52 78 53 79 61 80 54 81 55 82 59 83 62 84 56 85 57 86 60 87
REMARK SMILES IDX 58 88 37 89 38 90 46 91 39 92 40 93 44 94 47 95 41 96 42 97
REMARK SMILES IDX 45 98 43 99
REMARK H PARENT 3 6 77 15 8 33 67 52 35 63
REMARK Flexibility Score: inf
ROOT
ATOM      1  C   UNL A   1      31.881  28.106  25.284  1.00  0.00     0.023 C 
ENDROOT
BRANCH   1   2
ATOM      2  C   UNL A   1      31.091  27.002  24.590  1.00  0.00     0.116 C 
BRANCH   2   3
ATOM      3  N   UNL A   1      29.965  26.460  25.320  1.00  0.00    -0.351 N 
ATOM      4  O   UNL A   1      28.924  25.178  26.854  1.00  0.00    -0.268 OA
ATOM      5  C   UNL A   1      29.914  25.358  26.150  1.00  0.00     0.265 C 
ATOM      6  H   UNL A   1      29.115  26.946  25.209  1.00  0.00     0.163 HD
BRANCH   5   7
ATOM      7  C   UNL A   1      31.016  24.282  26.141  1.00  0.00     0.106 C 
ATOM      8  N   UNL A   1      31.286  23.735  27.278  1.00  0.00    -0.237 NA
ATOM      9  C   UNL A   1      31.727  23.956  24.853  1.00  0.00     0.090 C 
ATOM     10  C   UNL A   1      32.089  22.537  27.313  1.00  0.00     0.319 C 
ATOM     11  C   UNL A   1      32.882  22.988  25.095  1.00  0.00     0.127 C 
ATOM     12  N   UNL A   1      33.291  22.508  28.097  1.00  0.00    -0.335 N 
ATOM     13  N   UNL A   1      32.487  21.906  26.031  1.00  0.00    -0.249 NA
ATOM     14  C   UNL A   1      34.041  21.540  27.497  1.00  0.00     0.217 C 
ATOM     15  H   UNL A   1      33.519  23.056  28.882  1.00  0.00     0.165 HD
ATOM     16  N   UNL A   1      33.607  21.096  26.344  1.00  0.00    -0.164 NA
BRANCH  11  17
ATOM     17  C   UNL A   1      33.503  22.358  23.837  1.00  0.00     0.109 C 
ATOM     18  C   UNL A   1      32.855  22.786  22.563  1.00  0.00     0.120 C 
ATOM     19  C   UNL A   1      34.886  22.831  23.515  1.00  0.00     0.081 C 
ATOM     20  N   UNL A   1      33.676  23.342  21.734  1.00  0.00    -0.162 NA
ATOM     21  N   UNL A   1      34.967  23.379  22.340  1.00  0.00    -0.155 NA
BRANCH  19  22
ATOM     22  C   UNL A   1      35.992  22.771  24.486  1.00  0.00    -0.001 A 
ATOM     23  C   UNL A   1      36.357  23.882  25.258  1.00  0.00     0.013 A 
ATOM     24  C   UNL A   1      36.768  21.606  24.512  1.00  0.00     0.013 A 
ATOM     25  C   UNL A   1      37.540  23.848  25.996  1.00  0.00     0.040 A 
ATOM     26  C   UNL A   1      37.946  21.577  25.256  1.00  0.00     0.040 A 
ATOM     27  C   UNL A   1      38.329  22.702  25.977  1.00  0.00     0.123 A 
ATOM     28  F   UNL A   1      39.484  22.687  26.654  1.00  0.00    -0.207 F 
ENDBRANCH  19  22
ENDBRANCH  11  17
ENDBRANCH   5   7
ENDBRANCH   2   3
ENDBRANCH   1   2
BRANCH   1  29
ATOM     29  C   UNL A   1      32.318  27.881  26.727  1.00  0.00     0.023 C 
BRANCH  29  30
ATOM     30  C   UNL A   1      33.690  28.416  27.125  1.00  0.00     0.116 C 
BRANCH  30  31
ATOM     31  N   UNL A   1      33.675  29.797  27.580  1.00  0.00    -0.352 N 
ATOM     32  C   UNL A   1      34.639  30.569  28.187  1.00  0.00     0.251 C 
ATOM     33  H   UNL A   1      32.823  30.265  27.425  1.00  0.00     0.163 HD
ATOM     34  O   UNL A   1      34.346  31.699  28.562  1.00  0.00    -0.269 OA
BRANCH  32  35
ATOM     35  C   UNL A   1      36.011  30.059  28.439  1.00  0.00     0.039 A 
ATOM     36  C   UNL A   1      36.962  30.196  27.422  1.00  0.00     0.014 A 
ATOM     37  C   UNL A   1      36.370  29.425  29.629  1.00  0.00     0.014 A 
ATOM     38  C   UNL A   1      38.278  29.775  27.630  1.00  0.00     0.010 A 
ATOM     39  C   UNL A   1      37.706  29.093  29.872  1.00  0.00     0.010 A 
ATOM     40  C   UNL A   1      38.677  29.266  28.877  1.00  0.00    -0.014 A 
BRANCH  40  41
ATOM     41  C   UNL A   1      40.109  28.955  29.142  1.00  0.00     0.031 A 
ATOM     42  C   UNL A   1      40.977  29.883  29.948  1.00  0.00     0.074 A 
ATOM     43  C   UNL A   1      40.642  27.831  28.622  1.00  0.00     0.049 A 
ATOM     44  N   UNL A   1      42.227  29.736  30.317  1.00  0.00    -0.248 NA
ATOM     45  C   UNL A   1      40.375  31.154  30.372  1.00  0.00     0.031 C 
ATOM     46  C   UNL A   1      39.932  26.879  27.764  1.00  0.00     0.029 A 
ATOM     47  N   UNL A   1      41.897  27.289  28.744  1.00  0.00    -0.354 N 
ATOM     48  C   UNL A   1      42.559  30.895  31.008  1.00  0.00     0.074 A 
ATOM     49  C   UNL A   1      41.401  31.760  30.952  1.00  0.00     0.031 C 
ATOM     50  C   UNL A   1      40.740  25.846  27.488  1.00  0.00     0.029 A 
ATOM     51  C   UNL A   1      42.038  26.076  28.112  1.00  0.00     0.049 A 
ATOM     52  H   UNL A   1      42.628  27.727  29.238  1.00  0.00     0.167 HD
ATOM     53  C   UNL A   1      43.713  31.200  31.648  1.00  0.00     0.037 A 
ATOM     54  C   UNL A   1      43.090  25.238  28.052  1.00  0.00     0.037 A 
ATOM     55  C   UNL A   1      44.862  30.330  31.710  1.00  0.00     0.049 A 
ATOM     56  C   UNL A   1      44.357  25.598  28.776  1.00  0.00     0.074 A 
ATOM     57  C   UNL A   1      46.052  30.517  32.395  1.00  0.00     0.029 A 
ATOM     58  N   UNL A   1      44.971  29.114  31.051  1.00  0.00    -0.354 N 
ATOM     59  N   UNL A   1      44.625  26.651  29.509  1.00  0.00    -0.248 NA
ATOM     60  C   UNL A   1      45.467  24.640  28.672  1.00  0.00     0.031 C 
ATOM     61  C   UNL A   1      46.904  29.448  32.094  1.00  0.00     0.029 A 
ATOM     62  C   UNL A   1      46.220  28.557  31.283  1.00  0.00     0.049 A 
ATOM     63  H   UNL A   1      44.265  28.706  30.498  1.00  0.00     0.167 HD
ATOM     64  C   UNL A   1      45.919  26.470  29.979  1.00  0.00     0.074 A 
ATOM     65  C   UNL A   1      46.371  25.192  29.468  1.00  0.00     0.031 C 
ATOM     66  C   UNL A   1      46.667  27.288  30.761  1.00  0.00     0.037 A 
BRANCH  53  67
ATOM     67  C   UNL A   1      43.799  32.541  32.327  1.00  0.00     0.064 A 
ATOM     68  C   UNL A   1      43.398  32.726  33.660  1.00  0.00     0.173 A 
ATOM     69  C   UNL A   1      44.318  33.653  31.643  1.00  0.00     0.173 A 
ATOM     70  F   UNL A   1      42.890  31.700  34.361  1.00  0.00    -0.203 F 
ATOM     71  C   UNL A   1      43.475  33.977  34.267  1.00  0.00     0.198 A 
ATOM     72  C   UNL A   1      44.426  34.894  32.266  1.00  0.00     0.198 A 
ATOM     73  F   UNL A   1      44.725  33.534  30.371  1.00  0.00    -0.203 F 
ATOM     74  F   UNL A   1      43.028  34.141  35.520  1.00  0.00    -0.200 F 
ATOM     75  C   UNL A   1      43.996  35.058  33.572  1.00  0.00     0.200 A 
ATOM     76  F   UNL A   1      44.946  35.933  31.597  1.00  0.00    -0.200 F 
ATOM     77  F   UNL A   1      44.072  36.260  34.160  1.00  0.00    -0.200 F 
ENDBRANCH  53  67
BRANCH  54  78
ATOM     78  C   UNL A   1      42.972  23.947  27.320  1.00  0.00     0.064 A 
ATOM     79  C   UNL A   1      42.518  22.791  27.970  1.00  0.00     0.173 A 
ATOM     80  C   UNL A   1      43.313  23.841  25.964  1.00  0.00     0.173 A 
ATOM     81  F   UNL A   1      42.197  22.837  29.272  1.00  0.00    -0.203 F 
ATOM     82  C   UNL A   1      42.431  21.573  27.299  1.00  0.00     0.198 A 
ATOM     83  C   UNL A   1      43.196  22.629  25.285  1.00  0.00     0.198 A 
ATOM     84  F   UNL A   1      43.749  24.917  25.293  1.00  0.00    -0.203 F 
ATOM     85  F   UNL A   1      42.044  20.474  27.959  1.00  0.00    -0.200 F 
ATOM     86  C   UNL A   1      42.765  21.495  25.955  1.00  0.00     0.200 A 
ATOM     87  F   UNL A   1      43.502  22.562  23.983  1.00  0.00    -0.200 F 
ATOM     88  F   UNL A   1      42.676  20.324  25.309  1.00  0.00    -0.200 F 
ENDBRANCH  54  78
BRANCH  66  89
ATOM     89  C   UNL A   1      48.040  26.802  31.139  1.00  0.00     0.064 A 
ATOM     90  C   UNL A   1      48.256  25.985  32.260  1.00  0.00     0.173 A 
ATOM     91  C   UNL A   1      49.159  27.170  30.376  1.00  0.00     0.173 A 
ATOM     92  F   UNL A   1      47.224  25.612  33.033  1.00  0.00    -0.203 F 
ATOM     93  C   UNL A   1      49.543  25.604  32.634  1.00  0.00     0.198 A 
ATOM     94  C   UNL A   1      50.439  26.752  30.728  1.00  0.00     0.198 A 
ATOM     95  F   UNL A   1      49.012  27.940  29.286  1.00  0.00    -0.203 F 
ATOM     96  F   UNL A   1      49.729  24.893  33.755  1.00  0.00    -0.200 F 
ATOM     97  C   UNL A   1      50.632  25.984  31.866  1.00  0.00     0.200 A 
ATOM     98  F   UNL A   1      51.489  27.106  29.974  1.00  0.00    -0.200 F 
ATOM     99  F   UNL A   1      51.869  25.622  32.231  1.00  0.00    -0.200 F 
ENDBRANCH  66  89
ENDBRANCH  40  41
ENDBRANCH  32  35
ENDBRANCH  30  31
ENDBRANCH  29  30
ENDBRANCH   1  29
TORSDOF 13
ENDMDL
MODEL 3
REMARK VINA RESULT:     -13.7      0.507      1.709
REMARK SMILES O=C(NCCCCNC(=O)c1ccc(-c2c3nc(c(-c4c(F)c(F)c(F)c(F)c4F)c4ccc([nH]4)c(-c4c(F)c(F)c(F)c(F)c4F)c4nc(c(-c5c(F)c(F)c(F)c(F)c5F)c5ccc2[nH]5)C=C4)C=C3)cc1)C1=N[C@@H]2NC=NN2[C@@H]([C@H]2C=NN=C2c2ccc(F)cc2)C1
REMARK SMILES IDX 5 1 4 2 3 3 1 4 2 5 74 7 75 8 94 9 76 10 81 11 77 12 80 13
REMARK SMILES IDX 78 14 79 16 82 17 83 18 86 19 84 20 85 21 87 22 88 23 93 24
REMARK SMILES IDX 89 25 92 26 90 27 91 28 6 29 7 30 8 31 9 32 10 34 11 35
REMARK SMILES IDX 12 36 73 37 13 38 72 39 14 40 15 41 16 42 66 43 17 44 71 45
REMARK SMILES IDX 65 46 67 47 18 48 70 49 64 50 63 51 19 53 51 54 31 55 50 56
REMARK SMILES IDX 32 57 35 58 49 59 68 60 33 61 34 62 48 64 69 65 36 66 20 67
REMARK SMILES IDX 21 68 29 69 22 70 23 71 27 72 30 73 24 74 25 75 28 76 26 77
REMARK SMILES IDX 52 78 53 79 61 80 54 81 55 82 59 83 62 84 56 85 57 86 60 87
REMARK SMILES IDX 58 88 37 89 38 90 46 91 39 92 40 93 44 94 47 95 41 96 42 97
REMARK SMILES IDX 45 98 43 99
REMARK H PARENT 3 6 77 15 8 33 67 52 35 63
REMARK Flexibility Score: inf
ROOT
ATOM      1  C   UNL A   1      32.250  27.386  26.236  1.00  0.00     0.023 C 
ENDROOT
BRANCH   1   2
ATOM      2  C   UNL A   1      31.216  27.103  25.151  1.00  0.00     0.116 C 
BRANCH   2   3
ATOM      3  N   UNL A   1      30.004  26.437  25.576  1.00  0.00    -0.351 N 
ATOM      4  O   UNL A   1      28.769  24.896  26.662  1.00  0.00    -0.268 OA
ATOM      5  C   UNL A   1      29.854  25.202  26.175  1.00  0.00     0.265 C 
ATOM      6  H   UNL A   1      29.169  26.933  25.414  1.00  0.00     0.163 HD
BRANCH   5   7
ATOM      7  C   UNL A   1      30.976  24.147  26.158  1.00  0.00     0.106 C 
ATOM      8  N   UNL A   1      31.257  23.597  27.289  1.00  0.00    -0.237 NA
ATOM      9  C   UNL A   1      31.692  23.845  24.866  1.00  0.00     0.090 C 
ATOM     10  C   UNL A   1      32.083  22.414  27.314  1.00  0.00     0.319 C 
ATOM     11  C   UNL A   1      32.866  22.897  25.099  1.00  0.00     0.127 C 
ATOM     12  N   UNL A   1      33.286  22.401  28.097  1.00  0.00    -0.335 N 
ATOM     13  N   UNL A   1      32.492  21.801  26.027  1.00  0.00    -0.249 NA
ATOM     14  C   UNL A   1      34.053  21.453  27.489  1.00  0.00     0.217 C 
ATOM     15  H   UNL A   1      33.504  22.948  28.886  1.00  0.00     0.165 HD
ATOM     16  N   UNL A   1      33.627  21.010  26.333  1.00  0.00    -0.164 NA
BRANCH  11  17
ATOM     17  C   UNL A   1      33.496  22.289  23.836  1.00  0.00     0.109 C 
ATOM     18  C   UNL A   1      32.864  22.745  22.564  1.00  0.00     0.120 C 
ATOM     19  C   UNL A   1      34.885  22.762  23.538  1.00  0.00     0.081 C 
ATOM     20  N   UNL A   1      33.697  23.313  21.754  1.00  0.00    -0.162 NA
ATOM     21  N   UNL A   1      34.981  23.332  22.375  1.00  0.00    -0.155 NA
BRANCH  19  22
ATOM     22  C   UNL A   1      35.980  22.677  24.520  1.00  0.00    -0.001 A 
ATOM     23  C   UNL A   1      36.310  23.755  25.351  1.00  0.00     0.013 A 
ATOM     24  C   UNL A   1      36.783  21.531  24.497  1.00  0.00     0.013 A 
ATOM     25  C   UNL A   1      37.485  23.710  26.103  1.00  0.00     0.040 A 
ATOM     26  C   UNL A   1      37.952  21.490  25.254  1.00  0.00     0.040 A 
ATOM     27  C   UNL A   1      38.301  22.586  26.036  1.00  0.00     0.123 A 
ATOM     28  F   UNL A   1      39.446  22.563  26.727  1.00  0.00    -0.207 F 
ENDBRANCH  19  22
ENDBRANCH  11  17
ENDBRANCH   5   7
ENDBRANCH   2   3
ENDBRANCH   1   2
BRANCH   1  29
ATOM     29  C   UNL A   1      33.696  27.612  25.809  1.00  0.00     0.023 C 
BRANCH  29  30
ATOM     30  C   UNL A   1      34.021  28.947  25.147  1.00  0.00     0.116 C 
BRANCH  30  31
ATOM     31  N   UNL A   1      33.286  30.075  25.698  1.00  0.00    -0.352 N 
ATOM     32  C   UNL A   1      33.509  30.856  26.808  1.00  0.00     0.251 C 
ATOM     33  H   UNL A   1      32.484  30.324  25.183  1.00  0.00     0.163 HD
ATOM     34  O   UNL A   1      32.678  31.703  27.115  1.00  0.00    -0.269 OA
BRANCH  32  35
ATOM     35  C   UNL A   1      34.706  30.674  27.669  1.00  0.00     0.039 A 
ATOM     36  C   UNL A   1      34.739  29.569  28.527  1.00  0.00     0.014 A 
ATOM     37  C   UNL A   1      35.770  31.576  27.677  1.00  0.00     0.014 A 
ATOM     38  C   UNL A   1      35.864  29.329  29.320  1.00  0.00     0.010 A 
ATOM     39  C   UNL A   1      36.932  31.285  28.396  1.00  0.00     0.010 A 
ATOM     40  C   UNL A   1      36.996  30.157  29.225  1.00  0.00    -0.014 A 
BRANCH  40  41
ATOM     41  C   UNL A   1      38.243  29.817  29.962  1.00  0.00     0.031 A 
ATOM     42  C   UNL A   1      38.504  30.346  31.346  1.00  0.00     0.074 A 
ATOM     43  C   UNL A   1      39.169  29.042  29.362  1.00  0.00     0.049 A 
ATOM     44  N   UNL A   1      39.513  30.103  32.149  1.00  0.00    -0.248 NA
ATOM     45  C   UNL A   1      37.522  31.293  31.892  1.00  0.00     0.031 C 
ATOM     46  C   UNL A   1      39.074  28.520  27.997  1.00  0.00     0.029 A 
ATOM     47  N   UNL A   1      40.365  28.548  29.820  1.00  0.00    -0.354 N 
ATOM     48  C   UNL A   1      39.288  30.871  33.286  1.00  0.00     0.074 A 
ATOM     49  C   UNL A   1      38.083  31.632  33.044  1.00  0.00     0.031 C 
ATOM     50  C   UNL A   1      40.132  27.734  27.750  1.00  0.00     0.029 A 
ATOM     51  C   UNL A   1      41.002  27.726  28.921  1.00  0.00     0.049 A 
ATOM     52  H   UNL A   1      40.732  28.761  30.709  1.00  0.00     0.167 HD
ATOM     53  C   UNL A   1      40.007  30.918  34.434  1.00  0.00     0.037 A 
ATOM     54  C   UNL A   1      42.152  27.033  29.031  1.00  0.00     0.037 A 
ATOM     55  C   UNL A   1      41.203  30.148  34.676  1.00  0.00     0.049 A 
ATOM     56  C   UNL A   1      42.927  27.099  30.318  1.00  0.00     0.074 A 
ATOM     57  C   UNL A   1      41.962  30.070  35.832  1.00  0.00     0.029 A 
ATOM     58  N   UNL A   1      41.823  29.333  33.739  1.00  0.00    -0.354 N 
ATOM     59  N   UNL A   1      42.652  27.749  31.422  1.00  0.00    -0.248 NA
ATOM     60  C   UNL A   1      44.171  26.319  30.374  1.00  0.00     0.031 C 
ATOM     61  C   UNL A   1      43.076  29.264  35.572  1.00  0.00     0.029 A 
ATOM     62  C   UNL A   1      42.974  28.778  34.279  1.00  0.00     0.049 A 
ATOM     63  H   UNL A   1      41.494  29.173  32.825  1.00  0.00     0.167 HD
ATOM     64  C   UNL A   1      43.668  27.435  32.314  1.00  0.00     0.074 A 
ATOM     65  C   UNL A   1      44.551  26.514  31.629  1.00  0.00     0.031 C 
ATOM     66  C   UNL A   1      43.855  27.869  33.586  1.00  0.00     0.037 A 
BRANCH  53  67
ATOM     67  C   UNL A   1      39.526  31.844  35.519  1.00  0.00     0.064 A 
ATOM     68  C   UNL A   1      40.002  33.160  35.637  1.00  0.00     0.173 A 
ATOM     69  C   UNL A   1      38.553  31.418  36.438  1.00  0.00     0.173 A 
ATOM     70  F   UNL A   1      40.937  33.619  34.791  1.00  0.00    -0.203 F 
ATOM     71  C   UNL A   1      39.553  33.997  36.656  1.00  0.00     0.198 A 
ATOM     72  C   UNL A   1      38.081  32.271  37.432  1.00  0.00     0.198 A 
ATOM     73  F   UNL A   1      38.056  30.174  36.368  1.00  0.00    -0.203 F 
ATOM     74  F   UNL A   1      40.069  35.228  36.785  1.00  0.00    -0.200 F 
ATOM     75  C   UNL A   1      38.588  33.555  37.547  1.00  0.00     0.200 A 
ATOM     76  F   UNL A   1      37.135  31.846  38.283  1.00  0.00    -0.200 F 
ATOM     77  F   UNL A   1      38.154  34.364  38.524  1.00  0.00    -0.200 F 
ENDBRANCH  53  67
BRANCH  54  78
ATOM     78  C   UNL A   1      42.613  26.174  27.907  1.00  0.00     0.064 A 
ATOM     79  C   UNL A   1      42.196  24.839  27.805  1.00  0.00     0.173 A 
ATOM     80  C   UNL A   1      43.480  26.662  26.920  1.00  0.00     0.173 A 
ATOM     81  F   UNL A   1      41.382  24.319  28.736  1.00  0.00    -0.203 F 
ATOM     82  C   UNL A   1      42.646  24.019  26.772  1.00  0.00     0.198 A 
ATOM     83  C   UNL A   1      43.904  25.852  25.869  1.00  0.00     0.198 A 
ATOM     84  F   UNL A   1      43.906  27.933  26.968  1.00  0.00    -0.203 F 
ATOM     85  F   UNL A   1      42.272  22.734  26.729  1.00  0.00    -0.200 F 
ATOM     86  C   UNL A   1      43.495  24.529  25.801  1.00  0.00     0.200 A 
ATOM     87  F   UNL A   1      44.710  26.352  24.923  1.00  0.00    -0.200 F 
ATOM     88  F   UNL A   1      43.923  23.742  24.804  1.00  0.00    -0.200 F 
ENDBRANCH  54  78
BRANCH  66  89
ATOM     89  C   UNL A   1      45.045  27.322  34.326  1.00  0.00     0.064 A 
ATOM     90  C   UNL A   1      46.291  27.968  34.309  1.00  0.00     0.173 A 
ATOM     91  C   UNL A   1      44.941  26.125  35.052  1.00  0.00     0.173 A 
ATOM     92  F   UNL A   1      46.451  29.108  33.621  1.00  0.00    -0.203 F 
ATOM     93  C   UNL A   1      47.399  27.409  34.942  1.00  0.00     0.198 A 
ATOM     94  C   UNL A   1      46.040  25.591  35.719  1.00  0.00     0.198 A 
ATOM     95  F   UNL A   1      43.771  25.470  35.114  1.00  0.00    -0.203 F 
ATOM     96  F   UNL A   1      48.596  28.002  34.841  1.00  0.00    -0.200 F 
ATOM     97  C   UNL A   1      47.271  26.224  35.650  1.00  0.00     0.200 A 
ATOM     98  F   UNL A   1      45.910  24.455  36.418  1.00  0.00    -0.200 F 
ATOM     99  F   UNL A   1      48.339  25.683  36.252  1.00  0.00    -0.200 F 
ENDBRANCH  66  89
ENDBRANCH  40  41
ENDBRANCH  32  35
ENDBRANCH  30  31
ENDBRANCH  29  30
ENDBRANCH   1  29
TORSDOF 13
ENDMDL
