MODEL 1
REMARK VINA RESULT:     -12.6      0.000      0.000
REMARK SMILES CC1(C)C[C@](CC(=O)NCCCCNC(=O)c2ccc(-c3c4nc(c(-c5c(F)c(F)c(F)c(F)c5F)c5ccc([nH]5)c(-c5c(F)c(F)c(F)c(F)c5F)c5nc(c(-c6c(F)c(F)c(F)c(F)c6F)c6ccc3[nH]6)C=C5)C=C4)cc2)([NH+]2CCCC2)C(C)(C)O1
REMARK SMILES IDX 11 1 10 2 9 3 7 4 8 5 6 7 5 8 1 9 2 10 3 11 4 12 88 13 85 14
REMARK SMILES IDX 86 15 87 16 80 17 81 18 84 19 82 21 83 22 12 23 13 24 14 25
REMARK SMILES IDX 15 26 16 28 17 29 18 30 79 31 19 32 78 33 20 34 21 35 22 36
REMARK SMILES IDX 72 37 23 38 77 39 71 40 73 41 24 42 76 43 70 44 69 45 25 47
REMARK SMILES IDX 57 48 37 49 56 50 38 51 41 52 55 53 74 54 39 55 40 56 54 58
REMARK SMILES IDX 75 59 42 60 26 61 27 62 35 63 28 64 29 65 33 66 36 67 30 68
REMARK SMILES IDX 31 69 34 70 32 71 58 72 59 73 67 74 60 75 61 76 65 77 68 78
REMARK SMILES IDX 62 79 63 80 66 81 64 82 43 83 44 84 52 85 45 86 46 87 50 88
REMARK SMILES IDX 53 89 47 90 48 91 51 92 49 93
REMARK H PARENT 9 6 80 20 14 27 73 46 41 57
REMARK Flexibility Score: inf
ROOT
ATOM      1  C   UNL A   1      32.633  28.978  23.749  1.00  0.00     0.023 C 
ENDROOT
BRANCH   1   2
ATOM      2  C   UNL A   1      31.775  28.040  22.912  1.00  0.00     0.116 C 
BRANCH   2   3
ATOM      3  N   UNL A   1      32.551  27.288  21.964  1.00  0.00    -0.356 N 
ATOM      4  C   UNL A   1      32.619  25.955  21.742  1.00  0.00     0.226 C 
ATOM      5  O   UNL A   1      33.186  25.618  20.695  1.00  0.00    -0.275 OA
ATOM      6  H   UNL A   1      33.130  27.833  21.382  1.00  0.00     0.163 HD
BRANCH   4   7
ATOM      7  C   UNL A   1      31.997  24.892  22.650  1.00  0.00     0.171 C 
BRANCH   7   8
ATOM      8  C   UNL A   1      32.651  24.294  23.968  1.00  0.00     0.138 C 
ATOM      9  C   UNL A   1      36.017  22.988  23.306  1.00  0.00     0.042 C 
ATOM     10  C   UNL A   1      35.009  23.474  24.361  1.00  0.00     0.070 C 
ATOM     11  C   UNL A   1      35.816  23.766  25.629  1.00  0.00     0.042 C 
ATOM     12  C   UNL A   1      34.181  24.649  23.836  1.00  0.00     0.107 C 
ATOM     13  O   UNL A   1      34.088  22.422  24.659  1.00  0.00    -0.363 OA
ATOM     14  C   UNL A   1      32.787  22.693  24.050  1.00  0.00     0.118 C 
ATOM     15  C   UNL A   1      32.856  21.903  22.713  1.00  0.00     0.049 C 
ATOM     16  C   UNL A   1      31.801  22.008  25.011  1.00  0.00     0.049 C 
BRANCH   8  17
ATOM     17  N   UNL A   1      32.179  25.008  25.193  1.00  0.00    -0.327 N 
ATOM     18  C   UNL A   1      32.978  26.036  25.850  1.00  0.00     0.263 C 
ATOM     19  C   UNL A   1      30.767  25.295  25.422  1.00  0.00     0.263 C 
ATOM     20  H   UNL A   1      32.396  24.118  25.641  1.00  0.00     0.348 HD
ATOM     21  C   UNL A   1      32.056  26.688  26.862  1.00  0.00     0.067 C 
ATOM     22  C   UNL A   1      30.711  26.611  26.187  1.00  0.00     0.067 C 
ENDBRANCH   8  17
ENDBRANCH   7   8
ENDBRANCH   4   7
ENDBRANCH   2   3
ENDBRANCH   1   2
BRANCH   1  23
ATOM     23  C   UNL A   1      31.899  29.758  24.821  1.00  0.00     0.023 C 
BRANCH  23  24
ATOM     24  C   UNL A   1      32.717  30.023  26.072  1.00  0.00     0.116 C 
BRANCH  24  25
ATOM     25  N   UNL A   1      32.537  31.356  26.640  1.00  0.00    -0.352 N 
ATOM     26  C   UNL A   1      33.400  32.109  27.410  1.00  0.00     0.251 C 
ATOM     27  H   UNL A   1      31.671  31.783  26.445  1.00  0.00     0.163 HD
ATOM     28  O   UNL A   1      33.060  33.193  27.861  1.00  0.00    -0.269 OA
BRANCH  26  29
ATOM     29  C   UNL A   1      34.728  31.548  27.730  1.00  0.00     0.039 A 
ATOM     30  C   UNL A   1      35.801  32.414  27.945  1.00  0.00     0.014 A 
ATOM     31  C   UNL A   1      34.862  30.182  27.961  1.00  0.00     0.014 A 
ATOM     32  C   UNL A   1      36.971  31.919  28.524  1.00  0.00     0.010 A 
ATOM     33  C   UNL A   1      35.957  29.727  28.676  1.00  0.00     0.010 A 
ATOM     34  C   UNL A   1      37.029  30.587  28.965  1.00  0.00    -0.014 A 
BRANCH  34  35
ATOM     35  C   UNL A   1      38.191  30.051  29.723  1.00  0.00     0.031 A 
ATOM     36  C   UNL A   1      38.401  30.475  31.152  1.00  0.00     0.074 A 
ATOM     37  C   UNL A   1      39.111  29.284  29.105  1.00  0.00     0.049 A 
ATOM     38  N   UNL A   1      39.427  30.270  31.938  1.00  0.00    -0.248 NA
ATOM     39  C   UNL A   1      37.342  31.300  31.759  1.00  0.00     0.031 C 
ATOM     40  C   UNL A   1      39.078  28.871  27.699  1.00  0.00     0.029 A 
ATOM     41  N   UNL A   1      40.267  28.717  29.584  1.00  0.00    -0.354 N 
ATOM     42  C   UNL A   1      39.159  30.985  33.097  1.00  0.00     0.074 A 
ATOM     43  C   UNL A   1      37.913  31.688  32.888  1.00  0.00     0.031 C 
ATOM     44  C   UNL A   1      40.134  28.082  27.444  1.00  0.00     0.029 A 
ATOM     45  C   UNL A   1      40.942  27.965  28.653  1.00  0.00     0.049 A 
ATOM     46  H   UNL A   1      40.584  28.840  30.508  1.00  0.00     0.167 HD
ATOM     47  C   UNL A   1      39.865  31.024  34.252  1.00  0.00     0.037 A 
ATOM     48  C   UNL A   1      42.081  27.256  28.768  1.00  0.00     0.037 A 
ATOM     49  C   UNL A   1      41.050  30.248  34.491  1.00  0.00     0.049 A 
ATOM     50  C   UNL A   1      42.800  27.238  30.090  1.00  0.00     0.074 A 
ATOM     51  C   UNL A   1      41.786  30.131  35.656  1.00  0.00     0.029 A 
ATOM     52  N   UNL A   1      41.656  29.433  33.547  1.00  0.00    -0.354 N 
ATOM     53  N   UNL A   1      42.501  27.866  31.202  1.00  0.00    -0.248 NA
ATOM     54  C   UNL A   1      44.009  26.406  30.177  1.00  0.00     0.031 C 
ATOM     55  C   UNL A   1      42.850  29.258  35.412  1.00  0.00     0.029 A 
ATOM     56  C   UNL A   1      42.759  28.808  34.104  1.00  0.00     0.049 A 
ATOM     57  H   UNL A   1      41.349  29.315  32.619  1.00  0.00     0.167 HD
ATOM     58  C   UNL A   1      43.467  27.488  32.124  1.00  0.00     0.074 A 
ATOM     59  C   UNL A   1      44.352  26.563  31.448  1.00  0.00     0.031 C 
ATOM     60  C   UNL A   1      43.611  27.875  33.415  1.00  0.00     0.037 A 
BRANCH  47  61
ATOM     61  C   UNL A   1      39.348  31.908  35.348  1.00  0.00     0.064 A 
ATOM     62  C   UNL A   1      39.679  33.271  35.414  1.00  0.00     0.173 A 
ATOM     63  C   UNL A   1      38.506  31.389  36.344  1.00  0.00     0.173 A 
ATOM     64  F   UNL A   1      40.494  33.812  34.496  1.00  0.00    -0.203 F 
ATOM     65  C   UNL A   1      39.223  34.070  36.458  1.00  0.00     0.198 A 
ATOM     66  C   UNL A   1      38.023  32.201  37.367  1.00  0.00     0.198 A 
ATOM     67  F   UNL A   1      38.155  30.095  36.326  1.00  0.00    -0.203 F 
ATOM     68  F   UNL A   1      39.609  35.351  36.535  1.00  0.00    -0.200 F 
ATOM     69  C   UNL A   1      38.391  33.537  37.430  1.00  0.00     0.200 A 
ATOM     70  F   UNL A   1      37.211  31.687  38.301  1.00  0.00    -0.200 F 
ATOM     71  F   UNL A   1      37.953  34.308  38.435  1.00  0.00    -0.200 F 
ENDBRANCH  47  61
BRANCH  48  72
ATOM     72  C   UNL A   1      42.585  26.460  27.619  1.00  0.00     0.064 A 
ATOM     73  C   UNL A   1      42.115  25.158  27.394  1.00  0.00     0.173 A 
ATOM     74  C   UNL A   1      43.540  26.970  26.730  1.00  0.00     0.173 A 
ATOM     75  F   UNL A   1      41.214  24.619  28.229  1.00  0.00    -0.203 F 
ATOM     76  C   UNL A   1      42.597  24.388  26.337  1.00  0.00     0.198 A 
ATOM     77  C   UNL A   1      44.005  26.209  25.658  1.00  0.00     0.198 A 
ATOM     78  F   UNL A   1      44.017  28.212  26.897  1.00  0.00    -0.203 F 
ATOM     79  F   UNL A   1      42.162  23.132  26.173  1.00  0.00    -0.200 F 
ATOM     80  C   UNL A   1      43.539  24.917  25.467  1.00  0.00     0.200 A 
ATOM     81  F   UNL A   1      44.905  26.726  24.813  1.00  0.00    -0.200 F 
ATOM     82  F   UNL A   1      44.003  24.177  24.451  1.00  0.00    -0.200 F 
ENDBRANCH  48  72
BRANCH  60  83
ATOM     83  C   UNL A   1      44.743  27.272  34.189  1.00  0.00     0.064 A 
ATOM     84  C   UNL A   1      44.597  26.055  34.870  1.00  0.00     0.173 A 
ATOM     85  C   UNL A   1      46.000  27.892  34.203  1.00  0.00     0.173 A 
ATOM     86  F   UNL A   1      43.408  25.434  34.896  1.00  0.00    -0.203 F 
ATOM     87  C   UNL A   1      45.668  25.490  35.556  1.00  0.00     0.198 A 
ATOM     88  C   UNL A   1      47.076  27.310  34.867  1.00  0.00     0.198 A 
ATOM     89  F   UNL A   1      46.190  29.053  33.559  1.00  0.00    -0.203 F 
ATOM     90  F   UNL A   1      45.498  24.345  36.232  1.00  0.00    -0.200 F 
ATOM     91  C   UNL A   1      46.908  26.113  35.547  1.00  0.00     0.200 A 
ATOM     92  F   UNL A   1      48.276  27.907  34.849  1.00  0.00    -0.200 F 
ATOM     93  F   UNL A   1      47.940  25.562  36.200  1.00  0.00    -0.200 F 
ENDBRANCH  60  83
ENDBRANCH  34  35
ENDBRANCH  26  29
ENDBRANCH  24  25
ENDBRANCH  23  24
ENDBRANCH   1  23
TORSDOF 13
ENDMDL
MODEL 2
REMARK VINA RESULT:     -12.4      1.038      7.714
REMARK SMILES CC1(C)C[C@](CC(=O)NCCCCNC(=O)c2ccc(-c3c4nc(c(-c5c(F)c(F)c(F)c(F)c5F)c5ccc([nH]5)c(-c5c(F)c(F)c(F)c(F)c5F)c5nc(c(-c6c(F)c(F)c(F)c(F)c6F)c6ccc3[nH]6)C=C5)C=C4)cc2)([NH+]2CCCC2)C(C)(C)O1
REMARK SMILES IDX 11 1 10 2 9 3 7 4 8 5 6 7 5 8 1 9 2 10 3 11 4 12 88 13 85 14
REMARK SMILES IDX 86 15 87 16 80 17 81 18 84 19 82 21 83 22 12 23 13 24 14 25
REMARK SMILES IDX 15 26 16 28 17 29 18 30 79 31 19 32 78 33 20 34 21 35 22 36
REMARK SMILES IDX 72 37 23 38 77 39 71 40 73 41 24 42 76 43 70 44 69 45 25 47
REMARK SMILES IDX 57 48 37 49 56 50 38 51 41 52 55 53 74 54 39 55 40 56 54 58
REMARK SMILES IDX 75 59 42 60 26 61 27 62 35 63 28 64 29 65 33 66 36 67 30 68
REMARK SMILES IDX 31 69 34 70 32 71 58 72 59 73 67 74 60 75 61 76 65 77 68 78
REMARK SMILES IDX 62 79 63 80 66 81 64 82 43 83 44 84 52 85 45 86 46 87 50 88
REMARK SMILES IDX 53 89 47 90 48 91 51 92 49 93
REMARK H PARENT 9 6 80 20 14 27 73 46 41 57
REMARK Flexibility Score: inf
ROOT
ATOM      1  C   UNL A   1      31.425  27.476  26.394  1.00  0.00     0.023 C 
ENDROOT
BRANCH   1   2
ATOM      2  C   UNL A   1      30.589  26.375  25.754  1.00  0.00     0.116 C 
BRANCH   2   3
ATOM      3  N   UNL A   1      30.615  25.157  26.516  1.00  0.00    -0.356 N 
ATOM      4  C   UNL A   1      31.616  24.270  26.725  1.00  0.00     0.226 C 
ATOM      5  O   UNL A   1      31.418  23.447  27.628  1.00  0.00    -0.275 OA
ATOM      6  H   UNL A   1      29.764  24.930  26.958  1.00  0.00     0.163 HD
BRANCH   4   7
ATOM      7  C   UNL A   1      32.951  24.278  25.978  1.00  0.00     0.171 C 
BRANCH   7   8
ATOM      8  C   UNL A   1      33.233  23.601  24.569  1.00  0.00     0.138 C 
ATOM      9  C   UNL A   1      32.314  20.047  24.593  1.00  0.00     0.042 C 
ATOM     10  C   UNL A   1      32.619  21.293  23.743  1.00  0.00     0.070 C 
ATOM     11  C   UNL A   1      32.083  21.002  22.339  1.00  0.00     0.042 C 
ATOM     12  C   UNL A   1      32.063  22.560  24.398  1.00  0.00     0.107 C 
ATOM     13  O   UNL A   1      34.034  21.467  23.646  1.00  0.00    -0.363 OA
ATOM     14  C   UNL A   1      34.472  22.577  24.489  1.00  0.00     0.118 C 
ATOM     15  C   UNL A   1      34.911  21.868  25.801  1.00  0.00     0.049 C 
ATOM     16  C   UNL A   1      35.708  23.114  23.747  1.00  0.00     0.049 C 
BRANCH   8  17
ATOM     17  N   UNL A   1      33.071  24.574  23.446  1.00  0.00    -0.327 N 
ATOM     18  C   UNL A   1      31.861  24.627  22.634  1.00  0.00     0.263 C 
ATOM     19  C   UNL A   1      33.666  25.904  23.486  1.00  0.00     0.263 C 
ATOM     20  H   UNL A   1      33.726  23.948  22.978  1.00  0.00     0.348 HD
ATOM     21  C   UNL A   1      31.978  25.893  21.806  1.00  0.00     0.067 C 
ATOM     22  C   UNL A   1      32.722  26.825  22.726  1.00  0.00     0.067 C 
ENDBRANCH   8  17
ENDBRANCH   7   8
ENDBRANCH   4   7
ENDBRANCH   2   3
ENDBRANCH   1   2
BRANCH   1  23
ATOM     23  C   UNL A   1      31.575  28.743  25.579  1.00  0.00     0.023 C 
BRANCH  23  24
ATOM     24  C   UNL A   1      32.772  29.595  25.961  1.00  0.00     0.116 C 
BRANCH  24  25
ATOM     25  N   UNL A   1      32.432  30.923  26.468  1.00  0.00    -0.352 N 
ATOM     26  C   UNL A   1      33.178  31.787  27.243  1.00  0.00     0.251 C 
ATOM     27  H   UNL A   1      31.537  31.251  26.220  1.00  0.00     0.163 HD
ATOM     28  O   UNL A   1      32.710  32.845  27.636  1.00  0.00    -0.269 OA
BRANCH  26  29
ATOM     29  C   UNL A   1      34.540  31.377  27.641  1.00  0.00     0.039 A 
ATOM     30  C   UNL A   1      35.527  32.351  27.798  1.00  0.00     0.014 A 
ATOM     31  C   UNL A   1      34.785  30.054  27.998  1.00  0.00     0.014 A 
ATOM     32  C   UNL A   1      36.718  32.015  28.445  1.00  0.00     0.010 A 
ATOM     33  C   UNL A   1      35.895  29.765  28.775  1.00  0.00     0.010 A 
ATOM     34  C   UNL A   1      36.879  30.739  29.007  1.00  0.00    -0.014 A 
BRANCH  34  35
ATOM     35  C   UNL A   1      38.060  30.378  29.835  1.00  0.00     0.031 A 
ATOM     36  C   UNL A   1      39.098  29.442  29.274  1.00  0.00     0.074 A 
ATOM     37  C   UNL A   1      38.146  30.792  31.115  1.00  0.00     0.049 A 
ATOM     38  N   UNL A   1      40.107  28.864  29.875  1.00  0.00    -0.248 NA
ATOM     39  C   UNL A   1      38.941  29.049  27.864  1.00  0.00     0.031 C 
ATOM     40  C   UNL A   1      37.167  31.628  31.813  1.00  0.00     0.029 A 
ATOM     41  N   UNL A   1      39.109  30.555  32.066  1.00  0.00    -0.354 N 
ATOM     42  C   UNL A   1      40.659  28.004  28.935  1.00  0.00     0.074 A 
ATOM     43  C   UNL A   1      39.833  28.079  27.750  1.00  0.00     0.031 C 
ATOM     44  C   UNL A   1      37.600  31.872  33.059  1.00  0.00     0.029 A 
ATOM     45  C   UNL A   1      38.866  31.178  33.267  1.00  0.00     0.049 A 
ATOM     46  H   UNL A   1      39.899  29.990  31.903  1.00  0.00     0.167 HD
ATOM     47  C   UNL A   1      41.777  27.248  29.031  1.00  0.00     0.037 A 
ATOM     48  C   UNL A   1      39.590  31.190  34.402  1.00  0.00     0.037 A 
ATOM     49  C   UNL A   1      42.649  27.251  30.172  1.00  0.00     0.049 A 
ATOM     50  C   UNL A   1      40.880  30.417  34.454  1.00  0.00     0.074 A 
ATOM     51  C   UNL A   1      43.861  26.605  30.337  1.00  0.00     0.029 A 
ATOM     52  N   UNL A   1      42.410  27.962  31.338  1.00  0.00    -0.354 N 
ATOM     53  N   UNL A   1      41.427  29.659  33.535  1.00  0.00    -0.248 NA
ATOM     54  C   UNL A   1      41.657  30.508  35.698  1.00  0.00     0.031 C 
ATOM     55  C   UNL A   1      44.347  26.910  31.611  1.00  0.00     0.029 A 
ATOM     56  C   UNL A   1      43.453  27.771  32.229  1.00  0.00     0.049 A 
ATOM     57  H   UNL A   1      41.617  28.521  31.509  1.00  0.00     0.167 HD
ATOM     58  C   UNL A   1      42.620  29.204  34.077  1.00  0.00     0.074 A 
ATOM     59  C   UNL A   1      42.727  29.783  35.400  1.00  0.00     0.031 C 
ATOM     60  C   UNL A   1      43.544  28.376  33.532  1.00  0.00     0.037 A 
BRANCH  47  61
ATOM     61  C   UNL A   1      42.133  26.388  27.854  1.00  0.00     0.064 A 
ATOM     62  C   UNL A   1      41.569  25.114  27.676  1.00  0.00     0.173 A 
ATOM     63  C   UNL A   1      43.044  26.843  26.888  1.00  0.00     0.173 A 
ATOM     64  F   UNL A   1      40.706  24.626  28.579  1.00  0.00    -0.203 F 
ATOM     65  C   UNL A   1      41.937  24.312  26.600  1.00  0.00     0.198 A 
ATOM     66  C   UNL A   1      43.382  26.050  25.794  1.00  0.00     0.198 A 
ATOM     67  F   UNL A   1      43.609  28.053  27.007  1.00  0.00    -0.203 F 
ATOM     68  F   UNL A   1      41.436  23.074  26.490  1.00  0.00    -0.200 F 
ATOM     69  C   UNL A   1      42.838  24.782  25.657  1.00  0.00     0.200 A 
ATOM     70  F   UNL A   1      44.246  26.509  24.878  1.00  0.00    -0.200 F 
ATOM     71  F   UNL A   1      43.191  24.007  24.622  1.00  0.00    -0.200 F 
ENDBRANCH  47  61
BRANCH  48  72
ATOM     72  C   UNL A   1      39.144  32.004  35.563  1.00  0.00     0.064 A 
ATOM     73  C   UNL A   1      39.543  33.342  35.690  1.00  0.00     0.173 A 
ATOM     74  C   UNL A   1      38.323  31.471  36.566  1.00  0.00     0.173 A 
ATOM     75  F   UNL A   1      40.345  33.891  34.766  1.00  0.00    -0.203 F 
ATOM     76  C   UNL A   1      39.156  34.110  36.786  1.00  0.00     0.198 A 
ATOM     77  C   UNL A   1      37.915  32.246  37.650  1.00  0.00     0.198 A 
ATOM     78  F   UNL A   1      37.907  30.198  36.487  1.00  0.00    -0.203 F 
ATOM     79  F   UNL A   1      39.589  35.372  36.904  1.00  0.00    -0.200 F 
ATOM     80  C   UNL A   1      38.339  33.562  37.763  1.00  0.00     0.200 A 
ATOM     81  F   UNL A   1      37.116  31.718  38.586  1.00  0.00    -0.200 F 
ATOM     82  F   UNL A   1      37.967  34.300  38.818  1.00  0.00    -0.200 F 
ENDBRANCH  48  72
BRANCH  60  83
ATOM     83  C   UNL A   1      44.766  28.079  34.347  1.00  0.00     0.064 A 
ATOM     84  C   UNL A   1      44.826  26.964  35.194  1.00  0.00     0.173 A 
ATOM     85  C   UNL A   1      45.905  28.888  34.235  1.00  0.00     0.173 A 
ATOM     86  F   UNL A   1      43.755  26.170  35.343  1.00  0.00    -0.203 F 
ATOM     87  C   UNL A   1      45.980  26.681  35.918  1.00  0.00     0.198 A 
ATOM     88  C   UNL A   1      47.066  28.587  34.940  1.00  0.00     0.198 A 
ATOM     89  F   UNL A   1      45.896  29.961  33.431  1.00  0.00    -0.203 F 
ATOM     90  F   UNL A   1      46.005  25.632  36.751  1.00  0.00    -0.200 F 
ATOM     91  C   UNL A   1      47.101  27.487  35.785  1.00  0.00     0.200 A 
ATOM     92  F   UNL A   1      48.152  29.360  34.802  1.00  0.00    -0.200 F 
ATOM     93  F   UNL A   1      48.215  27.208  36.475  1.00  0.00    -0.200 F 
ENDBRANCH  60  83
ENDBRANCH  34  35
ENDBRANCH  26  29
ENDBRANCH  24  25
ENDBRANCH  23  24
ENDBRANCH   1  23
TORSDOF 13
ENDMDL
MODEL 3
REMARK VINA RESULT:     -12.4      1.014      2.289
REMARK SMILES CC1(C)C[C@](CC(=O)NCCCCNC(=O)c2ccc(-c3c4nc(c(-c5c(F)c(F)c(F)c(F)c5F)c5ccc([nH]5)c(-c5c(F)c(F)c(F)c(F)c5F)c5nc(c(-c6c(F)c(F)c(F)c(F)c6F)c6ccc3[nH]6)C=C5)C=C4)cc2)([NH+]2CCCC2)C(C)(C)O1
REMARK SMILES IDX 11 1 10 2 9 3 7 4 8 5 6 7 5 8 1 9 2 10 3 11 4 12 88 13 85 14
REMARK SMILES IDX 86 15 87 16 80 17 81 18 84 19 82 21 83 22 12 23 13 24 14 25
REMARK SMILES IDX 15 26 16 28 17 29 18 30 79 31 19 32 78 33 20 34 21 35 22 36
REMARK SMILES IDX 72 37 23 38 77 39 71 40 73 41 24 42 76 43 70 44 69 45 25 47
REMARK SMILES IDX 57 48 37 49 56 50 38 51 41 52 55 53 74 54 39 55 40 56 54 58
REMARK SMILES IDX 75 59 42 60 26 61 27 62 35 63 28 64 29 65 33 66 36 67 30 68
REMARK SMILES IDX 31 69 34 70 32 71 58 72 59 73 67 74 60 75 61 76 65 77 68 78
REMARK SMILES IDX 62 79 63 80 66 81 64 82 43 83 44 84 52 85 45 86 46 87 50 88
REMARK SMILES IDX 53 89 47 90 48 91 51 92 49 93
REMARK H PARENT 9 6 80 20 14 27 73 46 41 57
REMARK Flexibility Score: inf
ROOT
ATOM      1  C   UNL A   1      32.194  28.082  27.324  1.00  0.00     0.023 C 
ENDROOT
BRANCH   1   2
ATOM      2  C   UNL A   1      32.036  27.081  26.188  1.00  0.00     0.116 C 
BRANCH   2   3
ATOM      3  N   UNL A   1      31.377  25.875  26.610  1.00  0.00    -0.356 N 
ATOM      4  C   UNL A   1      31.841  24.607  26.709  1.00  0.00     0.226 C 
ATOM      5  O   UNL A   1      31.118  23.824  27.339  1.00  0.00    -0.275 OA
ATOM      6  H   UNL A   1      30.434  25.990  26.869  1.00  0.00     0.163 HD
BRANCH   4   7
ATOM      7  C   UNL A   1      33.187  24.131  26.162  1.00  0.00     0.171 C 
BRANCH   7   8
ATOM      8  C   UNL A   1      33.416  23.352  24.797  1.00  0.00     0.138 C 
ATOM      9  C   UNL A   1      32.441  19.826  25.101  1.00  0.00     0.042 C 
ATOM     10  C   UNL A   1      32.739  21.002  24.156  1.00  0.00     0.070 C 
ATOM     11  C   UNL A   1      32.156  20.622  22.793  1.00  0.00     0.042 C 
ATOM     12  C   UNL A   1      32.224  22.322  24.735  1.00  0.00     0.107 C 
ATOM     13  O   UNL A   1      34.153  21.144  24.006  1.00  0.00    -0.363 OA
ATOM     14  C   UNL A   1      34.635  22.302  24.754  1.00  0.00     0.118 C 
ATOM     15  C   UNL A   1      35.102  21.680  26.099  1.00  0.00     0.049 C 
ATOM     16  C   UNL A   1      35.856  22.763  23.940  1.00  0.00     0.049 C 
BRANCH   8  17
ATOM     17  N   UNL A   1      33.234  24.245  23.613  1.00  0.00    -0.327 N 
ATOM     18  C   UNL A   1      31.971  24.329  22.890  1.00  0.00     0.263 C 
ATOM     19  C   UNL A   1      33.924  25.525  23.501  1.00  0.00     0.263 C 
ATOM     20  H   UNL A   1      33.805  23.537  23.152  1.00  0.00     0.348 HD
ATOM     21  C   UNL A   1      32.112  25.516  21.954  1.00  0.00     0.067 C 
ATOM     22  C   UNL A   1      32.991  26.456  22.738  1.00  0.00     0.067 C 
ENDBRANCH   8  17
ENDBRANCH   7   8
ENDBRANCH   4   7
ENDBRANCH   2   3
ENDBRANCH   1   2
BRANCH   1  23
ATOM     23  C   UNL A   1      31.653  29.470  27.055  1.00  0.00     0.023 C 
BRANCH  23  24
ATOM     24  C   UNL A   1      32.651  30.417  26.414  1.00  0.00     0.116 C 
BRANCH  24  25
ATOM     25  N   UNL A   1      32.590  31.789  26.912  1.00  0.00    -0.352 N 
ATOM     26  C   UNL A   1      33.531  32.513  27.615  1.00  0.00     0.251 C 
ATOM     27  H   UNL A   1      31.752  32.269  26.718  1.00  0.00     0.163 HD
ATOM     28  O   UNL A   1      33.287  33.642  28.015  1.00  0.00    -0.269 OA
BRANCH  26  29
ATOM     29  C   UNL A   1      34.822  31.870  27.929  1.00  0.00     0.039 A 
ATOM     30  C   UNL A   1      35.962  32.663  28.075  1.00  0.00     0.014 A 
ATOM     31  C   UNL A   1      34.862  30.510  28.222  1.00  0.00     0.014 A 
ATOM     32  C   UNL A   1      37.108  32.109  28.649  1.00  0.00     0.010 A 
ATOM     33  C   UNL A   1      35.941  30.009  28.931  1.00  0.00     0.010 A 
ATOM     34  C   UNL A   1      37.080  30.798  29.152  1.00  0.00    -0.014 A 
BRANCH  34  35
ATOM     35  C   UNL A   1      38.221  30.213  29.906  1.00  0.00     0.031 A 
ATOM     36  C   UNL A   1      38.437  30.606  31.343  1.00  0.00     0.074 A 
ATOM     37  C   UNL A   1      39.119  29.427  29.279  1.00  0.00     0.049 A 
ATOM     38  N   UNL A   1      39.452  30.354  32.130  1.00  0.00    -0.248 NA
ATOM     39  C   UNL A   1      37.402  31.453  31.960  1.00  0.00     0.031 C 
ATOM     40  C   UNL A   1      39.081  29.040  27.866  1.00  0.00     0.029 A 
ATOM     41  N   UNL A   1      40.255  28.816  29.753  1.00  0.00    -0.354 N 
ATOM     42  C   UNL A   1      39.201  31.058  33.300  1.00  0.00     0.074 A 
ATOM     43  C   UNL A   1      37.979  31.803  33.097  1.00  0.00     0.031 C 
ATOM     44  C   UNL A   1      40.112  28.223  27.603  1.00  0.00     0.029 A 
ATOM     45  C   UNL A   1      40.910  28.059  28.813  1.00  0.00     0.049 A 
ATOM     46  H   UNL A   1      40.570  28.913  30.681  1.00  0.00     0.167 HD
ATOM     47  C   UNL A   1      39.902  31.055  34.458  1.00  0.00     0.037 A 
ATOM     48  C   UNL A   1      42.026  27.313  28.921  1.00  0.00     0.037 A 
ATOM     49  C   UNL A   1      41.061  30.238  34.689  1.00  0.00     0.049 A 
ATOM     50  C   UNL A   1      42.736  27.248  30.246  1.00  0.00     0.074 A 
ATOM     51  C   UNL A   1      41.787  30.078  35.856  1.00  0.00     0.029 A 
ATOM     52  N   UNL A   1      41.645  29.420  33.735  1.00  0.00    -0.354 N 
ATOM     53  N   UNL A   1      42.452  27.867  31.366  1.00  0.00    -0.248 NA
ATOM     54  C   UNL A   1      43.918  26.378  30.324  1.00  0.00     0.031 C 
ATOM     55  C   UNL A   1      42.823  29.175  35.602  1.00  0.00     0.029 A 
ATOM     56  C   UNL A   1      42.725  28.750  34.286  1.00  0.00     0.049 A 
ATOM     57  H   UNL A   1      41.339  29.327  32.803  1.00  0.00     0.167 HD
ATOM     58  C   UNL A   1      43.401  27.443  32.286  1.00  0.00     0.074 A 
ATOM     59  C   UNL A   1      44.259  26.502  31.599  1.00  0.00     0.031 C 
ATOM     60  C   UNL A   1      43.551  27.803  33.584  1.00  0.00     0.037 A 
BRANCH  47  61
ATOM     61  C   UNL A   1      39.407  31.936  35.567  1.00  0.00     0.064 A 
ATOM     62  C   UNL A   1      39.848  33.261  35.708  1.00  0.00     0.173 A 
ATOM     63  C   UNL A   1      38.476  31.453  36.499  1.00  0.00     0.173 A 
ATOM     64  F   UNL A   1      40.751  33.766  34.854  1.00  0.00    -0.203 F 
ATOM     65  C   UNL A   1      39.410  34.054  36.764  1.00  0.00     0.198 A 
ATOM     66  C   UNL A   1      38.013  32.262  37.534  1.00  0.00     0.198 A 
ATOM     67  F   UNL A   1      38.018  30.195  36.409  1.00  0.00    -0.203 F 
ATOM     68  F   UNL A   1      39.899  35.293  36.915  1.00  0.00    -0.200 F 
ATOM     69  C   UNL A   1      38.489  33.557  37.672  1.00  0.00     0.200 A 
ATOM     70  F   UNL A   1      37.115  31.783  38.406  1.00  0.00    -0.200 F 
ATOM     71  F   UNL A   1      38.068  34.323  38.689  1.00  0.00    -0.200 F 
ENDBRANCH  47  61
BRANCH  48  72
ATOM     72  C   UNL A   1      42.510  26.520  27.761  1.00  0.00     0.064 A 
ATOM     73  C   UNL A   1      43.489  27.040  26.901  1.00  0.00     0.173 A 
ATOM     74  C   UNL A   1      42.011  25.241  27.481  1.00  0.00     0.173 A 
ATOM     75  F   UNL A   1      43.983  28.268  27.116  1.00  0.00    -0.203 F 
ATOM     76  C   UNL A   1      43.933  26.320  25.794  1.00  0.00     0.198 A 
ATOM     77  C   UNL A   1      42.473  24.510  26.388  1.00  0.00     0.198 A 
ATOM     78  F   UNL A   1      41.079  24.695  28.277  1.00  0.00    -0.203 F 
ATOM     79  F   UNL A   1      44.836  26.861  24.965  1.00  0.00    -0.200 F 
ATOM     80  C   UNL A   1      43.428  25.054  25.541  1.00  0.00     0.200 A 
ATOM     81  F   UNL A   1      41.992  23.283  26.152  1.00  0.00    -0.200 F 
ATOM     82  F   UNL A   1      43.855  24.362  24.476  1.00  0.00    -0.200 F 
ENDBRANCH  48  72
BRANCH  60  83
ATOM     83  C   UNL A   1      44.659  27.151  34.354  1.00  0.00     0.064 A 
ATOM     84  C   UNL A   1      44.474  25.922  35.002  1.00  0.00     0.173 A 
ATOM     85  C   UNL A   1      45.932  27.737  34.395  1.00  0.00     0.173 A 
ATOM     86  F   UNL A   1      43.270  25.332  35.001  1.00  0.00    -0.203 F 
ATOM     87  C   UNL A   1      45.523  25.312  35.683  1.00  0.00     0.198 A 
ATOM     88  C   UNL A   1      46.985  27.110  35.053  1.00  0.00     0.198 A 
ATOM     89  F   UNL A   1      46.157  28.908  33.782  1.00  0.00    -0.203 F 
ATOM     90  F   UNL A   1      45.317  24.155  36.328  1.00  0.00    -0.200 F 
ATOM     91  C   UNL A   1      46.779  25.901  35.702  1.00  0.00     0.200 A 
ATOM     92  F   UNL A   1      48.200  27.676  35.062  1.00  0.00    -0.200 F 
ATOM     93  F   UNL A   1      47.790  25.308  36.350  1.00  0.00    -0.200 F 
ENDBRANCH  60  83
ENDBRANCH  34  35
ENDBRANCH  26  29
ENDBRANCH  24  25
ENDBRANCH  23  24
ENDBRANCH   1  23
TORSDOF 13
ENDMDL
