MODEL 1
REMARK VINA RESULT:     -11.6      0.000      0.000
REMARK SMILES COc1ccc(CCc2nnc(NC(=O)[C@@H]3[C@@H](C(=O)NCCCCNC(=O)c4ccc(-c5c6nc(c(-c7c(F)c(F)c(F)c(F)c7F)c7ccc([nH]7)c(-c7c(F)c(F)c(F)c(F)c7F)c7nc(c(-c8c(F)c(F)c(F)c(F)c8F)c8ccc5[nH]8)C=C7)C=C6)cc4)C3(C)C)s2)cc1
REMARK SMILES IDX 18 1 19 2 20 3 17 5 16 6 91 7 92 8 93 9 14 10 13 11 15 13
REMARK SMILES IDX 12 14 9 15 10 16 94 17 11 18 8 19 7 20 6 21 3 22 4 23 96 24
REMARK SMILES IDX 5 25 95 26 2 27 1 28 21 29 22 30 23 31 24 32 25 33 26 34
REMARK SMILES IDX 27 36 28 37 29 38 90 39 30 40 89 41 31 42 32 43 33 44 83 45
REMARK SMILES IDX 34 46 88 47 82 48 84 49 35 50 87 51 81 52 80 53 36 55 68 56
REMARK SMILES IDX 48 57 67 58 49 59 52 60 66 61 85 62 50 63 51 64 65 66 86 67
REMARK SMILES IDX 53 68 37 69 38 70 46 71 39 72 40 73 44 74 47 75 41 76 42 77
REMARK SMILES IDX 45 78 43 79 69 80 70 81 78 82 71 83 72 84 76 85 79 86 73 87
REMARK SMILES IDX 74 88 77 89 75 90 54 91 55 92 63 93 56 94 57 95 61 96 64 97
REMARK SMILES IDX 58 98 59 99 62 100 60 101
REMARK H PARENT 20 4 13 12 25 35 84 54 52 65
REMARK Flexibility Score: inf
ROOT
ATOM      1  C   UNL A   1      34.628  20.050  24.999  1.00  0.00     0.224 C 
ATOM      2  O   UNL A   1      33.563  19.657  24.521  1.00  0.00    -0.275 OA
ATOM      3  N   UNL A   1      35.705  19.235  24.817  1.00  0.00    -0.356 N 
ATOM      4  H   UNL A   1      35.501  18.445  24.267  1.00  0.00     0.163 HD
ENDROOT
BRANCH   1   5
ATOM      5  C   UNL A   1      34.618  21.374  25.665  1.00  0.00     0.098 C 
ATOM      6  C   UNL A   1      33.605  22.483  25.523  1.00  0.00     0.098 C 
ATOM      7  C   UNL A   1      35.068  22.710  25.107  1.00  0.00    -0.011 C 
ATOM      8  C   UNL A   1      35.366  22.866  23.634  1.00  0.00     0.013 C 
ATOM      9  C   UNL A   1      35.966  23.563  25.970  1.00  0.00     0.013 C 
BRANCH   6  10
ATOM     10  C   UNL A   1      32.973  22.926  26.800  1.00  0.00     0.230 C 
ATOM     11  N   UNL A   1      32.277  24.111  26.823  1.00  0.00    -0.300 N 
ATOM     12  H   UNL A   1      31.692  24.278  27.597  1.00  0.00     0.172 HD
ATOM     13  O   UNL A   1      33.029  22.227  27.804  1.00  0.00    -0.274 OA
BRANCH  11  14
ATOM     14  C   UNL A   1      32.332  25.076  25.859  1.00  0.00     0.212 A 
ATOM     15  C   UNL A   1      31.647  26.573  24.160  1.00  0.00     0.119 A 
ATOM     16  N   UNL A   1      32.740  26.980  24.774  1.00  0.00    -0.142 NA
ATOM     17  S   UNL A   1      31.133  24.995  24.647  1.00  0.00    -0.080 S 
ATOM     18  N   UNL A   1      33.133  26.108  25.761  1.00  0.00    -0.120 NA
BRANCH  15  19
ATOM     19  C   UNL A   1      30.923  27.395  23.141  1.00  0.00     0.074 C 
BRANCH  19  20
ATOM     20  C   UNL A   1      29.469  27.757  23.475  1.00  0.00     0.043 C 
BRANCH  20  21
ATOM     21  C   UNL A   1      28.981  29.151  23.125  1.00  0.00    -0.047 A 
ATOM     22  C   UNL A   1      28.283  31.769  22.341  1.00  0.00     0.118 A 
ATOM     23  C   UNL A   1      27.705  30.674  21.712  1.00  0.00     0.046 A 
ATOM     24  C   UNL A   1      29.175  31.571  23.392  1.00  0.00     0.046 A 
ATOM     25  C   UNL A   1      28.066  29.380  22.090  1.00  0.00     0.007 A 
ATOM     26  C   UNL A   1      29.524  30.269  23.778  1.00  0.00     0.007 A 
BRANCH  22  27
ATOM     27  O   UNL A   1      27.883  33.002  21.907  1.00  0.00    -0.497 OA
ATOM     28  C   UNL A   1      27.653  33.046  20.501  1.00  0.00     0.278 C 
ENDBRANCH  22  27
ENDBRANCH  20  21
ENDBRANCH  19  20
ENDBRANCH  15  19
ENDBRANCH  11  14
ENDBRANCH   6  10
ENDBRANCH   1   5
BRANCH   3  29
ATOM     29  C   UNL A   1      37.080  19.279  25.259  1.00  0.00     0.116 C 
BRANCH  29  30
ATOM     30  C   UNL A   1      37.873  20.327  24.481  1.00  0.00     0.023 C 
BRANCH  30  31
ATOM     31  C   UNL A   1      38.930  21.052  25.306  1.00  0.00     0.023 C 
BRANCH  31  32
ATOM     32  C   UNL A   1      39.402  20.296  26.539  1.00  0.00     0.116 C 
BRANCH  32  33
ATOM     33  N   UNL A   1      40.389  19.268  26.236  1.00  0.00    -0.352 N 
ATOM     34  C   UNL A   1      41.743  19.400  26.055  1.00  0.00     0.251 C 
ATOM     35  H   UNL A   1      40.035  18.353  26.149  1.00  0.00     0.163 HD
ATOM     36  O   UNL A   1      42.420  18.458  25.658  1.00  0.00    -0.269 OA
BRANCH  34  37
ATOM     37  C   UNL A   1      42.372  20.709  26.315  1.00  0.00     0.039 A 
ATOM     38  C   UNL A   1      42.653  21.554  25.241  1.00  0.00     0.014 A 
ATOM     39  C   UNL A   1      42.635  21.115  27.625  1.00  0.00     0.014 A 
ATOM     40  C   UNL A   1      43.134  22.840  25.489  1.00  0.00     0.010 A 
ATOM     41  C   UNL A   1      43.015  22.427  27.874  1.00  0.00     0.010 A 
ATOM     42  C   UNL A   1      43.281  23.300  26.807  1.00  0.00    -0.014 A 
BRANCH  42  43
ATOM     43  C   UNL A   1      43.744  24.679  27.101  1.00  0.00     0.031 A 
ATOM     44  C   UNL A   1      42.771  25.687  27.650  1.00  0.00     0.074 A 
ATOM     45  C   UNL A   1      45.013  25.037  26.825  1.00  0.00     0.049 A 
ATOM     46  N   UNL A   1      42.945  26.961  27.890  1.00  0.00    -0.248 NA
ATOM     47  C   UNL A   1      41.410  25.206  27.939  1.00  0.00     0.031 C 
ATOM     48  C   UNL A   1      46.038  24.161  26.253  1.00  0.00     0.029 A 
ATOM     49  N   UNL A   1      45.657  26.239  26.981  1.00  0.00    -0.354 N 
ATOM     50  C   UNL A   1      41.722  27.428  28.352  1.00  0.00     0.074 A 
ATOM     51  C   UNL A   1      40.792  26.324  28.288  1.00  0.00     0.031 C 
ATOM     52  C   UNL A   1      47.187  24.846  26.133  1.00  0.00     0.029 A 
ATOM     53  C   UNL A   1      46.970  26.220  26.576  1.00  0.00     0.049 A 
ATOM     54  H   UNL A   1      45.219  27.040  27.350  1.00  0.00     0.167 HD
ATOM     55  C   UNL A   1      41.410  28.658  28.824  1.00  0.00     0.037 A 
ATOM     56  C   UNL A   1      47.889  27.205  26.556  1.00  0.00     0.037 A 
ATOM     57  C   UNL A   1      42.343  29.749  28.909  1.00  0.00     0.049 A 
ATOM     58  C   UNL A   1      47.500  28.574  27.054  1.00  0.00     0.074 A 
ATOM     59  C   UNL A   1      42.133  31.028  29.392  1.00  0.00     0.029 A 
ATOM     60  N   UNL A   1      43.668  29.684  28.504  1.00  0.00    -0.354 N 
ATOM     61  N   UNL A   1      46.354  28.987  27.540  1.00  0.00    -0.248 NA
ATOM     62  C   UNL A   1      48.538  29.613  27.007  1.00  0.00     0.031 C 
ATOM     63  C   UNL A   1      43.319  31.751  29.241  1.00  0.00     0.029 A 
ATOM     64  C   UNL A   1      44.284  30.906  28.718  1.00  0.00     0.049 A 
ATOM     65  H   UNL A   1      44.105  28.889  28.121  1.00  0.00     0.167 HD
ATOM     66  C   UNL A   1      46.548  30.314  27.898  1.00  0.00     0.074 A 
ATOM     67  C   UNL A   1      47.924  30.634  27.588  1.00  0.00     0.031 C 
ATOM     68  C   UNL A   1      45.666  31.193  28.435  1.00  0.00     0.037 A 
BRANCH  55  69
ATOM     69  C   UNL A   1      40.008  28.883  29.311  1.00  0.00     0.064 A 
ATOM     70  C   UNL A   1      38.993  29.309  28.440  1.00  0.00     0.173 A 
ATOM     71  C   UNL A   1      39.660  28.615  30.643  1.00  0.00     0.173 A 
ATOM     72  F   UNL A   1      39.276  29.594  27.161  1.00  0.00    -0.203 F 
ATOM     73  C   UNL A   1      37.686  29.478  28.890  1.00  0.00     0.198 A 
ATOM     74  C   UNL A   1      38.345  28.753  31.081  1.00  0.00     0.198 A 
ATOM     75  F   UNL A   1      40.592  28.202  31.516  1.00  0.00    -0.203 F 
ATOM     76  F   UNL A   1      36.744  29.927  28.051  1.00  0.00    -0.200 F 
ATOM     77  C   UNL A   1      37.362  29.189  30.207  1.00  0.00     0.200 A 
ATOM     78  F   UNL A   1      38.030  28.460  32.350  1.00  0.00    -0.200 F 
ATOM     79  F   UNL A   1      36.100  29.335  30.635  1.00  0.00    -0.200 F 
ENDBRANCH  55  69
BRANCH  56  80
ATOM     80  C   UNL A   1      49.270  26.949  26.062  1.00  0.00     0.064 A 
ATOM     81  C   UNL A   1      49.609  27.171  24.719  1.00  0.00     0.173 A 
ATOM     82  C   UNL A   1      50.261  26.418  26.901  1.00  0.00     0.173 A 
ATOM     83  F   UNL A   1      48.692  27.660  23.870  1.00  0.00    -0.203 F 
ATOM     84  C   UNL A   1      50.865  26.829  24.225  1.00  0.00     0.198 A 
ATOM     85  C   UNL A   1      51.530  26.111  26.414  1.00  0.00     0.198 A 
ATOM     86  F   UNL A   1      49.995  26.191  28.197  1.00  0.00    -0.203 F 
ATOM     87  F   UNL A   1      51.133  26.979  22.920  1.00  0.00    -0.200 F 
ATOM     88  C   UNL A   1      51.826  26.300  25.073  1.00  0.00     0.200 A 
ATOM     89  F   UNL A   1      52.461  25.615  27.241  1.00  0.00    -0.200 F 
ATOM     90  F   UNL A   1      53.030  25.958  24.595  1.00  0.00    -0.200 F 
ENDBRANCH  56  80
BRANCH  68  91
ATOM     91  C   UNL A   1      46.179  32.560  28.789  1.00  0.00     0.064 A 
ATOM     92  C   UNL A   1      46.109  33.634  27.891  1.00  0.00     0.173 A 
ATOM     93  C   UNL A   1      46.713  32.803  30.064  1.00  0.00     0.173 A 
ATOM     94  F   UNL A   1      45.618  33.452  26.655  1.00  0.00    -0.203 F 
ATOM     95  C   UNL A   1      46.585  34.894  28.245  1.00  0.00     0.198 A 
ATOM     96  C   UNL A   1      47.154  34.071  30.427  1.00  0.00     0.198 A 
ATOM     97  F   UNL A   1      46.793  31.811  30.965  1.00  0.00    -0.203 F 
ATOM     98  F   UNL A   1      46.560  35.892  27.351  1.00  0.00    -0.200 F 
ATOM     99  C   UNL A   1      47.099  35.113  29.514  1.00  0.00     0.200 A 
ATOM    100  F   UNL A   1      47.632  34.286  31.660  1.00  0.00    -0.200 F 
ATOM    101  F   UNL A   1      47.547  36.329  29.857  1.00  0.00    -0.200 F 
ENDBRANCH  68  91
ENDBRANCH  42  43
ENDBRANCH  34  37
ENDBRANCH  32  33
ENDBRANCH  31  32
ENDBRANCH  30  31
ENDBRANCH  29  30
ENDBRANCH   3  29
TORSDOF 17
ENDMDL
MODEL 2
REMARK VINA RESULT:     -11.2      1.806      7.446
REMARK SMILES COc1ccc(CCc2nnc(NC(=O)[C@@H]3[C@@H](C(=O)NCCCCNC(=O)c4ccc(-c5c6nc(c(-c7c(F)c(F)c(F)c(F)c7F)c7ccc([nH]7)c(-c7c(F)c(F)c(F)c(F)c7F)c7nc(c(-c8c(F)c(F)c(F)c(F)c8F)c8ccc5[nH]8)C=C7)C=C6)cc4)C3(C)C)s2)cc1
REMARK SMILES IDX 18 1 19 2 20 3 17 5 16 6 91 7 92 8 93 9 14 10 13 11 15 13
REMARK SMILES IDX 12 14 9 15 10 16 94 17 11 18 8 19 7 20 6 21 3 22 4 23 96 24
REMARK SMILES IDX 5 25 95 26 2 27 1 28 21 29 22 30 23 31 24 32 25 33 26 34
REMARK SMILES IDX 27 36 28 37 29 38 90 39 30 40 89 41 31 42 32 43 33 44 83 45
REMARK SMILES IDX 34 46 88 47 82 48 84 49 35 50 87 51 81 52 80 53 36 55 68 56
REMARK SMILES IDX 48 57 67 58 49 59 52 60 66 61 85 62 50 63 51 64 65 66 86 67
REMARK SMILES IDX 53 68 37 69 38 70 46 71 39 72 40 73 44 74 47 75 41 76 42 77
REMARK SMILES IDX 45 78 43 79 69 80 70 81 78 82 71 83 72 84 76 85 79 86 73 87
REMARK SMILES IDX 74 88 77 89 75 90 54 91 55 92 63 93 56 94 57 95 61 96 64 97
REMARK SMILES IDX 58 98 59 99 62 100 60 101
REMARK H PARENT 20 4 13 12 25 35 84 54 52 65
REMARK Flexibility Score: inf
ROOT
ATOM      1  C   UNL A   1      34.889  23.459  25.235  1.00  0.00     0.224 C 
ATOM      2  O   UNL A   1      34.174  24.456  25.344  1.00  0.00    -0.275 OA
ATOM      3  N   UNL A   1      36.166  23.583  25.691  1.00  0.00    -0.356 N 
ATOM      4  H   UNL A   1      36.343  24.456  26.111  1.00  0.00     0.163 HD
ENDROOT
BRANCH   1   5
ATOM      5  C   UNL A   1      34.261  22.242  24.669  1.00  0.00     0.098 C 
ATOM      6  C   UNL A   1      32.797  21.975  24.420  1.00  0.00     0.098 C 
ATOM      7  C   UNL A   1      33.588  21.101  25.408  1.00  0.00    -0.011 C 
ATOM      8  C   UNL A   1      33.262  21.225  26.877  1.00  0.00     0.013 C 
ATOM      9  C   UNL A   1      33.970  19.693  25.019  1.00  0.00     0.013 C 
BRANCH   6  10
ATOM     10  C   UNL A   1      32.452  21.622  23.012  1.00  0.00     0.230 C 
ATOM     11  N   UNL A   1      32.458  22.611  22.057  1.00  0.00    -0.300 N 
ATOM     12  H   UNL A   1      32.445  22.329  21.113  1.00  0.00     0.172 HD
ATOM     13  O   UNL A   1      32.212  20.464  22.695  1.00  0.00    -0.274 OA
BRANCH  11  14
ATOM     14  C   UNL A   1      32.480  23.952  22.311  1.00  0.00     0.212 A 
ATOM     15  C   UNL A   1      32.055  26.030  23.359  1.00  0.00     0.119 A 
ATOM     16  N   UNL A   1      33.172  26.042  22.659  1.00  0.00    -0.142 NA
ATOM     17  S   UNL A   1      31.142  24.573  23.170  1.00  0.00    -0.080 S 
ATOM     18  N   UNL A   1      33.415  24.831  22.054  1.00  0.00    -0.120 NA
BRANCH  15  19
ATOM     19  C   UNL A   1      31.620  27.166  24.230  1.00  0.00     0.074 C 
BRANCH  19  20
ATOM     20  C   UNL A   1      30.113  27.462  24.251  1.00  0.00     0.043 C 
BRANCH  20  21
ATOM     21  C   UNL A   1      29.561  28.429  23.221  1.00  0.00    -0.047 A 
ATOM     22  C   UNL A   1      28.502  30.391  21.492  1.00  0.00     0.118 A 
ATOM     23  C   UNL A   1      29.872  30.177  21.550  1.00  0.00     0.046 A 
ATOM     24  C   UNL A   1      27.647  29.602  22.258  1.00  0.00     0.046 A 
ATOM     25  C   UNL A   1      30.395  29.218  22.420  1.00  0.00     0.007 A 
ATOM     26  C   UNL A   1      28.175  28.630  23.119  1.00  0.00     0.007 A 
BRANCH  22  27
ATOM     27  O   UNL A   1      28.071  31.354  20.623  1.00  0.00    -0.497 OA
ATOM     28  C   UNL A   1      27.913  32.628  21.242  1.00  0.00     0.278 C 
ENDBRANCH  22  27
ENDBRANCH  20  21
ENDBRANCH  19  20
ENDBRANCH  15  19
ENDBRANCH  11  14
ENDBRANCH   6  10
ENDBRANCH   1   5
BRANCH   3  29
ATOM     29  C   UNL A   1      37.319  22.711  25.692  1.00  0.00     0.116 C 
BRANCH  29  30
ATOM     30  C   UNL A   1      37.067  21.468  24.841  1.00  0.00     0.023 C 
BRANCH  30  31
ATOM     31  C   UNL A   1      37.964  20.283  25.181  1.00  0.00     0.023 C 
BRANCH  31  32
ATOM     32  C   UNL A   1      39.446  20.615  25.271  1.00  0.00     0.116 C 
BRANCH  32  33
ATOM     33  N   UNL A   1      40.162  19.775  26.222  1.00  0.00    -0.352 N 
ATOM     34  C   UNL A   1      41.070  20.143  27.184  1.00  0.00     0.251 C 
ATOM     35  H   UNL A   1      39.968  18.811  26.167  1.00  0.00     0.163 HD
ATOM     36  O   UNL A   1      41.699  19.298  27.811  1.00  0.00    -0.269 OA
BRANCH  34  37
ATOM     37  C   UNL A   1      41.303  21.578  27.431  1.00  0.00     0.039 A 
ATOM     38  C   UNL A   1      42.030  21.965  28.558  1.00  0.00     0.014 A 
ATOM     39  C   UNL A   1      40.844  22.532  26.521  1.00  0.00     0.014 A 
ATOM     40  C   UNL A   1      42.358  23.310  28.733  1.00  0.00     0.010 A 
ATOM     41  C   UNL A   1      41.258  23.852  26.643  1.00  0.00     0.010 A 
ATOM     42  C   UNL A   1      42.009  24.257  27.757  1.00  0.00    -0.014 A 
BRANCH  42  43
ATOM     43  C   UNL A   1      42.386  25.686  27.892  1.00  0.00     0.031 A 
ATOM     44  C   UNL A   1      43.703  26.161  27.341  1.00  0.00     0.074 A 
ATOM     45  C   UNL A   1      41.578  26.537  28.554  1.00  0.00     0.049 A 
ATOM     46  N   UNL A   1      44.263  27.340  27.430  1.00  0.00    -0.248 NA
ATOM     47  C   UNL A   1      44.515  25.169  26.616  1.00  0.00     0.031 C 
ATOM     48  C   UNL A   1      40.296  26.187  29.169  1.00  0.00     0.029 A 
ATOM     49  N   UNL A   1      41.720  27.875  28.827  1.00  0.00    -0.354 N 
ATOM     50  C   UNL A   1      45.484  27.228  26.781  1.00  0.00     0.074 A 
ATOM     51  C   UNL A   1      45.623  25.850  26.368  1.00  0.00     0.031 C 
ATOM     52  C   UNL A   1      39.757  27.286  29.722  1.00  0.00     0.029 A 
ATOM     53  C   UNL A   1      40.674  28.408  29.541  1.00  0.00     0.049 A 
ATOM     54  H   UNL A   1      42.499  28.404  28.539  1.00  0.00     0.167 HD
ATOM     55  C   UNL A   1      46.394  28.196  26.518  1.00  0.00     0.037 A 
ATOM     56  C   UNL A   1      40.485  29.658  30.006  1.00  0.00     0.037 A 
ATOM     57  C   UNL A   1      46.243  29.571  26.910  1.00  0.00     0.049 A 
ATOM     58  C   UNL A   1      41.534  30.705  29.729  1.00  0.00     0.074 A 
ATOM     59  C   UNL A   1      47.097  30.633  26.672  1.00  0.00     0.029 A 
ATOM     60  N   UNL A   1      45.162  30.074  27.617  1.00  0.00    -0.354 N 
ATOM     61  N   UNL A   1      42.660  30.597  29.064  1.00  0.00    -0.248 NA
ATOM     62  C   UNL A   1      41.280  32.051  30.260  1.00  0.00     0.031 C 
ATOM     63  C   UNL A   1      46.552  31.772  27.273  1.00  0.00     0.029 A 
ATOM     64  C   UNL A   1      45.332  31.431  27.833  1.00  0.00     0.049 A 
ATOM     65  H   UNL A   1      44.388  29.545  27.920  1.00  0.00     0.167 HD
ATOM     66  C   UNL A   1      43.222  31.867  29.059  1.00  0.00     0.074 A 
ATOM     67  C   UNL A   1      42.307  32.731  29.772  1.00  0.00     0.031 C 
ATOM     68  C   UNL A   1      44.392  32.281  28.515  1.00  0.00     0.037 A 
BRANCH  55  69
ATOM     69  C   UNL A   1      47.623  27.807  25.747  1.00  0.00     0.064 A 
ATOM     70  C   UNL A   1      48.805  27.426  26.403  1.00  0.00     0.173 A 
ATOM     71  C   UNL A   1      47.604  27.756  24.346  1.00  0.00     0.173 A 
ATOM     72  F   UNL A   1      48.880  27.472  27.741  1.00  0.00    -0.203 F 
ATOM     73  C   UNL A   1      49.928  27.029  25.682  1.00  0.00     0.198 A 
ATOM     74  C   UNL A   1      48.718  27.326  23.630  1.00  0.00     0.198 A 
ATOM     75  F   UNL A   1      46.499  28.107  23.671  1.00  0.00    -0.203 F 
ATOM     76  F   UNL A   1      51.058  26.712  26.328  1.00  0.00    -0.200 F 
ATOM     77  C   UNL A   1      49.880  26.969  24.297  1.00  0.00     0.200 A 
ATOM     78  F   UNL A   1      48.667  27.255  22.293  1.00  0.00    -0.200 F 
ATOM     79  F   UNL A   1      50.956  26.570  23.606  1.00  0.00    -0.200 F 
ENDBRANCH  55  69
BRANCH  56  80
ATOM     80  C   UNL A   1      39.256  30.009  30.770  1.00  0.00     0.064 A 
ATOM     81  C   UNL A   1      38.131  30.541  30.123  1.00  0.00     0.173 A 
ATOM     82  C   UNL A   1      39.200  29.881  32.166  1.00  0.00     0.173 A 
ATOM     83  F   UNL A   1      38.140  30.701  28.791  1.00  0.00    -0.203 F 
ATOM     84  C   UNL A   1      37.021  30.976  30.844  1.00  0.00     0.198 A 
ATOM     85  C   UNL A   1      38.074  30.281  32.883  1.00  0.00     0.198 A 
ATOM     86  F   UNL A   1      40.244  29.372  32.837  1.00  0.00    -0.203 F 
ATOM     87  F   UNL A   1      35.994  31.553  30.204  1.00  0.00    -0.200 F 
ATOM     88  C   UNL A   1      36.992  30.844  32.223  1.00  0.00     0.200 A 
ATOM     89  F   UNL A   1      38.044  30.137  34.215  1.00  0.00    -0.200 F 
ATOM     90  F   UNL A   1      35.931  31.274  32.918  1.00  0.00    -0.200 F 
ENDBRANCH  56  80
BRANCH  68  91
ATOM     91  C   UNL A   1      44.717  33.745  28.604  1.00  0.00     0.064 A 
ATOM     92  C   UNL A   1      45.481  34.274  29.653  1.00  0.00     0.173 A 
ATOM     93  C   UNL A   1      44.285  34.625  27.598  1.00  0.00     0.173 A 
ATOM     94  F   UNL A   1      45.907  33.478  30.647  1.00  0.00    -0.203 F 
ATOM     95  C   UNL A   1      45.774  35.634  29.710  1.00  0.00     0.198 A 
ATOM     96  C   UNL A   1      44.611  35.976  27.638  1.00  0.00     0.198 A 
ATOM     97  F   UNL A   1      43.559  34.168  26.565  1.00  0.00    -0.203 F 
ATOM     98  F   UNL A   1      46.458  36.126  30.752  1.00  0.00    -0.200 F 
ATOM     99  C   UNL A   1      45.346  36.482  28.699  1.00  0.00     0.200 A 
ATOM    100  F   UNL A   1      44.214  36.790  26.651  1.00  0.00    -0.200 F 
ATOM    101  F   UNL A   1      45.638  37.789  28.750  1.00  0.00    -0.200 F 
ENDBRANCH  68  91
ENDBRANCH  42  43
ENDBRANCH  34  37
ENDBRANCH  32  33
ENDBRANCH  31  32
ENDBRANCH  30  31
ENDBRANCH  29  30
ENDBRANCH   3  29
TORSDOF 17
ENDMDL
MODEL 3
REMARK VINA RESULT:     -11.2      2.143      7.740
REMARK SMILES COc1ccc(CCc2nnc(NC(=O)[C@@H]3[C@@H](C(=O)NCCCCNC(=O)c4ccc(-c5c6nc(c(-c7c(F)c(F)c(F)c(F)c7F)c7ccc([nH]7)c(-c7c(F)c(F)c(F)c(F)c7F)c7nc(c(-c8c(F)c(F)c(F)c(F)c8F)c8ccc5[nH]8)C=C7)C=C6)cc4)C3(C)C)s2)cc1
REMARK SMILES IDX 18 1 19 2 20 3 17 5 16 6 91 7 92 8 93 9 14 10 13 11 15 13
REMARK SMILES IDX 12 14 9 15 10 16 94 17 11 18 8 19 7 20 6 21 3 22 4 23 96 24
REMARK SMILES IDX 5 25 95 26 2 27 1 28 21 29 22 30 23 31 24 32 25 33 26 34
REMARK SMILES IDX 27 36 28 37 29 38 90 39 30 40 89 41 31 42 32 43 33 44 83 45
REMARK SMILES IDX 34 46 88 47 82 48 84 49 35 50 87 51 81 52 80 53 36 55 68 56
REMARK SMILES IDX 48 57 67 58 49 59 52 60 66 61 85 62 50 63 51 64 65 66 86 67
REMARK SMILES IDX 53 68 37 69 38 70 46 71 39 72 40 73 44 74 47 75 41 76 42 77
REMARK SMILES IDX 45 78 43 79 69 80 70 81 78 82 71 83 72 84 76 85 79 86 73 87
REMARK SMILES IDX 74 88 77 89 75 90 54 91 55 92 63 93 56 94 57 95 61 96 64 97
REMARK SMILES IDX 58 98 59 99 62 100 60 101
REMARK H PARENT 20 4 13 12 25 35 84 54 52 65
REMARK Flexibility Score: inf
ROOT
ATOM      1  C   UNL A   1      33.874  20.630  25.257  1.00  0.00     0.224 C 
ATOM      2  O   UNL A   1      32.840  19.988  25.069  1.00  0.00    -0.275 OA
ATOM      3  N   UNL A   1      35.038  20.004  24.926  1.00  0.00    -0.356 N 
ATOM      4  H   UNL A   1      34.898  19.120  24.517  1.00  0.00     0.163 HD
ENDROOT
BRANCH   1   5
ATOM      5  C   UNL A   1      33.723  22.012  25.771  1.00  0.00     0.098 C 
ATOM      6  C   UNL A   1      32.523  22.920  25.669  1.00  0.00     0.098 C 
ATOM      7  C   UNL A   1      33.855  23.317  25.010  1.00  0.00    -0.011 C 
ATOM      8  C   UNL A   1      33.921  23.323  23.501  1.00  0.00     0.013 C 
ATOM      9  C   UNL A   1      34.698  24.406  25.628  1.00  0.00     0.013 C 
BRANCH   6  10
ATOM     10  C   UNL A   1      32.000  23.422  26.973  1.00  0.00     0.230 C 
ATOM     11  N   UNL A   1      31.333  24.624  27.006  1.00  0.00    -0.300 N 
ATOM     12  H   UNL A   1      30.814  24.832  27.816  1.00  0.00     0.172 HD
ATOM     13  O   UNL A   1      32.118  22.758  27.995  1.00  0.00    -0.274 OA
BRANCH  11  14
ATOM     14  C   UNL A   1      31.336  25.554  26.006  1.00  0.00     0.212 A 
ATOM     15  C   UNL A   1      30.619  26.835  24.150  1.00  0.00     0.119 A 
ATOM     16  N   UNL A   1      31.514  27.469  24.880  1.00  0.00    -0.142 NA
ATOM     17  S   UNL A   1      30.359  25.199  24.651  1.00  0.00    -0.080 S 
ATOM     18  N   UNL A   1      31.926  26.722  25.958  1.00  0.00    -0.120 NA
BRANCH  15  19
ATOM     19  C   UNL A   1      29.901  27.466  22.999  1.00  0.00     0.074 C 
BRANCH  19  20
ATOM     20  C   UNL A   1      28.530  28.081  23.315  1.00  0.00     0.043 C 
BRANCH  20  21
ATOM     21  C   UNL A   1      28.249  29.489  22.827  1.00  0.00    -0.047 A 
ATOM     22  C   UNL A   1      27.945  32.176  22.021  1.00  0.00     0.118 A 
ATOM     23  C   UNL A   1      28.359  31.215  21.108  1.00  0.00     0.046 A 
ATOM     24  C   UNL A   1      27.637  31.801  23.326  1.00  0.00     0.046 A 
ATOM     25  C   UNL A   1      28.526  29.890  21.514  1.00  0.00     0.007 A 
ATOM     26  C   UNL A   1      27.791  30.466  23.726  1.00  0.00     0.007 A 
BRANCH  22  27
ATOM     27  O   UNL A   1      27.815  33.451  21.548  1.00  0.00    -0.497 OA
ATOM     28  C   UNL A   1      27.455  33.496  20.169  1.00  0.00     0.278 C 
ENDBRANCH  22  27
ENDBRANCH  20  21
ENDBRANCH  19  20
ENDBRANCH  15  19
ENDBRANCH  11  14
ENDBRANCH   6  10
ENDBRANCH   1   5
BRANCH   3  29
ATOM     29  C   UNL A   1      36.434  20.357  25.047  1.00  0.00     0.116 C 
BRANCH  29  30
ATOM     30  C   UNL A   1      36.806  21.468  24.068  1.00  0.00     0.023 C 
BRANCH  30  31
ATOM     31  C   UNL A   1      37.641  22.588  24.679  1.00  0.00     0.023 C 
BRANCH  31  32
ATOM     32  C   UNL A   1      38.156  22.303  26.081  1.00  0.00     0.116 C 
BRANCH  32  33
ATOM     33  N   UNL A   1      39.377  21.507  26.089  1.00  0.00    -0.352 N 
ATOM     34  C   UNL A   1      40.658  21.895  26.393  1.00  0.00     0.251 C 
ATOM     35  H   UNL A   1      39.267  20.559  25.844  1.00  0.00     0.163 HD
ATOM     36  O   UNL A   1      41.605  21.139  26.211  1.00  0.00    -0.269 OA
BRANCH  34  37
ATOM     37  C   UNL A   1      40.884  23.257  26.915  1.00  0.00     0.039 A 
ATOM     38  C   UNL A   1      41.436  23.415  28.186  1.00  0.00     0.014 A 
ATOM     39  C   UNL A   1      40.594  24.370  26.123  1.00  0.00     0.014 A 
ATOM     40  C   UNL A   1      41.765  24.695  28.635  1.00  0.00     0.010 A 
ATOM     41  C   UNL A   1      41.015  25.629  26.529  1.00  0.00     0.010 A 
ATOM     42  C   UNL A   1      41.594  25.806  27.795  1.00  0.00    -0.014 A 
BRANCH  42  43
ATOM     43  C   UNL A   1      41.980  27.173  28.228  1.00  0.00     0.031 A 
ATOM     44  C   UNL A   1      43.431  27.571  28.221  1.00  0.00     0.074 A 
ATOM     45  C   UNL A   1      41.041  28.029  28.675  1.00  0.00     0.049 A 
ATOM     46  N   UNL A   1      43.989  28.677  28.642  1.00  0.00    -0.248 NA
ATOM     47  C   UNL A   1      44.388  26.581  27.699  1.00  0.00     0.031 C 
ATOM     48  C   UNL A   1      39.606  27.744  28.768  1.00  0.00     0.029 A 
ATOM     49  N   UNL A   1      41.152  29.314  29.145  1.00  0.00    -0.354 N 
ATOM     50  C   UNL A   1      45.352  28.512  28.439  1.00  0.00     0.074 A 
ATOM     51  C   UNL A   1      45.549  27.174  27.930  1.00  0.00     0.031 C 
ATOM     52  C   UNL A   1      38.971  28.831  29.237  1.00  0.00     0.029 A 
ATOM     53  C   UNL A   1      39.954  29.872  29.521  1.00  0.00     0.049 A 
ATOM     54  H   UNL A   1      42.012  29.791  29.207  1.00  0.00     0.167 HD
ATOM     55  C   UNL A   1      46.349  29.409  28.624  1.00  0.00     0.037 A 
ATOM     56  C   UNL A   1      39.685  31.084  30.045  1.00  0.00     0.037 A 
ATOM     57  C   UNL A   1      46.148  30.748  29.109  1.00  0.00     0.049 A 
ATOM     58  C   UNL A   1      40.823  32.047  30.274  1.00  0.00     0.074 A 
ATOM     59  C   UNL A   1      47.089  31.741  29.311  1.00  0.00     0.029 A 
ATOM     60  N   UNL A   1      44.918  31.280  29.462  1.00  0.00    -0.354 N 
ATOM     61  N   UNL A   1      42.102  31.897  30.025  1.00  0.00    -0.248 NA
ATOM     62  C   UNL A   1      40.475  33.353  30.850  1.00  0.00     0.031 C 
ATOM     63  C   UNL A   1      46.434  32.863  29.827  1.00  0.00     0.029 A 
ATOM     64  C   UNL A   1      45.078  32.588  29.891  1.00  0.00     0.049 A 
ATOM     65  H   UNL A   1      44.059  30.801  29.416  1.00  0.00     0.167 HD
ATOM     66  C   UNL A   1      42.700  33.102  30.369  1.00  0.00     0.074 A 
ATOM     67  C   UNL A   1      41.644  33.976  30.830  1.00  0.00     0.031 C 
ATOM     68  C   UNL A   1      44.008  33.453  30.312  1.00  0.00     0.037 A 
BRANCH  55  69
ATOM     69  C   UNL A   1      47.745  28.981  28.276  1.00  0.00     0.064 A 
ATOM     70  C   UNL A   1      48.644  28.548  29.265  1.00  0.00     0.173 A 
ATOM     71  C   UNL A   1      48.173  28.946  26.941  1.00  0.00     0.173 A 
ATOM     72  F   UNL A   1      48.290  28.577  30.558  1.00  0.00    -0.203 F 
ATOM     73  C   UNL A   1      49.924  28.116  28.931  1.00  0.00     0.198 A 
ATOM     74  C   UNL A   1      49.442  28.481  26.608  1.00  0.00     0.198 A 
ATOM     75  F   UNL A   1      47.353  29.346  25.957  1.00  0.00    -0.203 F 
ATOM     76  F   UNL A   1      50.778  27.749  29.895  1.00  0.00    -0.200 F 
ATOM     77  C   UNL A   1      50.318  28.072  27.601  1.00  0.00     0.200 A 
ATOM     78  F   UNL A   1      49.817  28.426  25.322  1.00  0.00    -0.200 F 
ATOM     79  F   UNL A   1      51.545  27.639  27.279  1.00  0.00    -0.200 F 
ENDBRANCH  55  69
BRANCH  56  80
ATOM     80  C   UNL A   1      38.289  31.474  30.382  1.00  0.00     0.064 A 
ATOM     81  C   UNL A   1      37.797  31.335  31.689  1.00  0.00     0.173 A 
ATOM     82  C   UNL A   1      37.399  31.933  29.400  1.00  0.00     0.173 A 
ATOM     83  F   UNL A   1      38.602  30.882  32.662  1.00  0.00    -0.203 F 
ATOM     84  C   UNL A   1      36.461  31.592  31.989  1.00  0.00     0.198 A 
ATOM     85  C   UNL A   1      36.072  32.227  29.709  1.00  0.00     0.198 A 
ATOM     86  F   UNL A   1      37.816  32.092  28.135  1.00  0.00    -0.203 F 
ATOM     87  F   UNL A   1      36.001  31.374  33.229  1.00  0.00    -0.200 F 
ATOM     88  C   UNL A   1      35.600  32.040  30.999  1.00  0.00     0.200 A 
ATOM     89  F   UNL A   1      35.247  32.674  28.753  1.00  0.00    -0.200 F 
ATOM     90  F   UNL A   1      34.312  32.274  31.284  1.00  0.00    -0.200 F 
ENDBRANCH  56  80
BRANCH  68  91
ATOM     91  C   UNL A   1      44.363  34.864  30.688  1.00  0.00     0.064 A 
ATOM     92  C   UNL A   1      44.663  35.228  32.008  1.00  0.00     0.173 A 
ATOM     93  C   UNL A   1      44.440  35.858  29.699  1.00  0.00     0.173 A 
ATOM     94  F   UNL A   1      44.591  34.319  32.993  1.00  0.00    -0.203 F 
ATOM     95  C   UNL A   1      44.995  36.541  32.330  1.00  0.00     0.198 A 
ATOM     96  C   UNL A   1      44.809  37.161  30.018  1.00  0.00     0.198 A 
ATOM     97  F   UNL A   1      44.173  35.560  28.418  1.00  0.00    -0.203 F 
ATOM     98  F   UNL A   1      45.222  36.877  33.607  1.00  0.00    -0.200 F 
ATOM     99  C   UNL A   1      45.076  37.504  31.335  1.00  0.00     0.200 A 
ATOM    100  F   UNL A   1      44.905  38.084  29.053  1.00  0.00    -0.200 F 
ATOM    101  F   UNL A   1      45.406  38.765  31.645  1.00  0.00    -0.200 F 
ENDBRANCH  68  91
ENDBRANCH  42  43
ENDBRANCH  34  37
ENDBRANCH  32  33
ENDBRANCH  31  32
ENDBRANCH  30  31
ENDBRANCH  29  30
ENDBRANCH   3  29
TORSDOF 17
ENDMDL
