MODEL 1
REMARK VINA RESULT:     -16.0      0.000      0.000
REMARK SMILES O=C(NC1(C(=O)NCCCCNC(=O)c2ccc(-c3c4nc(c(-c5c(F)c(F)c(F)c(F)c5F)c5ccc([nH]5)c(-c5c(F)c(F)c(F)c(F)c5F)c5nc(c(-c6c(F)c(F)c(F)c(F)c6F)c6ccc3[nH]6)C=C5)C=C4)cc2)Cc2ccccc2C1)OCC1c2ccccc2-c2ccccc21
REMARK SMILES IDX 8 1 7 2 5 3 6 4 4 6 78 7 85 8 79 9 84 10 80 11 83 12 81 13
REMARK SMILES IDX 82 14 3 15 1 16 2 17 86 19 87 20 88 21 89 22 100 23 90 24
REMARK SMILES IDX 94 25 95 26 99 27 91 28 93 29 96 30 98 31 92 32 97 33 9 34
REMARK SMILES IDX 10 35 11 36 12 37 13 38 14 40 15 41 16 42 77 43 17 44 76 45
REMARK SMILES IDX 18 46 19 47 20 48 70 49 21 50 75 51 69 52 71 53 22 54 74 55
REMARK SMILES IDX 68 56 67 57 23 59 55 60 35 61 54 62 36 63 39 64 53 65 72 66
REMARK SMILES IDX 37 67 38 68 52 70 73 71 40 72 24 73 25 74 33 75 26 76 27 77
REMARK SMILES IDX 31 78 34 79 28 80 29 81 32 82 30 83 56 84 57 85 65 86 58 87
REMARK SMILES IDX 59 88 63 89 66 90 60 91 61 92 64 93 62 94 41 95 42 96 50 97
REMARK SMILES IDX 43 98 44 99 48 100 51 101 45 102 46 103 49 104 47 105
REMARK H PARENT 7 5 3 18 12 39 71 58 39 69
REMARK Flexibility Score: inf
ROOT
ATOM      1  C   UNL A   1      34.652  20.983  26.236  1.00  0.00     0.116 C 
ENDROOT
BRANCH   1   2
ATOM      2  N   UNL A   1      33.245  20.830  26.070  1.00  0.00    -0.354 N 
ATOM      3  C   UNL A   1      32.332  21.799  25.901  1.00  0.00     0.246 C 
ATOM      4  O   UNL A   1      31.193  21.391  25.628  1.00  0.00    -0.272 OA
ATOM      5  H   UNL A   1      32.904  19.906  26.081  1.00  0.00     0.163 HD
BRANCH   3   6
ATOM      6  C   UNL A   1      32.669  23.341  25.923  1.00  0.00     0.130 C 
ATOM      7  C   UNL A   1      32.672  23.701  24.402  1.00  0.00     0.075 C 
ATOM      8  C   UNL A   1      33.946  24.080  26.448  1.00  0.00     0.075 C 
ATOM      9  C   UNL A   1      34.164  23.789  24.108  1.00  0.00    -0.042 A 
ATOM     10  C   UNL A   1      34.862  24.169  25.261  1.00  0.00    -0.042 A 
ATOM     11  C   UNL A   1      34.880  23.253  23.042  1.00  0.00     0.004 A 
ATOM     12  C   UNL A   1      36.255  24.187  25.332  1.00  0.00     0.004 A 
ATOM     13  C   UNL A   1      36.281  23.151  23.143  1.00  0.00     0.000 A 
ATOM     14  C   UNL A   1      36.967  23.645  24.265  1.00  0.00     0.000 A 
BRANCH   6  15
ATOM     15  N   UNL A   1      31.580  23.795  26.802  1.00  0.00    -0.306 N 
ATOM     16  O   UNL A   1      29.445  24.596  26.854  1.00  0.00    -0.225 OA
ATOM     17  C   UNL A   1      30.532  24.552  26.290  1.00  0.00     0.408 C 
ATOM     18  H   UNL A   1      31.593  23.563  27.758  1.00  0.00     0.168 HD
BRANCH  17  19
ATOM     19  O   UNL A   1      30.797  25.144  25.062  1.00  0.00    -0.449 OA
BRANCH  19  20
ATOM     20  C   UNL A   1      30.548  26.547  25.048  1.00  0.00     0.248 C 
BRANCH  20  21
ATOM     21  C   UNL A   1      31.154  27.516  23.918  1.00  0.00     0.088 C 
ATOM     22  C   UNL A   1      30.350  28.732  23.321  1.00  0.00    -0.029 A 
ATOM     23  C   UNL A   1      32.240  28.255  24.829  1.00  0.00    -0.029 A 
ATOM     24  C   UNL A   1      28.825  28.801  22.389  1.00  0.00     0.005 A 
ATOM     25  C   UNL A   1      30.795  30.072  24.402  1.00  0.00    -0.014 A 
ATOM     26  C   UNL A   1      31.881  29.582  25.200  1.00  0.00    -0.014 A 
ATOM     27  C   UNL A   1      33.200  27.569  25.581  1.00  0.00     0.005 A 
ATOM     28  C   UNL A   1      27.728  30.239  22.590  1.00  0.00     0.000 A 
ATOM     29  C   UNL A   1      29.775  31.500  24.656  1.00  0.00     0.009 A 
ATOM     30  C   UNL A   1      32.383  30.172  26.347  1.00  0.00     0.009 A 
ATOM     31  C   UNL A   1      33.669  28.154  26.761  1.00  0.00     0.000 A 
ATOM     32  C   UNL A   1      28.185  31.551  23.830  1.00  0.00     0.001 A 
ATOM     33  C   UNL A   1      33.246  29.433  27.152  1.00  0.00     0.001 A 
ENDBRANCH  20  21
ENDBRANCH  19  20
ENDBRANCH  17  19
ENDBRANCH   6  15
ENDBRANCH   3   6
ENDBRANCH   1   2
BRANCH   1  34
ATOM     34  C   UNL A   1      35.617  20.196  25.082  1.00  0.00     0.023 C 
BRANCH  34  35
ATOM     35  C   UNL A   1      37.784  20.288  24.734  1.00  0.00     0.023 C 
BRANCH  35  36
ATOM     36  C   UNL A   1      39.150  20.683  25.907  1.00  0.00     0.116 C 
BRANCH  36  37
ATOM     37  N   UNL A   1      40.206  19.657  26.212  1.00  0.00    -0.352 N 
ATOM     38  C   UNL A   1      41.549  19.585  26.059  1.00  0.00     0.251 C 
ATOM     39  H   UNL A   1      39.832  18.843  26.621  1.00  0.00     0.163 HD
ATOM     40  O   UNL A   1      42.160  18.532  25.948  1.00  0.00    -0.269 OA
BRANCH  38  41
ATOM     41  C   UNL A   1      42.224  20.810  26.395  1.00  0.00     0.039 A 
ATOM     42  C   UNL A   1      42.613  21.691  25.404  1.00  0.00     0.014 A 
ATOM     43  C   UNL A   1      42.338  21.065  27.767  1.00  0.00     0.014 A 
ATOM     44  C   UNL A   1      43.052  22.929  25.816  1.00  0.00     0.010 A 
ATOM     45  C   UNL A   1      42.636  22.334  28.163  1.00  0.00     0.010 A 
ATOM     46  C   UNL A   1      43.009  23.260  27.186  1.00  0.00    -0.014 A 
BRANCH  46  47
ATOM     47  C   UNL A   1      43.351  24.608  27.624  1.00  0.00     0.031 A 
ATOM     48  C   UNL A   1      44.788  25.005  27.673  1.00  0.00     0.074 A 
ATOM     49  C   UNL A   1      42.342  25.411  27.996  1.00  0.00     0.049 A 
ATOM     50  N   UNL A   1      45.301  26.160  27.990  1.00  0.00    -0.248 NA
ATOM     51  C   UNL A   1      45.788  23.964  27.365  1.00  0.00     0.031 C 
ATOM     52  C   UNL A   1      40.928  25.026  28.064  1.00  0.00     0.029 A 
ATOM     53  N   UNL A   1      42.349  26.724  28.362  1.00  0.00    -0.354 N 
ATOM     54  C   UNL A   1      46.672  25.984  27.902  1.00  0.00     0.074 A 
ATOM     55  C   UNL A   1      46.921  24.592  27.623  1.00  0.00     0.031 C 
ATOM     56  C   UNL A   1      40.196  26.105  28.375  1.00  0.00     0.029 A 
ATOM     57  C   UNL A   1      41.096  27.232  28.576  1.00  0.00     0.049 A 
ATOM     58  H   UNL A   1      43.174  27.253  28.461  1.00  0.00     0.167 HD
ATOM     59  C   UNL A   1      47.630  26.931  27.988  1.00  0.00     0.037 A 
ATOM     60  C   UNL A   1      40.734  28.486  28.891  1.00  0.00     0.037 A 
ATOM     61  C   UNL A   1      47.334  28.308  28.258  1.00  0.00     0.049 A 
ATOM     62  C   UNL A   1      41.826  29.513  28.995  1.00  0.00     0.074 A 
ATOM     63  C   UNL A   1      48.204  29.375  28.358  1.00  0.00     0.029 A 
ATOM     64  N   UNL A   1      46.054  28.805  28.475  1.00  0.00    -0.354 N 
ATOM     65  N   UNL A   1      43.122  29.368  28.830  1.00  0.00    -0.248 NA
ATOM     66  C   UNL A   1      41.409  30.881  29.311  1.00  0.00     0.031 C 
ATOM     67  C   UNL A   1      47.455  30.507  28.693  1.00  0.00     0.029 A 
ATOM     68  C   UNL A   1      46.111  30.162  28.728  1.00  0.00     0.049 A 
ATOM     69  H   UNL A   1      45.228  28.268  28.451  1.00  0.00     0.167 HD
ATOM     70  C   UNL A   1      43.673  30.628  28.999  1.00  0.00     0.074 A 
ATOM     71  C   UNL A   1      42.562  31.529  29.243  1.00  0.00     0.031 C 
ATOM     72  C   UNL A   1      44.973  31.016  28.965  1.00  0.00     0.037 A 
BRANCH  59  73
ATOM     73  C   UNL A   1      49.047  26.497  27.774  1.00  0.00     0.064 A 
ATOM     74  C   UNL A   1      49.571  26.305  26.483  1.00  0.00     0.173 A 
ATOM     75  C   UNL A   1      49.896  26.268  28.865  1.00  0.00     0.173 A 
ATOM     76  F   UNL A   1      48.794  26.483  25.404  1.00  0.00    -0.203 F 
ATOM     77  C   UNL A   1      50.882  25.876  26.297  1.00  0.00     0.198 A 
ATOM     78  C   UNL A   1      51.217  25.875  28.674  1.00  0.00     0.198 A 
ATOM     79  F   UNL A   1      49.442  26.421  30.117  1.00  0.00    -0.203 F 
ATOM     80  F   UNL A   1      51.340  25.641  25.059  1.00  0.00    -0.200 F 
ATOM     81  C   UNL A   1      51.708  25.673  27.392  1.00  0.00     0.200 A 
ATOM     82  F   UNL A   1      52.016  25.686  29.732  1.00  0.00    -0.200 F 
ATOM     83  F   UNL A   1      52.973  25.270  27.212  1.00  0.00    -0.200 F 
ENDBRANCH  59  73
BRANCH  60  84
ATOM     84  C   UNL A   1      39.305  28.825  29.105  1.00  0.00     0.064 A 
ATOM     85  C   UNL A   1      38.500  29.291  28.057  1.00  0.00     0.173 A 
ATOM     86  C   UNL A   1      38.714  28.702  30.372  1.00  0.00     0.173 A 
ATOM     87  F   UNL A   1      39.014  29.423  26.825  1.00  0.00    -0.203 F 
ATOM     88  C   UNL A   1      37.178  29.669  28.278  1.00  0.00     0.198 A 
ATOM     89  C   UNL A   1      37.382  29.043  30.584  1.00  0.00     0.198 A 
ATOM     90  F   UNL A   1      39.432  28.240  31.407  1.00  0.00    -0.203 F 
ATOM     91  F   UNL A   1      36.453  30.178  27.273  1.00  0.00    -0.200 F 
ATOM     92  C   UNL A   1      36.619  29.543  29.541  1.00  0.00     0.200 A 
ATOM     93  F   UNL A   1      36.840  28.893  31.801  1.00  0.00    -0.200 F 
ATOM     94  F   UNL A   1      35.349  29.914  29.754  1.00  0.00    -0.200 F 
ENDBRANCH  60  84
BRANCH  72  95
ATOM     95  C   UNL A   1      45.242  32.478  29.162  1.00  0.00     0.064 A 
ATOM     96  C   UNL A   1      45.512  33.015  30.430  1.00  0.00     0.173 A 
ATOM     97  C   UNL A   1      45.244  33.350  28.062  1.00  0.00     0.173 A 
ATOM     98  F   UNL A   1      45.512  32.225  31.513  1.00  0.00    -0.203 F 
ATOM     99  C   UNL A   1      45.722  34.380  30.594  1.00  0.00     0.198 A 
ATOM    100  C   UNL A   1      45.502  34.705  28.225  1.00  0.00     0.198 A 
ATOM    101  F   UNL A   1      45.006  32.882  26.827  1.00  0.00    -0.203 F 
ATOM    102  F   UNL A   1      45.898  34.884  31.823  1.00  0.00    -0.200 F 
ATOM    103  C   UNL A   1      45.725  35.223  29.492  1.00  0.00     0.200 A 
ATOM    104  F   UNL A   1      45.528  35.512  27.156  1.00  0.00    -0.200 F 
ATOM    105  F   UNL A   1      45.930  36.536  29.653  1.00  0.00    -0.200 F 
ENDBRANCH  72  95
ENDBRANCH  46  47
ENDBRANCH  38  41
ENDBRANCH  36  37
ENDBRANCH  35  36
ENDBRANCH  34  35
ENDBRANCH   1  34
TORSDOF 15
ENDMDL
MODEL 2
REMARK VINA RESULT:     -15.7      1.031      7.007
REMARK SMILES O=C(NC1(C(=O)NCCCCNC(=O)c2ccc(-c3c4nc(c(-c5c(F)c(F)c(F)c(F)c5F)c5ccc([nH]5)c(-c5c(F)c(F)c(F)c(F)c5F)c5nc(c(-c6c(F)c(F)c(F)c(F)c6F)c6ccc3[nH]6)C=C5)C=C4)cc2)Cc2ccccc2C1)OCC1c2ccccc2-c2ccccc21
REMARK SMILES IDX 8 1 7 2 5 3 6 4 4 6 78 7 85 8 79 9 84 10 80 11 83 12 81 13
REMARK SMILES IDX 82 14 3 15 1 16 2 17 86 19 87 20 88 21 89 22 100 23 90 24
REMARK SMILES IDX 94 25 95 26 99 27 91 28 93 29 96 30 98 31 92 32 97 33 9 34
REMARK SMILES IDX 10 35 11 36 12 37 13 38 14 40 15 41 16 42 77 43 17 44 76 45
REMARK SMILES IDX 18 46 19 47 20 48 70 49 21 50 75 51 69 52 71 53 22 54 74 55
REMARK SMILES IDX 68 56 67 57 23 59 55 60 35 61 54 62 36 63 39 64 53 65 72 66
REMARK SMILES IDX 37 67 38 68 52 70 73 71 40 72 24 73 25 74 33 75 26 76 27 77
REMARK SMILES IDX 31 78 34 79 28 80 29 81 32 82 30 83 56 84 57 85 65 86 58 87
REMARK SMILES IDX 59 88 63 89 66 90 60 91 61 92 64 93 62 94 41 95 42 96 50 97
REMARK SMILES IDX 43 98 44 99 48 100 51 101 45 102 46 103 49 104 47 105
REMARK H PARENT 7 5 3 18 12 39 71 58 39 69
REMARK Flexibility Score: inf
ROOT
ATOM      1  C   UNL A   1      34.832  20.714  26.044  1.00  0.00     0.116 C 
ENDROOT
BRANCH   1   2
ATOM      2  N   UNL A   1      33.454  20.444  25.802  1.00  0.00    -0.354 N 
ATOM      3  C   UNL A   1      32.459  21.336  25.669  1.00  0.00     0.246 C 
ATOM      4  O   UNL A   1      31.376  20.848  25.312  1.00  0.00    -0.272 OA
ATOM      5  H   UNL A   1      33.203  19.495  25.724  1.00  0.00     0.163 HD
BRANCH   3   6
ATOM      6  C   UNL A   1      32.645  22.895  25.830  1.00  0.00     0.130 C 
ATOM      7  C   UNL A   1      32.766  23.369  24.345  1.00  0.00     0.075 C 
ATOM      8  C   UNL A   1      33.787  23.700  26.537  1.00  0.00     0.075 C 
ATOM      9  C   UNL A   1      34.266  23.608  24.220  1.00  0.00    -0.042 A 
ATOM     10  C   UNL A   1      34.805  23.959  25.463  1.00  0.00    -0.042 A 
ATOM     11  C   UNL A   1      35.132  23.219  23.202  1.00  0.00     0.004 A 
ATOM     12  C   UNL A   1      36.176  24.092  25.684  1.00  0.00     0.004 A 
ATOM     13  C   UNL A   1      36.520  23.232  23.446  1.00  0.00     0.000 A 
ATOM     14  C   UNL A   1      37.040  23.697  24.666  1.00  0.00     0.000 A 
BRANCH   6  15
ATOM     15  N   UNL A   1      31.435  23.184  26.615  1.00  0.00    -0.306 N 
ATOM     16  O   UNL A   1      29.655  24.594  26.836  1.00  0.00    -0.225 OA
ATOM     17  C   UNL A   1      30.836  24.438  26.550  1.00  0.00     0.408 C 
ATOM     18  H   UNL A   1      31.046  22.487  27.191  1.00  0.00     0.168 HD
BRANCH  17  19
ATOM     19  O   UNL A   1      31.654  25.439  26.040  1.00  0.00    -0.449 OA
BRANCH  19  20
ATOM     20  C   UNL A   1      30.928  26.557  25.538  1.00  0.00     0.248 C 
BRANCH  20  21
ATOM     21  C   UNL A   1      31.442  27.422  24.285  1.00  0.00     0.088 C 
ATOM     22  C   UNL A   1      30.537  28.488  23.559  1.00  0.00    -0.029 A 
ATOM     23  C   UNL A   1      32.475  28.352  25.075  1.00  0.00    -0.029 A 
ATOM     24  C   UNL A   1      29.002  28.321  22.657  1.00  0.00     0.005 A 
ATOM     25  C   UNL A   1      30.885  29.982  24.457  1.00  0.00    -0.014 A 
ATOM     26  C   UNL A   1      32.015  29.682  25.288  1.00  0.00    -0.014 A 
ATOM     27  C   UNL A   1      33.495  27.842  25.886  1.00  0.00     0.005 A 
ATOM     28  C   UNL A   1      27.795  29.683  22.702  1.00  0.00     0.000 A 
ATOM     29  C   UNL A   1      29.757  31.347  24.555  1.00  0.00     0.009 A 
ATOM     30  C   UNL A   1      32.480  30.448  26.343  1.00  0.00     0.009 A 
ATOM     31  C   UNL A   1      33.928  28.603  26.976  1.00  0.00     0.000 A 
ATOM     32  C   UNL A   1      28.159  31.170  23.761  1.00  0.00     0.001 A 
ATOM     33  C   UNL A   1      33.408  29.884  27.215  1.00  0.00     0.001 A 
ENDBRANCH  20  21
ENDBRANCH  19  20
ENDBRANCH  17  19
ENDBRANCH   6  15
ENDBRANCH   3   6
ENDBRANCH   1   2
BRANCH   1  34
ATOM     34  C   UNL A   1      35.923  19.972  24.975  1.00  0.00     0.023 C 
BRANCH  34  35
ATOM     35  C   UNL A   1      38.099  20.194  24.777  1.00  0.00     0.023 C 
BRANCH  35  36
ATOM     36  C   UNL A   1      39.367  20.571  26.062  1.00  0.00     0.116 C 
BRANCH  36  37
ATOM     37  N   UNL A   1      40.424  19.556  26.403  1.00  0.00    -0.352 N 
ATOM     38  C   UNL A   1      41.743  19.417  26.138  1.00  0.00     0.251 C 
ATOM     39  H   UNL A   1      40.072  18.818  26.950  1.00  0.00     0.163 HD
ATOM     40  O   UNL A   1      42.316  18.338  26.112  1.00  0.00    -0.269 OA
BRANCH  38  41
ATOM     41  C   UNL A   1      42.476  20.650  26.242  1.00  0.00     0.039 A 
ATOM     42  C   UNL A   1      42.880  21.324  25.105  1.00  0.00     0.014 A 
ATOM     43  C   UNL A   1      42.630  21.138  27.546  1.00  0.00     0.014 A 
ATOM     44  C   UNL A   1      43.380  22.595  25.286  1.00  0.00     0.010 A 
ATOM     45  C   UNL A   1      42.989  22.442  27.707  1.00  0.00     0.010 A 
ATOM     46  C   UNL A   1      43.379  23.163  26.577  1.00  0.00    -0.014 A 
BRANCH  46  47
ATOM     47  C   UNL A   1      43.787  24.551  26.765  1.00  0.00     0.031 A 
ATOM     48  C   UNL A   1      42.776  25.541  27.235  1.00  0.00     0.074 A 
ATOM     49  C   UNL A   1      45.057  24.867  26.465  1.00  0.00     0.049 A 
ATOM     50  N   UNL A   1      42.940  26.805  27.504  1.00  0.00    -0.248 NA
ATOM     51  C   UNL A   1      41.386  25.067  27.387  1.00  0.00     0.031 C 
ATOM     52  C   UNL A   1      46.052  23.947  25.901  1.00  0.00     0.029 A 
ATOM     53  N   UNL A   1      45.733  26.040  26.618  1.00  0.00    -0.354 N 
ATOM     54  C   UNL A   1      41.686  27.264  27.870  1.00  0.00     0.074 A 
ATOM     55  C   UNL A   1      40.748  26.187  27.677  1.00  0.00     0.031 C 
ATOM     56  C   UNL A   1      47.234  24.576  25.827  1.00  0.00     0.029 A 
ATOM     57  C   UNL A   1      47.059  25.945  26.290  1.00  0.00     0.049 A 
ATOM     58  H   UNL A   1      45.310  26.871  26.934  1.00  0.00     0.167 HD
ATOM     59  C   UNL A   1      41.370  28.471  28.385  1.00  0.00     0.037 A 
ATOM     60  C   UNL A   1      48.019  26.881  26.372  1.00  0.00     0.037 A 
ATOM     61  C   UNL A   1      42.340  29.512  28.569  1.00  0.00     0.049 A 
ATOM     62  C   UNL A   1      47.631  28.220  26.934  1.00  0.00     0.074 A 
ATOM     63  C   UNL A   1      42.162  30.776  29.092  1.00  0.00     0.029 A 
ATOM     64  N   UNL A   1      43.683  29.397  28.227  1.00  0.00    -0.354 N 
ATOM     65  N   UNL A   1      46.460  28.634  27.361  1.00  0.00    -0.248 NA
ATOM     66  C   UNL A   1      48.697  29.217  27.043  1.00  0.00     0.031 C 
ATOM     67  C   UNL A   1      43.386  31.448  29.012  1.00  0.00     0.029 A 
ATOM     68  C   UNL A   1      44.343  30.578  28.509  1.00  0.00     0.049 A 
ATOM     69  H   UNL A   1      44.102  28.594  27.841  1.00  0.00     0.167 HD
ATOM     70  C   UNL A   1      46.652  29.930  27.811  1.00  0.00     0.074 A 
ATOM     71  C   UNL A   1      48.063  30.217  27.636  1.00  0.00     0.031 C 
ATOM     72  C   UNL A   1      45.753  30.813  28.317  1.00  0.00     0.037 A 
BRANCH  59  73
ATOM     73  C   UNL A   1      39.944  28.698  28.782  1.00  0.00     0.064 A 
ATOM     74  C   UNL A   1      38.999  29.210  27.875  1.00  0.00     0.173 A 
ATOM     75  C   UNL A   1      39.510  28.402  30.081  1.00  0.00     0.173 A 
ATOM     76  F   UNL A   1      39.368  29.537  26.627  1.00  0.00    -0.203 F 
ATOM     77  C   UNL A   1      37.683  29.441  28.264  1.00  0.00     0.198 A 
ATOM     78  C   UNL A   1      38.184  28.599  30.455  1.00  0.00     0.198 A 
ATOM     79  F   UNL A   1      40.373  27.925  30.990  1.00  0.00    -0.203 F 
ATOM     80  F   UNL A   1      36.817  29.987  27.399  1.00  0.00    -0.200 F 
ATOM     81  C   UNL A   1      37.274  29.124  29.550  1.00  0.00     0.200 A 
ATOM     82  F   UNL A   1      37.787  28.285  31.696  1.00  0.00    -0.200 F 
ATOM     83  F   UNL A   1      36.004  29.337  29.920  1.00  0.00    -0.200 F 
ENDBRANCH  59  73
BRANCH  60  84
ATOM     84  C   UNL A   1      49.405  26.576  25.937  1.00  0.00     0.064 A 
ATOM     85  C   UNL A   1      50.323  25.961  26.799  1.00  0.00     0.173 A 
ATOM     86  C   UNL A   1      49.848  26.908  24.647  1.00  0.00     0.173 A 
ATOM     87  F   UNL A   1      49.950  25.620  28.042  1.00  0.00    -0.203 F 
ATOM     88  C   UNL A   1      51.640  25.737  26.407  1.00  0.00     0.198 A 
ATOM     89  C   UNL A   1      51.154  26.648  24.243  1.00  0.00     0.198 A 
ATOM     90  F   UNL A   1      49.005  27.477  23.773  1.00  0.00    -0.203 F 
ATOM     91  F   UNL A   1      52.515  25.213  27.277  1.00  0.00    -0.200 F 
ATOM     92  C   UNL A   1      52.054  26.079  25.129  1.00  0.00     0.200 A 
ATOM     93  F   UNL A   1      51.540  26.955  22.997  1.00  0.00    -0.200 F 
ATOM     94  F   UNL A   1      53.324  25.869  24.754  1.00  0.00    -0.200 F 
ENDBRANCH  60  84
BRANCH  72  95
ATOM     95  C   UNL A   1      46.291  32.147  28.743  1.00  0.00     0.064 A 
ATOM     96  C   UNL A   1      46.772  32.369  30.042  1.00  0.00     0.173 A 
ATOM     97  C   UNL A   1      46.339  33.212  27.830  1.00  0.00     0.173 A 
ATOM     98  F   UNL A   1      46.739  31.385  30.953  1.00  0.00    -0.203 F 
ATOM     99  C   UNL A   1      47.232  33.624  30.425  1.00  0.00     0.198 A 
ATOM    100  C   UNL A   1      46.844  34.451  28.204  1.00  0.00     0.198 A 
ATOM    101  F   UNL A   1      45.905  33.046  26.571  1.00  0.00    -0.203 F 
ATOM    102  F   UNL A   1      47.611  33.836  31.693  1.00  0.00    -0.200 F 
ATOM    103  C   UNL A   1      47.275  34.662  29.505  1.00  0.00     0.200 A 
ATOM    104  F   UNL A   1      46.907  35.444  27.307  1.00  0.00    -0.200 F 
ATOM    105  F   UNL A   1      47.720  35.869  29.876  1.00  0.00    -0.200 F 
ENDBRANCH  72  95
ENDBRANCH  46  47
ENDBRANCH  38  41
ENDBRANCH  36  37
ENDBRANCH  35  36
ENDBRANCH  34  35
ENDBRANCH   1  34
TORSDOF 15
ENDMDL
MODEL 3
REMARK VINA RESULT:     -15.2      1.193      2.132
REMARK SMILES O=C(NC1(C(=O)NCCCCNC(=O)c2ccc(-c3c4nc(c(-c5c(F)c(F)c(F)c(F)c5F)c5ccc([nH]5)c(-c5c(F)c(F)c(F)c(F)c5F)c5nc(c(-c6c(F)c(F)c(F)c(F)c6F)c6ccc3[nH]6)C=C5)C=C4)cc2)Cc2ccccc2C1)OCC1c2ccccc2-c2ccccc21
REMARK SMILES IDX 8 1 7 2 5 3 6 4 4 6 78 7 85 8 79 9 84 10 80 11 83 12 81 13
REMARK SMILES IDX 82 14 3 15 1 16 2 17 86 19 87 20 88 21 89 22 100 23 90 24
REMARK SMILES IDX 94 25 95 26 99 27 91 28 93 29 96 30 98 31 92 32 97 33 9 34
REMARK SMILES IDX 10 35 11 36 12 37 13 38 14 40 15 41 16 42 77 43 17 44 76 45
REMARK SMILES IDX 18 46 19 47 20 48 70 49 21 50 75 51 69 52 71 53 22 54 74 55
REMARK SMILES IDX 68 56 67 57 23 59 55 60 35 61 54 62 36 63 39 64 53 65 72 66
REMARK SMILES IDX 37 67 38 68 52 70 73 71 40 72 24 73 25 74 33 75 26 76 27 77
REMARK SMILES IDX 31 78 34 79 28 80 29 81 32 82 30 83 56 84 57 85 65 86 58 87
REMARK SMILES IDX 59 88 63 89 66 90 60 91 61 92 64 93 62 94 41 95 42 96 50 97
REMARK SMILES IDX 43 98 44 99 48 100 51 101 45 102 46 103 49 104 47 105
REMARK H PARENT 7 5 3 18 12 39 71 58 39 69
REMARK Flexibility Score: inf
ROOT
ATOM      1  C   UNL A   1      34.295  20.768  26.108  1.00  0.00     0.116 C 
ENDROOT
BRANCH   1   2
ATOM      2  N   UNL A   1      32.888  20.732  25.893  1.00  0.00    -0.354 N 
ATOM      3  C   UNL A   1      32.053  21.777  25.772  1.00  0.00     0.246 C 
ATOM      4  O   UNL A   1      30.897  21.475  25.437  1.00  0.00    -0.272 OA
ATOM      5  H   UNL A   1      32.481  19.838  25.825  1.00  0.00     0.163 HD
BRANCH   3   6
ATOM      6  C   UNL A   1      32.499  23.283  25.920  1.00  0.00     0.130 C 
ATOM      7  C   UNL A   1      32.604  23.745  24.430  1.00  0.00     0.075 C 
ATOM      8  C   UNL A   1      33.798  23.885  26.554  1.00  0.00     0.075 C 
ATOM      9  C   UNL A   1      34.112  23.739  24.211  1.00  0.00    -0.042 A 
ATOM     10  C   UNL A   1      34.777  23.986  25.419  1.00  0.00    -0.042 A 
ATOM     11  C   UNL A   1      34.840  23.224  23.143  1.00  0.00     0.004 A 
ATOM     12  C   UNL A   1      36.162  23.893  25.554  1.00  0.00     0.004 A 
ATOM     13  C   UNL A   1      36.223  23.009  23.299  1.00  0.00     0.000 A 
ATOM     14  C   UNL A   1      36.886  23.373  24.484  1.00  0.00     0.000 A 
BRANCH   6  15
ATOM     15  N   UNL A   1      31.403  23.758  26.778  1.00  0.00    -0.306 N 
ATOM     16  O   UNL A   1      29.451  24.938  26.820  1.00  0.00    -0.225 OA
ATOM     17  C   UNL A   1      30.577  24.794  26.357  1.00  0.00     0.408 C 
ATOM     18  H   UNL A   1      31.253  23.340  27.657  1.00  0.00     0.168 HD
BRANCH  17  19
ATOM     19  O   UNL A   1      31.096  25.556  25.318  1.00  0.00    -0.449 OA
BRANCH  19  20
ATOM     20  C   UNL A   1      30.162  26.490  24.785  1.00  0.00     0.248 C 
BRANCH  20  21
ATOM     21  C   UNL A   1      30.591  27.972  24.334  1.00  0.00     0.088 C 
ATOM     22  C   UNL A   1      31.644  28.831  25.131  1.00  0.00    -0.029 A 
ATOM     23  C   UNL A   1      31.417  27.569  23.027  1.00  0.00    -0.029 A 
ATOM     24  C   UNL A   1      31.630  29.475  26.799  1.00  0.00     0.005 A 
ATOM     25  C   UNL A   1      33.184  28.385  24.361  1.00  0.00    -0.014 A 
ATOM     26  C   UNL A   1      32.829  27.645  23.185  1.00  0.00    -0.014 A 
ATOM     27  C   UNL A   1      30.884  26.781  22.000  1.00  0.00     0.005 A 
ATOM     28  C   UNL A   1      33.203  29.633  27.702  1.00  0.00     0.000 A 
ATOM     29  C   UNL A   1      34.753  28.503  25.178  1.00  0.00     0.009 A 
ATOM     30  C   UNL A   1      33.686  26.879  22.413  1.00  0.00     0.009 A 
ATOM     31  C   UNL A   1      31.751  25.977  21.254  1.00  0.00     0.000 A 
ATOM     32  C   UNL A   1      34.768  29.032  26.891  1.00  0.00     0.001 A 
ATOM     33  C   UNL A   1      33.135  26.009  21.475  1.00  0.00     0.001 A 
ENDBRANCH  20  21
ENDBRANCH  19  20
ENDBRANCH  17  19
ENDBRANCH   6  15
ENDBRANCH   3   6
ENDBRANCH   1   2
BRANCH   1  34
ATOM     34  C   UNL A   1      35.237  19.976  24.939  1.00  0.00     0.023 C 
BRANCH  34  35
ATOM     35  C   UNL A   1      37.340  19.345  24.991  1.00  0.00     0.023 C 
BRANCH  35  36
ATOM     36  C   UNL A   1      38.849  20.308  25.431  1.00  0.00     0.116 C 
BRANCH  36  37
ATOM     37  N   UNL A   1      40.058  19.608  25.988  1.00  0.00    -0.352 N 
ATOM     38  C   UNL A   1      41.351  19.947  26.203  1.00  0.00     0.251 C 
ATOM     39  H   UNL A   1      39.863  18.683  26.263  1.00  0.00     0.163 HD
ATOM     40  O   UNL A   1      42.264  19.136  26.238  1.00  0.00    -0.269 OA
BRANCH  38  41
ATOM     41  C   UNL A   1      41.508  21.274  26.735  1.00  0.00     0.039 A 
ATOM     42  C   UNL A   1      41.860  21.462  28.059  1.00  0.00     0.014 A 
ATOM     43  C   UNL A   1      41.391  22.305  25.795  1.00  0.00     0.014 A 
ATOM     44  C   UNL A   1      42.202  22.743  28.430  1.00  0.00     0.010 A 
ATOM     45  C   UNL A   1      41.865  23.538  26.130  1.00  0.00     0.010 A 
ATOM     46  C   UNL A   1      42.255  23.758  27.452  1.00  0.00    -0.014 A 
BRANCH  46  47
ATOM     47  C   UNL A   1      42.735  25.089  27.806  1.00  0.00     0.031 A 
ATOM     48  C   UNL A   1      44.158  25.437  27.529  1.00  0.00     0.074 A 
ATOM     49  C   UNL A   1      41.866  25.922  28.400  1.00  0.00     0.049 A 
ATOM     50  N   UNL A   1      44.771  26.570  27.726  1.00  0.00    -0.248 NA
ATOM     51  C   UNL A   1      45.025  24.366  26.999  1.00  0.00     0.031 C 
ATOM     52  C   UNL A   1      40.491  25.583  28.785  1.00  0.00     0.029 A 
ATOM     53  N   UNL A   1      42.002  27.229  28.759  1.00  0.00    -0.354 N 
ATOM     54  C   UNL A   1      46.080  26.349  27.328  1.00  0.00     0.074 A 
ATOM     55  C   UNL A   1      46.209  24.953  26.995  1.00  0.00     0.031 C 
ATOM     56  C   UNL A   1      39.888  26.682  29.259  1.00  0.00     0.029 A 
ATOM     57  C   UNL A   1      40.849  27.776  29.254  1.00  0.00     0.049 A 
ATOM     58  H   UNL A   1      42.846  27.729  28.671  1.00  0.00     0.167 HD
ATOM     59  C   UNL A   1      47.065  27.262  27.198  1.00  0.00     0.037 A 
ATOM     60  C   UNL A   1      40.613  29.038  29.648  1.00  0.00     0.037 A 
ATOM     61  C   UNL A   1      46.887  28.645  27.533  1.00  0.00     0.049 A 
ATOM     62  C   UNL A   1      41.736  30.026  29.505  1.00  0.00     0.074 A 
ATOM     63  C   UNL A   1      47.794  29.681  27.437  1.00  0.00     0.029 A 
ATOM     64  N   UNL A   1      45.707  29.182  28.037  1.00  0.00    -0.354 N 
ATOM     65  N   UNL A   1      42.954  29.840  29.050  1.00  0.00    -0.248 NA
ATOM     66  C   UNL A   1      41.450  31.404  29.913  1.00  0.00     0.031 C 
ATOM     67  C   UNL A   1      47.181  30.834  27.938  1.00  0.00     0.029 A 
ATOM     68  C   UNL A   1      45.869  30.533  28.276  1.00  0.00     0.049 A 
ATOM     69  H   UNL A   1      44.879  28.674  28.199  1.00  0.00     0.167 HD
ATOM     70  C   UNL A   1      43.574  31.079  29.094  1.00  0.00     0.074 A 
ATOM     71  C   UNL A   1      42.579  32.013  29.587  1.00  0.00     0.031 C 
ATOM     72  C   UNL A   1      44.845  31.422  28.767  1.00  0.00     0.037 A 
BRANCH  59  73
ATOM     73  C   UNL A   1      48.380  26.783  26.666  1.00  0.00     0.064 A 
ATOM     74  C   UNL A   1      48.736  26.957  25.317  1.00  0.00     0.173 A 
ATOM     75  C   UNL A   1      49.299  26.142  27.507  1.00  0.00     0.173 A 
ATOM     76  F   UNL A   1      47.882  27.538  24.461  1.00  0.00    -0.203 F 
ATOM     77  C   UNL A   1      49.950  26.484  24.828  1.00  0.00     0.198 A 
ATOM     78  C   UNL A   1      50.529  25.704  27.024  1.00  0.00     0.198 A 
ATOM     79  F   UNL A   1      49.004  25.937  28.799  1.00  0.00    -0.203 F 
ATOM     80  F   UNL A   1      50.240  26.607  23.525  1.00  0.00    -0.200 F 
ATOM     81  C   UNL A   1      50.850  25.868  25.684  1.00  0.00     0.200 A 
ATOM     82  F   UNL A   1      51.401  25.116  27.853  1.00  0.00    -0.200 F 
ATOM     83  F   UNL A   1      52.024  25.422  25.215  1.00  0.00    -0.200 F 
ENDBRANCH  59  73
BRANCH  60  84
ATOM     84  C   UNL A   1      39.282  29.422  30.182  1.00  0.00     0.064 A 
ATOM     85  C   UNL A   1      38.320  30.040  29.372  1.00  0.00     0.173 A 
ATOM     86  C   UNL A   1      38.947  29.191  31.525  1.00  0.00     0.173 A 
ATOM     87  F   UNL A   1      38.588  30.282  28.079  1.00  0.00    -0.203 F 
ATOM     88  C   UNL A   1      37.099  30.458  29.895  1.00  0.00     0.198 A 
ATOM     89  C   UNL A   1      37.711  29.573  32.038  1.00  0.00     0.198 A 
ATOM     90  F   UNL A   1      39.821  28.582  32.341  1.00  0.00    -0.203 F 
ATOM     91  F   UNL A   1      36.227  31.110  29.114  1.00  0.00    -0.200 F 
ATOM     92  C   UNL A   1      36.794  30.222  31.226  1.00  0.00     0.200 A 
ATOM     93  F   UNL A   1      37.412  29.317  33.319  1.00  0.00    -0.200 F 
ATOM     94  F   UNL A   1      35.622  30.630  31.731  1.00  0.00    -0.200 F 
ENDBRANCH  60  84
BRANCH  72  95
ATOM     95  C   UNL A   1      45.203  32.873  28.904  1.00  0.00     0.064 A 
ATOM     96  C   UNL A   1      45.805  33.379  30.066  1.00  0.00     0.173 A 
ATOM     97  C   UNL A   1      44.954  33.763  27.848  1.00  0.00     0.173 A 
ATOM     98  F   UNL A   1      46.053  32.569  31.106  1.00  0.00    -0.203 F 
ATOM     99  C   UNL A   1      46.094  34.734  30.185  1.00  0.00     0.198 A 
ATOM    100  C   UNL A   1      45.290  35.107  27.953  1.00  0.00     0.198 A 
ATOM    101  F   UNL A   1      44.395  33.325  26.710  1.00  0.00    -0.203 F 
ATOM    102  F   UNL A   1      46.594  35.210  31.334  1.00  0.00    -0.200 F 
ATOM    103  C   UNL A   1      45.845  35.595  29.127  1.00  0.00     0.200 A 
ATOM    104  F   UNL A   1      45.071  35.932  26.920  1.00  0.00    -0.200 F 
ATOM    105  F   UNL A   1      46.127  36.899  29.243  1.00  0.00    -0.200 F 
ENDBRANCH  72  95
ENDBRANCH  46  47
ENDBRANCH  38  41
ENDBRANCH  36  37
ENDBRANCH  35  36
ENDBRANCH  34  35
ENDBRANCH   1  34
TORSDOF 15
ENDMDL
