MODEL 1
REMARK VINA RESULT:     -12.0      0.000      0.000
REMARK SMILES COc1ccc(NS(=O)(=O)c2ccc(CCC(=O)NCCCCNC(=O)c3ccc(-c4c5nc(c(-c6c(F)c(F)c(F)c(F)c6F)c6ccc([nH]6)c(-c6c(F)c(F)c(F)c(F)c6F)c6nc(c(-c7c(F)c(F)c(F)c(F)c7F)c7ccc4[nH]7)C=C6)C=C5)cc3)cc2)cn1
REMARK SMILES IDX 17 1 18 2 19 3 16 5 15 6 14 7 11 8 12 9 91 10 13 11 90 12
REMARK SMILES IDX 8 13 9 14 10 15 7 16 6 18 3 19 4 20 93 21 5 22 92 23 2 24
REMARK SMILES IDX 1 25 20 26 21 27 22 28 23 29 24 30 25 31 26 33 27 34 28 35
REMARK SMILES IDX 89 36 29 37 88 38 30 39 31 40 32 41 82 42 33 43 87 44 81 45
REMARK SMILES IDX 83 46 34 47 86 48 80 49 79 50 35 52 67 53 47 54 66 55 48 56
REMARK SMILES IDX 51 57 65 58 84 59 49 60 50 61 64 63 85 64 52 65 36 66 37 67
REMARK SMILES IDX 45 68 38 69 39 70 43 71 46 72 40 73 41 74 44 75 42 76 68 77
REMARK SMILES IDX 69 78 77 79 70 80 71 81 75 82 78 83 72 84 73 85 76 86 74 87
REMARK SMILES IDX 53 88 54 89 62 90 55 91 56 92 60 93 63 94 57 95 58 96 61 97
REMARK SMILES IDX 59 98
REMARK H PARENT 19 4 7 17 24 32 83 51 51 62
REMARK Flexibility Score: inf
ROOT
ATOM      1  C   UNL A   1      35.222  30.474  27.891  1.00  0.00     0.220 C 
ATOM      2  O   UNL A   1      35.777  29.441  28.269  1.00  0.00    -0.275 OA
ATOM      3  N   UNL A   1      35.887  31.654  28.053  1.00  0.00    -0.356 N 
ATOM      4  H   UNL A   1      36.844  31.576  28.270  1.00  0.00     0.163 HD
ENDROOT
BRANCH   1   5
ATOM      5  C   UNL A   1      33.859  30.429  27.223  1.00  0.00     0.105 C 
BRANCH   5   6
ATOM      6  C   UNL A   1      33.823  29.519  25.984  1.00  0.00     0.045 C 
BRANCH   6   7
ATOM      7  C   UNL A   1      33.182  28.180  26.273  1.00  0.00    -0.047 A 
ATOM      8  C   UNL A   1      31.765  25.775  26.309  1.00  0.00     0.087 A 
ATOM      9  C   UNL A   1      31.221  26.901  26.924  1.00  0.00     0.022 A 
ATOM     10  C   UNL A   1      33.087  25.792  25.860  1.00  0.00     0.022 A 
ATOM     11  C   UNL A   1      31.945  28.099  26.928  1.00  0.00     0.005 A 
ATOM     12  C   UNL A   1      33.779  27.002  25.808  1.00  0.00     0.005 A 
BRANCH   8  13
ATOM     13  S   UNL A   1      30.751  24.348  25.973  1.00  0.00     0.261 S 
ATOM     14  O   UNL A   1      29.500  24.524  26.688  1.00  0.00    -0.201 OA
ATOM     15  O   UNL A   1      31.560  23.168  26.164  1.00  0.00    -0.201 OA
BRANCH  13  16
ATOM     16  N   UNL A   1      30.356  24.527  24.315  1.00  0.00    -0.278 N 
ATOM     17  H   UNL A   1      30.254  23.746  23.725  1.00  0.00     0.180 HD
BRANCH  16  18
ATOM     18  C   UNL A   1      30.181  25.857  23.825  1.00  0.00     0.067 A 
ATOM     19  C   UNL A   1      29.763  28.213  22.504  1.00  0.00     0.213 A 
ATOM     20  C   UNL A   1      28.827  27.797  23.438  1.00  0.00     0.070 A 
ATOM     21  N   UNL A   1      30.900  27.541  22.226  1.00  0.00    -0.220 NA
ATOM     22  C   UNL A   1      29.057  26.612  24.135  1.00  0.00     0.034 A 
ATOM     23  C   UNL A   1      31.084  26.383  22.903  1.00  0.00     0.141 A 
BRANCH  19  24
ATOM     24  O   UNL A   1      29.412  29.269  21.695  1.00  0.00    -0.481 OA
ATOM     25  C   UNL A   1      28.100  29.738  21.976  1.00  0.00     0.280 C 
ENDBRANCH  19  24
ENDBRANCH  16  18
ENDBRANCH  13  16
ENDBRANCH   8  13
ENDBRANCH   6   7
ENDBRANCH   5   6
ENDBRANCH   1   5
BRANCH   3  26
ATOM     26  C   UNL A   1      35.380  33.009  27.948  1.00  0.00     0.116 C 
BRANCH  26  27
ATOM     27  C   UNL A   1      34.601  33.367  29.206  1.00  0.00     0.023 C 
BRANCH  27  28
ATOM     28  C   UNL A   1      33.400  34.276  29.010  1.00  0.00     0.023 C 
BRANCH  28  29
ATOM     29  C   UNL A   1      33.618  35.706  29.474  1.00  0.00     0.116 C 
BRANCH  29  30
ATOM     30  N   UNL A   1      32.654  36.136  30.481  1.00  0.00    -0.352 N 
ATOM     31  C   UNL A   1      32.603  35.869  31.830  1.00  0.00     0.251 C 
ATOM     32  H   UNL A   1      31.926  36.706  30.143  1.00  0.00     0.163 HD
ATOM     33  O   UNL A   1      31.604  36.197  32.468  1.00  0.00    -0.269 OA
BRANCH  31  34
ATOM     34  C   UNL A   1      33.726  35.150  32.477  1.00  0.00     0.039 A 
ATOM     35  C   UNL A   1      33.548  33.832  32.904  1.00  0.00     0.014 A 
ATOM     36  C   UNL A   1      34.981  35.750  32.590  1.00  0.00     0.014 A 
ATOM     37  C   UNL A   1      34.653  33.088  33.337  1.00  0.00     0.010 A 
ATOM     38  C   UNL A   1      36.093  34.975  32.895  1.00  0.00     0.010 A 
ATOM     39  C   UNL A   1      35.946  33.633  33.278  1.00  0.00    -0.014 A 
BRANCH  39  40
ATOM     40  C   UNL A   1      37.164  32.850  33.624  1.00  0.00     0.031 A 
ATOM     41  C   UNL A   1      37.870  33.113  34.929  1.00  0.00     0.074 A 
ATOM     42  C   UNL A   1      37.702  31.993  32.735  1.00  0.00     0.049 A 
ATOM     43  N   UNL A   1      39.038  32.690  35.346  1.00  0.00    -0.248 NA
ATOM     44  C   UNL A   1      37.197  34.023  35.870  1.00  0.00     0.031 C 
ATOM     45  C   UNL A   1      37.165  31.692  31.406  1.00  0.00     0.029 A 
ATOM     46  N   UNL A   1      38.840  31.225  32.809  1.00  0.00    -0.354 N 
ATOM     47  C   UNL A   1      39.256  33.326  36.561  1.00  0.00     0.074 A 
ATOM     48  C   UNL A   1      38.131  34.204  36.790  1.00  0.00     0.031 C 
ATOM     49  C   UNL A   1      37.949  30.784  30.806  1.00  0.00     0.029 A 
ATOM     50  C   UNL A   1      39.071  30.467  31.686  1.00  0.00     0.049 A 
ATOM     51  H   UNL A   1      39.434  31.217  33.594  1.00  0.00     0.167 HD
ATOM     52  C   UNL A   1      40.288  33.172  37.425  1.00  0.00     0.037 A 
ATOM     53  C   UNL A   1      40.075  29.616  31.398  1.00  0.00     0.037 A 
ATOM     54  C   UNL A   1      41.363  32.235  37.239  1.00  0.00     0.049 A 
ATOM     55  C   UNL A   1      41.169  29.401  32.408  1.00  0.00     0.074 A 
ATOM     56  C   UNL A   1      42.406  31.935  38.096  1.00  0.00     0.029 A 
ATOM     57  N   UNL A   1      41.516  31.430  36.120  1.00  0.00    -0.354 N 
ATOM     58  N   UNL A   1      41.338  29.970  33.578  1.00  0.00    -0.248 NA
ATOM     59  C   UNL A   1      42.209  28.423  32.062  1.00  0.00     0.031 C 
ATOM     60  C   UNL A   1      43.204  30.960  37.486  1.00  0.00     0.029 A 
ATOM     61  C   UNL A   1      42.638  30.631  36.265  1.00  0.00     0.049 A 
ATOM     62  H   UNL A   1      40.916  31.426  35.339  1.00  0.00     0.167 HD
ATOM     63  C   UNL A   1      42.483  29.401  34.116  1.00  0.00     0.074 A 
ATOM     64  C   UNL A   1      42.964  28.434  33.152  1.00  0.00     0.031 C 
ATOM     65  C   UNL A   1      43.086  29.660  35.302  1.00  0.00     0.037 A 
BRANCH  52  66
ATOM     66  C   UNL A   1      40.288  34.022  38.663  1.00  0.00     0.064 A 
ATOM     67  C   UNL A   1      40.952  35.258  38.708  1.00  0.00     0.173 A 
ATOM     68  C   UNL A   1      39.604  33.603  39.814  1.00  0.00     0.173 A 
ATOM     69  F   UNL A   1      41.632  35.698  37.639  1.00  0.00    -0.203 F 
ATOM     70  C   UNL A   1      40.964  36.024  39.871  1.00  0.00     0.198 A 
ATOM     71  C   UNL A   1      39.591  34.387  40.965  1.00  0.00     0.198 A 
ATOM     72  F   UNL A   1      38.949  32.433  39.824  1.00  0.00    -0.203 F 
ATOM     73  F   UNL A   1      41.658  37.170  39.909  1.00  0.00    -0.200 F 
ATOM     74  C   UNL A   1      40.279  35.591  40.996  1.00  0.00     0.200 A 
ATOM     75  F   UNL A   1      38.919  33.973  42.048  1.00  0.00    -0.200 F 
ATOM     76  F   UNL A   1      40.292  36.329  42.114  1.00  0.00    -0.200 F 
ENDBRANCH  52  66
BRANCH  53  77
ATOM     77  C   UNL A   1      40.071  28.869  30.114  1.00  0.00     0.064 A 
ATOM     78  C   UNL A   1      39.444  27.617  30.018  1.00  0.00     0.173 A 
ATOM     79  C   UNL A   1      40.688  29.378  28.963  1.00  0.00     0.173 A 
ATOM     80  F   UNL A   1      38.860  27.079  31.098  1.00  0.00    -0.203 F 
ATOM     81  C   UNL A   1      39.451  26.896  28.826  1.00  0.00     0.198 A 
ATOM     82  C   UNL A   1      40.673  28.668  27.764  1.00  0.00     0.198 A 
ATOM     83  F   UNL A   1      41.297  30.572  29.001  1.00  0.00    -0.203 F 
ATOM     84  F   UNL A   1      38.881  25.685  28.775  1.00  0.00    -0.200 F 
ATOM     85  C   UNL A   1      40.061  27.424  27.699  1.00  0.00     0.200 A 
ATOM     86  F   UNL A   1      41.255  29.185  26.673  1.00  0.00    -0.200 F 
ATOM     87  F   UNL A   1      40.066  26.732  26.551  1.00  0.00    -0.200 F 
ENDBRANCH  53  77
BRANCH  65  88
ATOM     88  C   UNL A   1      44.305  28.857  35.644  1.00  0.00     0.064 A 
ATOM     89  C   UNL A   1      45.589  29.278  35.270  1.00  0.00     0.173 A 
ATOM     90  C   UNL A   1      44.189  27.684  36.405  1.00  0.00     0.173 A 
ATOM     91  F   UNL A   1      45.747  30.386  34.530  1.00  0.00    -0.203 F 
ATOM     92  C   UNL A   1      46.714  28.542  35.630  1.00  0.00     0.198 A 
ATOM     93  C   UNL A   1      45.318  26.964  36.785  1.00  0.00     0.198 A 
ATOM     94  F   UNL A   1      42.982  27.246  36.793  1.00  0.00    -0.203 F 
ATOM     95  F   UNL A   1      47.929  28.941  35.232  1.00  0.00    -0.200 F 
ATOM     96  C   UNL A   1      46.578  27.391  36.393  1.00  0.00     0.200 A 
ATOM     97  F   UNL A   1      45.186  25.859  37.531  1.00  0.00    -0.200 F 
ATOM     98  F   UNL A   1      47.663  26.690  36.747  1.00  0.00    -0.200 F 
ENDBRANCH  65  88
ENDBRANCH  39  40
ENDBRANCH  31  34
ENDBRANCH  29  30
ENDBRANCH  28  29
ENDBRANCH  27  28
ENDBRANCH  26  27
ENDBRANCH   3  26
TORSDOF 17
ENDMDL
MODEL 2
REMARK VINA RESULT:     -11.7      2.043      3.333
REMARK SMILES COc1ccc(NS(=O)(=O)c2ccc(CCC(=O)NCCCCNC(=O)c3ccc(-c4c5nc(c(-c6c(F)c(F)c(F)c(F)c6F)c6ccc([nH]6)c(-c6c(F)c(F)c(F)c(F)c6F)c6nc(c(-c7c(F)c(F)c(F)c(F)c7F)c7ccc4[nH]7)C=C6)C=C5)cc3)cc2)cn1
REMARK SMILES IDX 17 1 18 2 19 3 16 5 15 6 14 7 11 8 12 9 91 10 13 11 90 12
REMARK SMILES IDX 8 13 9 14 10 15 7 16 6 18 3 19 4 20 93 21 5 22 92 23 2 24
REMARK SMILES IDX 1 25 20 26 21 27 22 28 23 29 24 30 25 31 26 33 27 34 28 35
REMARK SMILES IDX 89 36 29 37 88 38 30 39 31 40 32 41 82 42 33 43 87 44 81 45
REMARK SMILES IDX 83 46 34 47 86 48 80 49 79 50 35 52 67 53 47 54 66 55 48 56
REMARK SMILES IDX 51 57 65 58 84 59 49 60 50 61 64 63 85 64 52 65 36 66 37 67
REMARK SMILES IDX 45 68 38 69 39 70 43 71 46 72 40 73 41 74 44 75 42 76 68 77
REMARK SMILES IDX 69 78 77 79 70 80 71 81 75 82 78 83 72 84 73 85 76 86 74 87
REMARK SMILES IDX 53 88 54 89 62 90 55 91 56 92 60 93 63 94 57 95 58 96 61 97
REMARK SMILES IDX 59 98
REMARK H PARENT 19 4 7 17 24 32 83 51 51 62
REMARK Flexibility Score: inf
ROOT
ATOM      1  C   UNL A   1      35.813  30.017  27.580  1.00  0.00     0.220 C 
ATOM      2  O   UNL A   1      37.002  29.703  27.508  1.00  0.00    -0.275 OA
ATOM      3  N   UNL A   1      35.504  31.344  27.651  1.00  0.00    -0.356 N 
ATOM      4  H   UNL A   1      36.238  31.963  27.433  1.00  0.00     0.163 HD
ENDROOT
BRANCH   1   5
ATOM      5  C   UNL A   1      34.722  28.960  27.543  1.00  0.00     0.105 C 
BRANCH   5   6
ATOM      6  C   UNL A   1      33.948  28.937  26.215  1.00  0.00     0.045 C 
BRANCH   6   7
ATOM      7  C   UNL A   1      33.317  27.590  25.941  1.00  0.00    -0.047 A 
ATOM      8  C   UNL A   1      32.402  24.953  25.906  1.00  0.00     0.087 A 
ATOM      9  C   UNL A   1      33.549  25.291  25.189  1.00  0.00     0.022 A 
ATOM     10  C   UNL A   1      31.606  25.954  26.466  1.00  0.00     0.022 A 
ATOM     11  C   UNL A   1      33.991  26.619  25.187  1.00  0.00     0.005 A 
ATOM     12  C   UNL A   1      32.082  27.263  26.516  1.00  0.00     0.005 A 
BRANCH   8  13
ATOM     13  S   UNL A   1      32.004  23.245  26.226  1.00  0.00     0.261 S 
ATOM     14  O   UNL A   1      30.774  22.944  25.518  1.00  0.00    -0.201 OA
ATOM     15  O   UNL A   1      32.124  23.015  27.646  1.00  0.00    -0.201 OA
BRANCH  13  16
ATOM     16  N   UNL A   1      33.231  22.391  25.388  1.00  0.00    -0.278 N 
ATOM     17  H   UNL A   1      34.131  22.772  25.268  1.00  0.00     0.180 HD
BRANCH  16  18
ATOM     18  C   UNL A   1      32.893  21.104  24.869  1.00  0.00     0.067 A 
ATOM     19  C   UNL A   1      32.608  18.679  23.639  1.00  0.00     0.213 A 
ATOM     20  C   UNL A   1      32.936  18.709  24.985  1.00  0.00     0.070 A 
ATOM     21  N   UNL A   1      32.382  19.782  22.893  1.00  0.00    -0.220 NA
ATOM     22  C   UNL A   1      33.048  19.945  25.620  1.00  0.00     0.034 A 
ATOM     23  C   UNL A   1      32.522  20.968  23.533  1.00  0.00     0.141 A 
BRANCH  19  24
ATOM     24  O   UNL A   1      32.704  17.465  23.000  1.00  0.00    -0.481 OA
ATOM     25  C   UNL A   1      34.003  16.902  23.123  1.00  0.00     0.280 C 
ENDBRANCH  19  24
ENDBRANCH  16  18
ENDBRANCH  13  16
ENDBRANCH   8  13
ENDBRANCH   6   7
ENDBRANCH   5   6
ENDBRANCH   1   5
BRANCH   3  26
ATOM     26  C   UNL A   1      34.244  31.969  28.002  1.00  0.00     0.116 C 
BRANCH  26  27
ATOM     27  C   UNL A   1      34.500  33.340  28.613  1.00  0.00     0.023 C 
BRANCH  27  28
ATOM     28  C   UNL A   1      33.275  34.209  28.839  1.00  0.00     0.023 C 
BRANCH  28  29
ATOM     29  C   UNL A   1      33.588  35.619  29.306  1.00  0.00     0.116 C 
BRANCH  29  30
ATOM     30  N   UNL A   1      32.647  36.116  30.305  1.00  0.00    -0.352 N 
ATOM     31  C   UNL A   1      32.597  35.896  31.662  1.00  0.00     0.251 C 
ATOM     32  H   UNL A   1      31.937  36.699  29.953  1.00  0.00     0.163 HD
ATOM     33  O   UNL A   1      31.616  36.279  32.295  1.00  0.00    -0.269 OA
BRANCH  31  34
ATOM     34  C   UNL A   1      33.700  35.159  32.325  1.00  0.00     0.039 A 
ATOM     35  C   UNL A   1      33.507  33.832  32.716  1.00  0.00     0.014 A 
ATOM     36  C   UNL A   1      34.952  35.754  32.488  1.00  0.00     0.014 A 
ATOM     37  C   UNL A   1      34.597  33.076  33.164  1.00  0.00     0.010 A 
ATOM     38  C   UNL A   1      36.053  34.969  32.808  1.00  0.00     0.010 A 
ATOM     39  C   UNL A   1      35.892  33.619  33.156  1.00  0.00    -0.014 A 
BRANCH  39  40
ATOM     40  C   UNL A   1      37.098  32.825  33.520  1.00  0.00     0.031 A 
ATOM     41  C   UNL A   1      37.792  33.087  34.832  1.00  0.00     0.074 A 
ATOM     42  C   UNL A   1      37.639  31.959  32.640  1.00  0.00     0.049 A 
ATOM     43  N   UNL A   1      38.950  32.654  35.264  1.00  0.00    -0.248 NA
ATOM     44  C   UNL A   1      37.116  34.007  35.761  1.00  0.00     0.031 C 
ATOM     45  C   UNL A   1      37.114  31.659  31.306  1.00  0.00     0.029 A 
ATOM     46  N   UNL A   1      38.768  31.181  32.731  1.00  0.00    -0.354 N 
ATOM     47  C   UNL A   1      39.160  33.292  36.480  1.00  0.00     0.074 A 
ATOM     48  C   UNL A   1      38.041  34.182  36.692  1.00  0.00     0.031 C 
ATOM     49  C   UNL A   1      37.897  30.741  30.718  1.00  0.00     0.029 A 
ATOM     50  C   UNL A   1      39.005  30.416  31.613  1.00  0.00     0.049 A 
ATOM     51  H   UNL A   1      39.352  31.171  33.523  1.00  0.00     0.167 HD
ATOM     52  C   UNL A   1      40.180  33.131  37.357  1.00  0.00     0.037 A 
ATOM     53  C   UNL A   1      40.004  29.554  31.340  1.00  0.00     0.037 A 
ATOM     54  C   UNL A   1      41.247  32.183  37.187  1.00  0.00     0.049 A 
ATOM     55  C   UNL A   1      41.084  29.332  32.365  1.00  0.00     0.074 A 
ATOM     56  C   UNL A   1      42.277  31.876  38.057  1.00  0.00     0.029 A 
ATOM     57  N   UNL A   1      41.406  31.372  36.073  1.00  0.00    -0.354 N 
ATOM     58  N   UNL A   1      41.244  29.904  33.534  1.00  0.00    -0.248 NA
ATOM     59  C   UNL A   1      42.118  28.343  32.035  1.00  0.00     0.031 C 
ATOM     60  C   UNL A   1      43.073  30.891  37.461  1.00  0.00     0.029 A 
ATOM     61  C   UNL A   1      42.518  30.563  36.235  1.00  0.00     0.049 A 
ATOM     62  H   UNL A   1      40.816  31.371  35.285  1.00  0.00     0.167 HD
ATOM     63  C   UNL A   1      42.377  29.326  34.089  1.00  0.00     0.074 A 
ATOM     64  C   UNL A   1      42.860  28.350  33.134  1.00  0.00     0.031 C 
ATOM     65  C   UNL A   1      42.968  29.584  35.281  1.00  0.00     0.037 A 
BRANCH  52  66
ATOM     66  C   UNL A   1      40.173  33.986  38.591  1.00  0.00     0.064 A 
ATOM     67  C   UNL A   1      39.491  33.595  39.754  1.00  0.00     0.173 A 
ATOM     68  C   UNL A   1      40.870  35.203  38.618  1.00  0.00     0.173 A 
ATOM     69  F   UNL A   1      38.798  32.447  39.776  1.00  0.00    -0.203 F 
ATOM     70  C   UNL A   1      39.473  34.410  40.883  1.00  0.00     0.198 A 
ATOM     71  C   UNL A   1      40.878  36.000  39.761  1.00  0.00     0.198 A 
ATOM     72  F   UNL A   1      41.544  35.621  37.536  1.00  0.00    -0.203 F 
ATOM     73  F   UNL A   1      38.762  34.045  41.959  1.00  0.00    -0.200 F 
ATOM     74  C   UNL A   1      40.171  35.608  40.888  1.00  0.00     0.200 A 
ATOM     75  F   UNL A   1      41.561  37.152  39.767  1.00  0.00    -0.200 F 
ATOM     76  F   UNL A   1      40.153  36.391  41.975  1.00  0.00    -0.200 F 
ENDBRANCH  52  66
BRANCH  53  77
ATOM     77  C   UNL A   1      40.008  28.802  30.059  1.00  0.00     0.064 A 
ATOM     78  C   UNL A   1      39.419  27.531  29.975  1.00  0.00     0.173 A 
ATOM     79  C   UNL A   1      40.595  29.326  28.900  1.00  0.00     0.173 A 
ATOM     80  F   UNL A   1      38.864  26.980  31.064  1.00  0.00    -0.203 F 
ATOM     81  C   UNL A   1      39.434  26.807  28.786  1.00  0.00     0.198 A 
ATOM     82  C   UNL A   1      40.589  28.610  27.703  1.00  0.00     0.198 A 
ATOM     83  F   UNL A   1      41.168  30.538  28.926  1.00  0.00    -0.203 F 
ATOM     84  F   UNL A   1      38.902  25.578  28.746  1.00  0.00    -0.200 F 
ATOM     85  C   UNL A   1      40.014  27.348  27.650  1.00  0.00     0.200 A 
ATOM     86  F   UNL A   1      41.141  29.141  26.604  1.00  0.00    -0.200 F 
ATOM     87  F   UNL A   1      40.028  26.653  26.505  1.00  0.00    -0.200 F 
ENDBRANCH  53  77
BRANCH  65  88
ATOM     88  C   UNL A   1      44.175  28.771  35.641  1.00  0.00     0.064 A 
ATOM     89  C   UNL A   1      44.062  27.548  36.315  1.00  0.00     0.173 A 
ATOM     90  C   UNL A   1      45.455  29.196  35.253  1.00  0.00     0.173 A 
ATOM     91  F   UNL A   1      42.860  27.107  36.717  1.00  0.00    -0.203 F 
ATOM     92  C   UNL A   1      45.190  26.786  36.606  1.00  0.00     0.198 A 
ATOM     93  C   UNL A   1      46.578  28.420  35.524  1.00  0.00     0.198 A 
ATOM     94  F   UNL A   1      45.613  30.357  34.599  1.00  0.00    -0.203 F 
ATOM     95  F   UNL A   1      45.064  25.637  37.283  1.00  0.00    -0.200 F 
ATOM     96  C   UNL A   1      46.445  27.219  36.204  1.00  0.00     0.200 A 
ATOM     97  F   UNL A   1      47.788  28.835  35.125  1.00  0.00    -0.200 F 
ATOM     98  F   UNL A   1      47.528  26.479  36.475  1.00  0.00    -0.200 F 
ENDBRANCH  65  88
ENDBRANCH  39  40
ENDBRANCH  31  34
ENDBRANCH  29  30
ENDBRANCH  28  29
ENDBRANCH  27  28
ENDBRANCH  26  27
ENDBRANCH   3  26
TORSDOF 17
ENDMDL
MODEL 3
REMARK VINA RESULT:     -11.5      1.754      2.679
REMARK SMILES COc1ccc(NS(=O)(=O)c2ccc(CCC(=O)NCCCCNC(=O)c3ccc(-c4c5nc(c(-c6c(F)c(F)c(F)c(F)c6F)c6ccc([nH]6)c(-c6c(F)c(F)c(F)c(F)c6F)c6nc(c(-c7c(F)c(F)c(F)c(F)c7F)c7ccc4[nH]7)C=C6)C=C5)cc3)cc2)cn1
REMARK SMILES IDX 17 1 18 2 19 3 16 5 15 6 14 7 11 8 12 9 91 10 13 11 90 12
REMARK SMILES IDX 8 13 9 14 10 15 7 16 6 18 3 19 4 20 93 21 5 22 92 23 2 24
REMARK SMILES IDX 1 25 20 26 21 27 22 28 23 29 24 30 25 31 26 33 27 34 28 35
REMARK SMILES IDX 89 36 29 37 88 38 30 39 31 40 32 41 82 42 33 43 87 44 81 45
REMARK SMILES IDX 83 46 34 47 86 48 80 49 79 50 35 52 67 53 47 54 66 55 48 56
REMARK SMILES IDX 51 57 65 58 84 59 49 60 50 61 64 63 85 64 52 65 36 66 37 67
REMARK SMILES IDX 45 68 38 69 39 70 43 71 46 72 40 73 41 74 44 75 42 76 68 77
REMARK SMILES IDX 69 78 77 79 70 80 71 81 75 82 78 83 72 84 73 85 76 86 74 87
REMARK SMILES IDX 53 88 54 89 62 90 55 91 56 92 60 93 63 94 57 95 58 96 61 97
REMARK SMILES IDX 59 98
REMARK H PARENT 19 4 7 17 24 32 83 51 51 62
REMARK Flexibility Score: inf
ROOT
ATOM      1  C   UNL A   1      35.265  29.833  27.673  1.00  0.00     0.220 C 
ATOM      2  O   UNL A   1      36.349  29.285  27.881  1.00  0.00    -0.275 OA
ATOM      3  N   UNL A   1      35.237  31.196  27.620  1.00  0.00    -0.356 N 
ATOM      4  H   UNL A   1      36.115  31.637  27.546  1.00  0.00     0.163 HD
ENDROOT
BRANCH   1   5
ATOM      5  C   UNL A   1      34.008  29.015  27.437  1.00  0.00     0.105 C 
BRANCH   5   6
ATOM      6  C   UNL A   1      33.356  29.288  26.072  1.00  0.00     0.045 C 
BRANCH   6   7
ATOM      7  C   UNL A   1      33.659  28.203  25.062  1.00  0.00    -0.047 A 
ATOM      8  C   UNL A   1      33.672  26.112  23.213  1.00  0.00     0.087 A 
ATOM      9  C   UNL A   1      33.937  25.843  24.555  1.00  0.00     0.022 A 
ATOM     10  C   UNL A   1      33.603  27.432  22.764  1.00  0.00     0.022 A 
ATOM     11  C   UNL A   1      33.956  26.897  25.476  1.00  0.00     0.005 A 
ATOM     12  C   UNL A   1      33.558  28.472  23.692  1.00  0.00     0.005 A 
BRANCH   8  13
ATOM     13  S   UNL A   1      33.293  24.788  22.082  1.00  0.00     0.261 S 
ATOM     14  O   UNL A   1      34.225  23.708  22.347  1.00  0.00    -0.201 OA
ATOM     15  O   UNL A   1      33.159  25.351  20.760  1.00  0.00    -0.201 OA
BRANCH  13  16
ATOM     16  N   UNL A   1      31.772  24.220  22.634  1.00  0.00    -0.278 N 
ATOM     17  H   UNL A   1      30.944  24.725  22.465  1.00  0.00     0.180 HD
BRANCH  16  18
ATOM     18  C   UNL A   1      31.757  22.986  23.352  1.00  0.00     0.067 A 
ATOM     19  C   UNL A   1      32.155  20.604  24.633  1.00  0.00     0.213 A 
ATOM     20  C   UNL A   1      31.893  21.734  25.392  1.00  0.00     0.070 A 
ATOM     21  N   UNL A   1      32.192  20.594  23.284  1.00  0.00    -0.220 NA
ATOM     22  C   UNL A   1      31.658  22.941  24.736  1.00  0.00     0.034 A 
ATOM     23  C   UNL A   1      31.982  21.787  22.677  1.00  0.00     0.141 A 
BRANCH  19  24
ATOM     24  O   UNL A   1      32.580  19.483  25.308  1.00  0.00    -0.481 OA
ATOM     25  C   UNL A   1      33.700  18.877  24.677  1.00  0.00     0.280 C 
ENDBRANCH  19  24
ENDBRANCH  16  18
ENDBRANCH  13  16
ENDBRANCH   8  13
ENDBRANCH   6   7
ENDBRANCH   5   6
ENDBRANCH   1   5
BRANCH   3  26
ATOM     26  C   UNL A   1      34.094  32.087  27.656  1.00  0.00     0.116 C 
BRANCH  26  27
ATOM     27  C   UNL A   1      34.369  33.242  28.609  1.00  0.00     0.023 C 
BRANCH  27  28
ATOM     28  C   UNL A   1      33.192  34.156  28.906  1.00  0.00     0.023 C 
BRANCH  28  29
ATOM     29  C   UNL A   1      33.585  35.544  29.378  1.00  0.00     0.116 C 
BRANCH  29  30
ATOM     30  N   UNL A   1      32.681  36.084  30.389  1.00  0.00    -0.352 N 
ATOM     31  C   UNL A   1      32.665  35.901  31.753  1.00  0.00     0.251 C 
ATOM     32  H   UNL A   1      31.972  36.671  30.041  1.00  0.00     0.163 HD
ATOM     33  O   UNL A   1      31.709  36.319  32.402  1.00  0.00    -0.269 OA
BRANCH  31  34
ATOM     34  C   UNL A   1      33.773  35.162  32.405  1.00  0.00     0.039 A 
ATOM     35  C   UNL A   1      33.580  33.838  32.805  1.00  0.00     0.014 A 
ATOM     36  C   UNL A   1      35.030  35.752  32.549  1.00  0.00     0.014 A 
ATOM     37  C   UNL A   1      34.673  33.079  33.242  1.00  0.00     0.010 A 
ATOM     38  C   UNL A   1      36.131  34.964  32.858  1.00  0.00     0.010 A 
ATOM     39  C   UNL A   1      35.969  33.617  33.215  1.00  0.00    -0.014 A 
BRANCH  39  40
ATOM     40  C   UNL A   1      37.177  32.819  33.566  1.00  0.00     0.031 A 
ATOM     41  C   UNL A   1      37.892  33.088  34.865  1.00  0.00     0.074 A 
ATOM     42  C   UNL A   1      37.699  31.943  32.686  1.00  0.00     0.049 A 
ATOM     43  N   UNL A   1      39.054  32.652  35.283  1.00  0.00    -0.248 NA
ATOM     44  C   UNL A   1      37.236  34.020  35.797  1.00  0.00     0.031 C 
ATOM     45  C   UNL A   1      37.152  31.634  31.362  1.00  0.00     0.029 A 
ATOM     46  N   UNL A   1      38.824  31.159  32.766  1.00  0.00    -0.354 N 
ATOM     47  C   UNL A   1      39.287  33.300  36.489  1.00  0.00     0.074 A 
ATOM     48  C   UNL A   1      38.176  34.198  36.712  1.00  0.00     0.031 C 
ATOM     49  C   UNL A   1      37.920  30.706  30.771  1.00  0.00     0.029 A 
ATOM     50  C   UNL A   1      39.040  30.383  31.651  1.00  0.00     0.049 A 
ATOM     51  H   UNL A   1      39.421  31.152  33.548  1.00  0.00     0.167 HD
ATOM     52  C   UNL A   1      40.320  33.141  37.352  1.00  0.00     0.037 A 
ATOM     53  C   UNL A   1      40.030  29.513  31.370  1.00  0.00     0.037 A 
ATOM     54  C   UNL A   1      41.379  32.186  37.173  1.00  0.00     0.049 A 
ATOM     55  C   UNL A   1      41.124  29.294  32.380  1.00  0.00     0.074 A 
ATOM     56  C   UNL A   1      42.420  31.880  38.031  1.00  0.00     0.029 A 
ATOM     57  N   UNL A   1      41.516  31.364  36.065  1.00  0.00    -0.354 N 
ATOM     58  N   UNL A   1      41.306  29.875  33.541  1.00  0.00    -0.248 NA
ATOM     59  C   UNL A   1      42.148  28.296  32.043  1.00  0.00     0.031 C 
ATOM     60  C   UNL A   1      43.201  30.885  37.431  1.00  0.00     0.029 A 
ATOM     61  C   UNL A   1      42.626  30.550  36.216  1.00  0.00     0.049 A 
ATOM     62  H   UNL A   1      40.913  31.359  35.286  1.00  0.00     0.167 HD
ATOM     63  C   UNL A   1      42.445  29.296  34.083  1.00  0.00     0.074 A 
ATOM     64  C   UNL A   1      42.907  28.309  33.129  1.00  0.00     0.031 C 
ATOM     65  C   UNL A   1      43.055  29.560  35.264  1.00  0.00     0.037 A 
BRANCH  52  66
ATOM     66  C   UNL A   1      40.337  34.006  38.579  1.00  0.00     0.064 A 
ATOM     67  C   UNL A   1      41.024  35.230  38.608  1.00  0.00     0.173 A 
ATOM     68  C   UNL A   1      39.646  33.615  39.735  1.00  0.00     0.173 A 
ATOM     69  F   UNL A   1      41.712  35.643  37.533  1.00  0.00    -0.203 F 
ATOM     70  C   UNL A   1      41.052  36.010  39.761  1.00  0.00     0.198 A 
ATOM     71  C   UNL A   1      39.649  34.414  40.877  1.00  0.00     0.198 A 
ATOM     72  F   UNL A   1      38.968  32.458  39.760  1.00  0.00    -0.203 F 
ATOM     73  F   UNL A   1      41.768  37.142  39.784  1.00  0.00    -0.200 F 
ATOM     74  C   UNL A   1      40.360  35.604  40.892  1.00  0.00     0.200 A 
ATOM     75  F   UNL A   1      38.970  34.027  41.965  1.00  0.00    -0.200 F 
ATOM     76  F   UNL A   1      40.388  36.356  42.001  1.00  0.00    -0.200 F 
ENDBRANCH  52  66
BRANCH  53  77
ATOM     77  C   UNL A   1      40.010  28.750  30.096  1.00  0.00     0.064 A 
ATOM     78  C   UNL A   1      39.382  27.497  30.024  1.00  0.00     0.173 A 
ATOM     79  C   UNL A   1      40.611  29.245  28.932  1.00  0.00     0.173 A 
ATOM     80  F   UNL A   1      38.813  26.972  31.118  1.00  0.00    -0.203 F 
ATOM     81  C   UNL A   1      39.375  26.762  28.841  1.00  0.00     0.198 A 
ATOM     82  C   UNL A   1      40.582  28.520  27.741  1.00  0.00     0.198 A 
ATOM     83  F   UNL A   1      41.220  30.440  28.947  1.00  0.00    -0.203 F 
ATOM     84  F   UNL A   1      38.805  25.549  28.812  1.00  0.00    -0.200 F 
ATOM     85  C   UNL A   1      39.969  27.276  27.699  1.00  0.00     0.200 A 
ATOM     86  F   UNL A   1      41.149  29.024  26.636  1.00  0.00    -0.200 F 
ATOM     87  F   UNL A   1      39.960  26.570  26.560  1.00  0.00    -0.200 F 
ENDBRANCH  53  77
BRANCH  65  88
ATOM     88  C   UNL A   1      44.264  28.743  35.612  1.00  0.00     0.064 A 
ATOM     89  C   UNL A   1      45.554  29.149  35.244  1.00  0.00     0.173 A 
ATOM     90  C   UNL A   1      44.130  27.571  36.371  1.00  0.00     0.173 A 
ATOM     91  F   UNL A   1      45.729  30.255  34.505  1.00  0.00    -0.203 F 
ATOM     92  C   UNL A   1      46.668  28.399  35.609  1.00  0.00     0.198 A 
ATOM     93  C   UNL A   1      45.248  26.838  36.756  1.00  0.00     0.198 A 
ATOM     94  F   UNL A   1      42.916  27.147  36.753  1.00  0.00    -0.203 F 
ATOM     95  F   UNL A   1      47.890  28.785  35.218  1.00  0.00    -0.200 F 
ATOM     96  C   UNL A   1      46.516  27.250  36.371  1.00  0.00     0.200 A 
ATOM     97  F   UNL A   1      45.100  25.734  37.501  1.00  0.00    -0.200 F 
ATOM     98  F   UNL A   1      47.590  26.536  36.731  1.00  0.00    -0.200 F 
ENDBRANCH  65  88
ENDBRANCH  39  40
ENDBRANCH  31  34
ENDBRANCH  29  30
ENDBRANCH  28  29
ENDBRANCH  27  28
ENDBRANCH  26  27
ENDBRANCH   3  26
TORSDOF 17
ENDMDL
