MODEL 1
REMARK VINA RESULT:     -13.3      0.000      0.000
REMARK SMILES O=C(NCCCCNC(=O)c1cccc2c1N[C@H](c1ccccc1Br)[C@H]1CC=C[C@H]21)c1ccc(-c2c3nc(c(-c4c(F)c(F)c(F)c(F)c4F)c4ccc([nH]4)c(-c4c(F)c(F)c(F)c(F)c4F)c4nc(c(-c5c(F)c(F)c(F)c(F)c5F)c5ccc2[nH]5)C=C4)C=C3)cc1
REMARK SMILES IDX 5 1 4 2 3 3 1 4 2 5 31 7 32 8 93 9 33 10 92 11 34 12 35 13
REMARK SMILES IDX 36 14 86 15 37 16 91 17 85 18 87 19 38 20 90 21 84 22 83 23
REMARK SMILES IDX 39 25 71 26 51 27 70 28 52 29 55 30 69 31 88 32 53 33 54 34
REMARK SMILES IDX 68 36 89 37 56 38 40 39 41 40 49 41 42 42 43 43 47 44 50 45
REMARK SMILES IDX 44 46 45 47 48 48 46 49 72 50 73 51 81 52 74 53 75 54 79 55
REMARK SMILES IDX 82 56 76 57 77 58 80 59 78 60 57 61 58 62 66 63 59 64 60 65
REMARK SMILES IDX 64 66 67 67 61 68 62 69 65 70 63 71 6 72 7 73 8 74 9 75
REMARK SMILES IDX 10 77 11 78 12 79 16 80 13 81 15 82 17 83 14 84 30 85 18 86
REMARK SMILES IDX 26 88 29 89 27 90 28 91 19 92 20 93 24 94 21 95 23 96 25 97
REMARK SMILES IDX 22 98
REMARK H PARENT 3 6 87 24 55 35 8 76 17 87
REMARK Flexibility Score: inf
ROOT
ATOM      1  C   UNL A   1      33.187  28.777  25.618  1.00  0.00     0.023 C 
ENDROOT
BRANCH   1   2
ATOM      2  C   UNL A   1      33.791  28.831  27.015  1.00  0.00     0.116 C 
BRANCH   2   3
ATOM      3  N   UNL A   1      33.777  30.169  27.582  1.00  0.00    -0.352 N 
ATOM      4  O   UNL A   1      34.448  31.894  28.864  1.00  0.00    -0.269 OA
ATOM      5  C   UNL A   1      34.710  30.807  28.357  1.00  0.00     0.251 C 
ATOM      6  H   UNL A   1      32.971  30.699  27.378  1.00  0.00     0.163 HD
BRANCH   5   7
ATOM      7  C   UNL A   1      36.040  30.202  28.584  1.00  0.00     0.039 A 
ATOM      8  C   UNL A   1      36.287  29.544  29.793  1.00  0.00     0.014 A 
ATOM      9  C   UNL A   1      37.065  30.351  27.646  1.00  0.00     0.014 A 
ATOM     10  C   UNL A   1      37.556  29.022  30.056  1.00  0.00     0.010 A 
ATOM     11  C   UNL A   1      38.310  29.773  27.879  1.00  0.00     0.010 A 
ATOM     12  C   UNL A   1      38.575  29.133  29.101  1.00  0.00    -0.014 A 
BRANCH  12  13
ATOM     13  C   UNL A   1      39.966  28.708  29.394  1.00  0.00     0.031 A 
ATOM     14  C   UNL A   1      40.829  29.585  30.258  1.00  0.00     0.074 A 
ATOM     15  C   UNL A   1      40.466  27.574  28.873  1.00  0.00     0.049 A 
ATOM     16  N   UNL A   1      42.106  29.491  30.529  1.00  0.00    -0.248 NA
ATOM     17  C   UNL A   1      40.165  30.741  30.881  1.00  0.00     0.031 C 
ATOM     18  C   UNL A   1      39.728  26.626  28.042  1.00  0.00     0.029 A 
ATOM     19  N   UNL A   1      41.723  27.033  28.969  1.00  0.00    -0.354 N 
ATOM     20  C   UNL A   1      42.398  30.582  31.338  1.00  0.00     0.074 A 
ATOM     21  C   UNL A   1      41.181  31.353  31.468  1.00  0.00     0.031 C 
ATOM     22  C   UNL A   1      40.538  25.604  27.724  1.00  0.00     0.029 A 
ATOM     23  C   UNL A   1      41.863  25.849  28.291  1.00  0.00     0.049 A 
ATOM     24  H   UNL A   1      42.455  27.453  29.476  1.00  0.00     0.167 HD
ATOM     25  C   UNL A   1      43.570  30.900  31.939  1.00  0.00     0.037 A 
ATOM     26  C   UNL A   1      42.942  25.058  28.136  1.00  0.00     0.037 A 
ATOM     27  C   UNL A   1      44.775  30.124  31.823  1.00  0.00     0.049 A 
ATOM     28  C   UNL A   1      44.249  25.462  28.761  1.00  0.00     0.074 A 
ATOM     29  C   UNL A   1      46.014  30.361  32.392  1.00  0.00     0.029 A 
ATOM     30  N   UNL A   1      44.888  28.951  31.092  1.00  0.00    -0.354 N 
ATOM     31  N   UNL A   1      44.527  26.508  29.501  1.00  0.00    -0.248 NA
ATOM     32  C   UNL A   1      45.398  24.577  28.517  1.00  0.00     0.031 C 
ATOM     33  C   UNL A   1      46.886  29.347  31.978  1.00  0.00     0.029 A 
ATOM     34  C   UNL A   1      46.179  28.455  31.186  1.00  0.00     0.049 A 
ATOM     35  H   UNL A   1      44.158  28.531  30.582  1.00  0.00     0.167 HD
ATOM     36  C   UNL A   1      45.873  26.402  29.825  1.00  0.00     0.074 A 
ATOM     37  C   UNL A   1      46.353  25.179  29.213  1.00  0.00     0.031 C 
ATOM     38  C   UNL A   1      46.643  27.242  30.559  1.00  0.00     0.037 A 
BRANCH  25  39
ATOM     39  C   UNL A   1      43.591  32.150  32.770  1.00  0.00     0.064 A 
ATOM     40  C   UNL A   1      43.294  32.122  34.143  1.00  0.00     0.173 A 
ATOM     41  C   UNL A   1      43.899  33.389  32.192  1.00  0.00     0.173 A 
ATOM     42  F   UNL A   1      42.973  30.964  34.740  1.00  0.00    -0.203 F 
ATOM     43  C   UNL A   1      43.268  33.293  34.894  1.00  0.00     0.198 A 
ATOM     44  C   UNL A   1      43.902  34.555  32.954  1.00  0.00     0.198 A 
ATOM     45  F   UNL A   1      44.189  33.473  30.885  1.00  0.00    -0.203 F 
ATOM     46  F   UNL A   1      42.918  33.249  36.188  1.00  0.00    -0.200 F 
ATOM     47  C   UNL A   1      43.576  34.508  34.302  1.00  0.00     0.200 A 
ATOM     48  F   UNL A   1      44.209  35.727  32.382  1.00  0.00    -0.200 F 
ATOM     49  F   UNL A   1      43.547  35.636  35.025  1.00  0.00    -0.200 F 
ENDBRANCH  25  39
BRANCH  26  50
ATOM     50  C   UNL A   1      42.814  23.785  27.384  1.00  0.00     0.064 A 
ATOM     51  C   UNL A   1      43.186  23.720  26.035  1.00  0.00     0.173 A 
ATOM     52  C   UNL A   1      42.361  22.610  27.998  1.00  0.00     0.173 A 
ATOM     53  F   UNL A   1      43.603  24.825  25.401  1.00  0.00    -0.203 F 
ATOM     54  C   UNL A   1      43.112  22.523  25.327  1.00  0.00     0.198 A 
ATOM     55  C   UNL A   1      42.306  21.409  27.295  1.00  0.00     0.198 A 
ATOM     56  F   UNL A   1      41.992  22.624  29.287  1.00  0.00    -0.203 F 
ATOM     57  F   UNL A   1      43.454  22.490  24.031  1.00  0.00    -0.200 F 
ATOM     58  C   UNL A   1      42.681  21.366  25.959  1.00  0.00     0.200 A 
ATOM     59  F   UNL A   1      41.900  20.290  27.912  1.00  0.00    -0.200 F 
ATOM     60  F   UNL A   1      42.626  20.210  25.282  1.00  0.00    -0.200 F 
ENDBRANCH  26  50
BRANCH  38  61
ATOM     61  C   UNL A   1      48.082  26.865  30.752  1.00  0.00     0.064 A 
ATOM     62  C   UNL A   1      48.478  25.983  31.769  1.00  0.00     0.173 A 
ATOM     63  C   UNL A   1      49.071  27.357  29.887  1.00  0.00     0.173 A 
ATOM     64  F   UNL A   1      47.572  25.496  32.630  1.00  0.00    -0.203 F 
ATOM     65  C   UNL A   1      49.815  25.627  31.927  1.00  0.00     0.198 A 
ATOM     66  C   UNL A   1      50.403  26.977  30.031  1.00  0.00     0.198 A 
ATOM     67  F   UNL A   1      48.744  28.197  28.894  1.00  0.00    -0.203 F 
ATOM     68  F   UNL A   1      50.177  24.818  32.933  1.00  0.00    -0.200 F 
ATOM     69  C   UNL A   1      50.775  26.119  31.055  1.00  0.00     0.200 A 
ATOM     70  F   UNL A   1      51.327  27.443  29.179  1.00  0.00    -0.200 F 
ATOM     71  F   UNL A   1      52.059  25.771  31.204  1.00  0.00    -0.200 F 
ENDBRANCH  38  61
ENDBRANCH  12  13
ENDBRANCH   5   7
ENDBRANCH   2   3
ENDBRANCH   1   2
BRANCH   1  72
ATOM     72  C   UNL A   1      34.192  28.796  24.469  1.00  0.00     0.023 C 
BRANCH  72  73
ATOM     73  C   UNL A   1      33.607  29.129  23.103  1.00  0.00     0.116 C 
BRANCH  73  74
ATOM     74  N   UNL A   1      33.777  28.055  22.137  1.00  0.00    -0.352 N 
ATOM     75  C   UNL A   1      33.035  26.905  22.010  1.00  0.00     0.253 C 
ATOM     76  H   UNL A   1      34.516  28.166  21.497  1.00  0.00     0.163 HD
ATOM     77  O   UNL A   1      33.345  26.061  21.176  1.00  0.00    -0.269 OA
BRANCH  75  78
ATOM     78  C   UNL A   1      31.883  26.675  22.907  1.00  0.00     0.063 A 
ATOM     79  C   UNL A   1      30.668  27.252  22.517  1.00  0.00     0.016 A 
ATOM     80  C   UNL A   1      31.986  25.903  24.083  1.00  0.00     0.051 A 
ATOM     81  C   UNL A   1      29.519  27.021  23.269  1.00  0.00     0.001 A 
ATOM     82  C   UNL A   1      30.801  25.650  24.814  1.00  0.00    -0.017 A 
ATOM     83  N   UNL A   1      33.192  25.327  24.475  1.00  0.00    -0.377 N 
ATOM     84  C   UNL A   1      29.584  26.223  24.411  1.00  0.00     0.006 A 
ATOM     85  C   UNL A   1      30.944  24.845  26.075  1.00  0.00     0.049 C 
ATOM     86  C   UNL A   1      33.332  24.349  25.562  1.00  0.00     0.115 C 
ATOM     87  H   UNL A   1      34.007  25.593  23.990  1.00  0.00     0.161 HD
ATOM     88  C   UNL A   1      31.967  23.720  25.824  1.00  0.00     0.031 C 
ATOM     89  C   UNL A   1      29.810  24.029  26.623  1.00  0.00    -0.023 C 
ATOM     90  C   UNL A   1      31.779  22.813  27.037  1.00  0.00     0.034 C 
ATOM     91  C   UNL A   1      30.286  22.913  27.198  1.00  0.00    -0.030 C 
BRANCH  86  92
ATOM     92  C   UNL A   1      34.566  23.496  25.252  1.00  0.00    -0.011 A 
ATOM     93  C   UNL A   1      35.805  24.117  25.574  1.00  0.00     0.007 A 
ATOM     94  C   UNL A   1      34.642  22.232  24.640  1.00  0.00     0.023 A 
ATOM     95  C   UNL A   1      37.039  23.505  25.339  1.00  0.00     0.000 A 
ATOM     96  C   UNL A   1      35.889  21.603  24.444  1.00  0.00     0.016 A 
ATOM     97  Br  UNL A   1      33.187  21.255  23.911  1.00  0.00    -0.050 Br
ATOM     98  C   UNL A   1      37.079  22.234  24.791  1.00  0.00     0.001 A 
ENDBRANCH  86  92
ENDBRANCH  75  78
ENDBRANCH  73  74
ENDBRANCH  72  73
ENDBRANCH   1  72
TORSDOF 12
ENDMDL
MODEL 2
REMARK VINA RESULT:     -13.1      2.992      8.033
REMARK SMILES O=C(NCCCCNC(=O)c1cccc2c1N[C@H](c1ccccc1Br)[C@H]1CC=C[C@H]21)c1ccc(-c2c3nc(c(-c4c(F)c(F)c(F)c(F)c4F)c4ccc([nH]4)c(-c4c(F)c(F)c(F)c(F)c4F)c4nc(c(-c5c(F)c(F)c(F)c(F)c5F)c5ccc2[nH]5)C=C4)C=C3)cc1
REMARK SMILES IDX 5 1 4 2 3 3 1 4 2 5 31 7 32 8 93 9 33 10 92 11 34 12 35 13
REMARK SMILES IDX 36 14 86 15 37 16 91 17 85 18 87 19 38 20 90 21 84 22 83 23
REMARK SMILES IDX 39 25 71 26 51 27 70 28 52 29 55 30 69 31 88 32 53 33 54 34
REMARK SMILES IDX 68 36 89 37 56 38 40 39 41 40 49 41 42 42 43 43 47 44 50 45
REMARK SMILES IDX 44 46 45 47 48 48 46 49 72 50 73 51 81 52 74 53 75 54 79 55
REMARK SMILES IDX 82 56 76 57 77 58 80 59 78 60 57 61 58 62 66 63 59 64 60 65
REMARK SMILES IDX 64 66 67 67 61 68 62 69 65 70 63 71 6 72 7 73 8 74 9 75
REMARK SMILES IDX 10 77 11 78 12 79 16 80 13 81 15 82 17 83 14 84 30 85 18 86
REMARK SMILES IDX 26 88 29 89 27 90 28 91 19 92 20 93 24 94 21 95 23 96 25 97
REMARK SMILES IDX 22 98
REMARK H PARENT 3 6 87 24 55 35 8 76 17 87
REMARK Flexibility Score: inf
ROOT
ATOM      1  C   UNL A   1      39.242  21.147  25.590  1.00  0.00     0.023 C 
ENDROOT
BRANCH   1   2
ATOM      2  C   UNL A   1      39.623  19.957  26.463  1.00  0.00     0.116 C 
BRANCH   2   3
ATOM      3  N   UNL A   1      40.792  19.249  25.969  1.00  0.00    -0.352 N 
ATOM      4  O   UNL A   1      42.896  18.977  25.214  1.00  0.00    -0.269 OA
ATOM      5  C   UNL A   1      42.077  19.691  25.786  1.00  0.00     0.251 C 
ATOM      6  H   UNL A   1      40.637  18.306  25.727  1.00  0.00     0.163 HD
BRANCH   5   7
ATOM      7  C   UNL A   1      42.492  21.021  26.279  1.00  0.00     0.039 A 
ATOM      8  C   UNL A   1      42.502  21.259  27.657  1.00  0.00     0.014 A 
ATOM      9  C   UNL A   1      42.794  22.055  25.388  1.00  0.00     0.014 A 
ATOM     10  C   UNL A   1      42.827  22.528  28.143  1.00  0.00     0.010 A 
ATOM     11  C   UNL A   1      43.184  23.300  25.874  1.00  0.00     0.010 A 
ATOM     12  C   UNL A   1      43.170  23.556  27.254  1.00  0.00    -0.014 A 
BRANCH  12  13
ATOM     13  C   UNL A   1      43.395  24.946  27.722  1.00  0.00     0.031 A 
ATOM     14  C   UNL A   1      44.804  25.420  27.947  1.00  0.00     0.074 A 
ATOM     15  C   UNL A   1      42.359  25.765  27.976  1.00  0.00     0.049 A 
ATOM     16  N   UNL A   1      45.233  26.534  28.484  1.00  0.00    -0.248 NA
ATOM     17  C   UNL A   1      45.875  24.501  27.530  1.00  0.00     0.031 C 
ATOM     18  C   UNL A   1      40.951  25.436  27.777  1.00  0.00     0.029 A 
ATOM     19  N   UNL A   1      42.342  27.049  28.461  1.00  0.00    -0.354 N 
ATOM     20  C   UNL A   1      46.619  26.439  28.484  1.00  0.00     0.074 A 
ATOM     21  C   UNL A   1      46.957  25.140  27.946  1.00  0.00     0.031 C 
ATOM     22  C   UNL A   1      40.203  26.500  28.112  1.00  0.00     0.029 A 
ATOM     23  C   UNL A   1      41.079  27.567  28.593  1.00  0.00     0.049 A 
ATOM     24  H   UNL A   1      43.157  27.549  28.693  1.00  0.00     0.167 HD
ATOM     25  C   UNL A   1      47.530  27.362  28.875  1.00  0.00     0.037 A 
ATOM     26  C   UNL A   1      40.676  28.765  29.058  1.00  0.00     0.037 A 
ATOM     27  C   UNL A   1      47.195  28.661  29.394  1.00  0.00     0.049 A 
ATOM     28  C   UNL A   1      41.701  29.751  29.545  1.00  0.00     0.074 A 
ATOM     29  C   UNL A   1      48.043  29.668  29.819  1.00  0.00     0.029 A 
ATOM     30  N   UNL A   1      45.900  29.135  29.551  1.00  0.00    -0.354 N 
ATOM     31  N   UNL A   1      43.008  29.647  29.569  1.00  0.00    -0.248 NA
ATOM     32  C   UNL A   1      41.191  31.022  30.081  1.00  0.00     0.031 C 
ATOM     33  C   UNL A   1      47.260  30.740  30.262  1.00  0.00     0.029 A 
ATOM     34  C   UNL A   1      45.925  30.417  30.075  1.00  0.00     0.049 A 
ATOM     35  H   UNL A   1      45.084  28.634  29.323  1.00  0.00     0.167 HD
ATOM     36  C   UNL A   1      43.478  30.837  30.106  1.00  0.00     0.074 A 
ATOM     37  C   UNL A   1      42.316  31.658  30.379  1.00  0.00     0.031 C 
ATOM     38  C   UNL A   1      44.757  31.216  30.353  1.00  0.00     0.037 A 
BRANCH  25  39
ATOM     39  C   UNL A   1      48.977  26.983  28.755  1.00  0.00     0.064 A 
ATOM     40  C   UNL A   1      49.665  26.371  29.816  1.00  0.00     0.173 A 
ATOM     41  C   UNL A   1      49.689  27.240  27.575  1.00  0.00     0.173 A 
ATOM     42  F   UNL A   1      49.035  26.121  30.974  1.00  0.00    -0.203 F 
ATOM     43  C   UNL A   1      51.019  26.068  29.712  1.00  0.00     0.198 A 
ATOM     44  C   UNL A   1      51.037  26.907  27.464  1.00  0.00     0.198 A 
ATOM     45  F   UNL A   1      49.081  27.824  26.531  1.00  0.00    -0.203 F 
ATOM     46  F   UNL A   1      51.670  25.543  30.761  1.00  0.00    -0.200 F 
ATOM     47  C   UNL A   1      51.703  26.331  28.535  1.00  0.00     0.200 A 
ATOM     48  F   UNL A   1      51.694  27.154  26.323  1.00  0.00    -0.200 F 
ATOM     49  F   UNL A   1      53.009  26.042  28.438  1.00  0.00    -0.200 F 
ENDBRANCH  25  39
BRANCH  26  50
ATOM     50  C   UNL A   1      39.231  29.104  29.049  1.00  0.00     0.064 A 
ATOM     51  C   UNL A   1      38.596  29.464  27.853  1.00  0.00     0.173 A 
ATOM     52  C   UNL A   1      38.452  29.041  30.212  1.00  0.00     0.173 A 
ATOM     53  F   UNL A   1      39.306  29.561  26.720  1.00  0.00    -0.203 F 
ATOM     54  C   UNL A   1      37.232  29.744  27.820  1.00  0.00     0.198 A 
ATOM     55  C   UNL A   1      37.085  29.302  30.175  1.00  0.00     0.198 A 
ATOM     56  F   UNL A   1      39.017  28.703  31.381  1.00  0.00    -0.203 F 
ATOM     57  F   UNL A   1      36.651  30.105  26.667  1.00  0.00    -0.200 F 
ATOM     58  C   UNL A   1      36.475  29.654  28.979  1.00  0.00     0.200 A 
ATOM     59  F   UNL A   1      36.354  29.202  31.294  1.00  0.00    -0.200 F 
ATOM     60  F   UNL A   1      35.159  29.908  28.944  1.00  0.00    -0.200 F 
ENDBRANCH  26  50
BRANCH  38  61
ATOM     61  C   UNL A   1      44.968  32.581  30.939  1.00  0.00     0.064 A 
ATOM     62  C   UNL A   1      45.041  32.778  32.326  1.00  0.00     0.173 A 
ATOM     63  C   UNL A   1      45.140  33.697  30.107  1.00  0.00     0.173 A 
ATOM     64  F   UNL A   1      44.869  31.746  33.165  1.00  0.00    -0.203 F 
ATOM     65  C   UNL A   1      45.254  34.048  32.858  1.00  0.00     0.198 A 
ATOM     66  C   UNL A   1      45.381  34.959  30.641  1.00  0.00     0.198 A 
ATOM     67  F   UNL A   1      45.087  33.560  28.773  1.00  0.00    -0.203 F 
ATOM     68  F   UNL A   1      45.276  34.221  34.187  1.00  0.00    -0.200 F 
ATOM     69  C   UNL A   1      45.430  35.135  32.016  1.00  0.00     0.200 A 
ATOM     70  F   UNL A   1      45.564  36.007  29.825  1.00  0.00    -0.200 F 
ATOM     71  F   UNL A   1      45.641  36.354  32.528  1.00  0.00    -0.200 F 
ENDBRANCH  38  61
ENDBRANCH  12  13
ENDBRANCH   5   7
ENDBRANCH   2   3
ENDBRANCH   1   2
BRANCH   1  72
ATOM     72  C   UNL A   1      39.014  22.459  26.336  1.00  0.00     0.023 C 
BRANCH  72  73
ATOM     73  C   UNL A   1      37.695  23.156  26.029  1.00  0.00     0.116 C 
BRANCH  73  74
ATOM     74  N   UNL A   1      37.542  23.482  24.620  1.00  0.00    -0.352 N 
ATOM     75  C   UNL A   1      36.529  23.109  23.769  1.00  0.00     0.253 C 
ATOM     76  H   UNL A   1      38.253  24.038  24.227  1.00  0.00     0.163 HD
ATOM     77  O   UNL A   1      36.575  23.418  22.583  1.00  0.00    -0.269 OA
BRANCH  75  78
ATOM     78  C   UNL A   1      35.400  22.306  24.284  1.00  0.00     0.063 A 
ATOM     79  C   UNL A   1      35.674  20.964  24.576  1.00  0.00     0.016 A 
ATOM     80  C   UNL A   1      34.119  22.857  24.495  1.00  0.00     0.051 A 
ATOM     81  C   UNL A   1      34.684  20.160  25.133  1.00  0.00     0.001 A 
ATOM     82  C   UNL A   1      33.137  22.034  25.095  1.00  0.00    -0.017 A 
ATOM     83  N   UNL A   1      33.841  24.191  24.207  1.00  0.00    -0.377 N 
ATOM     84  C   UNL A   1      33.422  20.692  25.394  1.00  0.00     0.006 A 
ATOM     85  C   UNL A   1      31.773  22.638  25.285  1.00  0.00     0.049 C 
ATOM     86  C   UNL A   1      32.603  24.883  24.588  1.00  0.00     0.115 C 
ATOM     87  H   UNL A   1      34.521  24.706  23.715  1.00  0.00     0.161 HD
ATOM     88  C   UNL A   1      31.945  24.106  25.724  1.00  0.00     0.031 C 
ATOM     89  C   UNL A   1      30.844  22.166  26.364  1.00  0.00    -0.023 C 
ATOM     90  C   UNL A   1      30.541  24.491  26.183  1.00  0.00     0.034 C 
ATOM     91  C   UNL A   1      30.125  23.199  26.834  1.00  0.00    -0.030 C 
BRANCH  86  92
ATOM     92  C   UNL A   1      32.935  26.372  24.718  1.00  0.00    -0.011 A 
ATOM     93  C   UNL A   1      33.695  26.707  25.874  1.00  0.00     0.007 A 
ATOM     94  C   UNL A   1      32.540  27.447  23.900  1.00  0.00     0.023 A 
ATOM     95  C   UNL A   1      34.070  28.018  26.177  1.00  0.00     0.000 A 
ATOM     96  C   UNL A   1      32.958  28.762  24.189  1.00  0.00     0.016 A 
ATOM     97  Br  UNL A   1      31.357  27.345  22.419  1.00  0.00    -0.050 Br
ATOM     98  C   UNL A   1      33.718  29.046  25.320  1.00  0.00     0.001 A 
ENDBRANCH  86  92
ENDBRANCH  75  78
ENDBRANCH  73  74
ENDBRANCH  72  73
ENDBRANCH   1  72
TORSDOF 12
ENDMDL
MODEL 3
REMARK VINA RESULT:     -13.1      3.158      7.859
REMARK SMILES O=C(NCCCCNC(=O)c1cccc2c1N[C@H](c1ccccc1Br)[C@H]1CC=C[C@H]21)c1ccc(-c2c3nc(c(-c4c(F)c(F)c(F)c(F)c4F)c4ccc([nH]4)c(-c4c(F)c(F)c(F)c(F)c4F)c4nc(c(-c5c(F)c(F)c(F)c(F)c5F)c5ccc2[nH]5)C=C4)C=C3)cc1
REMARK SMILES IDX 5 1 4 2 3 3 1 4 2 5 31 7 32 8 93 9 33 10 92 11 34 12 35 13
REMARK SMILES IDX 36 14 86 15 37 16 91 17 85 18 87 19 38 20 90 21 84 22 83 23
REMARK SMILES IDX 39 25 71 26 51 27 70 28 52 29 55 30 69 31 88 32 53 33 54 34
REMARK SMILES IDX 68 36 89 37 56 38 40 39 41 40 49 41 42 42 43 43 47 44 50 45
REMARK SMILES IDX 44 46 45 47 48 48 46 49 72 50 73 51 81 52 74 53 75 54 79 55
REMARK SMILES IDX 82 56 76 57 77 58 80 59 78 60 57 61 58 62 66 63 59 64 60 65
REMARK SMILES IDX 64 66 67 67 61 68 62 69 65 70 63 71 6 72 7 73 8 74 9 75
REMARK SMILES IDX 10 77 11 78 12 79 16 80 13 81 15 82 17 83 14 84 30 85 18 86
REMARK SMILES IDX 26 88 29 89 27 90 28 91 19 92 20 93 24 94 21 95 23 96 25 97
REMARK SMILES IDX 22 98
REMARK H PARENT 3 6 87 24 55 35 8 76 17 87
REMARK Flexibility Score: inf
ROOT
ATOM      1  C   UNL A   1      39.243  21.429  25.754  1.00  0.00     0.023 C 
ENDROOT
BRANCH   1   2
ATOM      2  C   UNL A   1      39.641  20.237  26.616  1.00  0.00     0.116 C 
BRANCH   2   3
ATOM      3  N   UNL A   1      40.711  19.450  26.026  1.00  0.00    -0.352 N 
ATOM      4  O   UNL A   1      42.735  19.026  25.136  1.00  0.00    -0.269 OA
ATOM      5  C   UNL A   1      42.017  19.785  25.781  1.00  0.00     0.251 C 
ATOM      6  H   UNL A   1      40.458  18.535  25.762  1.00  0.00     0.163 HD
BRANCH   5   7
ATOM      7  C   UNL A   1      42.578  21.053  26.293  1.00  0.00     0.039 A 
ATOM      8  C   UNL A   1      42.610  21.269  27.675  1.00  0.00     0.014 A 
ATOM      9  C   UNL A   1      42.995  22.059  25.417  1.00  0.00     0.014 A 
ATOM     10  C   UNL A   1      43.074  22.486  28.179  1.00  0.00     0.010 A 
ATOM     11  C   UNL A   1      43.521  23.245  25.922  1.00  0.00     0.010 A 
ATOM     12  C   UNL A   1      43.533  23.482  27.306  1.00  0.00    -0.014 A 
BRANCH  12  13
ATOM     13  C   UNL A   1      43.910  24.831  27.794  1.00  0.00     0.031 A 
ATOM     14  C   UNL A   1      42.825  25.821  28.114  1.00  0.00     0.074 A 
ATOM     15  C   UNL A   1      45.202  25.183  27.920  1.00  0.00     0.049 A 
ATOM     16  N   UNL A   1      42.917  27.092  28.415  1.00  0.00    -0.248 NA
ATOM     17  C   UNL A   1      41.445  25.312  28.063  1.00  0.00     0.031 C 
ATOM     18  C   UNL A   1      46.346  24.312  27.666  1.00  0.00     0.029 A 
ATOM     19  N   UNL A   1      45.763  26.378  28.294  1.00  0.00    -0.354 N 
ATOM     20  C   UNL A   1      41.610  27.534  28.572  1.00  0.00     0.074 A 
ATOM     21  C   UNL A   1      40.743  26.414  28.279  1.00  0.00     0.031 C 
ATOM     22  C   UNL A   1      47.476  24.992  27.916  1.00  0.00     0.029 A 
ATOM     23  C   UNL A   1      47.135  26.360  28.303  1.00  0.00     0.049 A 
ATOM     24  H   UNL A   1      45.233  27.173  28.533  1.00  0.00     0.167 HD
ATOM     25  C   UNL A   1      41.171  28.759  28.949  1.00  0.00     0.037 A 
ATOM     26  C   UNL A   1      48.014  27.340  28.583  1.00  0.00     0.037 A 
ATOM     27  C   UNL A   1      42.033  29.868  29.257  1.00  0.00     0.049 A 
ATOM     28  C   UNL A   1      47.506  28.710  28.940  1.00  0.00     0.074 A 
ATOM     29  C   UNL A   1      41.688  31.150  29.648  1.00  0.00     0.029 A 
ATOM     30  N   UNL A   1      43.419  29.822  29.215  1.00  0.00    -0.354 N 
ATOM     31  N   UNL A   1      46.270  29.131  29.060  1.00  0.00    -0.248 NA
ATOM     32  C   UNL A   1      48.519  29.745  29.191  1.00  0.00     0.031 C 
ATOM     33  C   UNL A   1      42.866  31.888  29.813  1.00  0.00     0.029 A 
ATOM     34  C   UNL A   1      43.946  31.055  29.564  1.00  0.00     0.049 A 
ATOM     35  H   UNL A   1      43.950  29.029  28.973  1.00  0.00     0.167 HD
ATOM     36  C   UNL A   1      46.354  30.471  29.413  1.00  0.00     0.074 A 
ATOM     37  C   UNL A   1      47.765  30.789  29.505  1.00  0.00     0.031 C 
ATOM     38  C   UNL A   1      45.353  31.358  29.638  1.00  0.00     0.037 A 
BRANCH  25  39
ATOM     39  C   UNL A   1      39.685  28.950  29.042  1.00  0.00     0.064 A 
ATOM     40  C   UNL A   1      38.920  29.308  27.919  1.00  0.00     0.173 A 
ATOM     41  C   UNL A   1      39.017  28.786  30.263  1.00  0.00     0.173 A 
ATOM     42  F   UNL A   1      39.515  29.497  26.731  1.00  0.00    -0.203 F 
ATOM     43  C   UNL A   1      37.551  29.531  28.025  1.00  0.00     0.198 A 
ATOM     44  C   UNL A   1      37.641  28.979  30.360  1.00  0.00     0.198 A 
ATOM     45  F   UNL A   1      39.699  28.445  31.367  1.00  0.00    -0.203 F 
ATOM     46  F   UNL A   1      36.854  29.934  26.953  1.00  0.00    -0.200 F 
ATOM     47  C   UNL A   1      36.911  29.362  29.243  1.00  0.00     0.200 A 
ATOM     48  F   UNL A   1      37.022  28.807  31.535  1.00  0.00    -0.200 F 
ATOM     49  F   UNL A   1      35.592  29.581  29.346  1.00  0.00    -0.200 F 
ENDBRANCH  25  39
BRANCH  26  50
ATOM     50  C   UNL A   1      49.468  27.044  28.569  1.00  0.00     0.064 A 
ATOM     51  C   UNL A   1      50.116  26.622  29.739  1.00  0.00     0.173 A 
ATOM     52  C   UNL A   1      50.228  27.135  27.395  1.00  0.00     0.173 A 
ATOM     53  F   UNL A   1      49.434  26.543  30.890  1.00  0.00    -0.203 F 
ATOM     54  C   UNL A   1      51.471  26.300  29.733  1.00  0.00     0.198 A 
ATOM     55  C   UNL A   1      51.578  26.793  27.386  1.00  0.00     0.198 A 
ATOM     56  F   UNL A   1      49.652  27.537  26.252  1.00  0.00    -0.203 F 
ATOM     57  F   UNL A   1      52.073  25.918  30.868  1.00  0.00    -0.200 F 
ATOM     58  C   UNL A   1      52.199  26.377  28.554  1.00  0.00     0.200 A 
ATOM     59  F   UNL A   1      52.276  26.857  26.243  1.00  0.00    -0.200 F 
ATOM     60  F   UNL A   1      53.499  26.050  28.545  1.00  0.00    -0.200 F 
ENDBRANCH  26  50
BRANCH  38  61
ATOM     61  C   UNL A   1      45.747  32.756  30.016  1.00  0.00     0.064 A 
ATOM     62  C   UNL A   1      45.901  33.760  29.048  1.00  0.00     0.173 A 
ATOM     63  C   UNL A   1      45.933  33.107  31.362  1.00  0.00     0.173 A 
ATOM     64  F   UNL A   1      45.748  33.472  27.747  1.00  0.00    -0.203 F 
ATOM     65  C   UNL A   1      46.250  35.058  29.413  1.00  0.00     0.198 A 
ATOM     66  C   UNL A   1      46.254  34.412  31.725  1.00  0.00     0.198 A 
ATOM     67  F   UNL A   1      45.790  32.185  32.326  1.00  0.00    -0.203 F 
ATOM     68  F   UNL A   1      46.436  35.991  28.468  1.00  0.00    -0.200 F 
ATOM     69  C   UNL A   1      46.421  35.384  30.750  1.00  0.00     0.200 A 
ATOM     70  F   UNL A   1      46.406  34.728  33.018  1.00  0.00    -0.200 F 
ATOM     71  F   UNL A   1      46.751  36.634  31.100  1.00  0.00    -0.200 F 
ENDBRANCH  38  61
ENDBRANCH  12  13
ENDBRANCH   5   7
ENDBRANCH   2   3
ENDBRANCH   1   2
BRANCH   1  72
ATOM     72  C   UNL A   1      38.880  22.698  26.521  1.00  0.00     0.023 C 
BRANCH  72  73
ATOM     73  C   UNL A   1      37.621  23.407  26.039  1.00  0.00     0.116 C 
BRANCH  73  74
ATOM     74  N   UNL A   1      37.580  23.566  24.594  1.00  0.00    -0.352 N 
ATOM     75  C   UNL A   1      36.655  23.058  23.712  1.00  0.00     0.253 C 
ATOM     76  H   UNL A   1      38.304  24.103  24.199  1.00  0.00     0.163 HD
ATOM     77  O   UNL A   1      36.793  23.233  22.506  1.00  0.00    -0.269 OA
BRANCH  75  78
ATOM     78  C   UNL A   1      35.513  22.272  24.224  1.00  0.00     0.063 A 
ATOM     79  C   UNL A   1      35.755  20.916  24.476  1.00  0.00     0.016 A 
ATOM     80  C   UNL A   1      34.250  22.851  24.467  1.00  0.00     0.051 A 
ATOM     81  C   UNL A   1      34.751  20.124  25.027  1.00  0.00     0.001 A 
ATOM     82  C   UNL A   1      33.254  22.039  25.061  1.00  0.00    -0.017 A 
ATOM     83  N   UNL A   1      34.004  24.199  24.218  1.00  0.00    -0.377 N 
ATOM     84  C   UNL A   1      33.507  20.683  25.320  1.00  0.00     0.006 A 
ATOM     85  C   UNL A   1      31.911  22.674  25.286  1.00  0.00     0.049 C 
ATOM     86  C   UNL A   1      32.791  24.914  24.636  1.00  0.00     0.115 C 
ATOM     87  H   UNL A   1      34.691  24.708  23.730  1.00  0.00     0.161 HD
ATOM     88  C   UNL A   1      32.128  24.125  25.760  1.00  0.00     0.031 C 
ATOM     89  C   UNL A   1      30.984  22.199  26.366  1.00  0.00    -0.023 C 
ATOM     90  C   UNL A   1      30.742  24.535  26.250  1.00  0.00     0.034 C 
ATOM     91  C   UNL A   1      30.301  23.237  26.874  1.00  0.00    -0.030 C 
BRANCH  86  92
ATOM     92  C   UNL A   1      33.165  26.390  24.799  1.00  0.00    -0.011 A 
ATOM     93  C   UNL A   1      33.419  26.786  26.142  1.00  0.00     0.007 A 
ATOM     94  C   UNL A   1      33.223  27.406  23.827  1.00  0.00     0.023 A 
ATOM     95  C   UNL A   1      33.748  28.098  26.491  1.00  0.00     0.000 A 
ATOM     96  C   UNL A   1      33.596  28.718  24.181  1.00  0.00     0.016 A 
ATOM     97  Br  UNL A   1      32.733  27.233  22.002  1.00  0.00    -0.050 Br
ATOM     98  C   UNL A   1      33.858  29.063  25.504  1.00  0.00     0.001 A 
ENDBRANCH  86  92
ENDBRANCH  75  78
ENDBRANCH  73  74
ENDBRANCH  72  73
ENDBRANCH   1  72
TORSDOF 12
ENDMDL
