MODEL 1
REMARK VINA RESULT:     -13.1      0.000      0.000
REMARK SMILES O=C(NCCCCNC(=O)c1cc(-c2ccsc2)nc2ccccc12)c1ccc(-c2c3nc(c(-c4c(F)c(F)c(F)c(F)c4F)c4ccc([nH]4)c(-c4c(F)c(F)c(F)c(F)c4F)c4nc(c(-c5c(F)c(F)c(F)c(F)c5F)c5ccc2[nH]5)C=C4)C=C3)cc1
REMARK SMILES IDX 5 1 4 2 3 3 1 4 2 5 26 7 27 8 88 9 28 10 87 11 29 12 30 13
REMARK SMILES IDX 31 14 81 15 32 16 86 17 80 18 82 19 33 20 85 21 79 22 78 23
REMARK SMILES IDX 34 25 66 26 46 27 65 28 47 29 50 30 64 31 83 32 48 33 49 34
REMARK SMILES IDX 63 36 84 37 51 38 35 39 36 40 44 41 37 42 38 43 42 44 45 45
REMARK SMILES IDX 39 46 40 47 43 48 41 49 67 50 68 51 76 52 69 53 70 54 74 55
REMARK SMILES IDX 77 56 71 57 72 58 75 59 73 60 52 61 53 62 61 63 54 64 55 65
REMARK SMILES IDX 59 66 62 67 56 68 57 69 60 70 58 71 6 72 7 73 8 74 9 75
REMARK SMILES IDX 10 77 11 78 12 79 25 80 13 81 20 82 24 83 19 84 21 85 23 86
REMARK SMILES IDX 22 87 14 88 15 89 18 90 16 91 17 92
REMARK H PARENT 3 6 82 24 50 35 8 76
REMARK Flexibility Score: inf
ROOT
ATOM      1  C   UNL A   1      31.440  31.961  26.480  1.00  0.00     0.023 C 
ENDROOT
BRANCH   1   2
ATOM      2  C   UNL A   1      32.573  32.604  27.272  1.00  0.00     0.116 C 
BRANCH   2   3
ATOM      3  N   UNL A   1      32.323  33.996  27.614  1.00  0.00    -0.352 N 
ATOM      4  O   UNL A   1      32.530  35.941  28.738  1.00  0.00    -0.269 OA
ATOM      5  C   UNL A   1      32.969  34.817  28.509  1.00  0.00     0.251 C 
ATOM      6  H   UNL A   1      31.576  34.415  27.129  1.00  0.00     0.163 HD
BRANCH   5   7
ATOM      7  C   UNL A   1      34.170  34.340  29.230  1.00  0.00     0.039 A 
ATOM      8  C   UNL A   1      35.451  34.580  28.734  1.00  0.00     0.014 A 
ATOM      9  C   UNL A   1      34.008  33.624  30.422  1.00  0.00     0.014 A 
ATOM     10  C   UNL A   1      36.545  33.948  29.314  1.00  0.00     0.010 A 
ATOM     11  C   UNL A   1      35.123  33.070  31.060  1.00  0.00     0.010 A 
ATOM     12  C   UNL A   1      36.395  33.179  30.480  1.00  0.00    -0.014 A 
BRANCH  12  13
ATOM     13  C   UNL A   1      37.589  32.515  31.070  1.00  0.00     0.031 A 
ATOM     14  C   UNL A   1      38.049  32.838  32.466  1.00  0.00     0.074 A 
ATOM     15  C   UNL A   1      38.227  31.568  30.356  1.00  0.00     0.049 A 
ATOM     16  N   UNL A   1      39.026  32.302  33.159  1.00  0.00    -0.248 NA
ATOM     17  C   UNL A   1      37.330  33.904  33.179  1.00  0.00     0.031 C 
ATOM     18  C   UNL A   1      37.886  31.175  28.988  1.00  0.00     0.029 A 
ATOM     19  N   UNL A   1      39.269  30.742  30.689  1.00  0.00    -0.354 N 
ATOM     20  C   UNL A   1      39.056  32.983  34.369  1.00  0.00     0.074 A 
ATOM     21  C   UNL A   1      38.014  33.986  34.313  1.00  0.00     0.031 C 
ATOM     22  C   UNL A   1      38.659  30.144  28.621  1.00  0.00     0.029 A 
ATOM     23  C   UNL A   1      39.586  29.837  29.705  1.00  0.00     0.049 A 
ATOM     24  H   UNL A   1      39.745  30.791  31.549  1.00  0.00     0.167 HD
ATOM     25  C   UNL A   1      39.872  32.783  35.432  1.00  0.00     0.037 A 
ATOM     26  C   UNL A   1      40.518  28.867  29.677  1.00  0.00     0.037 A 
ATOM     27  C   UNL A   1      40.884  31.761  35.504  1.00  0.00     0.049 A 
ATOM     28  C   UNL A   1      41.401  28.662  30.874  1.00  0.00     0.074 A 
ATOM     29  C   UNL A   1      41.723  31.447  36.559  1.00  0.00     0.029 A 
ATOM     30  N   UNL A   1      41.193  30.883  34.474  1.00  0.00    -0.354 N 
ATOM     31  N   UNL A   1      41.390  29.287  32.025  1.00  0.00    -0.248 NA
ATOM     32  C   UNL A   1      42.427  27.617  30.765  1.00  0.00     0.031 C 
ATOM     33  C   UNL A   1      42.568  30.407  36.155  1.00  0.00     0.029 A 
ATOM     34  C   UNL A   1      42.225  30.042  34.864  1.00  0.00     0.049 A 
ATOM     35  H   UNL A   1      40.746  30.861  33.598  1.00  0.00     0.167 HD
ATOM     36  C   UNL A   1      42.393  28.702  32.784  1.00  0.00     0.074 A 
ATOM     37  C   UNL A   1      42.979  27.658  31.969  1.00  0.00     0.031 C 
ATOM     38  C   UNL A   1      42.795  29.006  34.043  1.00  0.00     0.037 A 
BRANCH  25  39
ATOM     39  C   UNL A   1      39.719  33.701  36.611  1.00  0.00     0.064 A 
ATOM     40  C   UNL A   1      40.374  34.940  36.675  1.00  0.00     0.173 A 
ATOM     41  C   UNL A   1      38.864  33.357  37.670  1.00  0.00     0.173 A 
ATOM     42  F   UNL A   1      41.210  35.312  35.694  1.00  0.00    -0.203 F 
ATOM     43  C   UNL A   1      40.196  35.790  37.764  1.00  0.00     0.198 A 
ATOM     44  C   UNL A   1      38.670  34.220  38.746  1.00  0.00     0.198 A 
ATOM     45  F   UNL A   1      38.208  32.186  37.656  1.00  0.00    -0.203 F 
ATOM     46  F   UNL A   1      40.863  36.951  37.821  1.00  0.00    -0.200 F 
ATOM     47  C   UNL A   1      39.339  35.433  38.795  1.00  0.00     0.200 A 
ATOM     48  F   UNL A   1      37.833  33.877  39.735  1.00  0.00    -0.200 F 
ATOM     49  F   UNL A   1      39.165  36.255  39.839  1.00  0.00    -0.200 F 
ENDBRANCH  25  39
BRANCH  26  50
ATOM     50  C   UNL A   1      40.645  28.004  28.476  1.00  0.00     0.064 A 
ATOM     51  C   UNL A   1      41.407  28.412  27.374  1.00  0.00     0.173 A 
ATOM     52  C   UNL A   1      40.024  26.747  28.412  1.00  0.00     0.173 A 
ATOM     53  F   UNL A   1      42.004  29.614  27.380  1.00  0.00    -0.203 F 
ATOM     54  C   UNL A   1      41.534  27.603  26.247  1.00  0.00     0.198 A 
ATOM     55  C   UNL A   1      40.174  25.927  27.298  1.00  0.00     0.198 A 
ATOM     56  F   UNL A   1      39.287  26.311  29.446  1.00  0.00    -0.203 F 
ATOM     57  F   UNL A   1      42.239  28.032  25.192  1.00  0.00    -0.200 F 
ATOM     58  C   UNL A   1      40.923  26.358  26.213  1.00  0.00     0.200 A 
ATOM     59  F   UNL A   1      39.595  24.718  27.276  1.00  0.00    -0.200 F 
ATOM     60  F   UNL A   1      41.053  25.574  25.134  1.00  0.00    -0.200 F 
ENDBRANCH  26  50
BRANCH  38  61
ATOM     61  C   UNL A   1      43.904  28.178  34.621  1.00  0.00     0.064 A 
ATOM     62  C   UNL A   1      45.243  28.587  34.544  1.00  0.00     0.173 A 
ATOM     63  C   UNL A   1      43.620  26.969  35.274  1.00  0.00     0.173 A 
ATOM     64  F   UNL A   1      45.564  29.727  33.913  1.00  0.00    -0.203 F 
ATOM     65  C   UNL A   1      46.261  27.801  35.074  1.00  0.00     0.198 A 
ATOM     66  C   UNL A   1      44.639  26.199  35.827  1.00  0.00     0.198 A 
ATOM     67  F   UNL A   1      42.354  26.538  35.379  1.00  0.00    -0.203 F 
ATOM     68  F   UNL A   1      47.538  28.186  34.945  1.00  0.00    -0.200 F 
ATOM     69  C   UNL A   1      45.958  26.611  35.719  1.00  0.00     0.200 A 
ATOM     70  F   UNL A   1      44.344  25.054  36.459  1.00  0.00    -0.200 F 
ATOM     71  F   UNL A   1      46.941  25.855  36.229  1.00  0.00    -0.200 F 
ENDBRANCH  38  61
ENDBRANCH  12  13
ENDBRANCH   5   7
ENDBRANCH   2   3
ENDBRANCH   1   2
BRANCH   1  72
ATOM     72  C   UNL A   1      31.542  30.451  26.280  1.00  0.00     0.023 C 
BRANCH  72  73
ATOM     73  C   UNL A   1      32.947  29.863  26.364  1.00  0.00     0.116 C 
BRANCH  73  74
ATOM     74  N   UNL A   1      33.606  29.743  25.073  1.00  0.00    -0.352 N 
ATOM     75  C   UNL A   1      33.505  28.735  24.146  1.00  0.00     0.252 C 
ATOM     76  H   UNL A   1      34.205  30.485  24.830  1.00  0.00     0.163 HD
ATOM     77  O   UNL A   1      34.134  28.793  23.094  1.00  0.00    -0.269 OA
BRANCH  75  78
ATOM     78  C   UNL A   1      32.695  27.541  24.444  1.00  0.00     0.051 A 
ATOM     79  C   UNL A   1      33.354  26.513  25.115  1.00  0.00     0.043 A 
ATOM     80  C   UNL A   1      31.331  27.432  24.096  1.00  0.00     0.013 A 
ATOM     81  C   UNL A   1      32.612  25.407  25.470  1.00  0.00     0.073 A 
ATOM     82  C   UNL A   1      30.662  26.287  24.565  1.00  0.00     0.072 A 
ATOM     83  C   UNL A   1      30.611  28.382  23.326  1.00  0.00     0.011 A 
ATOM     84  N   UNL A   1      31.287  25.297  25.224  1.00  0.00    -0.248 NA
ATOM     85  C   UNL A   1      29.296  26.177  24.343  1.00  0.00     0.029 A 
ATOM     86  C   UNL A   1      29.243  28.244  23.109  1.00  0.00     0.001 A 
ATOM     87  C   UNL A   1      28.579  27.146  23.636  1.00  0.00     0.002 A 
BRANCH  81  88
ATOM     88  C   UNL A   1      33.231  24.252  26.100  1.00  0.00     0.011 A 
ATOM     89  C   UNL A   1      34.590  23.830  25.942  1.00  0.00     0.022 A 
ATOM     90  C   UNL A   1      32.539  23.406  26.945  1.00  0.00     0.075 A 
ATOM     91  C   UNL A   1      34.886  22.712  26.690  1.00  0.00     0.065 A 
ATOM     92  S   UNL A   1      33.525  22.145  27.557  1.00  0.00    -0.152 S 
ENDBRANCH  81  88
ENDBRANCH  75  78
ENDBRANCH  73  74
ENDBRANCH  72  73
ENDBRANCH   1  72
TORSDOF 12
ENDMDL
MODEL 2
REMARK VINA RESULT:     -13.0      0.075      1.963
REMARK SMILES O=C(NCCCCNC(=O)c1cc(-c2ccsc2)nc2ccccc12)c1ccc(-c2c3nc(c(-c4c(F)c(F)c(F)c(F)c4F)c4ccc([nH]4)c(-c4c(F)c(F)c(F)c(F)c4F)c4nc(c(-c5c(F)c(F)c(F)c(F)c5F)c5ccc2[nH]5)C=C4)C=C3)cc1
REMARK SMILES IDX 5 1 4 2 3 3 1 4 2 5 26 7 27 8 88 9 28 10 87 11 29 12 30 13
REMARK SMILES IDX 31 14 81 15 32 16 86 17 80 18 82 19 33 20 85 21 79 22 78 23
REMARK SMILES IDX 34 25 66 26 46 27 65 28 47 29 50 30 64 31 83 32 48 33 49 34
REMARK SMILES IDX 63 36 84 37 51 38 35 39 36 40 44 41 37 42 38 43 42 44 45 45
REMARK SMILES IDX 39 46 40 47 43 48 41 49 67 50 68 51 76 52 69 53 70 54 74 55
REMARK SMILES IDX 77 56 71 57 72 58 75 59 73 60 52 61 53 62 61 63 54 64 55 65
REMARK SMILES IDX 59 66 62 67 56 68 57 69 60 70 58 71 6 72 7 73 8 74 9 75
REMARK SMILES IDX 10 77 11 78 12 79 25 80 13 81 20 82 24 83 19 84 21 85 23 86
REMARK SMILES IDX 22 87 14 88 15 89 18 90 16 91 17 92
REMARK H PARENT 3 6 82 24 50 35 8 76
REMARK Flexibility Score: inf
ROOT
ATOM      1  C   UNL A   1      31.433  31.906  26.502  1.00  0.00     0.023 C 
ENDROOT
BRANCH   1   2
ATOM      2  C   UNL A   1      32.594  32.578  27.228  1.00  0.00     0.116 C 
BRANCH   2   3
ATOM      3  N   UNL A   1      32.335  33.968  27.572  1.00  0.00    -0.352 N 
ATOM      4  O   UNL A   1      32.521  35.910  28.704  1.00  0.00    -0.269 OA
ATOM      5  C   UNL A   1      32.968  34.788  28.476  1.00  0.00     0.251 C 
ATOM      6  H   UNL A   1      31.593  34.386  27.079  1.00  0.00     0.163 HD
BRANCH   5   7
ATOM      7  C   UNL A   1      34.161  34.312  29.211  1.00  0.00     0.039 A 
ATOM      8  C   UNL A   1      35.448  34.589  28.749  1.00  0.00     0.014 A 
ATOM      9  C   UNL A   1      33.987  33.562  30.379  1.00  0.00     0.014 A 
ATOM     10  C   UNL A   1      36.541  33.960  29.335  1.00  0.00     0.010 A 
ATOM     11  C   UNL A   1      35.098  33.011  31.026  1.00  0.00     0.010 A 
ATOM     12  C   UNL A   1      36.380  33.158  30.477  1.00  0.00    -0.014 A 
BRANCH  12  13
ATOM     13  C   UNL A   1      37.573  32.499  31.075  1.00  0.00     0.031 A 
ATOM     14  C   UNL A   1      38.022  32.824  32.474  1.00  0.00     0.074 A 
ATOM     15  C   UNL A   1      38.219  31.555  30.365  1.00  0.00     0.049 A 
ATOM     16  N   UNL A   1      38.998  32.293  33.172  1.00  0.00    -0.248 NA
ATOM     17  C   UNL A   1      37.295  33.888  33.182  1.00  0.00     0.031 C 
ATOM     18  C   UNL A   1      37.889  31.160  28.994  1.00  0.00     0.029 A 
ATOM     19  N   UNL A   1      39.263  30.733  30.705  1.00  0.00    -0.354 N 
ATOM     20  C   UNL A   1      39.017  32.975  34.382  1.00  0.00     0.074 A 
ATOM     21  C   UNL A   1      37.971  33.973  34.320  1.00  0.00     0.031 C 
ATOM     22  C   UNL A   1      38.669  30.132  28.633  1.00  0.00     0.029 A 
ATOM     23  C   UNL A   1      39.590  29.829  29.723  1.00  0.00     0.049 A 
ATOM     24  H   UNL A   1      39.733  30.785  31.568  1.00  0.00     0.167 HD
ATOM     25  C   UNL A   1      39.827  32.778  35.451  1.00  0.00     0.037 A 
ATOM     26  C   UNL A   1      40.527  28.864  29.701  1.00  0.00     0.037 A 
ATOM     27  C   UNL A   1      40.843  31.761  35.529  1.00  0.00     0.049 A 
ATOM     28  C   UNL A   1      41.403  28.663  30.904  1.00  0.00     0.074 A 
ATOM     29  C   UNL A   1      41.677  31.451  36.590  1.00  0.00     0.029 A 
ATOM     30  N   UNL A   1      41.163  30.884  34.502  1.00  0.00    -0.354 N 
ATOM     31  N   UNL A   1      41.382  29.287  32.055  1.00  0.00    -0.248 NA
ATOM     32  C   UNL A   1      42.435  27.622  30.802  1.00  0.00     0.031 C 
ATOM     33  C   UNL A   1      42.529  30.415  36.192  1.00  0.00     0.029 A 
ATOM     34  C   UNL A   1      42.196  30.048  34.898  1.00  0.00     0.049 A 
ATOM     35  H   UNL A   1      40.721  30.860  33.623  1.00  0.00     0.167 HD
ATOM     36  C   UNL A   1      42.383  28.708  32.820  1.00  0.00     0.074 A 
ATOM     37  C   UNL A   1      42.978  27.665  32.009  1.00  0.00     0.031 C 
ATOM     38  C   UNL A   1      42.775  29.014  34.081  1.00  0.00     0.037 A 
BRANCH  25  39
ATOM     39  C   UNL A   1      39.663  33.696  36.629  1.00  0.00     0.064 A 
ATOM     40  C   UNL A   1      38.825  33.375  37.707  1.00  0.00     0.173 A 
ATOM     41  C   UNL A   1      40.394  34.892  36.701  1.00  0.00     0.173 A 
ATOM     42  F   UNL A   1      38.097  32.249  37.682  1.00  0.00    -0.203 F 
ATOM     43  C   UNL A   1      38.709  34.227  38.803  1.00  0.00     0.198 A 
ATOM     44  C   UNL A   1      40.294  35.730  37.809  1.00  0.00     0.198 A 
ATOM     45  F   UNL A   1      41.215  35.244  35.700  1.00  0.00    -0.203 F 
ATOM     46  F   UNL A   1      37.872  33.918  39.803  1.00  0.00    -0.200 F 
ATOM     47  C   UNL A   1      39.448  35.399  38.857  1.00  0.00     0.200 A 
ATOM     48  F   UNL A   1      41.018  36.856  37.864  1.00  0.00    -0.200 F 
ATOM     49  F   UNL A   1      39.340  36.214  39.915  1.00  0.00    -0.200 F 
ENDBRANCH  25  39
BRANCH  26  50
ATOM     50  C   UNL A   1      40.665  28.000  28.501  1.00  0.00     0.064 A 
ATOM     51  C   UNL A   1      40.012  26.763  28.426  1.00  0.00     0.173 A 
ATOM     52  C   UNL A   1      41.436  28.401  27.400  1.00  0.00     0.173 A 
ATOM     53  F   UNL A   1      39.279  26.329  29.463  1.00  0.00    -0.203 F 
ATOM     54  C   UNL A   1      40.134  25.952  27.301  1.00  0.00     0.198 A 
ATOM     55  C   UNL A   1      41.535  27.603  26.264  1.00  0.00     0.198 A 
ATOM     56  F   UNL A   1      42.076  29.580  27.423  1.00  0.00    -0.203 F 
ATOM     57  F   UNL A   1      39.529  24.758  27.268  1.00  0.00    -0.200 F 
ATOM     58  C   UNL A   1      40.890  26.376  26.217  1.00  0.00     0.200 A 
ATOM     59  F   UNL A   1      42.253  28.023  25.213  1.00  0.00    -0.200 F 
ATOM     60  F   UNL A   1      40.999  25.601  25.130  1.00  0.00    -0.200 F 
ENDBRANCH  26  50
BRANCH  38  61
ATOM     61  C   UNL A   1      43.884  28.190  34.666  1.00  0.00     0.064 A 
ATOM     62  C   UNL A   1      43.630  26.978  35.323  1.00  0.00     0.173 A 
ATOM     63  C   UNL A   1      45.218  28.613  34.553  1.00  0.00     0.173 A 
ATOM     64  F   UNL A   1      42.370  26.542  35.471  1.00  0.00    -0.203 F 
ATOM     65  C   UNL A   1      44.668  26.232  35.872  1.00  0.00     0.198 A 
ATOM     66  C   UNL A   1      46.256  27.850  35.079  1.00  0.00     0.198 A 
ATOM     67  F   UNL A   1      45.512  29.762  33.929  1.00  0.00    -0.203 F 
ATOM     68  F   UNL A   1      44.399  25.102  36.540  1.00  0.00    -0.200 F 
ATOM     69  C   UNL A   1      45.980  26.666  35.745  1.00  0.00     0.200 A 
ATOM     70  F   UNL A   1      47.524  28.265  34.949  1.00  0.00    -0.200 F 
ATOM     71  F   UNL A   1      46.979  25.946  36.276  1.00  0.00    -0.200 F 
ENDBRANCH  38  61
ENDBRANCH  12  13
ENDBRANCH   5   7
ENDBRANCH   2   3
ENDBRANCH   1   2
BRANCH   1  72
ATOM     72  C   UNL A   1      31.590  30.410  26.239  1.00  0.00     0.023 C 
BRANCH  72  73
ATOM     73  C   UNL A   1      33.011  29.863  26.340  1.00  0.00     0.116 C 
BRANCH  73  74
ATOM     74  N   UNL A   1      33.670  29.714  25.052  1.00  0.00    -0.352 N 
ATOM     75  C   UNL A   1      33.546  28.700  24.134  1.00  0.00     0.252 C 
ATOM     76  H   UNL A   1      34.288  30.439  24.804  1.00  0.00     0.163 HD
ATOM     77  O   UNL A   1      34.180  28.733  23.084  1.00  0.00    -0.269 OA
BRANCH  75  78
ATOM     78  C   UNL A   1      32.705  27.530  24.442  1.00  0.00     0.051 A 
ATOM     79  C   UNL A   1      33.331  26.501  25.141  1.00  0.00     0.043 A 
ATOM     80  C   UNL A   1      31.345  27.445  24.074  1.00  0.00     0.013 A 
ATOM     81  C   UNL A   1      32.559  25.418  25.504  1.00  0.00     0.073 A 
ATOM     82  C   UNL A   1      30.643  26.323  24.554  1.00  0.00     0.072 A 
ATOM     83  C   UNL A   1      30.658  28.396  23.276  1.00  0.00     0.011 A 
ATOM     84  N   UNL A   1      31.236  25.333  25.240  1.00  0.00    -0.248 NA
ATOM     85  C   UNL A   1      29.279  26.239  24.313  1.00  0.00     0.029 A 
ATOM     86  C   UNL A   1      29.291  28.284  23.040  1.00  0.00     0.001 A 
ATOM     87  C   UNL A   1      28.595  27.211  23.577  1.00  0.00     0.002 A 
BRANCH  81  88
ATOM     88  C   UNL A   1      33.143  24.262  26.165  1.00  0.00     0.011 A 
ATOM     89  C   UNL A   1      34.476  23.770  25.988  1.00  0.00     0.022 A 
ATOM     90  C   UNL A   1      32.438  23.483  27.063  1.00  0.00     0.075 A 
ATOM     91  C   UNL A   1      34.742  22.670  26.773  1.00  0.00     0.065 A 
ATOM     92  S   UNL A   1      33.382  22.204  27.699  1.00  0.00    -0.152 S 
ENDBRANCH  81  88
ENDBRANCH  75  78
ENDBRANCH  73  74
ENDBRANCH  72  73
ENDBRANCH   1  72
TORSDOF 12
ENDMDL
MODEL 3
REMARK VINA RESULT:     -12.9      5.580     10.687
REMARK SMILES O=C(NCCCCNC(=O)c1cc(-c2ccsc2)nc2ccccc12)c1ccc(-c2c3nc(c(-c4c(F)c(F)c(F)c(F)c4F)c4ccc([nH]4)c(-c4c(F)c(F)c(F)c(F)c4F)c4nc(c(-c5c(F)c(F)c(F)c(F)c5F)c5ccc2[nH]5)C=C4)C=C3)cc1
REMARK SMILES IDX 5 1 4 2 3 3 1 4 2 5 26 7 27 8 88 9 28 10 87 11 29 12 30 13
REMARK SMILES IDX 31 14 81 15 32 16 86 17 80 18 82 19 33 20 85 21 79 22 78 23
REMARK SMILES IDX 34 25 66 26 46 27 65 28 47 29 50 30 64 31 83 32 48 33 49 34
REMARK SMILES IDX 63 36 84 37 51 38 35 39 36 40 44 41 37 42 38 43 42 44 45 45
REMARK SMILES IDX 39 46 40 47 43 48 41 49 67 50 68 51 76 52 69 53 70 54 74 55
REMARK SMILES IDX 77 56 71 57 72 58 75 59 73 60 52 61 53 62 61 63 54 64 55 65
REMARK SMILES IDX 59 66 62 67 56 68 57 69 60 70 58 71 6 72 7 73 8 74 9 75
REMARK SMILES IDX 10 77 11 78 12 79 25 80 13 81 20 82 24 83 19 84 21 85 23 86
REMARK SMILES IDX 22 87 14 88 15 89 18 90 16 91 17 92
REMARK H PARENT 3 6 82 24 50 35 8 76
REMARK Flexibility Score: inf
ROOT
ATOM      1  C   UNL A   1      37.890  19.935  24.980  1.00  0.00     0.023 C 
ENDROOT
BRANCH   1   2
ATOM      2  C   UNL A   1      39.122  20.299  25.802  1.00  0.00     0.116 C 
BRANCH   2   3
ATOM      3  N   UNL A   1      40.131  19.251  25.829  1.00  0.00    -0.352 N 
ATOM      4  O   UNL A   1      42.187  18.333  25.954  1.00  0.00    -0.269 OA
ATOM      5  C   UNL A   1      41.478  19.327  26.093  1.00  0.00     0.251 C 
ATOM      6  H   UNL A   1      39.796  18.348  25.627  1.00  0.00     0.163 HD
BRANCH   5   7
ATOM      7  C   UNL A   1      42.089  20.610  26.506  1.00  0.00     0.039 A 
ATOM      8  C   UNL A   1      42.238  20.935  27.855  1.00  0.00     0.014 A 
ATOM      9  C   UNL A   1      42.509  21.512  25.523  1.00  0.00     0.014 A 
ATOM     10  C   UNL A   1      42.619  22.223  28.215  1.00  0.00     0.010 A 
ATOM     11  C   UNL A   1      42.986  22.774  25.891  1.00  0.00     0.010 A 
ATOM     12  C   UNL A   1      42.992  23.161  27.239  1.00  0.00    -0.014 A 
BRANCH  12  13
ATOM     13  C   UNL A   1      43.391  24.530  27.663  1.00  0.00     0.031 A 
ATOM     14  C   UNL A   1      44.830  24.970  27.620  1.00  0.00     0.074 A 
ATOM     15  C   UNL A   1      42.435  25.402  28.035  1.00  0.00     0.049 A 
ATOM     16  N   UNL A   1      45.342  26.147  27.887  1.00  0.00    -0.248 NA
ATOM     17  C   UNL A   1      45.829  23.961  27.237  1.00  0.00     0.031 C 
ATOM     18  C   UNL A   1      41.007  25.092  28.131  1.00  0.00     0.029 A 
ATOM     19  N   UNL A   1      42.510  26.730  28.368  1.00  0.00    -0.354 N 
ATOM     20  C   UNL A   1      46.716  26.012  27.734  1.00  0.00     0.074 A 
ATOM     21  C   UNL A   1      46.964  24.633  27.369  1.00  0.00     0.031 C 
ATOM     22  C   UNL A   1      40.334  26.211  28.436  1.00  0.00     0.029 A 
ATOM     23  C   UNL A   1      41.285  27.304  28.609  1.00  0.00     0.049 A 
ATOM     24  H   UNL A   1      43.358  27.225  28.428  1.00  0.00     0.167 HD
ATOM     25  C   UNL A   1      47.681  26.954  27.874  1.00  0.00     0.037 A 
ATOM     26  C   UNL A   1      40.961  28.568  28.934  1.00  0.00     0.037 A 
ATOM     27  C   UNL A   1      47.431  28.334  28.200  1.00  0.00     0.049 A 
ATOM     28  C   UNL A   1      42.050  29.593  29.072  1.00  0.00     0.074 A 
ATOM     29  C   UNL A   1      48.339  29.373  28.312  1.00  0.00     0.029 A 
ATOM     30  N   UNL A   1      46.179  28.870  28.465  1.00  0.00    -0.354 N 
ATOM     31  N   UNL A   1      43.340  29.459  28.884  1.00  0.00    -0.248 NA
ATOM     32  C   UNL A   1      41.637  30.945  29.471  1.00  0.00     0.031 C 
ATOM     33  C   UNL A   1      47.643  30.528  28.684  1.00  0.00     0.029 A 
ATOM     34  C   UNL A   1      46.294  30.219  28.760  1.00  0.00     0.049 A 
ATOM     35  H   UNL A   1      45.334  28.365  28.446  1.00  0.00     0.167 HD
ATOM     36  C   UNL A   1      43.891  30.709  29.124  1.00  0.00     0.074 A 
ATOM     37  C   UNL A   1      42.792  31.594  29.451  1.00  0.00     0.031 C 
ATOM     38  C   UNL A   1      45.191  31.088  29.081  1.00  0.00     0.037 A 
BRANCH  25  39
ATOM     39  C   UNL A   1      49.108  26.523  27.693  1.00  0.00     0.064 A 
ATOM     40  C   UNL A   1      49.681  26.377  26.421  1.00  0.00     0.173 A 
ATOM     41  C   UNL A   1      49.928  26.301  28.810  1.00  0.00     0.173 A 
ATOM     42  F   UNL A   1      48.938  26.566  25.321  1.00  0.00    -0.203 F 
ATOM     43  C   UNL A   1      51.015  26.004  26.275  1.00  0.00     0.198 A 
ATOM     44  C   UNL A   1      51.268  25.953  28.661  1.00  0.00     0.198 A 
ATOM     45  F   UNL A   1      49.431  26.434  30.050  1.00  0.00    -0.203 F 
ATOM     46  F   UNL A   1      51.531  25.832  25.050  1.00  0.00    -0.200 F 
ATOM     47  C   UNL A   1      51.809  25.799  27.394  1.00  0.00     0.200 A 
ATOM     48  F   UNL A   1      52.035  25.766  29.744  1.00  0.00    -0.200 F 
ATOM     49  F   UNL A   1      53.095  25.447  27.252  1.00  0.00    -0.200 F 
ENDBRANCH  25  39
BRANCH  26  50
ATOM     50  C   UNL A   1      39.536  28.936  29.127  1.00  0.00     0.064 A 
ATOM     51  C   UNL A   1      38.755  29.380  28.052  1.00  0.00     0.173 A 
ATOM     52  C   UNL A   1      38.921  28.835  30.385  1.00  0.00     0.173 A 
ATOM     53  F   UNL A   1      39.304  29.512  26.835  1.00  0.00    -0.203 F 
ATOM     54  C   UNL A   1      37.416  29.721  28.228  1.00  0.00     0.198 A 
ATOM     55  C   UNL A   1      37.576  29.149  30.554  1.00  0.00     0.198 A 
ATOM     56  F   UNL A   1      39.627  28.410  31.444  1.00  0.00    -0.203 F 
ATOM     57  F   UNL A   1      36.701  30.176  27.191  1.00  0.00    -0.200 F 
ATOM     58  C   UNL A   1      36.826  29.598  29.477  1.00  0.00     0.200 A 
ATOM     59  F   UNL A   1      37.006  29.014  31.759  1.00  0.00    -0.200 F 
ATOM     60  F   UNL A   1      35.535  29.916  29.645  1.00  0.00    -0.200 F 
ENDBRANCH  26  50
BRANCH  38  61
ATOM     61  C   UNL A   1      45.489  32.529  29.368  1.00  0.00     0.064 A 
ATOM     62  C   UNL A   1      45.792  32.972  30.664  1.00  0.00     0.173 A 
ATOM     63  C   UNL A   1      45.487  33.475  28.332  1.00  0.00     0.173 A 
ATOM     64  F   UNL A   1      45.789  32.108  31.690  1.00  0.00    -0.203 F 
ATOM     65  C   UNL A   1      46.054  34.315  30.916  1.00  0.00     0.198 A 
ATOM     66  C   UNL A   1      45.776  34.813  28.584  1.00  0.00     0.198 A 
ATOM     67  F   UNL A   1      45.209  33.100  27.074  1.00  0.00    -0.203 F 
ATOM     68  F   UNL A   1      46.291  34.726  32.170  1.00  0.00    -0.200 F 
ATOM     69  C   UNL A   1      46.051  35.233  29.876  1.00  0.00     0.200 A 
ATOM     70  F   UNL A   1      45.782  35.697  27.577  1.00  0.00    -0.200 F 
ATOM     71  F   UNL A   1      46.302  36.527  30.122  1.00  0.00    -0.200 F 
ENDBRANCH  38  61
ENDBRANCH  12  13
ENDBRANCH   5   7
ENDBRANCH   2   3
ENDBRANCH   1   2
BRANCH   1  72
ATOM     72  C   UNL A   1      37.038  21.109  24.503  1.00  0.00     0.023 C 
BRANCH  72  73
ATOM     73  C   UNL A   1      37.145  22.387  25.331  1.00  0.00     0.116 C 
BRANCH  73  74
ATOM     74  N   UNL A   1      36.291  22.390  26.509  1.00  0.00    -0.352 N 
ATOM     75  C   UNL A   1      34.953  22.683  26.600  1.00  0.00     0.252 C 
ATOM     76  H   UNL A   1      36.732  22.149  27.354  1.00  0.00     0.163 HD
ATOM     77  O   UNL A   1      34.379  22.634  27.683  1.00  0.00    -0.269 OA
BRANCH  75  78
ATOM     78  C   UNL A   1      34.215  23.130  25.405  1.00  0.00     0.051 A 
ATOM     79  C   UNL A   1      34.279  24.493  25.128  1.00  0.00     0.043 A 
ATOM     80  C   UNL A   1      33.497  22.245  24.571  1.00  0.00     0.013 A 
ATOM     81  C   UNL A   1      33.657  24.939  23.981  1.00  0.00     0.073 A 
ATOM     82  C   UNL A   1      32.957  22.803  23.398  1.00  0.00     0.072 A 
ATOM     83  C   UNL A   1      33.294  20.866  24.834  1.00  0.00     0.011 A 
ATOM     84  N   UNL A   1      33.026  24.115  23.116  1.00  0.00    -0.248 NA
ATOM     85  C   UNL A   1      32.330  21.962  22.489  1.00  0.00     0.029 A 
ATOM     86  C   UNL A   1      32.654  20.045  23.910  1.00  0.00     0.001 A 
ATOM     87  C   UNL A   1      32.187  20.591  22.724  1.00  0.00     0.002 A 
BRANCH  81  88
ATOM     88  C   UNL A   1      33.603  26.355  23.653  1.00  0.00     0.011 A 
ATOM     89  C   UNL A   1      33.652  26.921  22.339  1.00  0.00     0.022 A 
ATOM     90  C   UNL A   1      33.503  27.338  24.619  1.00  0.00     0.075 A 
ATOM     91  C   UNL A   1      33.554  28.295  22.352  1.00  0.00     0.065 A 
ATOM     92  S   UNL A   1      33.438  28.911  23.943  1.00  0.00    -0.152 S 
ENDBRANCH  81  88
ENDBRANCH  75  78
ENDBRANCH  73  74
ENDBRANCH  72  73
ENDBRANCH   1  72
TORSDOF 12
ENDMDL
