MODEL 1
REMARK VINA RESULT:     -13.1      0.000      0.000
REMARK SMILES C=C(C(=O)NCCCCNC(=O)c1ccc(-c2c3nc(c(-c4c(F)c(F)c(F)c(F)c4F)c4ccc([nH]4)c(-c4c(F)c(F)c(F)c(F)c4F)c4nc(c(-c5c(F)c(F)c(F)c(F)c5F)c5ccc2[nH]5)C=C4)C=C3)cc1)[C@@H]1CC[C@]2(C)C[C@@H](O)CC(=C)[C@H]2C1
REMARK SMILES IDX 7 1 6 2 5 3 3 4 4 5 2 7 1 8 76 9 77 10 88 11 78 12 87 13
REMARK SMILES IDX 79 14 85 15 80 16 81 17 84 18 86 19 82 20 83 21 8 23 9 24
REMARK SMILES IDX 10 25 11 26 12 28 13 29 14 30 75 31 15 32 74 33 16 34 17 35
REMARK SMILES IDX 18 36 68 37 19 38 73 39 67 40 69 41 20 42 72 43 66 44 65 45
REMARK SMILES IDX 21 47 53 48 33 49 52 50 34 51 37 52 51 53 70 54 35 55 36 56
REMARK SMILES IDX 50 58 71 59 38 60 22 61 23 62 31 63 24 64 25 65 29 66 32 67
REMARK SMILES IDX 26 68 27 69 30 70 28 71 54 72 55 73 63 74 56 75 57 76 61 77
REMARK SMILES IDX 64 78 58 79 59 80 62 81 60 82 39 83 40 84 48 85 41 86 42 87
REMARK SMILES IDX 46 88 49 89 43 90 44 91 47 92 45 93
REMARK H PARENT 5 6 83 22 10 27 69 46 37 57
REMARK Flexibility Score: inf
ROOT
ATOM      1  C   UNL A   1      31.847  30.474  26.607  1.00  0.00     0.023 C 
ENDROOT
BRANCH   1   2
ATOM      2  C   UNL A   1      31.398  29.878  25.278  1.00  0.00     0.116 C 
BRANCH   2   3
ATOM      3  N   UNL A   1      32.484  29.704  24.333  1.00  0.00    -0.352 N 
ATOM      4  C   UNL A   1      33.355  28.709  24.019  1.00  0.00     0.246 C 
ATOM      5  O   UNL A   1      34.110  28.942  23.071  1.00  0.00    -0.270 OA
ATOM      6  H   UNL A   1      32.625  30.505  23.780  1.00  0.00     0.163 HD
BRANCH   4   7
ATOM      7  C   UNL A   1      33.487  27.396  24.756  1.00  0.00     0.013 C 
ATOM      8  C   UNL A   1      33.775  27.321  26.067  1.00  0.00     0.018 C 
BRANCH   7   9
ATOM      9  C   UNL A   1      33.011  26.160  23.949  1.00  0.00     0.025 C 
ATOM     10  C   UNL A   1      31.849  25.356  24.581  1.00  0.00     0.009 C 
ATOM     11  C   UNL A   1      34.115  25.158  23.528  1.00  0.00     0.017 C 
ATOM     12  C   UNL A   1      32.300  24.471  25.750  1.00  0.00     0.008 C 
ATOM     13  C   UNL A   1      34.595  24.266  24.684  1.00  0.00     0.021 C 
ATOM     14  C   UNL A   1      33.436  23.486  25.373  1.00  0.00    -0.024 C 
ATOM     15  C   UNL A   1      35.716  23.284  24.358  1.00  0.00    -0.071 C 
ATOM     16  C   UNL A   1      32.820  22.391  24.467  1.00  0.00     0.012 C 
ATOM     17  C   UNL A   1      33.998  22.850  26.682  1.00  0.00     0.039 C 
ATOM     18  C   UNL A   1      36.335  22.668  25.597  1.00  0.00     0.062 C 
ATOM     19  C   UNL A   1      36.127  22.944  23.125  1.00  0.00     0.008 C 
ATOM     20  C   UNL A   1      35.283  22.019  26.513  1.00  0.00     0.119 C 
BRANCH  20  21
ATOM     21  O   UNL A   1      34.957  20.701  26.070  1.00  0.00    -0.393 OA
ATOM     22  H   UNL A   1      34.545  20.748  25.193  1.00  0.00     0.210 HD
ENDBRANCH  20  21
ENDBRANCH   7   9
ENDBRANCH   4   7
ENDBRANCH   2   3
ENDBRANCH   1   2
BRANCH   1  23
ATOM     23  C   UNL A   1      31.569  31.972  26.758  1.00  0.00     0.023 C 
BRANCH  23  24
ATOM     24  C   UNL A   1      32.735  32.815  27.271  1.00  0.00     0.116 C 
BRANCH  24  25
ATOM     25  N   UNL A   1      32.379  34.182  27.625  1.00  0.00    -0.352 N 
ATOM     26  C   UNL A   1      32.976  34.984  28.570  1.00  0.00     0.251 C 
ATOM     27  H   UNL A   1      31.624  34.578  27.132  1.00  0.00     0.163 HD
ATOM     28  O   UNL A   1      32.538  36.100  28.828  1.00  0.00    -0.269 OA
BRANCH  26  29
ATOM     29  C   UNL A   1      34.136  34.450  29.308  1.00  0.00     0.039 A 
ATOM     30  C   UNL A   1      33.916  33.771  30.508  1.00  0.00     0.014 A 
ATOM     31  C   UNL A   1      35.419  34.547  28.764  1.00  0.00     0.014 A 
ATOM     32  C   UNL A   1      34.982  33.117  31.128  1.00  0.00     0.010 A 
ATOM     33  C   UNL A   1      36.464  33.840  29.348  1.00  0.00     0.010 A 
ATOM     34  C   UNL A   1      36.253  33.114  30.530  1.00  0.00    -0.014 A 
BRANCH  34  35
ATOM     35  C   UNL A   1      37.378  32.350  31.124  1.00  0.00     0.031 A 
ATOM     36  C   UNL A   1      37.876  32.699  32.496  1.00  0.00     0.074 A 
ATOM     37  C   UNL A   1      37.990  31.396  30.397  1.00  0.00     0.049 A 
ATOM     38  N   UNL A   1      38.886  32.198  33.161  1.00  0.00    -0.248 NA
ATOM     39  C   UNL A   1      37.166  33.776  33.203  1.00  0.00     0.031 C 
ATOM     40  C   UNL A   1      37.630  31.008  29.032  1.00  0.00     0.029 A 
ATOM     41  N   UNL A   1      39.054  30.585  30.702  1.00  0.00    -0.354 N 
ATOM     42  C   UNL A   1      38.941  32.910  34.353  1.00  0.00     0.074 A 
ATOM     43  C   UNL A   1      37.900  33.912  34.297  1.00  0.00     0.031 C 
ATOM     44  C   UNL A   1      38.442  30.019  28.627  1.00  0.00     0.029 A 
ATOM     45  C   UNL A   1      39.400  29.724  29.689  1.00  0.00     0.049 A 
ATOM     46  H   UNL A   1      39.525  30.616  31.566  1.00  0.00     0.167 HD
ATOM     47  C   UNL A   1      39.772  32.726  35.406  1.00  0.00     0.037 A 
ATOM     48  C   UNL A   1      40.380  28.804  29.626  1.00  0.00     0.037 A 
ATOM     49  C   UNL A   1      40.782  31.706  35.468  1.00  0.00     0.049 A 
ATOM     50  C   UNL A   1      41.281  28.613  30.816  1.00  0.00     0.074 A 
ATOM     51  C   UNL A   1      41.626  31.387  36.518  1.00  0.00     0.029 A 
ATOM     52  N   UNL A   1      41.087  30.834  34.432  1.00  0.00    -0.354 N 
ATOM     53  N   UNL A   1      41.274  29.238  31.969  1.00  0.00    -0.248 NA
ATOM     54  C   UNL A   1      42.324  27.584  30.699  1.00  0.00     0.031 C 
ATOM     55  C   UNL A   1      42.469  30.352  36.103  1.00  0.00     0.029 A 
ATOM     56  C   UNL A   1      42.119  29.992  34.811  1.00  0.00     0.049 A 
ATOM     57  H   UNL A   1      40.636  30.816  33.557  1.00  0.00     0.167 HD
ATOM     58  C   UNL A   1      42.285  28.660  32.724  1.00  0.00     0.074 A 
ATOM     59  C   UNL A   1      42.878  27.625  31.902  1.00  0.00     0.031 C 
ATOM     60  C   UNL A   1      42.687  28.959  33.982  1.00  0.00     0.037 A 
BRANCH  47  61
ATOM     61  C   UNL A   1      39.614  33.647  36.580  1.00  0.00     0.064 A 
ATOM     62  C   UNL A   1      40.267  34.889  36.634  1.00  0.00     0.173 A 
ATOM     63  C   UNL A   1      38.776  33.300  37.650  1.00  0.00     0.173 A 
ATOM     64  F   UNL A   1      41.091  35.261  35.642  1.00  0.00    -0.203 F 
ATOM     65  C   UNL A   1      40.111  35.734  37.729  1.00  0.00     0.198 A 
ATOM     66  C   UNL A   1      38.598  34.162  38.729  1.00  0.00     0.198 A 
ATOM     67  F   UNL A   1      38.125  32.128  37.647  1.00  0.00    -0.203 F 
ATOM     68  F   UNL A   1      40.785  36.891  37.782  1.00  0.00    -0.200 F 
ATOM     69  C   UNL A   1      39.271  35.373  38.772  1.00  0.00     0.200 A 
ATOM     70  F   UNL A   1      37.777  33.817  39.731  1.00  0.00    -0.200 F 
ATOM     71  F   UNL A   1      39.116  36.191  39.822  1.00  0.00    -0.200 F 
ENDBRANCH  47  61
BRANCH  48  72
ATOM     72  C   UNL A   1      40.540  27.966  28.410  1.00  0.00     0.064 A 
ATOM     73  C   UNL A   1      39.922  26.711  28.316  1.00  0.00     0.173 A 
ATOM     74  C   UNL A   1      41.316  28.393  27.323  1.00  0.00     0.173 A 
ATOM     75  F   UNL A   1      39.186  26.251  29.338  1.00  0.00    -0.203 F 
ATOM     76  C   UNL A   1      40.091  25.906  27.191  1.00  0.00     0.198 A 
ATOM     77  C   UNL A   1      41.463  27.598  26.187  1.00  0.00     0.198 A 
ATOM     78  F   UNL A   1      41.924  29.588  27.359  1.00  0.00    -0.203 F 
ATOM     79  F   UNL A   1      39.525  24.692  27.149  1.00  0.00    -0.200 F 
ATOM     80  C   UNL A   1      40.857  26.352  26.126  1.00  0.00     0.200 A 
ATOM     81  F   UNL A   1      42.193  28.039  25.153  1.00  0.00    -0.200 F 
ATOM     82  F   UNL A   1      41.018  25.578  25.043  1.00  0.00    -0.200 F 
ENDBRANCH  48  72
BRANCH  60  83
ATOM     83  C   UNL A   1      43.796  28.133  34.564  1.00  0.00     0.064 A 
ATOM     84  C   UNL A   1      43.540  26.936  35.248  1.00  0.00     0.173 A 
ATOM     85  C   UNL A   1      45.133  28.524  34.398  1.00  0.00     0.173 A 
ATOM     86  F   UNL A   1      42.277  26.529  35.447  1.00  0.00    -0.203 F 
ATOM     87  C   UNL A   1      44.582  26.170  35.764  1.00  0.00     0.198 A 
ATOM     88  C   UNL A   1      46.174  27.741  34.889  1.00  0.00     0.198 A 
ATOM     89  F   UNL A   1      45.431  29.658  33.746  1.00  0.00    -0.203 F 
ATOM     90  F   UNL A   1      44.314  25.053  36.452  1.00  0.00    -0.200 F 
ATOM     91  C   UNL A   1      45.898  26.569  35.577  1.00  0.00     0.200 A 
ATOM     92  F   UNL A   1      47.444  28.122  34.697  1.00  0.00    -0.200 F 
ATOM     93  F   UNL A   1      46.901  25.827  36.067  1.00  0.00    -0.200 F 
ENDBRANCH  60  83
ENDBRANCH  34  35
ENDBRANCH  26  29
ENDBRANCH  24  25
ENDBRANCH  23  24
ENDBRANCH   1  23
TORSDOF 13
ENDMDL
MODEL 2
REMARK VINA RESULT:     -13.1      0.097      1.605
REMARK SMILES C=C(C(=O)NCCCCNC(=O)c1ccc(-c2c3nc(c(-c4c(F)c(F)c(F)c(F)c4F)c4ccc([nH]4)c(-c4c(F)c(F)c(F)c(F)c4F)c4nc(c(-c5c(F)c(F)c(F)c(F)c5F)c5ccc2[nH]5)C=C4)C=C3)cc1)[C@@H]1CC[C@]2(C)C[C@@H](O)CC(=C)[C@H]2C1
REMARK SMILES IDX 7 1 6 2 5 3 3 4 4 5 2 7 1 8 76 9 77 10 88 11 78 12 87 13
REMARK SMILES IDX 79 14 85 15 80 16 81 17 84 18 86 19 82 20 83 21 8 23 9 24
REMARK SMILES IDX 10 25 11 26 12 28 13 29 14 30 75 31 15 32 74 33 16 34 17 35
REMARK SMILES IDX 18 36 68 37 19 38 73 39 67 40 69 41 20 42 72 43 66 44 65 45
REMARK SMILES IDX 21 47 53 48 33 49 52 50 34 51 37 52 51 53 70 54 35 55 36 56
REMARK SMILES IDX 50 58 71 59 38 60 22 61 23 62 31 63 24 64 25 65 29 66 32 67
REMARK SMILES IDX 26 68 27 69 30 70 28 71 54 72 55 73 63 74 56 75 57 76 61 77
REMARK SMILES IDX 64 78 58 79 59 80 62 81 60 82 39 83 40 84 48 85 41 86 42 87
REMARK SMILES IDX 46 88 49 89 43 90 44 91 47 92 45 93
REMARK H PARENT 5 6 83 22 10 27 69 46 37 57
REMARK Flexibility Score: inf
ROOT
ATOM      1  C   UNL A   1      31.844  30.503  26.570  1.00  0.00     0.023 C 
ENDROOT
BRANCH   1   2
ATOM      2  C   UNL A   1      31.402  29.920  25.232  1.00  0.00     0.116 C 
BRANCH   2   3
ATOM      3  N   UNL A   1      32.501  29.704  24.311  1.00  0.00    -0.352 N 
ATOM      4  C   UNL A   1      33.351  28.682  24.029  1.00  0.00     0.246 C 
ATOM      5  O   UNL A   1      34.129  28.881  23.092  1.00  0.00    -0.270 OA
ATOM      6  H   UNL A   1      32.673  30.493  23.750  1.00  0.00     0.163 HD
BRANCH   4   7
ATOM      7  C   UNL A   1      33.434  27.377  24.786  1.00  0.00     0.013 C 
ATOM      8  C   UNL A   1      33.674  27.314  26.108  1.00  0.00     0.018 C 
BRANCH   7   9
ATOM      9  C   UNL A   1      32.963  26.138  23.979  1.00  0.00     0.025 C 
ATOM     10  C   UNL A   1      31.813  25.322  24.616  1.00  0.00     0.009 C 
ATOM     11  C   UNL A   1      34.074  25.148  23.549  1.00  0.00     0.017 C 
ATOM     12  C   UNL A   1      32.280  24.439  25.780  1.00  0.00     0.008 C 
ATOM     13  C   UNL A   1      34.570  24.257  24.699  1.00  0.00     0.021 C 
ATOM     14  C   UNL A   1      33.422  23.465  25.393  1.00  0.00    -0.024 C 
ATOM     15  C   UNL A   1      35.698  23.286  24.363  1.00  0.00    -0.071 C 
ATOM     16  C   UNL A   1      32.810  22.366  24.489  1.00  0.00     0.012 C 
ATOM     17  C   UNL A   1      33.999  22.831  26.697  1.00  0.00     0.039 C 
ATOM     18  C   UNL A   1      36.330  22.673  25.597  1.00  0.00     0.062 C 
ATOM     19  C   UNL A   1      36.103  22.954  23.127  1.00  0.00     0.008 C 
ATOM     20  C   UNL A   1      35.290  22.012  26.517  1.00  0.00     0.119 C 
BRANCH  20  21
ATOM     21  O   UNL A   1      34.973  20.692  26.073  1.00  0.00    -0.393 OA
ATOM     22  H   UNL A   1      35.693  20.089  26.316  1.00  0.00     0.210 HD
ENDBRANCH  20  21
ENDBRANCH   7   9
ENDBRANCH   4   7
ENDBRANCH   2   3
ENDBRANCH   1   2
BRANCH   1  23
ATOM     23  C   UNL A   1      31.565  32.000  26.733  1.00  0.00     0.023 C 
BRANCH  23  24
ATOM     24  C   UNL A   1      32.729  32.837  27.261  1.00  0.00     0.116 C 
BRANCH  24  25
ATOM     25  N   UNL A   1      32.373  34.203  27.620  1.00  0.00    -0.352 N 
ATOM     26  C   UNL A   1      32.966  35.000  28.572  1.00  0.00     0.251 C 
ATOM     27  H   UNL A   1      31.621  34.602  27.125  1.00  0.00     0.163 HD
ATOM     28  O   UNL A   1      32.528  36.115  28.833  1.00  0.00    -0.269 OA
BRANCH  26  29
ATOM     29  C   UNL A   1      34.121  34.461  29.314  1.00  0.00     0.039 A 
ATOM     30  C   UNL A   1      33.895  33.793  30.519  1.00  0.00     0.014 A 
ATOM     31  C   UNL A   1      35.404  34.540  28.769  1.00  0.00     0.014 A 
ATOM     32  C   UNL A   1      34.955  33.135  31.144  1.00  0.00     0.010 A 
ATOM     33  C   UNL A   1      36.443  33.828  29.358  1.00  0.00     0.010 A 
ATOM     34  C   UNL A   1      36.226  33.114  30.546  1.00  0.00    -0.014 A 
BRANCH  34  35
ATOM     35  C   UNL A   1      37.343  32.344  31.145  1.00  0.00     0.031 A 
ATOM     36  C   UNL A   1      37.832  32.685  32.523  1.00  0.00     0.074 A 
ATOM     37  C   UNL A   1      37.958  31.390  30.420  1.00  0.00     0.049 A 
ATOM     38  N   UNL A   1      38.835  32.178  33.194  1.00  0.00    -0.248 NA
ATOM     39  C   UNL A   1      37.119  33.762  33.228  1.00  0.00     0.031 C 
ATOM     40  C   UNL A   1      37.607  31.009  29.051  1.00  0.00     0.029 A 
ATOM     41  N   UNL A   1      39.016  30.574  30.730  1.00  0.00    -0.354 N 
ATOM     42  C   UNL A   1      38.883  32.885  34.389  1.00  0.00     0.074 A 
ATOM     43  C   UNL A   1      37.845  33.891  34.329  1.00  0.00     0.031 C 
ATOM     44  C   UNL A   1      38.419  30.018  28.649  1.00  0.00     0.029 A 
ATOM     45  C   UNL A   1      39.367  29.716  29.716  1.00  0.00     0.049 A 
ATOM     46  H   UNL A   1      39.481  30.601  31.598  1.00  0.00     0.167 HD
ATOM     47  C   UNL A   1      39.704  32.695  35.448  1.00  0.00     0.037 A 
ATOM     48  C   UNL A   1      40.345  28.792  29.657  1.00  0.00     0.037 A 
ATOM     49  C   UNL A   1      40.711  31.671  35.514  1.00  0.00     0.049 A 
ATOM     50  C   UNL A   1      41.235  28.594  30.854  1.00  0.00     0.074 A 
ATOM     51  C   UNL A   1      41.545  31.346  36.569  1.00  0.00     0.029 A 
ATOM     52  N   UNL A   1      41.021  30.802  34.477  1.00  0.00    -0.354 N 
ATOM     53  N   UNL A   1      41.222  29.215  32.009  1.00  0.00    -0.248 NA
ATOM     54  C   UNL A   1      42.276  27.562  30.741  1.00  0.00     0.031 C 
ATOM     55  C   UNL A   1      42.388  30.308  36.156  1.00  0.00     0.029 A 
ATOM     56  C   UNL A   1      42.047  29.955  34.861  1.00  0.00     0.049 A 
ATOM     57  H   UNL A   1      40.576  30.789  33.598  1.00  0.00     0.167 HD
ATOM     58  C   UNL A   1      42.225  28.630  32.769  1.00  0.00     0.074 A 
ATOM     59  C   UNL A   1      42.820  27.596  31.949  1.00  0.00     0.031 C 
ATOM     60  C   UNL A   1      42.618  28.923  34.032  1.00  0.00     0.037 A 
BRANCH  47  61
ATOM     61  C   UNL A   1      39.541  33.612  36.624  1.00  0.00     0.064 A 
ATOM     62  C   UNL A   1      38.734  33.266  37.720  1.00  0.00     0.173 A 
ATOM     63  C   UNL A   1      40.222  34.837  36.672  1.00  0.00     0.173 A 
ATOM     64  F   UNL A   1      38.050  32.112  37.717  1.00  0.00    -0.203 F 
ATOM     65  C   UNL A   1      38.593  34.127  38.805  1.00  0.00     0.198 A 
ATOM     66  C   UNL A   1      40.103  35.681  37.773  1.00  0.00     0.198 A 
ATOM     67  F   UNL A   1      41.010  35.213  35.654  1.00  0.00    -0.203 F 
ATOM     68  F   UNL A   1      37.776  33.798  39.816  1.00  0.00    -0.200 F 
ATOM     69  C   UNL A   1      39.282  35.329  38.834  1.00  0.00     0.200 A 
ATOM     70  F   UNL A   1      40.779  36.837  37.805  1.00  0.00    -0.200 F 
ATOM     71  F   UNL A   1      39.150  36.153  39.883  1.00  0.00    -0.200 F 
ENDBRANCH  47  61
BRANCH  48  72
ATOM     72  C   UNL A   1      40.511  27.959  28.439  1.00  0.00     0.064 A 
ATOM     73  C   UNL A   1      39.887  26.708  28.335  1.00  0.00     0.173 A 
ATOM     74  C   UNL A   1      41.299  28.386  27.361  1.00  0.00     0.173 A 
ATOM     75  F   UNL A   1      39.140  26.248  29.349  1.00  0.00    -0.203 F 
ATOM     76  C   UNL A   1      40.062  25.906  27.208  1.00  0.00     0.198 A 
ATOM     77  C   UNL A   1      41.452  27.595  26.224  1.00  0.00     0.198 A 
ATOM     78  F   UNL A   1      41.913  29.578  27.408  1.00  0.00    -0.203 F 
ATOM     79  F   UNL A   1      39.491  24.696  27.156  1.00  0.00    -0.200 F 
ATOM     80  C   UNL A   1      40.841  26.353  26.152  1.00  0.00     0.200 A 
ATOM     81  F   UNL A   1      42.195  28.036  25.198  1.00  0.00    -0.200 F 
ATOM     82  F   UNL A   1      41.008  25.582  25.068  1.00  0.00    -0.200 F 
ENDBRANCH  48  72
BRANCH  60  83
ATOM     83  C   UNL A   1      43.719  28.091  34.620  1.00  0.00     0.064 A 
ATOM     84  C   UNL A   1      45.061  28.495  34.556  1.00  0.00     0.173 A 
ATOM     85  C   UNL A   1      43.423  26.896  35.292  1.00  0.00     0.173 A 
ATOM     86  F   UNL A   1      45.396  29.622  33.909  1.00  0.00    -0.203 F 
ATOM     87  C   UNL A   1      46.068  27.721  35.125  1.00  0.00     0.198 A 
ATOM     88  C   UNL A   1      44.429  26.139  35.885  1.00  0.00     0.198 A 
ATOM     89  F   UNL A   1      42.154  26.470  35.386  1.00  0.00    -0.203 F 
ATOM     90  F   UNL A   1      47.347  28.103  35.014  1.00  0.00    -0.200 F 
ATOM     91  C   UNL A   1      45.751  26.548  35.796  1.00  0.00     0.200 A 
ATOM     92  F   UNL A   1      44.119  25.014  36.544  1.00  0.00    -0.200 F 
ATOM     93  F   UNL A   1      46.721  25.808  36.350  1.00  0.00    -0.200 F 
ENDBRANCH  60  83
ENDBRANCH  34  35
ENDBRANCH  26  29
ENDBRANCH  24  25
ENDBRANCH  23  24
ENDBRANCH   1  23
TORSDOF 13
ENDMDL
MODEL 3
REMARK VINA RESULT:     -13.0      0.815      2.006
REMARK SMILES C=C(C(=O)NCCCCNC(=O)c1ccc(-c2c3nc(c(-c4c(F)c(F)c(F)c(F)c4F)c4ccc([nH]4)c(-c4c(F)c(F)c(F)c(F)c4F)c4nc(c(-c5c(F)c(F)c(F)c(F)c5F)c5ccc2[nH]5)C=C4)C=C3)cc1)[C@@H]1CC[C@]2(C)C[C@@H](O)CC(=C)[C@H]2C1
REMARK SMILES IDX 7 1 6 2 5 3 3 4 4 5 2 7 1 8 76 9 77 10 88 11 78 12 87 13
REMARK SMILES IDX 79 14 85 15 80 16 81 17 84 18 86 19 82 20 83 21 8 23 9 24
REMARK SMILES IDX 10 25 11 26 12 28 13 29 14 30 75 31 15 32 74 33 16 34 17 35
REMARK SMILES IDX 18 36 68 37 19 38 73 39 67 40 69 41 20 42 72 43 66 44 65 45
REMARK SMILES IDX 21 47 53 48 33 49 52 50 34 51 37 52 51 53 70 54 35 55 36 56
REMARK SMILES IDX 50 58 71 59 38 60 22 61 23 62 31 63 24 64 25 65 29 66 32 67
REMARK SMILES IDX 26 68 27 69 30 70 28 71 54 72 55 73 63 74 56 75 57 76 61 77
REMARK SMILES IDX 64 78 58 79 59 80 62 81 60 82 39 83 40 84 48 85 41 86 42 87
REMARK SMILES IDX 46 88 49 89 43 90 44 91 47 92 45 93
REMARK H PARENT 5 6 83 22 10 27 69 46 37 57
REMARK Flexibility Score: inf
ROOT
ATOM      1  C   UNL A   1      31.957  30.413  26.671  1.00  0.00     0.023 C 
ENDROOT
BRANCH   1   2
ATOM      2  C   UNL A   1      31.440  29.748  25.401  1.00  0.00     0.116 C 
BRANCH   2   3
ATOM      3  N   UNL A   1      32.405  29.754  24.318  1.00  0.00    -0.352 N 
ATOM      4  C   UNL A   1      33.348  28.897  23.847  1.00  0.00     0.246 C 
ATOM      5  O   UNL A   1      33.934  29.260  22.824  1.00  0.00    -0.270 OA
ATOM      6  H   UNL A   1      32.366  30.584  23.792  1.00  0.00     0.163 HD
BRANCH   4   7
ATOM      7  C   UNL A   1      33.746  27.591  24.494  1.00  0.00     0.013 C 
ATOM      8  C   UNL A   1      34.081  27.492  25.793  1.00  0.00     0.018 C 
BRANCH   7   9
ATOM      9  C   UNL A   1      33.486  26.337  23.618  1.00  0.00     0.025 C 
ATOM     10  C   UNL A   1      32.068  26.229  23.008  1.00  0.00     0.009 C 
ATOM     11  C   UNL A   1      33.836  24.974  24.264  1.00  0.00     0.017 C 
ATOM     12  C   UNL A   1      31.011  25.787  24.028  1.00  0.00     0.008 C 
ATOM     13  C   UNL A   1      32.799  24.510  25.300  1.00  0.00     0.021 C 
ATOM     14  C   UNL A   1      31.353  24.446  24.725  1.00  0.00    -0.024 C 
ATOM     15  C   UNL A   1      33.099  23.196  26.014  1.00  0.00    -0.071 C 
ATOM     16  C   UNL A   1      31.166  23.317  23.680  1.00  0.00     0.012 C 
ATOM     17  C   UNL A   1      30.371  24.242  25.921  1.00  0.00     0.039 C 
ATOM     18  C   UNL A   1      32.206  22.966  27.217  1.00  0.00     0.062 C 
ATOM     19  C   UNL A   1      34.021  22.294  25.640  1.00  0.00     0.008 C 
ATOM     20  C   UNL A   1      30.712  23.072  26.862  1.00  0.00     0.119 C 
BRANCH  20  21
ATOM     21  O   UNL A   1      30.224  21.847  26.315  1.00  0.00    -0.393 OA
ATOM     22  H   UNL A   1      30.229  21.901  25.347  1.00  0.00     0.210 HD
ENDBRANCH  20  21
ENDBRANCH   7   9
ENDBRANCH   4   7
ENDBRANCH   2   3
ENDBRANCH   1   2
BRANCH   1  23
ATOM     23  C   UNL A   1      31.663  31.913  26.769  1.00  0.00     0.023 C 
BRANCH  23  24
ATOM     24  C   UNL A   1      32.812  32.781  27.280  1.00  0.00     0.116 C 
BRANCH  24  25
ATOM     25  N   UNL A   1      32.424  34.136  27.647  1.00  0.00    -0.352 N 
ATOM     26  C   UNL A   1      32.993  34.938  28.608  1.00  0.00     0.251 C 
ATOM     27  H   UNL A   1      31.666  34.522  27.149  1.00  0.00     0.163 HD
ATOM     28  O   UNL A   1      32.528  36.041  28.875  1.00  0.00    -0.269 OA
BRANCH  26  29
ATOM     29  C   UNL A   1      34.154  34.419  29.355  1.00  0.00     0.039 A 
ATOM     30  C   UNL A   1      33.932  33.695  30.528  1.00  0.00     0.014 A 
ATOM     31  C   UNL A   1      35.443  34.573  28.841  1.00  0.00     0.014 A 
ATOM     32  C   UNL A   1      35.005  33.057  31.150  1.00  0.00     0.010 A 
ATOM     33  C   UNL A   1      36.499  33.882  29.425  1.00  0.00     0.010 A 
ATOM     34  C   UNL A   1      36.288  33.113  30.580  1.00  0.00    -0.014 A 
BRANCH  34  35
ATOM     35  C   UNL A   1      37.424  32.367  31.173  1.00  0.00     0.031 A 
ATOM     36  C   UNL A   1      37.926  32.733  32.540  1.00  0.00     0.074 A 
ATOM     37  C   UNL A   1      38.044  31.413  30.451  1.00  0.00     0.049 A 
ATOM     38  N   UNL A   1      38.946  32.249  33.204  1.00  0.00    -0.248 NA
ATOM     39  C   UNL A   1      37.207  33.807  33.242  1.00  0.00     0.031 C 
ATOM     40  C   UNL A   1      37.681  31.011  29.092  1.00  0.00     0.029 A 
ATOM     41  N   UNL A   1      39.119  30.617  30.757  1.00  0.00    -0.354 N 
ATOM     42  C   UNL A   1      38.999  32.971  34.389  1.00  0.00     0.074 A 
ATOM     43  C   UNL A   1      37.946  33.961  34.331  1.00  0.00     0.031 C 
ATOM     44  C   UNL A   1      38.502  30.027  28.691  1.00  0.00     0.029 A 
ATOM     45  C   UNL A   1      39.469  29.752  29.749  1.00  0.00     0.049 A 
ATOM     46  H   UNL A   1      39.594  30.662  31.618  1.00  0.00     0.167 HD
ATOM     47  C   UNL A   1      39.837  32.806  35.439  1.00  0.00     0.037 A 
ATOM     48  C   UNL A   1      40.459  28.842  29.689  1.00  0.00     0.037 A 
ATOM     49  C   UNL A   1      40.860  31.798  35.504  1.00  0.00     0.049 A 
ATOM     50  C   UNL A   1      41.369  28.672  30.875  1.00  0.00     0.074 A 
ATOM     51  C   UNL A   1      41.712  31.498  36.552  1.00  0.00     0.029 A 
ATOM     52  N   UNL A   1      41.169  30.921  34.474  1.00  0.00    -0.354 N 
ATOM     53  N   UNL A   1      41.361  29.307  32.023  1.00  0.00    -0.248 NA
ATOM     54  C   UNL A   1      42.423  27.655  30.761  1.00  0.00     0.031 C 
ATOM     55  C   UNL A   1      42.566  30.469  36.141  1.00  0.00     0.029 A 
ATOM     56  C   UNL A   1      42.213  30.094  34.854  1.00  0.00     0.049 A 
ATOM     57  H   UNL A   1      40.713  30.891  33.602  1.00  0.00     0.167 HD
ATOM     58  C   UNL A   1      42.382  28.747  32.777  1.00  0.00     0.074 A 
ATOM     59  C   UNL A   1      42.983  27.711  31.961  1.00  0.00     0.031 C 
ATOM     60  C   UNL A   1      42.788  29.061  34.031  1.00  0.00     0.037 A 
BRANCH  47  61
ATOM     61  C   UNL A   1      39.675  33.735  36.606  1.00  0.00     0.064 A 
ATOM     62  C   UNL A   1      40.318  34.982  36.648  1.00  0.00     0.173 A 
ATOM     63  C   UNL A   1      38.843  33.390  37.681  1.00  0.00     0.173 A 
ATOM     64  F   UNL A   1      41.136  35.354  35.651  1.00  0.00    -0.203 F 
ATOM     65  C   UNL A   1      40.158  35.834  37.737  1.00  0.00     0.198 A 
ATOM     66  C   UNL A   1      38.661  34.258  38.754  1.00  0.00     0.198 A 
ATOM     67  F   UNL A   1      38.201  32.212  37.689  1.00  0.00    -0.203 F 
ATOM     68  F   UNL A   1      40.823  36.998  37.779  1.00  0.00    -0.200 F 
ATOM     69  C   UNL A   1      39.325  35.476  38.786  1.00  0.00     0.200 A 
ATOM     70  F   UNL A   1      37.846  33.915  39.761  1.00  0.00    -0.200 F 
ATOM     71  F   UNL A   1      39.166  36.301  39.829  1.00  0.00    -0.200 F 
ENDBRANCH  47  61
BRANCH  48  72
ATOM     72  C   UNL A   1      40.622  27.996  28.479  1.00  0.00     0.064 A 
ATOM     73  C   UNL A   1      41.393  28.437  27.393  1.00  0.00     0.173 A 
ATOM     74  C   UNL A   1      40.011  26.739  28.376  1.00  0.00     0.173 A 
ATOM     75  F   UNL A   1      41.981  29.641  27.437  1.00  0.00    -0.203 F 
ATOM     76  C   UNL A   1      41.527  27.663  26.243  1.00  0.00     0.198 A 
ATOM     77  C   UNL A   1      40.167  25.954  27.235  1.00  0.00     0.198 A 
ATOM     78  F   UNL A   1      39.268  26.268  29.388  1.00  0.00    -0.203 F 
ATOM     79  F   UNL A   1      42.231  28.130  25.203  1.00  0.00    -0.200 F 
ATOM     80  C   UNL A   1      40.917  26.420  26.166  1.00  0.00     0.200 A 
ATOM     81  F   UNL A   1      39.588  24.747  27.170  1.00  0.00    -0.200 F 
ATOM     82  F   UNL A   1      41.048  25.675  25.060  1.00  0.00    -0.200 F 
ENDBRANCH  48  72
BRANCH  60  83
ATOM     83  C   UNL A   1      43.909  28.253  34.613  1.00  0.00     0.064 A 
ATOM     84  C   UNL A   1      45.244  28.671  34.518  1.00  0.00     0.173 A 
ATOM     85  C   UNL A   1      43.639  27.067  35.313  1.00  0.00     0.173 A 
ATOM     86  F   UNL A   1      45.555  29.789  33.845  1.00  0.00    -0.203 F 
ATOM     87  C   UNL A   1      46.271  27.919  35.083  1.00  0.00     0.198 A 
ATOM     88  C   UNL A   1      44.665  26.333  35.901  1.00  0.00     0.198 A 
ATOM     89  F   UNL A   1      42.377  26.628  35.438  1.00  0.00    -0.203 F 
ATOM     90  F   UNL A   1      47.543  28.313  34.941  1.00  0.00    -0.200 F 
ATOM     91  C   UNL A   1      45.980  26.755  35.781  1.00  0.00     0.200 A 
ATOM     92  F   UNL A   1      44.380  25.217  36.586  1.00  0.00    -0.200 F 
ATOM     93  F   UNL A   1      46.968  26.037  36.330  1.00  0.00    -0.200 F 
ENDBRANCH  60  83
ENDBRANCH  34  35
ENDBRANCH  26  29
ENDBRANCH  24  25
ENDBRANCH  23  24
ENDBRANCH   1  23
TORSDOF 13
ENDMDL
