MODEL 1
REMARK VINA RESULT:      -9.6      0.000      0.000
REMARK SMILES COc1ccc(C(=O)CCCC(=O)NCCCCNC(=O)c2ccc(-c3c4nc(c(-c5c(F)c(F)c(F)c(F)c5F)c5ccc([nH]5)c(-c5c(F)c(F)c(F)c(F)c5F)c5nc(c(-c6c(F)c(F)c(F)c(F)c6F)c6ccc3[nH]6)C=C5)C=C4)cc2)cc1
REMARK SMILES IDX 15 1 14 2 12 3 13 4 11 6 10 7 9 8 7 9 8 10 6 11 3 12 4 13
REMARK SMILES IDX 86 14 5 15 85 16 2 17 1 18 16 19 17 20 18 21 19 22 20 23
REMARK SMILES IDX 21 25 22 26 23 27 84 28 24 29 83 30 25 31 26 32 27 33 77 34
REMARK SMILES IDX 28 35 82 36 76 37 78 38 29 39 81 40 75 41 74 42 30 44 62 45
REMARK SMILES IDX 42 46 61 47 43 48 46 49 60 50 79 51 44 52 45 53 59 55 80 56
REMARK SMILES IDX 47 57 31 58 32 59 40 60 33 61 34 62 38 63 41 64 35 65 36 66
REMARK SMILES IDX 39 67 37 68 63 69 64 70 72 71 65 72 66 73 70 74 73 75 67 76
REMARK SMILES IDX 68 77 71 78 69 79 48 80 49 81 57 82 50 83 51 84 55 85 58 86
REMARK SMILES IDX 52 87 53 88 56 89 54 90
REMARK H PARENT 14 5 19 24 78 43 46 54
REMARK Flexibility Score: inf
ROOT
ATOM      1  C   UNL A   1      36.739  31.853  32.967  1.00  0.00     0.116 C 
ENDROOT
BRANCH   1   2
ATOM      2  N   UNL A   1      36.801  30.409  33.035  1.00  0.00    -0.356 N 
ATOM      3  C   UNL A   1      37.793  29.500  33.173  1.00  0.00     0.220 C 
ATOM      4  O   UNL A   1      37.423  28.318  33.174  1.00  0.00    -0.275 OA
ATOM      5  H   UNL A   1      35.913  29.990  32.964  1.00  0.00     0.163 HD
BRANCH   3   6
ATOM      6  C   UNL A   1      39.262  29.808  33.452  1.00  0.00     0.100 C 
BRANCH   6   7
ATOM      7  C   UNL A   1      40.379  28.782  33.282  1.00  0.00     0.018 C 
BRANCH   7   8
ATOM      8  C   UNL A   1      41.557  28.650  34.240  1.00  0.00     0.081 C 
BRANCH   8   9
ATOM      9  C   UNL A   1      41.687  27.560  35.313  1.00  0.00     0.162 C 
ATOM     10  O   UNL A   1      41.214  27.797  36.431  1.00  0.00    -0.294 OA
BRANCH   9  11
ATOM     11  C   UNL A   1      42.234  26.175  35.097  1.00  0.00     0.018 A 
ATOM     12  C   UNL A   1      43.351  23.628  34.520  1.00  0.00     0.118 A 
ATOM     13  C   UNL A   1      43.979  24.792  34.085  1.00  0.00     0.047 A 
ATOM     14  C   UNL A   1      42.210  23.738  35.301  1.00  0.00     0.047 A 
ATOM     15  C   UNL A   1      43.421  26.048  34.359  1.00  0.00     0.015 A 
ATOM     16  C   UNL A   1      41.678  25.001  35.594  1.00  0.00     0.015 A 
BRANCH  12  17
ATOM     17  O   UNL A   1      43.944  22.450  34.166  1.00  0.00    -0.497 OA
ATOM     18  C   UNL A   1      45.067  22.071  34.960  1.00  0.00     0.278 C 
ENDBRANCH  12  17
ENDBRANCH   9  11
ENDBRANCH   8   9
ENDBRANCH   7   8
ENDBRANCH   6   7
ENDBRANCH   3   6
ENDBRANCH   1   2
BRANCH   1  19
ATOM     19  C   UNL A   1      36.729  32.349  31.519  1.00  0.00     0.023 C 
BRANCH  19  20
ATOM     20  C   UNL A   1      35.334  32.401  30.907  1.00  0.00     0.023 C 
BRANCH  20  21
ATOM     21  C   UNL A   1      35.321  32.711  29.414  1.00  0.00     0.116 C 
BRANCH  21  22
ATOM     22  N   UNL A   1      34.378  31.902  28.653  1.00  0.00    -0.352 N 
ATOM     23  C   UNL A   1      34.586  30.667  28.082  1.00  0.00     0.251 C 
ATOM     24  H   UNL A   1      33.479  32.287  28.532  1.00  0.00     0.163 HD
ATOM     25  O   UNL A   1      33.722  30.128  27.400  1.00  0.00    -0.269 OA
BRANCH  23  26
ATOM     26  C   UNL A   1      35.900  30.021  28.265  1.00  0.00     0.039 A 
ATOM     27  C   UNL A   1      36.877  30.191  27.283  1.00  0.00     0.014 A 
ATOM     28  C   UNL A   1      36.192  29.349  29.455  1.00  0.00     0.014 A 
ATOM     29  C   UNL A   1      38.182  29.767  27.535  1.00  0.00     0.010 A 
ATOM     30  C   UNL A   1      37.506  28.998  29.735  1.00  0.00     0.010 A 
ATOM     31  C   UNL A   1      38.516  29.215  28.783  1.00  0.00    -0.014 A 
BRANCH  31  32
ATOM     32  C   UNL A   1      39.919  28.871  29.124  1.00  0.00     0.031 A 
ATOM     33  C   UNL A   1      40.765  29.848  29.888  1.00  0.00     0.074 A 
ATOM     34  C   UNL A   1      40.455  27.721  28.669  1.00  0.00     0.049 A 
ATOM     35  N   UNL A   1      42.036  29.782  30.192  1.00  0.00    -0.248 NA
ATOM     36  C   UNL A   1      40.101  31.081  30.339  1.00  0.00     0.031 C 
ATOM     37  C   UNL A   1      39.755  26.719  27.864  1.00  0.00     0.029 A 
ATOM     38  N   UNL A   1      41.721  27.209  28.809  1.00  0.00    -0.354 N 
ATOM     39  C   UNL A   1      42.328  30.972  30.845  1.00  0.00     0.074 A 
ATOM     40  C   UNL A   1      41.116  31.763  30.851  1.00  0.00     0.031 C 
ATOM     41  C   UNL A   1      40.594  25.703  27.600  1.00  0.00     0.029 A 
ATOM     42  C   UNL A   1      41.896  25.996  28.188  1.00  0.00     0.049 A 
ATOM     43  H   UNL A   1      42.436  27.666  29.308  1.00  0.00     0.167 HD
ATOM     44  C   UNL A   1      43.495  31.360  31.411  1.00  0.00     0.037 A 
ATOM     45  C   UNL A   1      42.988  25.212  28.100  1.00  0.00     0.037 A 
ATOM     46  C   UNL A   1      44.685  30.553  31.445  1.00  0.00     0.049 A 
ATOM     47  C   UNL A   1      44.262  25.650  28.768  1.00  0.00     0.074 A 
ATOM     48  C   UNL A   1      45.895  30.826  32.059  1.00  0.00     0.029 A 
ATOM     49  N   UNL A   1      44.810  29.309  30.846  1.00  0.00    -0.354 N 
ATOM     50  N   UNL A   1      44.508  26.748  29.442  1.00  0.00    -0.248 NA
ATOM     51  C   UNL A   1      45.411  24.738  28.671  1.00  0.00     0.031 C 
ATOM     52  C   UNL A   1      46.764  29.758  31.805  1.00  0.00     0.029 A 
ATOM     53  C   UNL A   1      46.082  28.805  31.065  1.00  0.00     0.049 A 
ATOM     54  H   UNL A   1      44.100  28.851  30.341  1.00  0.00     0.167 HD
ATOM     55  C   UNL A   1      45.824  26.648  29.869  1.00  0.00     0.074 A 
ATOM     56  C   UNL A   1      46.324  25.376  29.389  1.00  0.00     0.031 C 
ATOM     57  C   UNL A   1      46.555  27.531  30.591  1.00  0.00     0.037 A 
BRANCH  44  58
ATOM     58  C   UNL A   1      43.535  32.715  32.051  1.00  0.00     0.064 A 
ATOM     59  C   UNL A   1      43.891  33.861  31.323  1.00  0.00     0.173 A 
ATOM     60  C   UNL A   1      43.189  32.875  33.400  1.00  0.00     0.173 A 
ATOM     61  F   UNL A   1      44.245  33.757  30.032  1.00  0.00    -0.203 F 
ATOM     62  C   UNL A   1      43.926  35.113  31.929  1.00  0.00     0.198 A 
ATOM     63  C   UNL A   1      43.197  34.134  33.997  1.00  0.00     0.198 A 
ATOM     64  F   UNL A   1      42.839  31.812  34.140  1.00  0.00    -0.203 F 
ATOM     65  F   UNL A   1      44.315  36.185  31.226  1.00  0.00    -0.200 F 
ATOM     66  C   UNL A   1      43.573  35.250  33.264  1.00  0.00     0.200 A 
ATOM     67  F   UNL A   1      42.847  34.266  35.284  1.00  0.00    -0.200 F 
ATOM     68  F   UNL A   1      43.603  36.457  33.845  1.00  0.00    -0.200 F 
ENDBRANCH  44  58
BRANCH  45  69
ATOM     69  C   UNL A   1      42.917  23.915  27.380  1.00  0.00     0.064 A 
ATOM     70  C   UNL A   1      43.303  23.819  26.035  1.00  0.00     0.173 A 
ATOM     71  C   UNL A   1      42.456  22.751  28.012  1.00  0.00     0.173 A 
ATOM     72  F   UNL A   1      43.730  24.911  25.383  1.00  0.00    -0.203 F 
ATOM     73  C   UNL A   1      43.212  22.614  25.344  1.00  0.00     0.198 A 
ATOM     74  C   UNL A   1      42.389  21.540  27.326  1.00  0.00     0.198 A 
ATOM     75  F   UNL A   1      42.079  22.789  29.298  1.00  0.00    -0.203 F 
ATOM     76  F   UNL A   1      43.547  22.561  24.047  1.00  0.00    -0.200 F 
ATOM     77  C   UNL A   1      42.759  21.474  25.990  1.00  0.00     0.200 A 
ATOM     78  F   UNL A   1      41.962  20.437  27.957  1.00  0.00    -0.200 F 
ATOM     79  F   UNL A   1      42.674  20.313  25.325  1.00  0.00    -0.200 F 
ENDBRANCH  45  69
BRANCH  57  80
ATOM     80  C   UNL A   1      47.959  27.138  30.939  1.00  0.00     0.064 A 
ATOM     81  C   UNL A   1      48.241  26.345  32.060  1.00  0.00     0.173 A 
ATOM     82  C   UNL A   1      49.027  27.520  30.115  1.00  0.00     0.173 A 
ATOM     83  F   UNL A   1      47.254  25.969  32.888  1.00  0.00    -0.203 F 
ATOM     84  C   UNL A   1      49.548  25.963  32.353  1.00  0.00     0.198 A 
ATOM     85  C   UNL A   1      50.329  27.115  30.397  1.00  0.00     0.198 A 
ATOM     86  F   UNL A   1      48.807  28.274  29.028  1.00  0.00    -0.203 F 
ATOM     87  F   UNL A   1      49.801  25.237  33.451  1.00  0.00    -0.200 F 
ATOM     88  C   UNL A   1      50.588  26.341  31.518  1.00  0.00     0.200 A 
ATOM     89  F   UNL A   1      51.332  27.472  29.583  1.00  0.00    -0.200 F 
ATOM     90  F   UNL A   1      51.844  25.966  31.798  1.00  0.00    -0.200 F 
ENDBRANCH  57  80
ENDBRANCH  31  32
ENDBRANCH  23  26
ENDBRANCH  21  22
ENDBRANCH  20  21
ENDBRANCH  19  20
ENDBRANCH   1  19
TORSDOF 16
ENDMDL
MODEL 2
REMARK VINA RESULT:      -9.5      0.205      2.060
REMARK SMILES COc1ccc(C(=O)CCCC(=O)NCCCCNC(=O)c2ccc(-c3c4nc(c(-c5c(F)c(F)c(F)c(F)c5F)c5ccc([nH]5)c(-c5c(F)c(F)c(F)c(F)c5F)c5nc(c(-c6c(F)c(F)c(F)c(F)c6F)c6ccc3[nH]6)C=C5)C=C4)cc2)cc1
REMARK SMILES IDX 15 1 14 2 12 3 13 4 11 6 10 7 9 8 7 9 8 10 6 11 3 12 4 13
REMARK SMILES IDX 86 14 5 15 85 16 2 17 1 18 16 19 17 20 18 21 19 22 20 23
REMARK SMILES IDX 21 25 22 26 23 27 84 28 24 29 83 30 25 31 26 32 27 33 77 34
REMARK SMILES IDX 28 35 82 36 76 37 78 38 29 39 81 40 75 41 74 42 30 44 62 45
REMARK SMILES IDX 42 46 61 47 43 48 46 49 60 50 79 51 44 52 45 53 59 55 80 56
REMARK SMILES IDX 47 57 31 58 32 59 40 60 33 61 34 62 38 63 41 64 35 65 36 66
REMARK SMILES IDX 39 67 37 68 63 69 64 70 72 71 65 72 66 73 70 74 73 75 67 76
REMARK SMILES IDX 68 77 71 78 69 79 48 80 49 81 57 82 50 83 51 84 55 85 58 86
REMARK SMILES IDX 52 87 53 88 56 89 54 90
REMARK H PARENT 14 5 19 24 78 43 46 54
REMARK Flexibility Score: inf
ROOT
ATOM      1  C   UNL A   1      36.826  31.861  33.001  1.00  0.00     0.116 C 
ENDROOT
BRANCH   1   2
ATOM      2  N   UNL A   1      36.851  30.415  33.019  1.00  0.00    -0.356 N 
ATOM      3  C   UNL A   1      37.807  29.475  33.204  1.00  0.00     0.220 C 
ATOM      4  O   UNL A   1      37.412  28.305  33.129  1.00  0.00    -0.275 OA
ATOM      5  H   UNL A   1      35.963  30.021  32.859  1.00  0.00     0.163 HD
BRANCH   3   6
ATOM      6  C   UNL A   1      39.254  29.736  33.615  1.00  0.00     0.100 C 
BRANCH   6   7
ATOM      7  C   UNL A   1      40.378  28.724  33.409  1.00  0.00     0.018 C 
BRANCH   7   8
ATOM      8  C   UNL A   1      41.593  28.614  34.323  1.00  0.00     0.081 C 
BRANCH   8   9
ATOM      9  C   UNL A   1      41.856  27.445  35.282  1.00  0.00     0.162 C 
ATOM     10  O   UNL A   1      41.436  27.549  36.441  1.00  0.00    -0.294 OA
BRANCH   9  11
ATOM     11  C   UNL A   1      42.477  26.126  34.911  1.00  0.00     0.018 A 
ATOM     12  C   UNL A   1      43.583  23.563  34.387  1.00  0.00     0.118 A 
ATOM     13  C   UNL A   1      42.450  23.695  35.185  1.00  0.00     0.047 A 
ATOM     14  C   UNL A   1      44.117  24.697  33.794  1.00  0.00     0.047 A 
ATOM     15  C   UNL A   1      41.912  24.961  35.454  1.00  0.00     0.015 A 
ATOM     16  C   UNL A   1      43.552  25.954  34.046  1.00  0.00     0.015 A 
BRANCH  12  17
ATOM     17  O   UNL A   1      44.061  22.295  34.219  1.00  0.00    -0.497 OA
ATOM     18  C   UNL A   1      45.422  22.100  34.601  1.00  0.00     0.278 C 
ENDBRANCH  12  17
ENDBRANCH   9  11
ENDBRANCH   8   9
ENDBRANCH   7   8
ENDBRANCH   6   7
ENDBRANCH   3   6
ENDBRANCH   1   2
BRANCH   1  19
ATOM     19  C   UNL A   1      36.831  32.406  31.570  1.00  0.00     0.023 C 
BRANCH  19  20
ATOM     20  C   UNL A   1      35.438  32.515  30.961  1.00  0.00     0.023 C 
BRANCH  20  21
ATOM     21  C   UNL A   1      35.436  32.820  29.466  1.00  0.00     0.116 C 
BRANCH  21  22
ATOM     22  N   UNL A   1      34.476  32.030  28.706  1.00  0.00    -0.352 N 
ATOM     23  C   UNL A   1      34.660  30.794  28.131  1.00  0.00     0.251 C 
ATOM     24  H   UNL A   1      33.584  32.431  28.589  1.00  0.00     0.163 HD
ATOM     25  O   UNL A   1      33.785  30.272  27.450  1.00  0.00    -0.269 OA
BRANCH  23  26
ATOM     26  C   UNL A   1      35.963  30.124  28.307  1.00  0.00     0.039 A 
ATOM     27  C   UNL A   1      36.958  30.323  27.349  1.00  0.00     0.014 A 
ATOM     28  C   UNL A   1      36.227  29.399  29.473  1.00  0.00     0.014 A 
ATOM     29  C   UNL A   1      38.254  29.872  27.605  1.00  0.00     0.010 A 
ATOM     30  C   UNL A   1      37.533  29.020  29.759  1.00  0.00     0.010 A 
ATOM     31  C   UNL A   1      38.561  29.264  28.833  1.00  0.00    -0.014 A 
BRANCH  31  32
ATOM     32  C   UNL A   1      39.954  28.888  29.182  1.00  0.00     0.031 A 
ATOM     33  C   UNL A   1      40.804  29.829  29.985  1.00  0.00     0.074 A 
ATOM     34  C   UNL A   1      40.479  27.744  28.700  1.00  0.00     0.049 A 
ATOM     35  N   UNL A   1      42.070  29.735  30.303  1.00  0.00    -0.248 NA
ATOM     36  C   UNL A   1      40.153  31.058  30.464  1.00  0.00     0.031 C 
ATOM     37  C   UNL A   1      39.774  26.777  27.856  1.00  0.00     0.029 A 
ATOM     38  N   UNL A   1      41.734  27.208  28.840  1.00  0.00    -0.354 N 
ATOM     39  C   UNL A   1      42.371  30.900  30.995  1.00  0.00     0.074 A 
ATOM     40  C   UNL A   1      41.171  31.709  31.009  1.00  0.00     0.031 C 
ATOM     41  C   UNL A   1      40.601  25.756  27.572  1.00  0.00     0.029 A 
ATOM     42  C   UNL A   1      41.900  26.012  28.186  1.00  0.00     0.049 A 
ATOM     43  H   UNL A   1      42.449  27.640  29.362  1.00  0.00     0.167 HD
ATOM     44  C   UNL A   1      43.537  31.253  31.587  1.00  0.00     0.037 A 
ATOM     45  C   UNL A   1      42.980  25.214  28.089  1.00  0.00     0.037 A 
ATOM     46  C   UNL A   1      44.713  30.427  31.613  1.00  0.00     0.049 A 
ATOM     47  C   UNL A   1      44.252  25.613  28.786  1.00  0.00     0.074 A 
ATOM     48  C   UNL A   1      45.919  30.662  32.250  1.00  0.00     0.029 A 
ATOM     49  N   UNL A   1      44.827  29.199  30.979  1.00  0.00    -0.354 N 
ATOM     50  N   UNL A   1      44.505  26.686  29.495  1.00  0.00    -0.248 NA
ATOM     51  C   UNL A   1      45.388  24.686  28.676  1.00  0.00     0.031 C 
ATOM     52  C   UNL A   1      46.775  29.589  31.975  1.00  0.00     0.029 A 
ATOM     53  C   UNL A   1      46.088  28.670  31.199  1.00  0.00     0.049 A 
ATOM     54  H   UNL A   1      44.117  28.767  30.451  1.00  0.00     0.167 HD
ATOM     55  C   UNL A   1      45.814  26.553  29.936  1.00  0.00     0.074 A 
ATOM     56  C   UNL A   1      46.301  25.288  29.425  1.00  0.00     0.031 C 
ATOM     57  C   UNL A   1      46.548  27.403  30.693  1.00  0.00     0.037 A 
BRANCH  44  58
ATOM     58  C   UNL A   1      43.589  32.588  32.268  1.00  0.00     0.064 A 
ATOM     59  C   UNL A   1      43.268  32.732  33.626  1.00  0.00     0.173 A 
ATOM     60  C   UNL A   1      43.988  33.732  31.561  1.00  0.00     0.173 A 
ATOM     61  F   UNL A   1      42.866  31.670  34.341  1.00  0.00    -0.203 F 
ATOM     62  C   UNL A   1      43.319  33.978  34.246  1.00  0.00     0.198 A 
ATOM     63  C   UNL A   1      44.065  34.971  32.192  1.00  0.00     0.198 A 
ATOM     64  F   UNL A   1      44.307  33.647  30.261  1.00  0.00    -0.203 F 
ATOM     65  F   UNL A   1      42.962  34.099  35.531  1.00  0.00    -0.200 F 
ATOM     66  C   UNL A   1      43.724  35.094  33.530  1.00  0.00     0.200 A 
ATOM     67  F   UNL A   1      44.465  36.049  31.501  1.00  0.00    -0.200 F 
ATOM     68  F   UNL A   1      43.776  36.292  34.129  1.00  0.00    -0.200 F 
ENDBRANCH  44  58
BRANCH  45  69
ATOM     69  C   UNL A   1      42.899  23.940  27.330  1.00  0.00     0.064 A 
ATOM     70  C   UNL A   1      42.455  22.763  27.950  1.00  0.00     0.173 A 
ATOM     71  C   UNL A   1      43.269  23.867  25.980  1.00  0.00     0.173 A 
ATOM     72  F   UNL A   1      42.112  22.779  29.247  1.00  0.00    -0.203 F 
ATOM     73  C   UNL A   1      42.404  21.558  27.254  1.00  0.00     0.198 A 
ATOM     74  C   UNL A   1      43.193  22.666  25.278  1.00  0.00     0.198 A 
ATOM     75  F   UNL A   1      43.695  24.966  25.340  1.00  0.00    -0.203 F 
ATOM     76  F   UNL A   1      42.017  20.440  27.884  1.00  0.00    -0.200 F 
ATOM     77  C   UNL A   1      42.768  21.510  25.917  1.00  0.00     0.200 A 
ATOM     78  F   UNL A   1      43.534  22.626  23.982  1.00  0.00    -0.200 F 
ATOM     79  F   UNL A   1      42.716  20.351  25.247  1.00  0.00    -0.200 F 
ENDBRANCH  45  69
BRANCH  57  80
ATOM     80  C   UNL A   1      47.942  26.978  31.048  1.00  0.00     0.064 A 
ATOM     81  C   UNL A   1      49.047  27.382  30.284  1.00  0.00     0.173 A 
ATOM     82  C   UNL A   1      48.178  26.201  32.191  1.00  0.00     0.173 A 
ATOM     83  F   UNL A   1      48.869  28.113  29.173  1.00  0.00    -0.203 F 
ATOM     84  C   UNL A   1      50.338  27.005  30.644  1.00  0.00     0.198 A 
ATOM     85  C   UNL A   1      49.472  25.848  32.561  1.00  0.00     0.198 A 
ATOM     86  F   UNL A   1      47.153  25.796  32.956  1.00  0.00    -0.203 F 
ATOM     87  F   UNL A   1      51.376  27.368  29.879  1.00  0.00    -0.200 F 
ATOM     88  C   UNL A   1      50.550  26.246  31.785  1.00  0.00     0.200 A 
ATOM     89  F   UNL A   1      49.676  25.123  33.670  1.00  0.00    -0.200 F 
ATOM     90  F   UNL A   1      51.795  25.891  32.133  1.00  0.00    -0.200 F 
ENDBRANCH  57  80
ENDBRANCH  31  32
ENDBRANCH  23  26
ENDBRANCH  21  22
ENDBRANCH  20  21
ENDBRANCH  19  20
ENDBRANCH   1  19
TORSDOF 16
ENDMDL
MODEL 3
REMARK VINA RESULT:      -9.5      4.600     11.051
REMARK SMILES COc1ccc(C(=O)CCCC(=O)NCCCCNC(=O)c2ccc(-c3c4nc(c(-c5c(F)c(F)c(F)c(F)c5F)c5ccc([nH]5)c(-c5c(F)c(F)c(F)c(F)c5F)c5nc(c(-c6c(F)c(F)c(F)c(F)c6F)c6ccc3[nH]6)C=C5)C=C4)cc2)cc1
REMARK SMILES IDX 15 1 14 2 12 3 13 4 11 6 10 7 9 8 7 9 8 10 6 11 3 12 4 13
REMARK SMILES IDX 86 14 5 15 85 16 2 17 1 18 16 19 17 20 18 21 19 22 20 23
REMARK SMILES IDX 21 25 22 26 23 27 84 28 24 29 83 30 25 31 26 32 27 33 77 34
REMARK SMILES IDX 28 35 82 36 76 37 78 38 29 39 81 40 75 41 74 42 30 44 62 45
REMARK SMILES IDX 42 46 61 47 43 48 46 49 60 50 79 51 44 52 45 53 59 55 80 56
REMARK SMILES IDX 47 57 31 58 32 59 40 60 33 61 34 62 38 63 41 64 35 65 36 66
REMARK SMILES IDX 39 67 37 68 63 69 64 70 72 71 65 72 66 73 70 74 73 75 67 76
REMARK SMILES IDX 68 77 71 78 69 79 48 80 49 81 57 82 50 83 51 84 55 85 58 86
REMARK SMILES IDX 52 87 53 88 56 89 54 90
REMARK H PARENT 14 5 19 24 78 43 46 54
REMARK Flexibility Score: inf
ROOT
ATOM      1  C   UNL A   1      32.602  28.990  27.296  1.00  0.00     0.116 C 
ENDROOT
BRANCH   1   2
ATOM      2  N   UNL A   1      31.547  28.021  27.093  1.00  0.00    -0.356 N 
ATOM      3  C   UNL A   1      31.489  26.753  26.626  1.00  0.00     0.220 C 
ATOM      4  O   UNL A   1      30.355  26.258  26.598  1.00  0.00    -0.275 OA
ATOM      5  H   UNL A   1      30.663  28.367  27.356  1.00  0.00     0.163 HD
BRANCH   3   6
ATOM      6  C   UNL A   1      32.684  25.871  26.270  1.00  0.00     0.100 C 
BRANCH   6   7
ATOM      7  C   UNL A   1      33.823  26.332  25.365  1.00  0.00     0.018 C 
BRANCH   7   8
ATOM      8  C   UNL A   1      33.976  25.895  23.913  1.00  0.00     0.081 C 
BRANCH   8   9
ATOM      9  C   UNL A   1      33.219  26.520  22.733  1.00  0.00     0.162 C 
ATOM     10  O   UNL A   1      33.700  26.375  21.602  1.00  0.00    -0.294 OA
BRANCH   9  11
ATOM     11  C   UNL A   1      31.877  27.197  22.808  1.00  0.00     0.018 A 
ATOM     12  C   UNL A   1      29.442  28.645  22.996  1.00  0.00     0.118 A 
ATOM     13  C   UNL A   1      30.618  29.286  22.617  1.00  0.00     0.047 A 
ATOM     14  C   UNL A   1      29.466  27.275  23.210  1.00  0.00     0.047 A 
ATOM     15  C   UNL A   1      31.823  28.573  22.537  1.00  0.00     0.015 A 
ATOM     16  C   UNL A   1      30.671  26.568  23.097  1.00  0.00     0.015 A 
BRANCH  12  17
ATOM     17  O   UNL A   1      28.328  29.430  23.091  1.00  0.00    -0.497 OA
ATOM     18  C   UNL A   1      28.059  30.246  21.952  1.00  0.00     0.278 C 
ENDBRANCH  12  17
ENDBRANCH   9  11
ENDBRANCH   8   9
ENDBRANCH   7   8
ENDBRANCH   6   7
ENDBRANCH   3   6
ENDBRANCH   1   2
BRANCH   1  19
ATOM     19  C   UNL A   1      32.561  30.097  26.240  1.00  0.00     0.023 C 
BRANCH  19  20
ATOM     20  C   UNL A   1      31.971  31.404  26.757  1.00  0.00     0.023 C 
BRANCH  20  21
ATOM     21  C   UNL A   1      32.994  32.336  27.401  1.00  0.00     0.116 C 
BRANCH  21  22
ATOM     22  N   UNL A   1      32.517  33.701  27.578  1.00  0.00    -0.352 N 
ATOM     23  C   UNL A   1      33.005  34.666  28.429  1.00  0.00     0.251 C 
ATOM     24  H   UNL A   1      31.750  33.966  27.020  1.00  0.00     0.163 HD
ATOM     25  O   UNL A   1      32.458  35.758  28.532  1.00  0.00    -0.269 OA
BRANCH  23  26
ATOM     26  C   UNL A   1      34.179  34.342  29.261  1.00  0.00     0.039 A 
ATOM     27  C   UNL A   1      33.979  33.727  30.498  1.00  0.00     0.014 A 
ATOM     28  C   UNL A   1      35.469  34.543  28.764  1.00  0.00     0.014 A 
ATOM     29  C   UNL A   1      35.076  33.225  31.199  1.00  0.00     0.010 A 
ATOM     30  C   UNL A   1      36.551  33.976  29.424  1.00  0.00     0.010 A 
ATOM     31  C   UNL A   1      36.364  33.301  30.642  1.00  0.00    -0.014 A 
BRANCH  31  32
ATOM     32  C   UNL A   1      37.530  32.667  31.306  1.00  0.00     0.031 A 
ATOM     33  C   UNL A   1      38.252  31.537  30.630  1.00  0.00     0.074 A 
ATOM     34  C   UNL A   1      37.881  33.048  32.550  1.00  0.00     0.049 A 
ATOM     35  N   UNL A   1      39.222  30.785  31.085  1.00  0.00    -0.248 NA
ATOM     36  C   UNL A   1      37.799  31.181  29.277  1.00  0.00     0.031 C 
ATOM     37  C   UNL A   1      37.218  34.090  33.336  1.00  0.00     0.029 A 
ATOM     38  N   UNL A   1      38.875  32.590  33.378  1.00  0.00    -0.354 N 
ATOM     39  C   UNL A   1      39.476  29.854  30.086  1.00  0.00     0.074 A 
ATOM     40  C   UNL A   1      38.527  30.104  29.022  1.00  0.00     0.031 C 
ATOM     41  C   UNL A   1      37.838  34.206  34.523  1.00  0.00     0.029 A 
ATOM     42  C   UNL A   1      38.917  33.228  34.594  1.00  0.00     0.049 A 
ATOM     43  H   UNL A   1      39.499  31.872  33.125  1.00  0.00     0.167 HD
ATOM     44  C   UNL A   1      40.430  28.895  30.049  1.00  0.00     0.037 A 
ATOM     45  C   UNL A   1      39.734  33.040  35.648  1.00  0.00     0.037 A 
ATOM     46  C   UNL A   1      41.402  28.680  31.087  1.00  0.00     0.049 A 
ATOM     47  C   UNL A   1      40.809  31.991  35.566  1.00  0.00     0.074 A 
ATOM     48  C   UNL A   1      42.455  27.783  31.110  1.00  0.00     0.029 A 
ATOM     49  N   UNL A   1      41.443  29.379  32.283  1.00  0.00    -0.354 N 
ATOM     50  N   UNL A   1      41.083  31.161  34.589  1.00  0.00    -0.248 NA
ATOM     51  C   UNL A   1      41.694  31.855  36.733  1.00  0.00     0.031 C 
ATOM     52  C   UNL A   1      43.117  27.918  32.336  1.00  0.00     0.029 A 
ATOM     53  C   UNL A   1      42.498  28.924  33.059  1.00  0.00     0.049 A 
ATOM     54  H   UNL A   1      40.816  30.092  32.544  1.00  0.00     0.167 HD
ATOM     55  C   UNL A   1      42.182  30.426  35.008  1.00  0.00     0.074 A 
ATOM     56  C   UNL A   1      42.534  30.914  36.325  1.00  0.00     0.031 C 
ATOM     57  C   UNL A   1      42.840  29.434  34.361  1.00  0.00     0.037 A 
BRANCH  44  58
ATOM     58  C   UNL A   1      40.475  28.013  28.837  1.00  0.00     0.064 A 
ATOM     59  C   UNL A   1      41.226  28.361  27.704  1.00  0.00     0.173 A 
ATOM     60  C   UNL A   1      39.782  26.795  28.817  1.00  0.00     0.173 A 
ATOM     61  F   UNL A   1      41.895  29.524  27.669  1.00  0.00    -0.203 F 
ATOM     62  C   UNL A   1      41.259  27.534  26.585  1.00  0.00     0.198 A 
ATOM     63  C   UNL A   1      39.840  25.956  27.707  1.00  0.00     0.198 A 
ATOM     64  F   UNL A   1      39.051  26.414  29.876  1.00  0.00    -0.203 F 
ATOM     65  F   UNL A   1      41.944  27.910  25.497  1.00  0.00    -0.200 F 
ATOM     66  C   UNL A   1      40.571  26.330  26.589  1.00  0.00     0.200 A 
ATOM     67  F   UNL A   1      39.182  24.788  27.716  1.00  0.00    -0.200 F 
ATOM     68  F   UNL A   1      40.607  25.533  25.513  1.00  0.00    -0.200 F 
ENDBRANCH  44  58
BRANCH  45  69
ATOM     69  C   UNL A   1      39.591  33.886  36.861  1.00  0.00     0.064 A 
ATOM     70  C   UNL A   1      40.238  35.127  36.948  1.00  0.00     0.173 A 
ATOM     71  C   UNL A   1      38.818  33.474  37.954  1.00  0.00     0.173 A 
ATOM     72  F   UNL A   1      41.007  35.554  35.935  1.00  0.00    -0.203 F 
ATOM     73  C   UNL A   1      40.134  35.914  38.092  1.00  0.00     0.198 A 
ATOM     74  C   UNL A   1      38.694  34.274  39.089  1.00  0.00     0.198 A 
ATOM     75  F   UNL A   1      38.176  32.298  37.918  1.00  0.00    -0.203 F 
ATOM     76  F   UNL A   1      40.798  37.076  38.166  1.00  0.00    -0.200 F 
ATOM     77  C   UNL A   1      39.358  35.490  39.160  1.00  0.00     0.200 A 
ATOM     78  F   UNL A   1      37.934  33.866  40.114  1.00  0.00    -0.200 F 
ATOM     79  F   UNL A   1      39.257  36.248  40.261  1.00  0.00    -0.200 F 
ENDBRANCH  45  69
BRANCH  57  80
ATOM     80  C   UNL A   1      44.028  28.835  35.050  1.00  0.00     0.064 A 
ATOM     81  C   UNL A   1      45.313  29.377  34.899  1.00  0.00     0.173 A 
ATOM     82  C   UNL A   1      43.872  27.737  35.909  1.00  0.00     0.173 A 
ATOM     83  F   UNL A   1      45.515  30.417  34.076  1.00  0.00    -0.203 F 
ATOM     84  C   UNL A   1      46.402  28.827  35.570  1.00  0.00     0.198 A 
ATOM     85  C   UNL A   1      44.959  27.207  36.598  1.00  0.00     0.198 A 
ATOM     86  F   UNL A   1      42.662  27.187  36.090  1.00  0.00    -0.203 F 
ATOM     87  F   UNL A   1      47.628  29.336  35.382  1.00  0.00    -0.200 F 
ATOM     88  C   UNL A   1      46.224  27.749  36.424  1.00  0.00     0.200 A 
ATOM     89  F   UNL A   1      44.783  26.171  37.430  1.00  0.00    -0.200 F 
ATOM     90  F   UNL A   1      47.273  27.227  37.075  1.00  0.00    -0.200 F 
ENDBRANCH  57  80
ENDBRANCH  31  32
ENDBRANCH  23  26
ENDBRANCH  21  22
ENDBRANCH  20  21
ENDBRANCH  19  20
ENDBRANCH   1  19
TORSDOF 16
ENDMDL
