MODEL 1
REMARK VINA RESULT:     -14.2      0.000      0.000
REMARK SMILES CC(=O)Nc1cc(NC(C)=O)cc(C(=O)Nc2ccc(Br)cc2C(=O)NCCCCNC(=O)c2ccc(-c3c4nc(c(-c5c(F)c(F)c(F)c(F)c5F)c5ccc([nH]5)c(-c5c(F)c(F)c(F)c(F)c5F)c5nc(c(-c6c(F)c(F)c(F)c(F)c6F)c6ccc3[nH]6)C=C5)C=C4)cc2)c1
REMARK SMILES IDX 28 1 27 2 26 3 24 4 25 5 23 7 17 8 18 9 19 10 22 11 20 12
REMARK SMILES IDX 21 13 16 14 14 15 15 16 13 18 5 19 6 20 97 21 7 22 12 23
REMARK SMILES IDX 4 24 1 25 2 26 3 27 8 29 9 30 10 32 11 33 29 34 30 35 31 36
REMARK SMILES IDX 32 37 33 39 34 40 35 41 96 42 36 43 95 44 37 45 38 46 39 47
REMARK SMILES IDX 89 48 40 49 94 50 88 51 90 52 41 53 93 54 87 55 86 56 42 58
REMARK SMILES IDX 74 59 54 60 73 61 55 62 58 63 72 64 91 65 56 66 57 67 71 69
REMARK SMILES IDX 92 70 59 71 43 72 44 73 52 74 45 75 46 76 50 77 53 78 47 79
REMARK SMILES IDX 48 80 51 81 49 82 75 83 76 84 84 85 77 86 78 87 82 88 85 89
REMARK SMILES IDX 79 90 80 91 83 92 81 93 60 94 61 95 69 96 62 97 63 98 67 99
REMARK SMILES IDX 70 100 64 101 65 102 68 103 66 104
REMARK H PARENT 26 6 16 17 4 28 8 31 31 38 90 57 58 68
REMARK Flexibility Score: inf
ROOT
ATOM      1  C   UNL A   1      31.735  30.765  26.117  1.00  0.00     0.023 C 
ENDROOT
BRANCH   1   2
ATOM      2  C   UNL A   1      32.293  29.603  26.924  1.00  0.00     0.116 C 
BRANCH   2   3
ATOM      3  N   UNL A   1      33.160  28.707  26.193  1.00  0.00    -0.352 N 
ATOM      4  C   UNL A   1      32.836  27.783  25.228  1.00  0.00     0.253 C 
ATOM      5  O   UNL A   1      33.749  27.138  24.714  1.00  0.00    -0.269 OA
ATOM      6  H   UNL A   1      34.116  28.768  26.416  1.00  0.00     0.163 HD
BRANCH   4   7
ATOM      7  C   UNL A   1      31.424  27.466  24.863  1.00  0.00     0.064 A 
ATOM      8  C   UNL A   1      30.656  26.361  25.290  1.00  0.00     0.054 A 
ATOM      9  C   UNL A   1      29.436  26.098  24.639  1.00  0.00     0.028 A 
ATOM     10  C   UNL A   1      28.898  26.998  23.718  1.00  0.00     0.018 A 
ATOM     11  C   UNL A   1      30.849  28.389  23.963  1.00  0.00     0.031 A 
ATOM     12  C   UNL A   1      29.588  28.164  23.418  1.00  0.00     0.018 A 
ATOM     13  Br  UNL A   1      28.804  29.451  22.279  1.00  0.00    -0.051 Br
BRANCH   8  14
ATOM     14  N   UNL A   1      30.921  25.492  26.379  1.00  0.00    -0.321 N 
ATOM     15  C   UNL A   1      31.515  24.245  26.446  1.00  0.00     0.255 C 
ATOM     16  O   UNL A   1      31.398  23.577  27.473  1.00  0.00    -0.269 OA
ATOM     17  H   UNL A   1      30.628  25.844  27.250  1.00  0.00     0.170 HD
BRANCH  15  18
ATOM     18  C   UNL A   1      32.332  23.709  25.333  1.00  0.00     0.044 A 
ATOM     19  C   UNL A   1      34.281  22.489  24.613  1.00  0.00     0.044 A 
ATOM     20  C   UNL A   1      34.057  22.959  23.312  1.00  0.00     0.052 A 
ATOM     21  C   UNL A   1      33.352  22.793  25.595  1.00  0.00     0.040 A 
ATOM     22  C   UNL A   1      32.926  23.721  22.990  1.00  0.00     0.044 A 
ATOM     23  C   UNL A   1      32.082  24.133  24.024  1.00  0.00     0.040 A 
BRANCH  19  24
ATOM     24  N   UNL A   1      35.508  21.854  24.871  1.00  0.00    -0.326 N 
ATOM     25  C   UNL A   1      37.038  23.748  25.436  1.00  0.00     0.114 C 
ATOM     26  C   UNL A   1      36.778  22.317  25.062  1.00  0.00     0.221 C 
ATOM     27  O   UNL A   1      37.719  21.524  24.963  1.00  0.00    -0.275 OA
ATOM     28  H   UNL A   1      35.436  20.873  24.927  1.00  0.00     0.169 HD
ENDBRANCH  19  24
BRANCH  22  29
ATOM     29  N   UNL A   1      32.595  24.112  21.673  1.00  0.00    -0.326 N 
ATOM     30  C   UNL A   1      32.957  25.291  21.044  1.00  0.00     0.221 C 
ATOM     31  H   UNL A   1      32.050  23.481  21.149  1.00  0.00     0.169 HD
ATOM     32  C   UNL A   1      32.476  25.385  19.617  1.00  0.00     0.114 C 
ATOM     33  O   UNL A   1      33.624  26.202  21.524  1.00  0.00    -0.275 OA
ENDBRANCH  22  29
ENDBRANCH  15  18
ENDBRANCH   8  14
ENDBRANCH   4   7
ENDBRANCH   2   3
ENDBRANCH   1   2
BRANCH   1  34
ATOM     34  C   UNL A   1      31.480  32.058  26.893  1.00  0.00     0.023 C 
BRANCH  34  35
ATOM     35  C   UNL A   1      32.704  32.882  27.286  1.00  0.00     0.116 C 
BRANCH  35  36
ATOM     36  N   UNL A   1      32.404  34.252  27.673  1.00  0.00    -0.352 N 
ATOM     37  C   UNL A   1      32.968  35.048  28.647  1.00  0.00     0.251 C 
ATOM     38  H   UNL A   1      31.682  34.680  27.157  1.00  0.00     0.163 HD
ATOM     39  O   UNL A   1      32.500  36.148  28.896  1.00  0.00    -0.269 OA
BRANCH  37  40
ATOM     40  C   UNL A   1      34.128  34.552  29.422  1.00  0.00     0.039 A 
ATOM     41  C   UNL A   1      33.911  34.008  30.690  1.00  0.00     0.014 A 
ATOM     42  C   UNL A   1      35.421  34.612  28.900  1.00  0.00     0.014 A 
ATOM     43  C   UNL A   1      34.977  33.440  31.392  1.00  0.00     0.010 A 
ATOM     44  C   UNL A   1      36.464  33.962  29.556  1.00  0.00     0.010 A 
ATOM     45  C   UNL A   1      36.254  33.369  30.810  1.00  0.00    -0.014 A 
BRANCH  45  46
ATOM     46  C   UNL A   1      37.375  32.677  31.501  1.00  0.00     0.031 A 
ATOM     47  C   UNL A   1      38.066  31.509  30.851  1.00  0.00     0.074 A 
ATOM     48  C   UNL A   1      37.733  33.063  32.742  1.00  0.00     0.049 A 
ATOM     49  N   UNL A   1      39.040  30.764  31.309  1.00  0.00    -0.248 NA
ATOM     50  C   UNL A   1      37.574  31.101  29.526  1.00  0.00     0.031 C 
ATOM     51  C   UNL A   1      37.097  34.131  33.513  1.00  0.00     0.029 A 
ATOM     52  N   UNL A   1      38.718  32.594  33.578  1.00  0.00    -0.354 N 
ATOM     53  C   UNL A   1      39.265  29.796  30.338  1.00  0.00     0.074 A 
ATOM     54  C   UNL A   1      38.283  30.006  29.298  1.00  0.00     0.031 C 
ATOM     55  C   UNL A   1      37.727  34.260  34.691  1.00  0.00     0.029 A 
ATOM     56  C   UNL A   1      38.788  33.262  34.776  1.00  0.00     0.049 A 
ATOM     57  H   UNL A   1      39.317  31.850  33.340  1.00  0.00     0.167 HD
ATOM     58  C   UNL A   1      40.223  28.838  30.301  1.00  0.00     0.037 A 
ATOM     59  C   UNL A   1      39.615  33.089  35.825  1.00  0.00     0.037 A 
ATOM     60  C   UNL A   1      41.219  28.651  31.324  1.00  0.00     0.049 A 
ATOM     61  C   UNL A   1      40.684  32.033  35.752  1.00  0.00     0.074 A 
ATOM     62  C   UNL A   1      42.276  27.758  31.345  1.00  0.00     0.029 A 
ATOM     63  N   UNL A   1      41.277  29.366  32.511  1.00  0.00    -0.354 N 
ATOM     64  N   UNL A   1      40.945  31.183  34.788  1.00  0.00    -0.248 NA
ATOM     65  C   UNL A   1      41.585  31.921  36.907  1.00  0.00     0.031 C 
ATOM     66  C   UNL A   1      42.941  27.897  32.567  1.00  0.00     0.029 A 
ATOM     67  C   UNL A   1      42.337  28.918  33.282  1.00  0.00     0.049 A 
ATOM     68  H   UNL A   1      40.657  30.087  32.767  1.00  0.00     0.167 HD
ATOM     69  C   UNL A   1      42.052  30.458  35.205  1.00  0.00     0.074 A 
ATOM     70  C   UNL A   1      42.427  30.981  36.503  1.00  0.00     0.031 C 
ATOM     71  C   UNL A   1      42.701  29.450  34.571  1.00  0.00     0.037 A 
BRANCH  58  72
ATOM     72  C   UNL A   1      40.241  27.920  29.112  1.00  0.00     0.064 A 
ATOM     73  C   UNL A   1      39.519  26.715  29.096  1.00  0.00     0.173 A 
ATOM     74  C   UNL A   1      40.966  28.262  27.960  1.00  0.00     0.173 A 
ATOM     75  F   UNL A   1      38.818  26.335  30.175  1.00  0.00    -0.203 F 
ATOM     76  C   UNL A   1      39.552  25.873  27.989  1.00  0.00     0.198 A 
ATOM     77  C   UNL A   1      40.968  27.433  26.840  1.00  0.00     0.198 A 
ATOM     78  F   UNL A   1      41.669  29.403  27.916  1.00  0.00    -0.203 F 
ATOM     79  F   UNL A   1      38.904  24.699  28.022  1.00  0.00    -0.200 F 
ATOM     80  C   UNL A   1      40.271  26.235  26.860  1.00  0.00     0.200 A 
ATOM     81  F   UNL A   1      41.652  27.790  25.745  1.00  0.00    -0.200 F 
ATOM     82  F   UNL A   1      40.298  25.424  25.792  1.00  0.00    -0.200 F 
ENDBRANCH  58  72
BRANCH  59  83
ATOM     83  C   UNL A   1      39.487  33.962  37.023  1.00  0.00     0.064 A 
ATOM     84  C   UNL A   1      38.759  33.546  38.146  1.00  0.00     0.173 A 
ATOM     85  C   UNL A   1      40.086  35.230  37.068  1.00  0.00     0.173 A 
ATOM     86  F   UNL A   1      38.151  32.350  38.144  1.00  0.00    -0.203 F 
ATOM     87  C   UNL A   1      38.613  34.372  39.258  1.00  0.00     0.198 A 
ATOM     88  C   UNL A   1      39.966  36.043  38.194  1.00  0.00     0.198 A 
ATOM     89  F   UNL A   1      40.800  35.673  36.024  1.00  0.00    -0.203 F 
ATOM     90  F   UNL A   1      37.871  33.969  40.298  1.00  0.00    -0.200 F 
ATOM     91  C   UNL A   1      39.223  35.617  39.285  1.00  0.00     0.200 A 
ATOM     92  F   UNL A   1      40.571  37.238  38.221  1.00  0.00    -0.200 F 
ATOM     93  F   UNL A   1      39.088  36.410  40.357  1.00  0.00    -0.200 F 
ENDBRANCH  59  83
BRANCH  71  94
ATOM     94  C   UNL A   1      43.907  28.869  35.256  1.00  0.00     0.064 A 
ATOM     95  C   UNL A   1      45.193  29.390  35.056  1.00  0.00     0.173 A 
ATOM     96  C   UNL A   1      43.765  27.794  36.146  1.00  0.00     0.173 A 
ATOM     97  F   UNL A   1      45.386  30.409  34.205  1.00  0.00    -0.203 F 
ATOM     98  C   UNL A   1      46.299  28.831  35.694  1.00  0.00     0.198 A 
ATOM     99  C   UNL A   1      44.867  27.262  36.809  1.00  0.00     0.198 A 
ATOM    100  F   UNL A   1      42.555  27.263  36.380  1.00  0.00    -0.203 F 
ATOM    101  F   UNL A   1      47.526  29.308  35.442  1.00  0.00    -0.200 F 
ATOM    102  C   UNL A   1      46.134  27.774  36.575  1.00  0.00     0.200 A 
ATOM    103  F   UNL A   1      44.704  26.249  37.673  1.00  0.00    -0.200 F 
ATOM    104  F   UNL A   1      47.198  27.242  37.192  1.00  0.00    -0.200 F 
ENDBRANCH  71  94
ENDBRANCH  45  46
ENDBRANCH  37  40
ENDBRANCH  35  36
ENDBRANCH  34  35
ENDBRANCH   1  34
TORSDOF 15
ENDMDL
MODEL 2
REMARK VINA RESULT:     -14.2      5.597     11.032
REMARK SMILES CC(=O)Nc1cc(NC(C)=O)cc(C(=O)Nc2ccc(Br)cc2C(=O)NCCCCNC(=O)c2ccc(-c3c4nc(c(-c5c(F)c(F)c(F)c(F)c5F)c5ccc([nH]5)c(-c5c(F)c(F)c(F)c(F)c5F)c5nc(c(-c6c(F)c(F)c(F)c(F)c6F)c6ccc3[nH]6)C=C5)C=C4)cc2)c1
REMARK SMILES IDX 28 1 27 2 26 3 24 4 25 5 23 7 17 8 18 9 19 10 22 11 20 12
REMARK SMILES IDX 21 13 16 14 14 15 15 16 13 18 5 19 6 20 97 21 7 22 12 23
REMARK SMILES IDX 4 24 1 25 2 26 3 27 8 29 9 30 10 32 11 33 29 34 30 35 31 36
REMARK SMILES IDX 32 37 33 39 34 40 35 41 96 42 36 43 95 44 37 45 38 46 39 47
REMARK SMILES IDX 89 48 40 49 94 50 88 51 90 52 41 53 93 54 87 55 86 56 42 58
REMARK SMILES IDX 74 59 54 60 73 61 55 62 58 63 72 64 91 65 56 66 57 67 71 69
REMARK SMILES IDX 92 70 59 71 43 72 44 73 52 74 45 75 46 76 50 77 53 78 47 79
REMARK SMILES IDX 48 80 51 81 49 82 75 83 76 84 84 85 77 86 78 87 82 88 85 89
REMARK SMILES IDX 79 90 80 91 83 92 81 93 60 94 61 95 69 96 62 97 63 98 67 99
REMARK SMILES IDX 70 100 64 101 65 102 68 103 66 104
REMARK H PARENT 26 6 16 17 4 28 8 31 31 38 90 57 58 68
REMARK Flexibility Score: inf
ROOT
ATOM      1  C   UNL A   1      37.032  20.369  25.026  1.00  0.00     0.023 C 
ENDROOT
BRANCH   1   2
ATOM      2  C   UNL A   1      37.036  21.865  24.756  1.00  0.00     0.116 C 
BRANCH   2   3
ATOM      3  N   UNL A   1      36.177  22.647  25.615  1.00  0.00    -0.352 N 
ATOM      4  C   UNL A   1      34.814  22.816  25.556  1.00  0.00     0.253 C 
ATOM      5  O   UNL A   1      34.278  23.514  26.417  1.00  0.00    -0.269 OA
ATOM      6  H   UNL A   1      36.630  23.124  26.347  1.00  0.00     0.163 HD
BRANCH   4   7
ATOM      7  C   UNL A   1      33.986  22.275  24.438  1.00  0.00     0.064 A 
ATOM      8  C   UNL A   1      33.537  22.966  23.291  1.00  0.00     0.054 A 
ATOM      9  C   UNL A   1      32.559  22.360  22.481  1.00  0.00     0.028 A 
ATOM     10  C   UNL A   1      32.165  21.037  22.689  1.00  0.00     0.018 A 
ATOM     11  C   UNL A   1      33.612  20.924  24.611  1.00  0.00     0.031 A 
ATOM     12  C   UNL A   1      32.729  20.310  23.728  1.00  0.00     0.018 A 
ATOM     13  Br  UNL A   1      32.304  18.481  23.931  1.00  0.00    -0.051 Br
BRANCH   8  14
ATOM     14  N   UNL A   1      34.013  24.201  22.785  1.00  0.00    -0.321 N 
ATOM     15  C   UNL A   1      33.426  25.451  22.689  1.00  0.00     0.255 C 
ATOM     16  O   UNL A   1      33.947  26.306  21.974  1.00  0.00    -0.269 OA
ATOM     17  H   UNL A   1      34.933  24.163  22.438  1.00  0.00     0.170 HD
BRANCH  15  18
ATOM     18  C   UNL A   1      32.215  25.806  23.464  1.00  0.00     0.044 A 
ATOM     19  C   UNL A   1      30.831  25.440  25.400  1.00  0.00     0.044 A 
ATOM     20  C   UNL A   1      29.824  26.198  24.787  1.00  0.00     0.052 A 
ATOM     21  C   UNL A   1      32.059  25.336  24.768  1.00  0.00     0.040 A 
ATOM     22  C   UNL A   1      30.034  26.843  23.561  1.00  0.00     0.044 A 
ATOM     23  C   UNL A   1      31.228  26.605  22.877  1.00  0.00     0.040 A 
BRANCH  19  24
ATOM     24  N   UNL A   1      30.485  24.718  26.556  1.00  0.00    -0.326 N 
ATOM     25  C   UNL A   1      30.578  22.336  25.804  1.00  0.00     0.114 C 
ATOM     26  C   UNL A   1      30.185  23.406  26.782  1.00  0.00     0.221 C 
ATOM     27  O   UNL A   1      29.618  23.101  27.835  1.00  0.00    -0.275 OA
ATOM     28  H   UNL A   1      30.454  25.272  27.369  1.00  0.00     0.169 HD
ENDBRANCH  19  24
BRANCH  22  29
ATOM     29  N   UNL A   1      29.095  27.715  22.965  1.00  0.00    -0.326 N 
ATOM     30  C   UNL A   1      29.072  29.097  23.063  1.00  0.00     0.221 C 
ATOM     31  H   UNL A   1      28.385  27.299  22.426  1.00  0.00     0.169 HD
ATOM     32  C   UNL A   1      27.959  29.738  22.273  1.00  0.00     0.114 C 
ATOM     33  O   UNL A   1      29.861  29.799  23.688  1.00  0.00    -0.275 OA
ENDBRANCH  22  29
ENDBRANCH  15  18
ENDBRANCH   8  14
ENDBRANCH   4   7
ENDBRANCH   2   3
ENDBRANCH   1   2
BRANCH   1  34
ATOM     34  C   UNL A   1      38.361  19.645  24.804  1.00  0.00     0.023 C 
BRANCH  34  35
ATOM     35  C   UNL A   1      39.499  19.978  25.765  1.00  0.00     0.116 C 
BRANCH  35  36
ATOM     36  N   UNL A   1      40.510  18.936  25.880  1.00  0.00    -0.352 N 
ATOM     37  C   UNL A   1      41.863  19.029  26.127  1.00  0.00     0.251 C 
ATOM     38  H   UNL A   1      40.172  18.019  25.763  1.00  0.00     0.163 HD
ATOM     39  O   UNL A   1      42.570  18.036  26.078  1.00  0.00    -0.269 OA
BRANCH  37  40
ATOM     40  C   UNL A   1      42.469  20.347  26.419  1.00  0.00     0.039 A 
ATOM     41  C   UNL A   1      43.109  21.040  25.389  1.00  0.00     0.014 A 
ATOM     42  C   UNL A   1      42.398  20.906  27.697  1.00  0.00     0.014 A 
ATOM     43  C   UNL A   1      43.595  22.330  25.619  1.00  0.00     0.010 A 
ATOM     44  C   UNL A   1      42.795  22.225  27.900  1.00  0.00     0.010 A 
ATOM     45  C   UNL A   1      43.399  22.952  26.863  1.00  0.00    -0.014 A 
BRANCH  45  46
ATOM     46  C   UNL A   1      43.819  24.361  27.091  1.00  0.00     0.031 A 
ATOM     47  C   UNL A   1      42.831  25.379  27.594  1.00  0.00     0.074 A 
ATOM     48  C   UNL A   1      45.077  24.740  26.787  1.00  0.00     0.049 A 
ATOM     49  N   UNL A   1      43.003  26.656  27.826  1.00  0.00    -0.248 NA
ATOM     50  C   UNL A   1      41.458  24.907  27.836  1.00  0.00     0.031 C 
ATOM     51  C   UNL A   1      46.110  23.870  26.225  1.00  0.00     0.029 A 
ATOM     52  N   UNL A   1      45.699  25.959  26.905  1.00  0.00    -0.354 N 
ATOM     53  C   UNL A   1      41.764  27.139  28.224  1.00  0.00     0.074 A 
ATOM     54  C   UNL A   1      40.833  26.035  28.140  1.00  0.00     0.031 C 
ATOM     55  C   UNL A   1      47.245  24.572  26.077  1.00  0.00     0.029 A 
ATOM     56  C   UNL A   1      47.012  25.949  26.501  1.00  0.00     0.049 A 
ATOM     57  H   UNL A   1      45.247  26.764  27.246  1.00  0.00     0.167 HD
ATOM     58  C   UNL A   1      41.435  28.382  28.653  1.00  0.00     0.037 A 
ATOM     59  C   UNL A   1      47.926  26.937  26.476  1.00  0.00     0.037 A 
ATOM     60  C   UNL A   1      42.370  29.471  28.765  1.00  0.00     0.049 A 
ATOM     61  C   UNL A   1      47.544  28.304  26.976  1.00  0.00     0.074 A 
ATOM     62  C   UNL A   1      42.153  30.746  29.258  1.00  0.00     0.029 A 
ATOM     63  N   UNL A   1      43.699  29.415  28.375  1.00  0.00    -0.354 N 
ATOM     64  N   UNL A   1      46.391  28.725  27.437  1.00  0.00    -0.248 NA
ATOM     65  C   UNL A   1      48.594  29.331  26.967  1.00  0.00     0.031 C 
ATOM     66  C   UNL A   1      43.336  31.477  29.116  1.00  0.00     0.029 A 
ATOM     67  C   UNL A   1      44.309  30.641  28.592  1.00  0.00     0.049 A 
ATOM     68  H   UNL A   1      44.145  28.621  28.000  1.00  0.00     0.167 HD
ATOM     69  C   UNL A   1      46.583  30.052  27.799  1.00  0.00     0.074 A 
ATOM     70  C   UNL A   1      47.971  30.360  27.522  1.00  0.00     0.031 C 
ATOM     71  C   UNL A   1      45.692  30.934  28.315  1.00  0.00     0.037 A 
BRANCH  58  72
ATOM     72  C   UNL A   1      40.003  28.628  29.035  1.00  0.00     0.064 A 
ATOM     73  C   UNL A   1      39.533  28.386  30.336  1.00  0.00     0.173 A 
ATOM     74  C   UNL A   1      39.094  29.140  28.097  1.00  0.00     0.173 A 
ATOM     75  F   UNL A   1      40.356  27.886  31.269  1.00  0.00    -0.203 F 
ATOM     76  C   UNL A   1      38.201  28.613  30.672  1.00  0.00     0.198 A 
ATOM     77  C   UNL A   1      37.771  29.399  28.446  1.00  0.00     0.198 A 
ATOM     78  F   UNL A   1      39.489  29.395  26.840  1.00  0.00    -0.203 F 
ATOM     79  F   UNL A   1      37.763  28.317  31.904  1.00  0.00    -0.200 F 
ATOM     80  C   UNL A   1      37.323  29.125  29.729  1.00  0.00     0.200 A 
ATOM     81  F   UNL A   1      36.927  29.906  27.537  1.00  0.00    -0.200 F 
ATOM     82  F   UNL A   1      36.042  29.347  30.055  1.00  0.00    -0.200 F 
ENDBRANCH  58  72
BRANCH  59  83
ATOM     83  C   UNL A   1      49.305  26.662  25.991  1.00  0.00     0.064 A 
ATOM     84  C   UNL A   1      49.686  26.976  24.678  1.00  0.00     0.173 A 
ATOM     85  C   UNL A   1      50.269  26.077  26.826  1.00  0.00     0.173 A 
ATOM     86  F   UNL A   1      48.795  27.519  23.835  1.00  0.00    -0.203 F 
ATOM     87  C   UNL A   1      50.968  26.694  24.212  1.00  0.00     0.198 A 
ATOM     88  C   UNL A   1      51.560  25.824  26.368  1.00  0.00     0.198 A 
ATOM     89  F   UNL A   1      49.959  25.764  28.092  1.00  0.00    -0.203 F 
ATOM     90  F   UNL A   1      51.289  26.959  22.939  1.00  0.00    -0.200 F 
ATOM     91  C   UNL A   1      51.907  26.124  25.059  1.00  0.00     0.200 A 
ATOM     92  F   UNL A   1      52.469  25.289  27.195  1.00  0.00    -0.200 F 
ATOM     93  F   UNL A   1      53.142  25.858  24.613  1.00  0.00    -0.200 F 
ENDBRANCH  59  83
BRANCH  71  94
ATOM     94  C   UNL A   1      46.199  32.309  28.647  1.00  0.00     0.064 A 
ATOM     95  C   UNL A   1      46.150  33.360  27.718  1.00  0.00     0.173 A 
ATOM     96  C   UNL A   1      46.715  32.585  29.922  1.00  0.00     0.173 A 
ATOM     97  F   UNL A   1      45.678  33.147  26.481  1.00  0.00    -0.203 F 
ATOM     98  C   UNL A   1      46.632  34.626  28.044  1.00  0.00     0.198 A 
ATOM     99  C   UNL A   1      47.162  33.860  30.255  1.00  0.00     0.198 A 
ATOM    100  F   UNL A   1      46.777  31.619  30.851  1.00  0.00    -0.203 F 
ATOM    101  F   UNL A   1      46.628  35.598  27.122  1.00  0.00    -0.200 F 
ATOM    102  C   UNL A   1      47.130  34.876  29.313  1.00  0.00     0.200 A 
ATOM    103  F   UNL A   1      47.629  34.105  31.488  1.00  0.00    -0.200 F 
ATOM    104  F   UNL A   1      47.589  36.097  29.626  1.00  0.00    -0.200 F 
ENDBRANCH  71  94
ENDBRANCH  45  46
ENDBRANCH  37  40
ENDBRANCH  35  36
ENDBRANCH  34  35
ENDBRANCH   1  34
TORSDOF 15
ENDMDL
MODEL 3
REMARK VINA RESULT:     -14.0      0.942      2.533
REMARK SMILES CC(=O)Nc1cc(NC(C)=O)cc(C(=O)Nc2ccc(Br)cc2C(=O)NCCCCNC(=O)c2ccc(-c3c4nc(c(-c5c(F)c(F)c(F)c(F)c5F)c5ccc([nH]5)c(-c5c(F)c(F)c(F)c(F)c5F)c5nc(c(-c6c(F)c(F)c(F)c(F)c6F)c6ccc3[nH]6)C=C5)C=C4)cc2)c1
REMARK SMILES IDX 28 1 27 2 26 3 24 4 25 5 23 7 17 8 18 9 19 10 22 11 20 12
REMARK SMILES IDX 21 13 16 14 14 15 15 16 13 18 5 19 6 20 97 21 7 22 12 23
REMARK SMILES IDX 4 24 1 25 2 26 3 27 8 29 9 30 10 32 11 33 29 34 30 35 31 36
REMARK SMILES IDX 32 37 33 39 34 40 35 41 96 42 36 43 95 44 37 45 38 46 39 47
REMARK SMILES IDX 89 48 40 49 94 50 88 51 90 52 41 53 93 54 87 55 86 56 42 58
REMARK SMILES IDX 74 59 54 60 73 61 55 62 58 63 72 64 91 65 56 66 57 67 71 69
REMARK SMILES IDX 92 70 59 71 43 72 44 73 52 74 45 75 46 76 50 77 53 78 47 79
REMARK SMILES IDX 48 80 51 81 49 82 75 83 76 84 84 85 77 86 78 87 82 88 85 89
REMARK SMILES IDX 79 90 80 91 83 92 81 93 60 94 61 95 69 96 62 97 63 98 67 99
REMARK SMILES IDX 70 100 64 101 65 102 68 103 66 104
REMARK H PARENT 26 6 16 17 4 28 8 31 31 38 90 57 58 68
REMARK Flexibility Score: inf
ROOT
ATOM      1  C   UNL A   1      31.653  30.895  26.121  1.00  0.00     0.023 C 
ENDROOT
BRANCH   1   2
ATOM      2  C   UNL A   1      32.274  29.717  26.855  1.00  0.00     0.116 C 
BRANCH   2   3
ATOM      3  N   UNL A   1      33.139  28.881  26.054  1.00  0.00    -0.352 N 
ATOM      4  C   UNL A   1      32.804  27.941  25.109  1.00  0.00     0.253 C 
ATOM      5  O   UNL A   1      33.716  27.357  24.522  1.00  0.00    -0.269 OA
ATOM      6  H   UNL A   1      34.104  29.002  26.206  1.00  0.00     0.163 HD
BRANCH   4   7
ATOM      7  C   UNL A   1      31.392  27.535  24.847  1.00  0.00     0.064 A 
ATOM      8  C   UNL A   1      30.718  26.401  25.351  1.00  0.00     0.054 A 
ATOM      9  C   UNL A   1      29.476  26.052  24.790  1.00  0.00     0.028 A 
ATOM     10  C   UNL A   1      28.828  26.895  23.886  1.00  0.00     0.018 A 
ATOM     11  C   UNL A   1      30.707  28.399  23.965  1.00  0.00     0.031 A 
ATOM     12  C   UNL A   1      29.428  28.089  23.512  1.00  0.00     0.018 A 
ATOM     13  Br  UNL A   1      28.498  29.298  22.397  1.00  0.00    -0.051 Br
BRANCH   8  14
ATOM     14  N   UNL A   1      31.104  25.580  26.440  1.00  0.00    -0.321 N 
ATOM     15  C   UNL A   1      31.577  24.282  26.500  1.00  0.00     0.255 C 
ATOM     16  O   UNL A   1      31.597  23.697  27.582  1.00  0.00    -0.269 OA
ATOM     17  H   UNL A   1      31.019  26.016  27.319  1.00  0.00     0.170 HD
BRANCH  15  18
ATOM     18  C   UNL A   1      32.110  23.590  25.303  1.00  0.00     0.044 A 
ATOM     19  C   UNL A   1      33.060  23.736  23.095  1.00  0.00     0.044 A 
ATOM     20  C   UNL A   1      32.819  22.365  22.933  1.00  0.00     0.052 A 
ATOM     21  C   UNL A   1      32.791  24.315  24.324  1.00  0.00     0.040 A 
ATOM     22  C   UNL A   1      32.317  21.579  23.978  1.00  0.00     0.044 A 
ATOM     23  C   UNL A   1      31.920  22.211  25.159  1.00  0.00     0.040 A 
BRANCH  19  24
ATOM     24  N   UNL A   1      33.431  24.468  21.953  1.00  0.00    -0.326 N 
ATOM     25  C   UNL A   1      31.470  25.967  21.559  1.00  0.00     0.114 C 
ATOM     26  C   UNL A   1      32.753  25.317  21.127  1.00  0.00     0.221 C 
ATOM     27  O   UNL A   1      33.237  25.580  20.022  1.00  0.00    -0.275 OA
ATOM     28  H   UNL A   1      34.374  24.344  21.698  1.00  0.00     0.169 HD
ENDBRANCH  19  24
BRANCH  22  29
ATOM     29  N   UNL A   1      32.175  20.175  23.903  1.00  0.00    -0.326 N 
ATOM     30  C   UNL A   1      33.136  19.229  24.216  1.00  0.00     0.221 C 
ATOM     31  H   UNL A   1      31.303  19.835  23.595  1.00  0.00     0.169 HD
ATOM     32  C   UNL A   1      32.652  17.807  24.067  1.00  0.00     0.114 C 
ATOM     33  O   UNL A   1      34.277  19.447  24.609  1.00  0.00    -0.275 OA
ENDBRANCH  22  29
ENDBRANCH  15  18
ENDBRANCH   8  14
ENDBRANCH   4   7
ENDBRANCH   2   3
ENDBRANCH   1   2
BRANCH   1  34
ATOM     34  C   UNL A   1      31.425  32.158  26.952  1.00  0.00     0.023 C 
BRANCH  34  35
ATOM     35  C   UNL A   1      32.662  32.967  27.333  1.00  0.00     0.116 C 
BRANCH  35  36
ATOM     36  N   UNL A   1      32.383  34.346  27.710  1.00  0.00    -0.352 N 
ATOM     37  C   UNL A   1      32.970  35.146  28.667  1.00  0.00     0.251 C 
ATOM     38  H   UNL A   1      31.659  34.775  27.199  1.00  0.00     0.163 HD
ATOM     39  O   UNL A   1      32.518  36.253  28.910  1.00  0.00    -0.269 OA
BRANCH  37  40
ATOM     40  C   UNL A   1      34.135  34.645  29.431  1.00  0.00     0.039 A 
ATOM     41  C   UNL A   1      33.932  34.136  30.716  1.00  0.00     0.014 A 
ATOM     42  C   UNL A   1      35.419  34.665  28.882  1.00  0.00     0.014 A 
ATOM     43  C   UNL A   1      35.001  33.564  31.411  1.00  0.00     0.010 A 
ATOM     44  C   UNL A   1      36.461  34.010  29.534  1.00  0.00     0.010 A 
ATOM     45  C   UNL A   1      36.265  33.452  30.806  1.00  0.00    -0.014 A 
BRANCH  45  46
ATOM     46  C   UNL A   1      37.385  32.754  31.492  1.00  0.00     0.031 A 
ATOM     47  C   UNL A   1      38.075  31.590  30.834  1.00  0.00     0.074 A 
ATOM     48  C   UNL A   1      37.743  33.130  32.736  1.00  0.00     0.049 A 
ATOM     49  N   UNL A   1      39.048  30.841  31.286  1.00  0.00    -0.248 NA
ATOM     50  C   UNL A   1      37.582  31.192  29.505  1.00  0.00     0.031 C 
ATOM     51  C   UNL A   1      37.108  34.194  33.514  1.00  0.00     0.029 A 
ATOM     52  N   UNL A   1      38.727  32.655  33.568  1.00  0.00    -0.354 N 
ATOM     53  C   UNL A   1      39.272  29.880  30.308  1.00  0.00     0.074 A 
ATOM     54  C   UNL A   1      38.291  30.098  29.269  1.00  0.00     0.031 C 
ATOM     55  C   UNL A   1      37.738  34.314  34.694  1.00  0.00     0.029 A 
ATOM     56  C   UNL A   1      38.798  33.313  34.772  1.00  0.00     0.049 A 
ATOM     57  H   UNL A   1      39.326  31.912  33.325  1.00  0.00     0.167 HD
ATOM     58  C   UNL A   1      40.230  28.922  30.264  1.00  0.00     0.037 A 
ATOM     59  C   UNL A   1      39.625  33.133  35.819  1.00  0.00     0.037 A 
ATOM     60  C   UNL A   1      41.225  28.726  31.285  1.00  0.00     0.049 A 
ATOM     61  C   UNL A   1      40.693  32.076  35.738  1.00  0.00     0.074 A 
ATOM     62  C   UNL A   1      42.282  27.833  31.300  1.00  0.00     0.029 A 
ATOM     63  N   UNL A   1      41.284  29.433  32.478  1.00  0.00    -0.354 N 
ATOM     64  N   UNL A   1      40.953  31.233  34.768  1.00  0.00    -0.248 NA
ATOM     65  C   UNL A   1      41.594  31.955  36.893  1.00  0.00     0.031 C 
ATOM     66  C   UNL A   1      42.947  27.962  32.523  1.00  0.00     0.029 A 
ATOM     67  C   UNL A   1      42.344  28.978  33.246  1.00  0.00     0.049 A 
ATOM     68  H   UNL A   1      40.664  30.152  32.739  1.00  0.00     0.167 HD
ATOM     69  C   UNL A   1      42.060  30.504  35.180  1.00  0.00     0.074 A 
ATOM     70  C   UNL A   1      42.435  31.017  36.481  1.00  0.00     0.031 C 
ATOM     71  C   UNL A   1      42.708  29.500  34.539  1.00  0.00     0.037 A 
BRANCH  58  72
ATOM     72  C   UNL A   1      40.247  28.013  29.068  1.00  0.00     0.064 A 
ATOM     73  C   UNL A   1      40.982  28.324  27.912  1.00  0.00     0.173 A 
ATOM     74  C   UNL A   1      39.542  26.799  29.086  1.00  0.00     0.173 A 
ATOM     75  F   UNL A   1      41.664  29.477  27.837  1.00  0.00    -0.203 F 
ATOM     76  C   UNL A   1      40.981  27.475  26.810  1.00  0.00     0.198 A 
ATOM     77  C   UNL A   1      39.572  25.935  27.994  1.00  0.00     0.198 A 
ATOM     78  F   UNL A   1      38.827  26.448  30.165  1.00  0.00    -0.203 F 
ATOM     79  F   UNL A   1      41.642  27.824  25.696  1.00  0.00    -0.200 F 
ATOM     80  C   UNL A   1      40.282  26.278  26.854  1.00  0.00     0.200 A 
ATOM     81  F   UNL A   1      38.907  24.773  28.043  1.00  0.00    -0.200 F 
ATOM     82  F   UNL A   1      40.286  25.458  25.793  1.00  0.00    -0.200 F 
ENDBRANCH  58  72
BRANCH  59  83
ATOM     83  C   UNL A   1      39.498  33.997  37.024  1.00  0.00     0.064 A 
ATOM     84  C   UNL A   1      38.778  33.568  38.148  1.00  0.00     0.173 A 
ATOM     85  C   UNL A   1      40.087  35.269  37.074  1.00  0.00     0.173 A 
ATOM     86  F   UNL A   1      38.179  32.368  38.141  1.00  0.00    -0.203 F 
ATOM     87  C   UNL A   1      38.633  34.386  39.267  1.00  0.00     0.198 A 
ATOM     88  C   UNL A   1      39.968  36.073  38.206  1.00  0.00     0.198 A 
ATOM     89  F   UNL A   1      40.792  35.724  36.029  1.00  0.00    -0.203 F 
ATOM     90  F   UNL A   1      37.899  33.970  40.307  1.00  0.00    -0.200 F 
ATOM     91  C   UNL A   1      39.234  35.635  39.298  1.00  0.00     0.200 A 
ATOM     92  F   UNL A   1      40.565  37.272  38.237  1.00  0.00    -0.200 F 
ATOM     93  F   UNL A   1      39.100  36.420  40.376  1.00  0.00    -0.200 F 
ENDBRANCH  59  83
BRANCH  71  94
ATOM     94  C   UNL A   1      43.913  28.913  35.219  1.00  0.00     0.064 A 
ATOM     95  C   UNL A   1      43.809  27.827  36.100  1.00  0.00     0.173 A 
ATOM     96  C   UNL A   1      45.192  29.430  34.963  1.00  0.00     0.173 A 
ATOM     97  F   UNL A   1      42.608  27.304  36.389  1.00  0.00    -0.203 F 
ATOM     98  C   UNL A   1      44.938  27.302  36.726  1.00  0.00     0.198 A 
ATOM     99  C   UNL A   1      46.321  28.880  35.563  1.00  0.00     0.198 A 
ATOM    100  F   UNL A   1      45.350  30.463  34.121  1.00  0.00    -0.203 F 
ATOM    101  F   UNL A   1      44.807  26.302  37.609  1.00  0.00    -0.200 F 
ATOM    102  C   UNL A   1      46.192  27.824  36.451  1.00  0.00     0.200 A 
ATOM    103  F   UNL A   1      47.536  29.376  35.284  1.00  0.00    -0.200 F 
ATOM    104  F   UNL A   1      47.278  27.314  37.051  1.00  0.00    -0.200 F 
ENDBRANCH  71  94
ENDBRANCH  45  46
ENDBRANCH  37  40
ENDBRANCH  35  36
ENDBRANCH  34  35
ENDBRANCH   1  34
TORSDOF 15
ENDMDL
