MODEL 1
REMARK VINA RESULT:     -12.6      0.000      0.000
REMARK SMILES Cc1ccc(C)c([C@@H](C)[C@](C)(O)C(=O)NCCCCNC(=O)c2ccc(-c3c4nc(c(-c5c(F)c(F)c(F)c(F)c5F)c5ccc([nH]5)c(-c5c(F)c(F)c(F)c(F)c5F)c5nc(c(-c6c(F)c(F)c(F)c(F)c6F)c6ccc3[nH]6)C=C5)C=C4)cc2)c1
REMARK SMILES IDX 17 1 16 2 15 3 13 4 14 5 10 7 11 8 8 9 9 10 7 11 1 12 2 13
REMARK SMILES IDX 3 14 86 15 4 16 5 17 6 18 12 19 18 21 19 22 20 23 21 24
REMARK SMILES IDX 22 26 23 27 24 28 85 29 25 30 84 31 26 32 27 33 28 34 78 35
REMARK SMILES IDX 29 36 83 37 77 38 79 39 30 40 82 41 76 42 75 43 31 45 63 46
REMARK SMILES IDX 43 47 62 48 44 49 47 50 61 51 80 52 45 53 46 54 60 56 81 57
REMARK SMILES IDX 48 58 32 59 33 60 41 61 34 62 35 63 39 64 42 65 36 66 37 67
REMARK SMILES IDX 40 68 38 69 64 70 65 71 73 72 66 73 67 74 71 75 74 76 68 77
REMARK SMILES IDX 69 78 72 79 70 80 49 81 50 82 58 83 51 84 52 85 56 86 59 87
REMARK SMILES IDX 53 88 54 89 57 90 55 91
REMARK H PARENT 15 6 12 20 20 25 79 44 47 55
REMARK Flexibility Score: inf
ROOT
ATOM      1  C   UNL A   1      35.659  20.786  25.214  1.00  0.00     0.023 C 
ENDROOT
BRANCH   1   2
ATOM      2  C   UNL A   1      34.151  20.554  25.346  1.00  0.00     0.116 C 
BRANCH   2   3
ATOM      3  N   UNL A   1      33.393  20.756  24.127  1.00  0.00    -0.354 N 
ATOM      4  C   UNL A   1      32.382  21.626  23.817  1.00  0.00     0.252 C 
ATOM      5  O   UNL A   1      32.029  21.620  22.627  1.00  0.00    -0.272 OA
ATOM      6  H   UNL A   1      33.651  20.159  23.387  1.00  0.00     0.163 HD
BRANCH   4   7
ATOM      7  C   UNL A   1      31.689  22.600  24.860  1.00  0.00     0.146 C 
ATOM      8  C   UNL A   1      30.681  23.459  24.071  1.00  0.00     0.053 C 
BRANCH   7   9
ATOM      9  C   UNL A   1      32.654  23.473  25.758  1.00  0.00     0.057 C 
ATOM     10  C   UNL A   1      32.609  23.313  27.280  1.00  0.00     0.016 C 
BRANCH   9  11
ATOM     11  C   UNL A   1      32.716  24.934  25.357  1.00  0.00    -0.039 A 
ATOM     12  C   UNL A   1      31.768  27.845  27.522  1.00  0.00     0.044 C 
ATOM     13  C   UNL A   1      32.423  27.078  26.420  1.00  0.00    -0.051 A 
ATOM     14  C   UNL A   1      33.490  27.564  25.659  1.00  0.00     0.004 A 
ATOM     15  C   UNL A   1      31.997  25.781  26.206  1.00  0.00     0.007 A 
ATOM     16  C   UNL A   1      34.026  26.803  24.623  1.00  0.00     0.004 A 
ATOM     17  C   UNL A   1      33.629  25.478  24.438  1.00  0.00    -0.048 A 
ATOM     18  C   UNL A   1      34.183  24.737  23.258  1.00  0.00     0.044 C 
ENDBRANCH   9  11
ENDBRANCH   7   9
BRANCH   7  19
ATOM     19  O   UNL A   1      30.885  21.791  25.751  1.00  0.00    -0.380 OA
ATOM     20  H   UNL A   1      31.450  21.140  26.194  1.00  0.00     0.212 HD
ENDBRANCH   7  19
ENDBRANCH   4   7
ENDBRANCH   2   3
ENDBRANCH   1   2
BRANCH   1  21
ATOM     21  C   UNL A   1      36.174  22.197  25.546  1.00  0.00     0.023 C 
BRANCH  21  22
ATOM     22  C   UNL A   1      37.661  22.492  25.310  1.00  0.00     0.116 C 
BRANCH  22  23
ATOM     23  N   UNL A   1      38.601  21.748  26.146  1.00  0.00    -0.352 N 
ATOM     24  C   UNL A   1      39.726  22.169  26.858  1.00  0.00     0.251 C 
ATOM     25  H   UNL A   1      38.408  20.786  26.220  1.00  0.00     0.163 HD
ATOM     26  O   UNL A   1      40.402  21.360  27.454  1.00  0.00    -0.269 OA
BRANCH  24  27
ATOM     27  C   UNL A   1      40.043  23.625  26.983  1.00  0.00     0.039 A 
ATOM     28  C   UNL A   1      41.354  24.021  27.306  1.00  0.00     0.014 A 
ATOM     29  C   UNL A   1      39.038  24.575  26.967  1.00  0.00     0.014 A 
ATOM     30  C   UNL A   1      41.601  25.305  27.828  1.00  0.00     0.010 A 
ATOM     31  C   UNL A   1      39.268  25.808  27.559  1.00  0.00     0.010 A 
ATOM     32  C   UNL A   1      40.532  26.172  28.055  1.00  0.00    -0.014 A 
BRANCH  32  33
ATOM     33  C   UNL A   1      40.661  27.507  28.670  1.00  0.00     0.031 A 
ATOM     34  C   UNL A   1      41.710  28.350  28.062  1.00  0.00     0.074 A 
ATOM     35  C   UNL A   1      39.885  28.117  29.599  1.00  0.00     0.049 A 
ATOM     36  N   UNL A   1      42.852  28.592  28.612  1.00  0.00    -0.248 NA
ATOM     37  C   UNL A   1      41.557  28.910  26.715  1.00  0.00     0.031 C 
ATOM     38  C   UNL A   1      38.752  27.607  30.355  1.00  0.00     0.029 A 
ATOM     39  N   UNL A   1      39.891  29.439  29.973  1.00  0.00    -0.354 N 
ATOM     40  C   UNL A   1      43.494  29.474  27.766  1.00  0.00     0.074 A 
ATOM     41  C   UNL A   1      42.767  29.437  26.523  1.00  0.00     0.031 C 
ATOM     42  C   UNL A   1      37.993  28.625  30.823  1.00  0.00     0.029 A 
ATOM     43  C   UNL A   1      38.729  29.852  30.612  1.00  0.00     0.049 A 
ATOM     44  H   UNL A   1      40.652  30.041  29.802  1.00  0.00     0.167 HD
ATOM     45  C   UNL A   1      44.405  30.364  28.242  1.00  0.00     0.037 A 
ATOM     46  C   UNL A   1      38.418  31.079  31.088  1.00  0.00     0.037 A 
ATOM     47  C   UNL A   1      44.764  30.078  29.614  1.00  0.00     0.049 A 
ATOM     48  C   UNL A   1      39.689  31.708  31.490  1.00  0.00     0.074 A 
ATOM     49  C   UNL A   1      45.244  28.968  30.286  1.00  0.00     0.029 A 
ATOM     50  N   UNL A   1      44.298  30.919  30.595  1.00  0.00    -0.354 N 
ATOM     51  N   UNL A   1      40.412  31.280  32.488  1.00  0.00    -0.248 NA
ATOM     52  C   UNL A   1      40.379  32.553  30.531  1.00  0.00     0.031 C 
ATOM     53  C   UNL A   1      44.612  28.997  31.567  1.00  0.00     0.029 A 
ATOM     54  C   UNL A   1      43.819  30.141  31.619  1.00  0.00     0.049 A 
ATOM     55  H   UNL A   1      44.306  31.903  30.569  1.00  0.00     0.167 HD
ATOM     56  C   UNL A   1      41.712  31.381  32.024  1.00  0.00     0.074 A 
ATOM     57  C   UNL A   1      41.639  32.300  30.894  1.00  0.00     0.031 C 
ATOM     58  C   UNL A   1      42.666  30.487  32.417  1.00  0.00     0.037 A 
BRANCH  45  59
ATOM     59  C   UNL A   1      44.718  31.681  27.586  1.00  0.00     0.064 A 
ATOM     60  C   UNL A   1      45.976  31.858  26.984  1.00  0.00     0.173 A 
ATOM     61  C   UNL A   1      43.934  32.848  27.719  1.00  0.00     0.173 A 
ATOM     62  F   UNL A   1      46.820  30.824  26.851  1.00  0.00    -0.203 F 
ATOM     63  C   UNL A   1      46.430  33.115  26.581  1.00  0.00     0.198 A 
ATOM     64  C   UNL A   1      44.360  34.088  27.248  1.00  0.00     0.198 A 
ATOM     65  F   UNL A   1      42.787  32.865  28.408  1.00  0.00    -0.203 F 
ATOM     66  F   UNL A   1      47.682  33.254  26.125  1.00  0.00    -0.200 F 
ATOM     67  C   UNL A   1      45.618  34.228  26.705  1.00  0.00     0.200 A 
ATOM     68  F   UNL A   1      43.565  35.158  27.400  1.00  0.00    -0.200 F 
ATOM     69  F   UNL A   1      46.065  35.440  26.355  1.00  0.00    -0.200 F 
ENDBRANCH  45  59
BRANCH  46  70
ATOM     70  C   UNL A   1      37.122  31.784  31.051  1.00  0.00     0.064 A 
ATOM     71  C   UNL A   1      36.297  31.901  32.178  1.00  0.00     0.173 A 
ATOM     72  C   UNL A   1      36.799  32.599  29.950  1.00  0.00     0.173 A 
ATOM     73  F   UNL A   1      36.578  31.212  33.293  1.00  0.00    -0.203 F 
ATOM     74  C   UNL A   1      35.207  32.782  32.198  1.00  0.00     0.198 A 
ATOM     75  C   UNL A   1      35.706  33.466  29.965  1.00  0.00     0.198 A 
ATOM     76  F   UNL A   1      37.605  32.638  28.881  1.00  0.00    -0.203 F 
ATOM     77  F   UNL A   1      34.473  32.911  33.312  1.00  0.00    -0.200 F 
ATOM     78  C   UNL A   1      34.914  33.564  31.093  1.00  0.00     0.200 A 
ATOM     79  F   UNL A   1      35.461  34.247  28.903  1.00  0.00    -0.200 F 
ATOM     80  F   UNL A   1      33.901  34.441  31.130  1.00  0.00    -0.200 F 
ENDBRANCH  46  70
BRANCH  58  81
ATOM     81  C   UNL A   1      42.367  29.622  33.612  1.00  0.00     0.064 A 
ATOM     82  C   UNL A   1      41.767  28.354  33.539  1.00  0.00     0.173 A 
ATOM     83  C   UNL A   1      42.813  30.045  34.870  1.00  0.00     0.173 A 
ATOM     84  F   UNL A   1      41.400  27.833  32.364  1.00  0.00    -0.203 F 
ATOM     85  C   UNL A   1      41.582  27.568  34.675  1.00  0.00     0.198 A 
ATOM     86  C   UNL A   1      42.656  29.246  36.001  1.00  0.00     0.198 A 
ATOM     87  F   UNL A   1      43.439  31.226  34.997  1.00  0.00    -0.203 F 
ATOM     88  F   UNL A   1      40.996  26.365  34.573  1.00  0.00    -0.200 F 
ATOM     89  C   UNL A   1      42.031  28.012  35.905  1.00  0.00     0.200 A 
ATOM     90  F   UNL A   1      43.131  29.662  37.182  1.00  0.00    -0.200 F 
ATOM     91  F   UNL A   1      41.887  27.243  36.994  1.00  0.00    -0.200 F 
ENDBRANCH  58  81
ENDBRANCH  32  33
ENDBRANCH  24  27
ENDBRANCH  22  23
ENDBRANCH  21  22
ENDBRANCH   1  21
TORSDOF 14
ENDMDL
MODEL 2
REMARK VINA RESULT:     -12.6      0.929      1.202
REMARK SMILES Cc1ccc(C)c([C@@H](C)[C@](C)(O)C(=O)NCCCCNC(=O)c2ccc(-c3c4nc(c(-c5c(F)c(F)c(F)c(F)c5F)c5ccc([nH]5)c(-c5c(F)c(F)c(F)c(F)c5F)c5nc(c(-c6c(F)c(F)c(F)c(F)c6F)c6ccc3[nH]6)C=C5)C=C4)cc2)c1
REMARK SMILES IDX 17 1 16 2 15 3 13 4 14 5 10 7 11 8 8 9 9 10 7 11 1 12 2 13
REMARK SMILES IDX 3 14 86 15 4 16 5 17 6 18 12 19 18 21 19 22 20 23 21 24
REMARK SMILES IDX 22 26 23 27 24 28 85 29 25 30 84 31 26 32 27 33 28 34 78 35
REMARK SMILES IDX 29 36 83 37 77 38 79 39 30 40 82 41 76 42 75 43 31 45 63 46
REMARK SMILES IDX 43 47 62 48 44 49 47 50 61 51 80 52 45 53 46 54 60 56 81 57
REMARK SMILES IDX 48 58 32 59 33 60 41 61 34 62 35 63 39 64 42 65 36 66 37 67
REMARK SMILES IDX 40 68 38 69 64 70 65 71 73 72 66 73 67 74 71 75 74 76 68 77
REMARK SMILES IDX 69 78 72 79 70 80 49 81 50 82 58 83 51 84 52 85 56 86 59 87
REMARK SMILES IDX 53 88 54 89 57 90 55 91
REMARK H PARENT 15 6 12 20 20 25 79 44 47 55
REMARK Flexibility Score: inf
ROOT
ATOM      1  C   UNL A   1      37.144  20.156  25.247  1.00  0.00     0.023 C 
ENDROOT
BRANCH   1   2
ATOM      2  C   UNL A   1      35.743  20.707  24.973  1.00  0.00     0.116 C 
BRANCH   2   3
ATOM      3  N   UNL A   1      34.658  19.786  25.253  1.00  0.00    -0.354 N 
ATOM      4  C   UNL A   1      33.308  19.980  25.378  1.00  0.00     0.252 C 
ATOM      5  O   UNL A   1      32.638  18.943  25.502  1.00  0.00    -0.272 OA
ATOM      6  H   UNL A   1      34.944  18.851  25.374  1.00  0.00     0.163 HD
BRANCH   4   7
ATOM      7  C   UNL A   1      32.604  21.400  25.360  1.00  0.00     0.146 C 
ATOM      8  C   UNL A   1      32.522  21.842  23.886  1.00  0.00     0.053 C 
BRANCH   7   9
ATOM      9  C   UNL A   1      33.236  22.512  26.290  1.00  0.00     0.057 C 
ATOM     10  C   UNL A   1      32.872  22.540  27.777  1.00  0.00     0.016 C 
BRANCH   9  11
ATOM     11  C   UNL A   1      33.215  23.904  25.690  1.00  0.00    -0.039 A 
ATOM     12  C   UNL A   1      30.546  26.483  26.221  1.00  0.00     0.044 C 
ATOM     13  C   UNL A   1      31.883  25.902  25.892  1.00  0.00    -0.051 A 
ATOM     14  C   UNL A   1      33.057  26.655  25.796  1.00  0.00     0.004 A 
ATOM     15  C   UNL A   1      31.967  24.530  25.763  1.00  0.00     0.007 A 
ATOM     16  C   UNL A   1      34.262  26.048  25.451  1.00  0.00     0.004 A 
ATOM     17  C   UNL A   1      34.356  24.658  25.367  1.00  0.00    -0.048 A 
ATOM     18  C   UNL A   1      35.658  24.069  24.914  1.00  0.00     0.044 C 
ENDBRANCH   9  11
ENDBRANCH   7   9
BRANCH   7  19
ATOM     19  O   UNL A   1      31.231  21.217  25.779  1.00  0.00    -0.380 OA
ATOM     20  H   UNL A   1      31.212  20.897  26.694  1.00  0.00     0.212 HD
ENDBRANCH   7  19
ENDBRANCH   4   7
ENDBRANCH   2   3
ENDBRANCH   1   2
BRANCH   1  21
ATOM     21  C   UNL A   1      38.309  21.159  25.180  1.00  0.00     0.023 C 
BRANCH  21  22
ATOM     22  C   UNL A   1      39.364  21.108  26.292  1.00  0.00     0.116 C 
BRANCH  22  23
ATOM     23  N   UNL A   1      40.746  21.335  25.874  1.00  0.00    -0.352 N 
ATOM     24  C   UNL A   1      41.583  22.441  26.037  1.00  0.00     0.251 C 
ATOM     25  H   UNL A   1      41.157  20.580  25.394  1.00  0.00     0.163 HD
ATOM     26  O   UNL A   1      42.695  22.433  25.558  1.00  0.00    -0.269 OA
BRANCH  24  27
ATOM     27  C   UNL A   1      41.161  23.591  26.893  1.00  0.00     0.039 A 
ATOM     28  C   UNL A   1      40.180  24.482  26.419  1.00  0.00     0.014 A 
ATOM     29  C   UNL A   1      41.842  23.899  28.057  1.00  0.00     0.014 A 
ATOM     30  C   UNL A   1      40.053  25.766  26.982  1.00  0.00     0.010 A 
ATOM     31  C   UNL A   1      41.774  25.191  28.555  1.00  0.00     0.010 A 
ATOM     32  C   UNL A   1      40.930  26.164  27.991  1.00  0.00    -0.014 A 
BRANCH  32  33
ATOM     33  C   UNL A   1      40.943  27.508  28.598  1.00  0.00     0.031 A 
ATOM     34  C   UNL A   1      41.962  28.414  28.032  1.00  0.00     0.074 A 
ATOM     35  C   UNL A   1      40.085  28.074  29.482  1.00  0.00     0.049 A 
ATOM     36  N   UNL A   1      43.059  28.734  28.633  1.00  0.00    -0.248 NA
ATOM     37  C   UNL A   1      41.840  28.952  26.673  1.00  0.00     0.031 C 
ATOM     38  C   UNL A   1      38.952  27.497  30.188  1.00  0.00     0.029 A 
ATOM     39  N   UNL A   1      39.987  29.397  29.842  1.00  0.00    -0.354 N 
ATOM     40  C   UNL A   1      43.682  29.650  27.809  1.00  0.00     0.074 A 
ATOM     41  C   UNL A   1      43.021  29.556  26.534  1.00  0.00     0.031 C 
ATOM     42  C   UNL A   1      38.106  28.467  30.608  1.00  0.00     0.029 A 
ATOM     43  C   UNL A   1      38.771  29.737  30.420  1.00  0.00     0.049 A 
ATOM     44  H   UNL A   1      40.715  30.045  29.701  1.00  0.00     0.167 HD
ATOM     45  C   UNL A   1      44.510  30.601  28.319  1.00  0.00     0.037 A 
ATOM     46  C   UNL A   1      38.358  30.946  30.867  1.00  0.00     0.037 A 
ATOM     47  C   UNL A   1      44.820  30.349  29.709  1.00  0.00     0.049 A 
ATOM     48  C   UNL A   1      39.565  31.659  31.323  1.00  0.00     0.074 A 
ATOM     49  C   UNL A   1      45.338  29.277  30.415  1.00  0.00     0.029 A 
ATOM     50  N   UNL A   1      44.254  31.165  30.657  1.00  0.00    -0.354 N 
ATOM     51  N   UNL A   1      40.265  31.286  32.359  1.00  0.00    -0.248 NA
ATOM     52  C   UNL A   1      40.245  32.539  30.389  1.00  0.00     0.031 C 
ATOM     53  C   UNL A   1      44.644  29.275  31.664  1.00  0.00     0.029 A 
ATOM     54  C   UNL A   1      43.777  30.365  31.666  1.00  0.00     0.049 A 
ATOM     55  H   UNL A   1      44.199  32.147  30.621  1.00  0.00     0.167 HD
ATOM     56  C   UNL A   1      41.577  31.469  31.957  1.00  0.00     0.074 A 
ATOM     57  C   UNL A   1      41.500  32.372  30.814  1.00  0.00     0.031 C 
ATOM     58  C   UNL A   1      42.566  30.641  32.404  1.00  0.00     0.037 A 
BRANCH  45  59
ATOM     59  C   UNL A   1      44.769  31.930  27.664  1.00  0.00     0.064 A 
ATOM     60  C   UNL A   1      45.982  32.127  26.982  1.00  0.00     0.173 A 
ATOM     61  C   UNL A   1      43.987  33.089  27.869  1.00  0.00     0.173 A 
ATOM     62  F   UNL A   1      46.823  31.102  26.777  1.00  0.00    -0.203 F 
ATOM     63  C   UNL A   1      46.398  33.394  26.570  1.00  0.00     0.198 A 
ATOM     64  C   UNL A   1      44.371  34.339  27.390  1.00  0.00     0.198 A 
ATOM     65  F   UNL A   1      42.888  33.085  28.633  1.00  0.00    -0.203 F 
ATOM     66  F   UNL A   1      47.616  33.551  26.033  1.00  0.00    -0.200 F 
ATOM     67  C   UNL A   1      45.588  34.498  26.766  1.00  0.00     0.200 A 
ATOM     68  F   UNL A   1      43.580  35.399  27.612  1.00  0.00    -0.200 F 
ATOM     69  F   UNL A   1      46.002  35.720  26.407  1.00  0.00    -0.200 F 
ENDBRANCH  45  59
BRANCH  46  70
ATOM     70  C   UNL A   1      37.023  31.564  30.761  1.00  0.00     0.064 A 
ATOM     71  C   UNL A   1      36.193  31.759  31.874  1.00  0.00     0.173 A 
ATOM     72  C   UNL A   1      36.651  32.228  29.578  1.00  0.00     0.173 A 
ATOM     73  F   UNL A   1      36.516  31.219  33.057  1.00  0.00    -0.203 F 
ATOM     74  C   UNL A   1      35.054  32.571  31.802  1.00  0.00     0.198 A 
ATOM     75  C   UNL A   1      35.509  33.026  29.502  1.00  0.00     0.198 A 
ATOM     76  F   UNL A   1      37.453  32.194  28.504  1.00  0.00    -0.203 F 
ATOM     77  F   UNL A   1      34.314  32.782  32.900  1.00  0.00    -0.200 F 
ATOM     78  C   UNL A   1      34.713  33.204  30.618  1.00  0.00     0.200 A 
ATOM     79  F   UNL A   1      35.216  33.666  28.361  1.00  0.00    -0.200 F 
ATOM     80  F   UNL A   1      33.650  34.019  30.563  1.00  0.00    -0.200 F 
ENDBRANCH  46  70
BRANCH  58  81
ATOM     81  C   UNL A   1      42.267  29.768  33.593  1.00  0.00     0.064 A 
ATOM     82  C   UNL A   1      41.819  28.439  33.503  1.00  0.00     0.173 A 
ATOM     83  C   UNL A   1      42.556  30.258  34.871  1.00  0.00     0.173 A 
ATOM     84  F   UNL A   1      41.612  27.861  32.317  1.00  0.00    -0.203 F 
ATOM     85  C   UNL A   1      41.629  27.655  34.640  1.00  0.00     0.198 A 
ATOM     86  C   UNL A   1      42.395  29.466  36.006  1.00  0.00     0.198 A 
ATOM     87  F   UNL A   1      43.035  31.504  35.019  1.00  0.00    -0.203 F 
ATOM     88  F   UNL A   1      41.191  26.393  34.522  1.00  0.00    -0.200 F 
ATOM     89  C   UNL A   1      41.922  28.168  35.891  1.00  0.00     0.200 A 
ATOM     90  F   UNL A   1      42.721  29.952  37.211  1.00  0.00    -0.200 F 
ATOM     91  F   UNL A   1      41.774  27.405  36.984  1.00  0.00    -0.200 F 
ENDBRANCH  58  81
ENDBRANCH  32  33
ENDBRANCH  24  27
ENDBRANCH  22  23
ENDBRANCH  21  22
ENDBRANCH   1  21
TORSDOF 14
ENDMDL
MODEL 3
REMARK VINA RESULT:     -12.5      3.533      6.929
REMARK SMILES Cc1ccc(C)c([C@@H](C)[C@](C)(O)C(=O)NCCCCNC(=O)c2ccc(-c3c4nc(c(-c5c(F)c(F)c(F)c(F)c5F)c5ccc([nH]5)c(-c5c(F)c(F)c(F)c(F)c5F)c5nc(c(-c6c(F)c(F)c(F)c(F)c6F)c6ccc3[nH]6)C=C5)C=C4)cc2)c1
REMARK SMILES IDX 17 1 16 2 15 3 13 4 14 5 10 7 11 8 8 9 9 10 7 11 1 12 2 13
REMARK SMILES IDX 3 14 86 15 4 16 5 17 6 18 12 19 18 21 19 22 20 23 21 24
REMARK SMILES IDX 22 26 23 27 24 28 85 29 25 30 84 31 26 32 27 33 28 34 78 35
REMARK SMILES IDX 29 36 83 37 77 38 79 39 30 40 82 41 76 42 75 43 31 45 63 46
REMARK SMILES IDX 43 47 62 48 44 49 47 50 61 51 80 52 45 53 46 54 60 56 81 57
REMARK SMILES IDX 48 58 32 59 33 60 41 61 34 62 35 63 39 64 42 65 36 66 37 67
REMARK SMILES IDX 40 68 38 69 64 70 65 71 73 72 66 73 67 74 71 75 74 76 68 77
REMARK SMILES IDX 69 78 72 79 70 80 49 81 50 82 58 83 51 84 52 85 56 86 59 87
REMARK SMILES IDX 53 88 54 89 57 90 55 91
REMARK H PARENT 15 6 12 20 20 25 79 44 47 55
REMARK Flexibility Score: inf
ROOT
ATOM      1  C   UNL A   1      43.199  25.698  25.454  1.00  0.00     0.023 C 
ENDROOT
BRANCH   1   2
ATOM      2  C   UNL A   1      44.480  26.462  25.797  1.00  0.00     0.116 C 
BRANCH   2   3
ATOM      3  N   UNL A   1      45.563  26.297  24.846  1.00  0.00    -0.354 N 
ATOM      4  C   UNL A   1      46.922  26.252  25.012  1.00  0.00     0.252 C 
ATOM      5  O   UNL A   1      47.567  25.975  23.989  1.00  0.00    -0.272 OA
ATOM      6  H   UNL A   1      45.267  26.199  23.911  1.00  0.00     0.163 HD
BRANCH   4   7
ATOM      7  C   UNL A   1      47.663  26.516  26.388  1.00  0.00     0.146 C 
ATOM      8  C   UNL A   1      49.128  26.860  26.050  1.00  0.00     0.053 C 
BRANCH   7   9
ATOM      9  C   UNL A   1      47.548  25.378  27.480  1.00  0.00     0.057 C 
ATOM     10  C   UNL A   1      46.816  24.078  27.132  1.00  0.00     0.016 C 
BRANCH   9  11
ATOM     11  C   UNL A   1      47.157  25.879  28.856  1.00  0.00    -0.039 A 
ATOM     12  C   UNL A   1      44.153  24.792  30.818  1.00  0.00     0.044 C 
ATOM     13  C   UNL A   1      45.508  25.354  30.533  1.00  0.00    -0.051 A 
ATOM     14  C   UNL A   1      46.479  25.578  31.512  1.00  0.00     0.004 A 
ATOM     15  C   UNL A   1      45.838  25.580  29.212  1.00  0.00     0.007 A 
ATOM     16  C   UNL A   1      47.709  26.139  31.175  1.00  0.00     0.004 A 
ATOM     17  C   UNL A   1      48.060  26.323  29.837  1.00  0.00    -0.048 A 
ATOM     18  C   UNL A   1      49.363  27.003  29.541  1.00  0.00     0.044 C 
ENDBRANCH   9  11
ENDBRANCH   7   9
BRANCH   7  19
ATOM     19  O   UNL A   1      47.111  27.723  26.963  1.00  0.00    -0.380 OA
ATOM     20  H   UNL A   1      46.354  27.497  27.524  1.00  0.00     0.212 HD
ENDBRANCH   7  19
ENDBRANCH   4   7
ENDBRANCH   2   3
ENDBRANCH   1   2
BRANCH   1  21
ATOM     21  C   UNL A   1      43.367  24.356  24.722  1.00  0.00     0.023 C 
BRANCH  21  22
ATOM     22  C   UNL A   1      43.351  23.072  25.563  1.00  0.00     0.116 C 
BRANCH  22  23
ATOM     23  N   UNL A   1      42.144  22.254  25.459  1.00  0.00    -0.352 N 
ATOM     24  C   UNL A   1      40.923  22.333  26.131  1.00  0.00     0.251 C 
ATOM     25  H   UNL A   1      42.203  21.522  24.804  1.00  0.00     0.163 HD
ATOM     26  O   UNL A   1      40.063  21.506  25.921  1.00  0.00    -0.269 OA
BRANCH  24  27
ATOM     27  C   UNL A   1      40.623  23.493  27.025  1.00  0.00     0.039 A 
ATOM     28  C   UNL A   1      39.635  24.420  26.645  1.00  0.00     0.014 A 
ATOM     29  C   UNL A   1      41.419  23.770  28.122  1.00  0.00     0.014 A 
ATOM     30  C   UNL A   1      39.607  25.706  27.220  1.00  0.00     0.010 A 
ATOM     31  C   UNL A   1      41.444  25.060  28.627  1.00  0.00     0.010 A 
ATOM     32  C   UNL A   1      40.587  26.065  28.146  1.00  0.00    -0.014 A 
BRANCH  32  33
ATOM     33  C   UNL A   1      40.704  27.406  28.751  1.00  0.00     0.031 A 
ATOM     34  C   UNL A   1      41.715  28.270  28.110  1.00  0.00     0.074 A 
ATOM     35  C   UNL A   1      39.942  28.002  29.700  1.00  0.00     0.049 A 
ATOM     36  N   UNL A   1      42.867  28.540  28.624  1.00  0.00    -0.248 NA
ATOM     37  C   UNL A   1      41.510  28.819  26.766  1.00  0.00     0.031 C 
ATOM     38  C   UNL A   1      38.844  27.471  30.492  1.00  0.00     0.029 A 
ATOM     39  N   UNL A   1      39.929  29.326  30.069  1.00  0.00    -0.354 N 
ATOM     40  C   UNL A   1      43.463  29.433  27.756  1.00  0.00     0.074 A 
ATOM     41  C   UNL A   1      42.702  29.373  26.536  1.00  0.00     0.031 C 
ATOM     42  C   UNL A   1      38.075  28.473  30.978  1.00  0.00     0.029 A 
ATOM     43  C   UNL A   1      38.777  29.715  30.741  1.00  0.00     0.049 A 
ATOM     44  H   UNL A   1      40.671  29.944  29.873  1.00  0.00     0.167 HD
ATOM     45  C   UNL A   1      44.367  30.345  28.202  1.00  0.00     0.037 A 
ATOM     46  C   UNL A   1      38.452  30.938  31.220  1.00  0.00     0.037 A 
ATOM     47  C   UNL A   1      44.774  30.073  29.564  1.00  0.00     0.049 A 
ATOM     48  C   UNL A   1      39.720  31.597  31.582  1.00  0.00     0.074 A 
ATOM     49  C   UNL A   1      45.298  28.977  30.226  1.00  0.00     0.029 A 
ATOM     50  N   UNL A   1      44.317  30.908  30.555  1.00  0.00    -0.354 N 
ATOM     51  N   UNL A   1      40.481  31.189  32.561  1.00  0.00    -0.248 NA
ATOM     52  C   UNL A   1      40.362  32.452  30.600  1.00  0.00     0.031 C 
ATOM     53  C   UNL A   1      44.704  28.998  31.525  1.00  0.00     0.029 A 
ATOM     54  C   UNL A   1      43.886  30.124  31.596  1.00  0.00     0.049 A 
ATOM     55  H   UNL A   1      44.302  31.891  30.525  1.00  0.00     0.167 HD
ATOM     56  C   UNL A   1      41.764  31.318  32.058  1.00  0.00     0.074 A 
ATOM     57  C   UNL A   1      41.638  32.230  30.927  1.00  0.00     0.031 C 
ATOM     58  C   UNL A   1      42.750  30.447  32.426  1.00  0.00     0.037 A 
BRANCH  45  59
ATOM     59  C   UNL A   1      44.631  31.665  27.532  1.00  0.00     0.064 A 
ATOM     60  C   UNL A   1      45.878  31.879  26.917  1.00  0.00     0.173 A 
ATOM     61  C   UNL A   1      43.810  32.807  27.662  1.00  0.00     0.173 A 
ATOM     62  F   UNL A   1      46.755  30.872  26.786  1.00  0.00    -0.203 F 
ATOM     63  C   UNL A   1      46.286  33.147  26.500  1.00  0.00     0.198 A 
ATOM     64  C   UNL A   1      44.190  34.057  27.176  1.00  0.00     0.198 A 
ATOM     65  F   UNL A   1      42.669  32.792  28.361  1.00  0.00    -0.203 F 
ATOM     66  F   UNL A   1      47.528  33.323  26.032  1.00  0.00    -0.200 F 
ATOM     67  C   UNL A   1      45.438  34.233  26.621  1.00  0.00     0.200 A 
ATOM     68  F   UNL A   1      43.362  35.100  27.326  1.00  0.00    -0.200 F 
ATOM     69  F   UNL A   1      45.842  35.457  26.257  1.00  0.00    -0.200 F 
ENDBRANCH  45  59
BRANCH  46  70
ATOM     70  C   UNL A   1      37.140  31.612  31.219  1.00  0.00     0.064 A 
ATOM     71  C   UNL A   1      36.411  31.843  32.394  1.00  0.00     0.173 A 
ATOM     72  C   UNL A   1      36.703  32.292  30.067  1.00  0.00     0.173 A 
ATOM     73  F   UNL A   1      36.804  31.290  33.549  1.00  0.00    -0.203 F 
ATOM     74  C   UNL A   1      35.305  32.703  32.411  1.00  0.00     0.198 A 
ATOM     75  C   UNL A   1      35.594  33.138  30.080  1.00  0.00     0.198 A 
ATOM     76  F   UNL A   1      37.414  32.224  28.933  1.00  0.00    -0.203 F 
ATOM     77  F   UNL A   1      34.665  32.946  33.564  1.00  0.00    -0.200 F 
ATOM     78  C   UNL A   1      34.899  33.350  31.256  1.00  0.00     0.200 A 
ATOM     79  F   UNL A   1      35.239  33.790  28.964  1.00  0.00    -0.200 F 
ATOM     80  F   UNL A   1      33.870  34.210  31.283  1.00  0.00    -0.200 F 
ENDBRANCH  46  70
BRANCH  58  81
ATOM     81  C   UNL A   1      42.506  29.581  33.633  1.00  0.00     0.064 A 
ATOM     82  C   UNL A   1      41.888  28.320  33.588  1.00  0.00     0.173 A 
ATOM     83  C   UNL A   1      43.023  29.995  34.866  1.00  0.00     0.173 A 
ATOM     84  F   UNL A   1      41.454  27.808  32.433  1.00  0.00    -0.203 F 
ATOM     85  C   UNL A   1      41.756  27.532  34.730  1.00  0.00     0.198 A 
ATOM     86  C   UNL A   1      42.918  29.194  36.001  1.00  0.00     0.198 A 
ATOM     87  F   UNL A   1      43.668  31.168  34.963  1.00  0.00    -0.203 F 
ATOM     88  F   UNL A   1      41.153  26.336  34.656  1.00  0.00    -0.200 F 
ATOM     89  C   UNL A   1      42.276  27.967  35.935  1.00  0.00     0.200 A 
ATOM     90  F   UNL A   1      43.461  29.600  37.157  1.00  0.00    -0.200 F 
ATOM     91  F   UNL A   1      42.182  27.196  37.028  1.00  0.00    -0.200 F 
ENDBRANCH  58  81
ENDBRANCH  32  33
ENDBRANCH  24  27
ENDBRANCH  22  23
ENDBRANCH  21  22
ENDBRANCH   1  21
TORSDOF 14
ENDMDL
