MODEL 1
REMARK VINA RESULT:     -13.5      0.000      0.000
REMARK SMILES CSc1ccc(C=C2C(C)=C(CC(=O)NCCCCNC(=O)c3ccc(-c4c5nc(c(-c6c(F)c(F)c(F)c(F)c6F)c6ccc([nH]6)c(-c6c(F)c(F)c(F)c(F)c6F)c6nc(c(-c7c(F)c(F)c(F)c(F)c7F)c7ccc4[nH]7)C=C6)C=C5)cc3)c3cc(F)ccc32)cc1
REMARK SMILES IDX 17 1 16 2 15 3 13 4 14 5 12 7 11 8 7 9 8 10 9 11 92 12 10 13
REMARK SMILES IDX 86 14 91 15 87 16 90 17 88 18 89 19 6 20 3 21 4 22 94 23
REMARK SMILES IDX 5 24 93 25 2 26 1 27 18 28 19 29 20 30 21 31 22 33 23 34
REMARK SMILES IDX 24 35 85 36 25 37 84 38 26 39 27 40 28 41 78 42 29 43 83 44
REMARK SMILES IDX 77 45 79 46 30 47 82 48 76 49 75 50 31 52 63 53 43 54 62 55
REMARK SMILES IDX 44 56 47 57 61 58 80 59 45 60 46 61 60 63 81 64 48 65 32 66
REMARK SMILES IDX 33 67 41 68 34 69 35 70 39 71 42 72 36 73 37 74 40 75 38 76
REMARK SMILES IDX 64 77 65 78 73 79 66 80 67 81 71 82 74 83 68 84 69 85 72 86
REMARK SMILES IDX 70 87 49 88 50 89 58 90 51 91 52 92 56 93 59 94 53 95 54 96
REMARK SMILES IDX 57 97 55 98
REMARK H PARENT 15 6 20 32 79 51 47 62
REMARK Flexibility Score: inf
ROOT
ATOM      1  C   UNL A   1      31.820  30.836  26.231  1.00  0.00     0.023 C 
ENDROOT
BRANCH   1   2
ATOM      2  C   UNL A   1      32.214  29.778  27.263  1.00  0.00     0.116 C 
BRANCH   2   3
ATOM      3  N   UNL A   1      33.426  29.087  26.875  1.00  0.00    -0.356 N 
ATOM      4  C   UNL A   1      33.461  27.799  26.422  1.00  0.00     0.224 C 
ATOM      5  O   UNL A   1      34.531  27.267  26.136  1.00  0.00    -0.275 OA
ATOM      6  H   UNL A   1      34.279  29.575  26.944  1.00  0.00     0.163 HD
BRANCH   4   7
ATOM      7  C   UNL A   1      32.124  27.081  26.385  1.00  0.00     0.136 C 
BRANCH   7   8
ATOM      8  C   UNL A   1      31.889  26.737  24.898  1.00  0.00    -0.027 C 
ATOM      9  C   UNL A   1      31.393  23.733  25.194  1.00  0.00     0.017 C 
ATOM     10  C   UNL A   1      30.617  24.901  24.969  1.00  0.00    -0.014 C 
ATOM     11  C   UNL A   1      31.693  25.582  24.190  1.00  0.00    -0.039 C 
ATOM     12  C   UNL A   1      29.728  26.313  24.606  1.00  0.00    -0.010 A 
ATOM     13  C   UNL A   1      31.206  25.278  22.688  1.00  0.00     0.045 C 
ATOM     14  C   UNL A   1      30.666  27.377  24.590  1.00  0.00    -0.011 A 
ATOM     15  C   UNL A   1      28.678  26.625  23.727  1.00  0.00     0.012 A 
ATOM     16  C   UNL A   1      30.662  28.656  24.024  1.00  0.00     0.048 A 
ATOM     17  C   UNL A   1      28.637  27.914  23.036  1.00  0.00     0.040 A 
ATOM     18  C   UNL A   1      29.599  28.920  23.226  1.00  0.00     0.123 A 
ATOM     19  F   UNL A   1      29.585  30.060  22.519  1.00  0.00    -0.207 F 
BRANCH   9  20
ATOM     20  C   UNL A   1      32.465  22.855  24.346  1.00  0.00    -0.025 A 
ATOM     21  C   UNL A   1      33.335  20.175  24.289  1.00  0.00     0.007 A 
ATOM     22  C   UNL A   1      32.300  20.626  23.501  1.00  0.00     0.015 A 
ATOM     23  C   UNL A   1      34.193  21.172  24.759  1.00  0.00     0.015 A 
ATOM     24  C   UNL A   1      32.093  21.998  23.325  1.00  0.00     0.009 A 
ATOM     25  C   UNL A   1      33.738  22.522  24.827  1.00  0.00     0.009 A 
BRANCH  21  26
ATOM     26  S   UNL A   1      33.581  18.446  24.665  1.00  0.00    -0.130 SA
ATOM     27  C   UNL A   1      33.041  17.590  23.134  1.00  0.00     0.091 C 
ENDBRANCH  21  26
ENDBRANCH   9  20
ENDBRANCH   7   8
ENDBRANCH   4   7
ENDBRANCH   2   3
ENDBRANCH   1   2
BRANCH   1  28
ATOM     28  C   UNL A   1      31.438  32.146  26.885  1.00  0.00     0.023 C 
BRANCH  28  29
ATOM     29  C   UNL A   1      32.646  32.850  27.460  1.00  0.00     0.116 C 
BRANCH  29  30
ATOM     30  N   UNL A   1      32.396  34.271  27.650  1.00  0.00    -0.352 N 
ATOM     31  C   UNL A   1      32.947  35.093  28.594  1.00  0.00     0.251 C 
ATOM     32  H   UNL A   1      31.757  34.688  27.028  1.00  0.00     0.163 HD
ATOM     33  O   UNL A   1      32.491  36.210  28.807  1.00  0.00    -0.269 OA
BRANCH  31  34
ATOM     34  C   UNL A   1      34.091  34.584  29.369  1.00  0.00     0.039 A 
ATOM     35  C   UNL A   1      33.855  34.012  30.615  1.00  0.00     0.014 A 
ATOM     36  C   UNL A   1      35.381  34.617  28.826  1.00  0.00     0.014 A 
ATOM     37  C   UNL A   1      34.921  33.449  31.308  1.00  0.00     0.010 A 
ATOM     38  C   UNL A   1      36.407  33.928  29.452  1.00  0.00     0.010 A 
ATOM     39  C   UNL A   1      36.194  33.361  30.713  1.00  0.00    -0.014 A 
BRANCH  39  40
ATOM     40  C   UNL A   1      37.308  32.672  31.404  1.00  0.00     0.031 A 
ATOM     41  C   UNL A   1      37.992  31.502  30.761  1.00  0.00     0.074 A 
ATOM     42  C   UNL A   1      37.690  33.093  32.625  1.00  0.00     0.049 A 
ATOM     43  N   UNL A   1      38.981  30.779  31.221  1.00  0.00    -0.248 NA
ATOM     44  C   UNL A   1      37.501  31.076  29.441  1.00  0.00     0.031 C 
ATOM     45  C   UNL A   1      37.078  34.198  33.362  1.00  0.00     0.029 A 
ATOM     46  N   UNL A   1      38.685  32.648  33.457  1.00  0.00    -0.354 N 
ATOM     47  C   UNL A   1      39.235  29.827  30.247  1.00  0.00     0.074 A 
ATOM     48  C   UNL A   1      38.250  30.012  29.204  1.00  0.00     0.031 C 
ATOM     49  C   UNL A   1      37.744  34.381  34.511  1.00  0.00     0.029 A 
ATOM     50  C   UNL A   1      38.779  33.361  34.627  1.00  0.00     0.049 A 
ATOM     51  H   UNL A   1      39.275  31.891  33.238  1.00  0.00     0.167 HD
ATOM     52  C   UNL A   1      40.223  28.904  30.214  1.00  0.00     0.037 A 
ATOM     53  C   UNL A   1      39.592  33.200  35.688  1.00  0.00     0.037 A 
ATOM     54  C   UNL A   1      41.185  28.710  31.263  1.00  0.00     0.049 A 
ATOM     55  C   UNL A   1      40.610  32.092  35.665  1.00  0.00     0.074 A 
ATOM     56  C   UNL A   1      42.228  27.804  31.309  1.00  0.00     0.029 A 
ATOM     57  N   UNL A   1      41.209  29.413  32.458  1.00  0.00    -0.354 N 
ATOM     58  N   UNL A   1      40.872  31.231  34.715  1.00  0.00    -0.248 NA
ATOM     59  C   UNL A   1      41.449  31.937  36.863  1.00  0.00     0.031 C 
ATOM     60  C   UNL A   1      42.821  27.887  32.569  1.00  0.00     0.029 A 
ATOM     61  C   UNL A   1      42.225  28.926  33.265  1.00  0.00     0.049 A 
ATOM     62  H   UNL A   1      40.598  30.146  32.698  1.00  0.00     0.167 HD
ATOM     63  C   UNL A   1      41.935  30.465  35.177  1.00  0.00     0.074 A 
ATOM     64  C   UNL A   1      42.277  30.975  36.487  1.00  0.00     0.031 C 
ATOM     65  C   UNL A   1      42.570  29.438  34.564  1.00  0.00     0.037 A 
BRANCH  52  66
ATOM     66  C   UNL A   1      40.300  28.013  29.009  1.00  0.00     0.064 A 
ATOM     67  C   UNL A   1      39.624  26.784  28.957  1.00  0.00     0.173 A 
ATOM     68  C   UNL A   1      41.026  28.410  27.875  1.00  0.00     0.173 A 
ATOM     69  F   UNL A   1      38.902  26.365  30.009  1.00  0.00    -0.203 F 
ATOM     70  C   UNL A   1      39.725  25.959  27.843  1.00  0.00     0.198 A 
ATOM     71  C   UNL A   1      41.074  27.609  26.739  1.00  0.00     0.198 A 
ATOM     72  F   UNL A   1      41.673  29.585  27.860  1.00  0.00    -0.203 F 
ATOM     73  F   UNL A   1      39.145  24.751  27.854  1.00  0.00    -0.200 F 
ATOM     74  C   UNL A   1      40.441  26.376  26.732  1.00  0.00     0.200 A 
ATOM     75  F   UNL A   1      41.735  28.031  25.653  1.00  0.00    -0.200 F 
ATOM     76  F   UNL A   1      40.529  25.584  25.654  1.00  0.00    -0.200 F 
ENDBRANCH  52  66
BRANCH  53  77
ATOM     77  C   UNL A   1      39.473  34.091  36.873  1.00  0.00     0.064 A 
ATOM     78  C   UNL A   1      40.155  35.315  36.930  1.00  0.00     0.173 A 
ATOM     79  C   UNL A   1      38.735  33.706  38.003  1.00  0.00     0.173 A 
ATOM     80  F   UNL A   1      40.882  35.727  35.881  1.00  0.00    -0.203 F 
ATOM     81  C   UNL A   1      40.158  36.083  38.092  1.00  0.00     0.198 A 
ATOM     82  C   UNL A   1      38.687  34.505  39.140  1.00  0.00     0.198 A 
ATOM     83  F   UNL A   1      38.056  32.548  38.002  1.00  0.00    -0.203 F 
ATOM     84  F   UNL A   1      40.910  37.191  38.155  1.00  0.00    -0.200 F 
ATOM     85  C   UNL A   1      39.418  35.682  39.192  1.00  0.00     0.200 A 
ATOM     86  F   UNL A   1      37.947  34.126  40.191  1.00  0.00    -0.200 F 
ATOM     87  F   UNL A   1      39.424  36.419  40.311  1.00  0.00    -0.200 F 
ENDBRANCH  53  77
BRANCH  65  88
ATOM     88  C   UNL A   1      43.760  28.839  35.261  1.00  0.00     0.064 A 
ATOM     89  C   UNL A   1      45.066  29.303  35.051  1.00  0.00     0.173 A 
ATOM     90  C   UNL A   1      43.578  27.791  36.180  1.00  0.00     0.173 A 
ATOM     91  F   UNL A   1      45.298  30.310  34.194  1.00  0.00    -0.203 F 
ATOM     92  C   UNL A   1      46.149  28.692  35.675  1.00  0.00     0.198 A 
ATOM     93  C   UNL A   1      44.657  27.231  36.854  1.00  0.00     0.198 A 
ATOM     94  F   UNL A   1      42.348  27.319  36.439  1.00  0.00    -0.203 F 
ATOM     95  F   UNL A   1      47.397  29.084  35.379  1.00  0.00    -0.200 F 
ATOM     96  C   UNL A   1      45.943  27.665  36.584  1.00  0.00     0.200 A 
ATOM     97  F   UNL A   1      44.448  26.267  37.761  1.00  0.00    -0.200 F 
ATOM     98  F   UNL A   1      46.988  27.086  37.192  1.00  0.00    -0.200 F 
ENDBRANCH  65  88
ENDBRANCH  39  40
ENDBRANCH  31  34
ENDBRANCH  29  30
ENDBRANCH  28  29
ENDBRANCH   1  28
TORSDOF 14
ENDMDL
MODEL 2
REMARK VINA RESULT:     -13.4      5.601      9.960
REMARK SMILES CSc1ccc(C=C2C(C)=C(CC(=O)NCCCCNC(=O)c3ccc(-c4c5nc(c(-c6c(F)c(F)c(F)c(F)c6F)c6ccc([nH]6)c(-c6c(F)c(F)c(F)c(F)c6F)c6nc(c(-c7c(F)c(F)c(F)c(F)c7F)c7ccc4[nH]7)C=C6)C=C5)cc3)c3cc(F)ccc32)cc1
REMARK SMILES IDX 17 1 16 2 15 3 13 4 14 5 12 7 11 8 7 9 8 10 9 11 92 12 10 13
REMARK SMILES IDX 86 14 91 15 87 16 90 17 88 18 89 19 6 20 3 21 4 22 94 23
REMARK SMILES IDX 5 24 93 25 2 26 1 27 18 28 19 29 20 30 21 31 22 33 23 34
REMARK SMILES IDX 24 35 85 36 25 37 84 38 26 39 27 40 28 41 78 42 29 43 83 44
REMARK SMILES IDX 77 45 79 46 30 47 82 48 76 49 75 50 31 52 63 53 43 54 62 55
REMARK SMILES IDX 44 56 47 57 61 58 80 59 45 60 46 61 60 63 81 64 48 65 32 66
REMARK SMILES IDX 33 67 41 68 34 69 35 70 39 71 42 72 36 73 37 74 40 75 38 76
REMARK SMILES IDX 64 77 65 78 73 79 66 80 67 81 71 82 74 83 68 84 69 85 72 86
REMARK SMILES IDX 70 87 49 88 50 89 58 90 51 91 52 92 56 93 59 94 53 95 54 96
REMARK SMILES IDX 57 97 55 98
REMARK H PARENT 15 6 20 32 79 51 47 62
REMARK Flexibility Score: inf
ROOT
ATOM      1  C   UNL A   1      37.169  21.014  24.539  1.00  0.00     0.023 C 
ENDROOT
BRANCH   1   2
ATOM      2  C   UNL A   1      37.405  22.262  25.390  1.00  0.00     0.116 C 
BRANCH   2   3
ATOM      3  N   UNL A   1      36.481  22.327  26.503  1.00  0.00    -0.356 N 
ATOM      4  C   UNL A   1      35.249  22.912  26.441  1.00  0.00     0.224 C 
ATOM      5  O   UNL A   1      34.527  22.953  27.435  1.00  0.00    -0.275 OA
ATOM      6  H   UNL A   1      36.759  21.924  27.358  1.00  0.00     0.163 HD
BRANCH   4   7
ATOM      7  C   UNL A   1      34.896  23.559  25.114  1.00  0.00     0.136 C 
BRANCH   7   8
ATOM      8  C   UNL A   1      33.380  23.325  24.938  1.00  0.00    -0.027 C 
ATOM      9  C   UNL A   1      32.657  25.984  23.610  1.00  0.00     0.017 C 
ATOM     10  C   UNL A   1      32.834  24.633  23.210  1.00  0.00    -0.014 C 
ATOM     11  C   UNL A   1      32.327  24.083  24.502  1.00  0.00    -0.039 C 
ATOM     12  C   UNL A   1      32.964  22.985  22.783  1.00  0.00    -0.010 A 
ATOM     13  C   UNL A   1      30.810  23.736  24.098  1.00  0.00     0.045 C 
ATOM     14  C   UNL A   1      33.303  22.293  23.975  1.00  0.00    -0.011 A 
ATOM     15  C   UNL A   1      32.240  22.117  21.949  1.00  0.00     0.012 A 
ATOM     16  C   UNL A   1      33.197  20.959  24.377  1.00  0.00     0.048 A 
ATOM     17  C   UNL A   1      32.019  20.722  22.331  1.00  0.00     0.040 A 
ATOM     18  C   UNL A   1      32.533  20.155  23.510  1.00  0.00     0.123 A 
ATOM     19  F   UNL A   1      32.247  18.898  23.878  1.00  0.00    -0.207 F 
BRANCH   9  20
ATOM     20  C   UNL A   1      31.565  26.817  24.476  1.00  0.00    -0.025 A 
ATOM     21  C   UNL A   1      31.436  29.331  25.745  1.00  0.00     0.007 A 
ATOM     22  C   UNL A   1      31.028  29.146  24.443  1.00  0.00     0.015 A 
ATOM     23  C   UNL A   1      31.484  28.168  26.516  1.00  0.00     0.015 A 
ATOM     24  C   UNL A   1      30.818  27.856  23.945  1.00  0.00     0.009 A 
ATOM     25  C   UNL A   1      31.591  26.898  25.875  1.00  0.00     0.009 A 
BRANCH  21  26
ATOM     26  S   UNL A   1      31.848  30.937  26.410  1.00  0.00    -0.130 SA
ATOM     27  C   UNL A   1      33.455  30.655  27.252  1.00  0.00     0.091 C 
ENDBRANCH  21  26
ENDBRANCH   9  20
ENDBRANCH   7   8
ENDBRANCH   4   7
ENDBRANCH   2   3
ENDBRANCH   1   2
BRANCH   1  28
ATOM     28  C   UNL A   1      38.005  19.843  25.009  1.00  0.00     0.023 C 
BRANCH  28  29
ATOM     29  C   UNL A   1      39.237  20.308  25.751  1.00  0.00     0.116 C 
BRANCH  29  30
ATOM     30  N   UNL A   1      40.191  19.224  25.935  1.00  0.00    -0.352 N 
ATOM     31  C   UNL A   1      41.541  19.328  26.128  1.00  0.00     0.251 C 
ATOM     32  H   UNL A   1      39.821  18.311  25.920  1.00  0.00     0.163 HD
ATOM     33  O   UNL A   1      42.271  18.349  26.038  1.00  0.00    -0.269 OA
BRANCH  31  34
ATOM     34  C   UNL A   1      42.095  20.661  26.420  1.00  0.00     0.039 A 
ATOM     35  C   UNL A   1      42.328  21.535  25.363  1.00  0.00     0.014 A 
ATOM     36  C   UNL A   1      42.318  21.057  27.743  1.00  0.00     0.014 A 
ATOM     37  C   UNL A   1      42.765  22.826  25.643  1.00  0.00     0.010 A 
ATOM     38  C   UNL A   1      42.611  22.381  28.023  1.00  0.00     0.010 A 
ATOM     39  C   UNL A   1      42.866  23.273  26.974  1.00  0.00    -0.014 A 
BRANCH  39  40
ATOM     40  C   UNL A   1      43.232  24.675  27.277  1.00  0.00     0.031 A 
ATOM     41  C   UNL A   1      44.620  25.173  27.000  1.00  0.00     0.074 A 
ATOM     42  C   UNL A   1      42.315  25.495  27.822  1.00  0.00     0.049 A 
ATOM     43  N   UNL A   1      45.116  26.366  27.204  1.00  0.00    -0.248 NA
ATOM     44  C   UNL A   1      45.581  24.212  26.435  1.00  0.00     0.031 C 
ATOM     45  C   UNL A   1      40.945  25.114  28.165  1.00  0.00     0.029 A 
ATOM     46  N   UNL A   1      42.390  26.819  28.177  1.00  0.00    -0.354 N 
ATOM     47  C   UNL A   1      46.435  26.302  26.783  1.00  0.00     0.074 A 
ATOM     48  C   UNL A   1      46.688  24.935  26.384  1.00  0.00     0.031 C 
ATOM     49  C   UNL A   1      40.293  26.189  28.630  1.00  0.00     0.029 A 
ATOM     50  C   UNL A   1      41.217  27.316  28.688  1.00  0.00     0.049 A 
ATOM     51  H   UNL A   1      43.207  27.359  28.075  1.00  0.00     0.167 HD
ATOM     52  C   UNL A   1      47.341  27.303  26.708  1.00  0.00     0.037 A 
ATOM     53  C   UNL A   1      40.920  28.536  29.172  1.00  0.00     0.037 A 
ATOM     54  C   UNL A   1      47.091  28.654  27.128  1.00  0.00     0.049 A 
ATOM     55  C   UNL A   1      41.986  29.599  29.175  1.00  0.00     0.074 A 
ATOM     56  C   UNL A   1      47.950  29.737  27.078  1.00  0.00     0.029 A 
ATOM     57  N   UNL A   1      45.909  29.104  27.696  1.00  0.00    -0.354 N 
ATOM     58  N   UNL A   1      43.215  29.537  28.726  1.00  0.00    -0.248 NA
ATOM     59  C   UNL A   1      41.622  30.903  29.747  1.00  0.00     0.031 C 
ATOM     60  C   UNL A   1      47.327  30.815  27.706  1.00  0.00     0.029 A 
ATOM     61  C   UNL A   1      46.036  30.440  28.040  1.00  0.00     0.049 A 
ATOM     62  H   UNL A   1      45.102  28.558  27.834  1.00  0.00     0.167 HD
ATOM     63  C   UNL A   1      43.753  30.803  28.917  1.00  0.00     0.074 A 
ATOM     64  C   UNL A   1      42.712  31.615  29.508  1.00  0.00     0.031 C 
ATOM     65  C   UNL A   1      44.997  31.249  28.620  1.00  0.00     0.037 A 
BRANCH  52  66
ATOM     66  C   UNL A   1      48.701  26.969  26.170  1.00  0.00     0.064 A 
ATOM     67  C   UNL A   1      49.719  26.471  26.999  1.00  0.00     0.173 A 
ATOM     68  C   UNL A   1      48.980  27.109  24.802  1.00  0.00     0.173 A 
ATOM     69  F   UNL A   1      49.499  26.302  28.312  1.00  0.00    -0.203 F 
ATOM     70  C   UNL A   1      50.981  26.189  26.490  1.00  0.00     0.198 A 
ATOM     71  C   UNL A   1      50.226  26.767  24.286  1.00  0.00     0.198 A 
ATOM     72  F   UNL A   1      48.039  27.559  23.960  1.00  0.00    -0.203 F 
ATOM     73  F   UNL A   1      51.961  25.801  27.317  1.00  0.00    -0.200 F 
ATOM     74  C   UNL A   1      51.231  26.327  25.134  1.00  0.00     0.200 A 
ATOM     75  F   UNL A   1      50.453  26.866  22.970  1.00  0.00    -0.200 F 
ATOM     76  F   UNL A   1      52.445  26.045  24.642  1.00  0.00    -0.200 F 
ENDBRANCH  52  66
BRANCH  53  77
ATOM     77  C   UNL A   1      39.566  28.826  29.716  1.00  0.00     0.064 A 
ATOM     78  C   UNL A   1      38.575  29.412  28.915  1.00  0.00     0.173 A 
ATOM     79  C   UNL A   1      39.256  28.589  31.063  1.00  0.00     0.173 A 
ATOM     80  F   UNL A   1      38.821  29.666  27.621  1.00  0.00    -0.203 F 
ATOM     81  C   UNL A   1      37.356  29.811  29.456  1.00  0.00     0.198 A 
ATOM     82  C   UNL A   1      38.014  28.930  31.588  1.00  0.00     0.198 A 
ATOM     83  F   UNL A   1      40.163  28.023  31.874  1.00  0.00    -0.203 F 
ATOM     84  F   UNL A   1      36.473  30.471  28.694  1.00  0.00    -0.200 F 
ATOM     85  C   UNL A   1      37.074  29.563  30.790  1.00  0.00     0.200 A 
ATOM     86  F   UNL A   1      37.736  28.663  32.871  1.00  0.00    -0.200 F 
ATOM     87  F   UNL A   1      35.902  29.951  31.313  1.00  0.00    -0.200 F 
ENDBRANCH  53  77
BRANCH  65  88
ATOM     88  C   UNL A   1      45.289  32.706  28.851  1.00  0.00     0.064 A 
ATOM     89  C   UNL A   1      45.908  33.172  30.019  1.00  0.00     0.173 A 
ATOM     90  C   UNL A   1      44.959  33.650  27.864  1.00  0.00     0.173 A 
ATOM     91  F   UNL A   1      46.257  32.314  30.990  1.00  0.00    -0.203 F 
ATOM     92  C   UNL A   1      46.117  34.533  30.221  1.00  0.00     0.198 A 
ATOM     93  C   UNL A   1      45.234  35.001  28.041  1.00  0.00     0.198 A 
ATOM     94  F   UNL A   1      44.383  33.260  26.715  1.00  0.00    -0.203 F 
ATOM     95  F   UNL A   1      46.616  34.965  31.388  1.00  0.00    -0.200 F 
ATOM     96  C   UNL A   1      45.791  35.444  29.228  1.00  0.00     0.200 A 
ATOM     97  F   UNL A   1      44.954  35.871  27.061  1.00  0.00    -0.200 F 
ATOM     98  F   UNL A   1      46.003  36.753  29.421  1.00  0.00    -0.200 F 
ENDBRANCH  65  88
ENDBRANCH  39  40
ENDBRANCH  31  34
ENDBRANCH  29  30
ENDBRANCH  28  29
ENDBRANCH   1  28
TORSDOF 14
ENDMDL
MODEL 3
REMARK VINA RESULT:     -13.3      0.687      7.134
REMARK SMILES CSc1ccc(C=C2C(C)=C(CC(=O)NCCCCNC(=O)c3ccc(-c4c5nc(c(-c6c(F)c(F)c(F)c(F)c6F)c6ccc([nH]6)c(-c6c(F)c(F)c(F)c(F)c6F)c6nc(c(-c7c(F)c(F)c(F)c(F)c7F)c7ccc4[nH]7)C=C6)C=C5)cc3)c3cc(F)ccc32)cc1
REMARK SMILES IDX 17 1 16 2 15 3 13 4 14 5 12 7 11 8 7 9 8 10 9 11 92 12 10 13
REMARK SMILES IDX 86 14 91 15 87 16 90 17 88 18 89 19 6 20 3 21 4 22 94 23
REMARK SMILES IDX 5 24 93 25 2 26 1 27 18 28 19 29 20 30 21 31 22 33 23 34
REMARK SMILES IDX 24 35 85 36 25 37 84 38 26 39 27 40 28 41 78 42 29 43 83 44
REMARK SMILES IDX 77 45 79 46 30 47 82 48 76 49 75 50 31 52 63 53 43 54 62 55
REMARK SMILES IDX 44 56 47 57 61 58 80 59 45 60 46 61 60 63 81 64 48 65 32 66
REMARK SMILES IDX 33 67 41 68 34 69 35 70 39 71 42 72 36 73 37 74 40 75 38 76
REMARK SMILES IDX 64 77 65 78 73 79 66 80 67 81 71 82 74 83 68 84 69 85 72 86
REMARK SMILES IDX 70 87 49 88 50 89 58 90 51 91 52 92 56 93 59 94 53 95 54 96
REMARK SMILES IDX 57 97 55 98
REMARK H PARENT 15 6 20 32 79 51 47 62
REMARK Flexibility Score: inf
ROOT
ATOM      1  C   UNL A   1      31.681  30.916  26.150  1.00  0.00     0.023 C 
ENDROOT
BRANCH   1   2
ATOM      2  C   UNL A   1      32.880  30.114  26.655  1.00  0.00     0.116 C 
BRANCH   2   3
ATOM      3  N   UNL A   1      33.764  29.742  25.570  1.00  0.00    -0.356 N 
ATOM      4  C   UNL A   1      33.746  28.525  24.952  1.00  0.00     0.224 C 
ATOM      5  O   UNL A   1      34.544  28.270  24.053  1.00  0.00    -0.275 OA
ATOM      6  H   UNL A   1      34.420  30.408  25.259  1.00  0.00     0.163 HD
BRANCH   4   7
ATOM      7  C   UNL A   1      32.749  27.523  25.505  1.00  0.00     0.136 C 
BRANCH   7   8
ATOM      8  C   UNL A   1      32.096  26.872  24.267  1.00  0.00    -0.027 C 
ATOM      9  C   UNL A   1      32.040  23.975  25.247  1.00  0.00     0.017 C 
ATOM     10  C   UNL A   1      31.113  25.038  25.083  1.00  0.00    -0.014 C 
ATOM     11  C   UNL A   1      31.810  25.589  23.884  1.00  0.00    -0.039 C 
ATOM     12  C   UNL A   1      30.011  26.308  24.785  1.00  0.00    -0.010 A 
ATOM     13  C   UNL A   1      30.911  24.964  22.707  1.00  0.00     0.045 C 
ATOM     14  C   UNL A   1      30.778  27.384  24.269  1.00  0.00    -0.011 A 
ATOM     15  C   UNL A   1      28.710  26.389  24.260  1.00  0.00     0.012 A 
ATOM     16  C   UNL A   1      30.461  28.518  23.515  1.00  0.00     0.048 A 
ATOM     17  C   UNL A   1      28.318  27.506  23.400  1.00  0.00     0.040 A 
ATOM     18  C   UNL A   1      29.178  28.569  23.077  1.00  0.00     0.123 A 
ATOM     19  F   UNL A   1      28.822  29.537  22.221  1.00  0.00    -0.207 F 
BRANCH   9  20
ATOM     20  C   UNL A   1      32.877  22.987  24.267  1.00  0.00    -0.025 A 
ATOM     21  C   UNL A   1      33.737  20.303  24.306  1.00  0.00     0.007 A 
ATOM     22  C   UNL A   1      32.534  20.678  23.753  1.00  0.00     0.015 A 
ATOM     23  C   UNL A   1      34.673  21.333  24.428  1.00  0.00     0.015 A 
ATOM     24  C   UNL A   1      32.272  22.024  23.476  1.00  0.00     0.009 A 
ATOM     25  C   UNL A   1      34.233  22.689  24.451  1.00  0.00     0.009 A 
BRANCH  21  26
ATOM     26  S   UNL A   1      34.090  18.625  24.806  1.00  0.00    -0.130 SA
ATOM     27  C   UNL A   1      32.578  18.118  25.715  1.00  0.00     0.091 C 
ENDBRANCH  21  26
ENDBRANCH   9  20
ENDBRANCH   7   8
ENDBRANCH   4   7
ENDBRANCH   2   3
ENDBRANCH   1   2
BRANCH   1  28
ATOM     28  C   UNL A   1      31.400  32.121  27.021  1.00  0.00     0.023 C 
BRANCH  28  29
ATOM     29  C   UNL A   1      32.675  32.840  27.397  1.00  0.00     0.116 C 
BRANCH  29  30
ATOM     30  N   UNL A   1      32.437  34.254  27.650  1.00  0.00    -0.352 N 
ATOM     31  C   UNL A   1      33.018  35.035  28.610  1.00  0.00     0.251 C 
ATOM     32  H   UNL A   1      31.783  34.697  27.062  1.00  0.00     0.163 HD
ATOM     33  O   UNL A   1      32.572  36.145  28.879  1.00  0.00    -0.269 OA
BRANCH  31  34
ATOM     34  C   UNL A   1      34.180  34.492  29.332  1.00  0.00     0.039 A 
ATOM     35  C   UNL A   1      33.965  33.778  30.507  1.00  0.00     0.014 A 
ATOM     36  C   UNL A   1      35.469  34.638  28.806  1.00  0.00     0.014 A 
ATOM     37  C   UNL A   1      35.051  33.186  31.142  1.00  0.00     0.010 A 
ATOM     38  C   UNL A   1      36.520  33.927  29.359  1.00  0.00     0.010 A 
ATOM     39  C   UNL A   1      36.328  33.216  30.550  1.00  0.00    -0.014 A 
BRANCH  39  40
ATOM     40  C   UNL A   1      37.468  32.503  31.169  1.00  0.00     0.031 A 
ATOM     41  C   UNL A   1      37.955  32.890  32.534  1.00  0.00     0.074 A 
ATOM     42  C   UNL A   1      38.077  31.514  30.488  1.00  0.00     0.049 A 
ATOM     43  N   UNL A   1      38.939  32.378  33.227  1.00  0.00    -0.248 NA
ATOM     44  C   UNL A   1      37.263  34.002  33.206  1.00  0.00     0.031 C 
ATOM     45  C   UNL A   1      37.712  31.071  29.143  1.00  0.00     0.029 A 
ATOM     46  N   UNL A   1      39.124  30.698  30.835  1.00  0.00    -0.354 N 
ATOM     47  C   UNL A   1      38.975  33.092  34.414  1.00  0.00     0.074 A 
ATOM     48  C   UNL A   1      37.967  34.125  34.320  1.00  0.00     0.031 C 
ATOM     49  C   UNL A   1      38.485  30.031  28.799  1.00  0.00     0.029 A 
ATOM     50  C   UNL A   1      39.448  29.781  29.865  1.00  0.00     0.049 A 
ATOM     51  H   UNL A   1      39.599  30.763  31.695  1.00  0.00     0.167 HD
ATOM     52  C   UNL A   1      39.759  32.882  35.496  1.00  0.00     0.037 A 
ATOM     53  C   UNL A   1      40.424  28.855  29.825  1.00  0.00     0.037 A 
ATOM     54  C   UNL A   1      40.774  31.869  35.575  1.00  0.00     0.049 A 
ATOM     55  C   UNL A   1      41.350  28.721  31.003  1.00  0.00     0.074 A 
ATOM     56  C   UNL A   1      41.610  31.578  36.638  1.00  0.00     0.029 A 
ATOM     57  N   UNL A   1      41.111  30.999  34.549  1.00  0.00    -0.354 N 
ATOM     58  N   UNL A   1      41.339  29.371  32.140  1.00  0.00    -0.248 NA
ATOM     59  C   UNL A   1      42.421  27.720  30.895  1.00  0.00     0.031 C 
ATOM     60  C   UNL A   1      42.517  30.604  36.224  1.00  0.00     0.029 A 
ATOM     61  C   UNL A   1      42.173  30.202  34.944  1.00  0.00     0.049 A 
ATOM     62  H   UNL A   1      40.664  30.955  33.673  1.00  0.00     0.167 HD
ATOM     63  C   UNL A   1      42.367  28.825  32.899  1.00  0.00     0.074 A 
ATOM     64  C   UNL A   1      42.969  27.783  32.098  1.00  0.00     0.031 C 
ATOM     65  C   UNL A   1      42.766  29.159  34.150  1.00  0.00     0.037 A 
BRANCH  52  66
ATOM     66  C   UNL A   1      39.564  33.784  36.679  1.00  0.00     0.064 A 
ATOM     67  C   UNL A   1      38.786  33.395  37.781  1.00  0.00     0.173 A 
ATOM     68  C   UNL A   1      40.196  35.036  36.732  1.00  0.00     0.173 A 
ATOM     69  F   UNL A   1      38.174  32.201  37.788  1.00  0.00    -0.203 F 
ATOM     70  C   UNL A   1      38.595  34.252  38.859  1.00  0.00     0.198 A 
ATOM     71  C   UNL A   1      40.052  35.865  37.840  1.00  0.00     0.198 A 
ATOM     72  F   UNL A   1      40.970  35.450  35.718  1.00  0.00    -0.203 F 
ATOM     73  F   UNL A   1      37.775  33.895  39.856  1.00  0.00    -0.200 F 
ATOM     74  C   UNL A   1      39.235  35.481  38.892  1.00  0.00     0.200 A 
ATOM     75  F   UNL A   1      40.703  37.035  37.886  1.00  0.00    -0.200 F 
ATOM     76  F   UNL A   1      39.059  36.301  39.937  1.00  0.00    -0.200 F 
ENDBRANCH  52  66
BRANCH  53  77
ATOM     77  C   UNL A   1      40.599  27.992  28.626  1.00  0.00     0.064 A 
ATOM     78  C   UNL A   1      41.358  28.422  27.529  1.00  0.00     0.173 A 
ATOM     79  C   UNL A   1      39.953  26.750  28.522  1.00  0.00     0.173 A 
ATOM     80  F   UNL A   1      41.991  29.604  27.573  1.00  0.00    -0.203 F 
ATOM     81  C   UNL A   1      41.409  27.678  26.353  1.00  0.00     0.198 A 
ATOM     82  C   UNL A   1      40.057  25.978  27.370  1.00  0.00     0.198 A 
ATOM     83  F   UNL A   1      39.220  26.285  29.545  1.00  0.00    -0.203 F 
ATOM     84  F   UNL A   1      42.048  28.167  25.282  1.00  0.00    -0.200 F 
ATOM     85  C   UNL A   1      40.764  26.453  26.278  1.00  0.00     0.200 A 
ATOM     86  F   UNL A   1      39.455  24.782  27.313  1.00  0.00    -0.200 F 
ATOM     87  F   UNL A   1      40.809  25.739  25.145  1.00  0.00    -0.200 F 
ENDBRANCH  53  77
BRANCH  65  88
ATOM     88  C   UNL A   1      43.859  28.337  34.775  1.00  0.00     0.064 A 
ATOM     89  C   UNL A   1      43.599  27.158  35.486  1.00  0.00     0.173 A 
ATOM     90  C   UNL A   1      45.201  28.734  34.633  1.00  0.00     0.173 A 
ATOM     91  F   UNL A   1      42.338  26.725  35.643  1.00  0.00    -0.203 F 
ATOM     92  C   UNL A   1      44.631  26.449  36.094  1.00  0.00     0.198 A 
ATOM     93  C   UNL A   1      46.233  27.983  35.183  1.00  0.00     0.198 A 
ATOM     94  F   UNL A   1      45.513  29.842  33.944  1.00  0.00    -0.203 F 
ATOM     95  F   UNL A   1      44.347  25.383  36.856  1.00  0.00    -0.200 F 
ATOM     96  C   UNL A   1      45.947  26.855  35.933  1.00  0.00     0.200 A 
ATOM     97  F   UNL A   1      47.505  28.358  34.989  1.00  0.00    -0.200 F 
ATOM     98  F   UNL A   1      46.939  26.165  36.510  1.00  0.00    -0.200 F 
ENDBRANCH  65  88
ENDBRANCH  39  40
ENDBRANCH  31  34
ENDBRANCH  29  30
ENDBRANCH  28  29
ENDBRANCH   1  28
TORSDOF 14
ENDMDL
