MODEL 1
REMARK VINA RESULT:     -13.8      0.000      0.000
REMARK SMILES Cc1cc(NC(=O)c2ccc(Br)cc2N)ccc1C(=O)NCCCCNC(=O)c1ccc(-c2c3nc(c(-c4c(F)c(F)c(F)c(F)c4F)c4ccc([nH]4)c(-c4c(F)c(F)c(F)c(F)c4F)c4nc(c(-c5c(F)c(F)c(F)c(F)c5F)c5ccc2[nH]5)C=C4)C=C3)cc1
REMARK SMILES IDX 23 1 22 2 21 3 19 4 20 5 18 7 1 8 2 9 3 10 4 11 17 12 16 13
REMARK SMILES IDX 5 14 6 15 7 17 8 18 9 19 14 20 10 21 13 22 11 23 12 24 15 25
REMARK SMILES IDX 24 28 25 29 26 30 27 31 28 33 29 34 30 35 91 36 31 37 90 38
REMARK SMILES IDX 32 39 33 40 34 41 84 42 35 43 89 44 83 45 85 46 36 47 88 48
REMARK SMILES IDX 82 49 81 50 37 52 69 53 49 54 68 55 50 56 53 57 67 58 86 59
REMARK SMILES IDX 51 60 52 61 66 63 87 64 54 65 38 66 39 67 47 68 40 69 41 70
REMARK SMILES IDX 45 71 48 72 42 73 43 74 46 75 44 76 70 77 71 78 79 79 72 80
REMARK SMILES IDX 73 81 77 82 80 83 74 84 75 85 78 86 76 87 55 88 56 89 64 90
REMARK SMILES IDX 57 91 58 92 62 93 65 94 59 95 60 96 63 97 61 98
REMARK H PARENT 21 6 5 16 15 26 15 27 26 32 85 51 53 62
REMARK Flexibility Score: inf
ROOT
ATOM      1  C   UNL A   1      37.155  21.417  24.812  1.00  0.00     0.023 C 
ENDROOT
BRANCH   1   2
ATOM      2  C   UNL A   1      35.959  21.631  25.751  1.00  0.00     0.116 C 
BRANCH   2   3
ATOM      3  N   UNL A   1      34.941  20.638  25.494  1.00  0.00    -0.352 N 
ATOM      4  C   UNL A   1      33.633  20.666  25.097  1.00  0.00     0.251 C 
ATOM      5  O   UNL A   1      33.088  19.555  25.091  1.00  0.00    -0.269 OA
ATOM      6  H   UNL A   1      35.267  19.721  25.641  1.00  0.00     0.163 HD
BRANCH   4   7
ATOM      7  C   UNL A   1      32.835  21.842  24.590  1.00  0.00     0.042 A 
ATOM      8  C   UNL A   1      34.347  22.946  22.766  1.00  0.00     0.045 C 
ATOM      9  C   UNL A   1      33.107  22.791  23.586  1.00  0.00    -0.036 A 
ATOM     10  C   UNL A   1      32.149  23.795  23.317  1.00  0.00     0.030 A 
ATOM     11  C   UNL A   1      30.957  23.909  24.018  1.00  0.00     0.041 A 
ATOM     12  C   UNL A   1      31.646  22.039  25.348  1.00  0.00     0.016 A 
ATOM     13  C   UNL A   1      30.737  23.073  25.096  1.00  0.00     0.027 A 
BRANCH  11  14
ATOM     14  N   UNL A   1      29.975  24.840  23.651  1.00  0.00    -0.322 N 
ATOM     15  C   UNL A   1      29.805  26.133  24.114  1.00  0.00     0.257 C 
ATOM     16  H   UNL A   1      29.324  24.535  22.977  1.00  0.00     0.170 HD
ATOM     17  O   UNL A   1      28.721  26.696  23.972  1.00  0.00    -0.269 OA
BRANCH  15  18
ATOM     18  C   UNL A   1      30.940  26.892  24.721  1.00  0.00     0.063 A 
ATOM     19  C   UNL A   1      31.028  26.870  26.125  1.00  0.00     0.017 A 
ATOM     20  C   UNL A   1      31.883  27.625  23.962  1.00  0.00     0.045 A 
ATOM     21  C   UNL A   1      32.039  27.572  26.782  1.00  0.00     0.016 A 
ATOM     22  C   UNL A   1      32.882  28.335  24.645  1.00  0.00     0.042 A 
ATOM     23  C   UNL A   1      32.957  28.307  26.038  1.00  0.00     0.020 A 
ATOM     24  Br  UNL A   1      34.277  29.328  26.924  1.00  0.00    -0.051 Br
BRANCH  20  25
ATOM     25  N   UNL A   1      31.785  27.815  22.584  1.00  0.00    -0.398 N 
ATOM     26  H   UNL A   1      32.595  27.799  22.025  1.00  0.00     0.156 HD
ATOM     27  H   UNL A   1      30.904  27.965  22.170  1.00  0.00     0.156 HD
ENDBRANCH  20  25
ENDBRANCH  15  18
ENDBRANCH  11  14
ENDBRANCH   4   7
ENDBRANCH   2   3
ENDBRANCH   1   2
BRANCH   1  28
ATOM     28  C   UNL A   1      38.528  21.448  25.471  1.00  0.00     0.023 C 
BRANCH  28  29
ATOM     29  C   UNL A   1      38.837  22.779  26.126  1.00  0.00     0.116 C 
BRANCH  29  30
ATOM     30  N   UNL A   1      40.217  22.943  26.571  1.00  0.00    -0.352 N 
ATOM     31  C   UNL A   1      40.890  24.102  26.928  1.00  0.00     0.251 C 
ATOM     32  H   UNL A   1      40.745  22.114  26.625  1.00  0.00     0.163 HD
ATOM     33  O   UNL A   1      42.085  24.057  27.210  1.00  0.00    -0.269 OA
BRANCH  31  34
ATOM     34  C   UNL A   1      40.128  25.360  27.131  1.00  0.00     0.039 A 
ATOM     35  C   UNL A   1      40.485  26.469  26.354  1.00  0.00     0.014 A 
ATOM     36  C   UNL A   1      39.332  25.528  28.257  1.00  0.00     0.014 A 
ATOM     37  C   UNL A   1      40.324  27.745  26.885  1.00  0.00     0.010 A 
ATOM     38  C   UNL A   1      39.317  26.769  28.854  1.00  0.00     0.010 A 
ATOM     39  C   UNL A   1      39.888  27.865  28.201  1.00  0.00    -0.014 A 
BRANCH  39  40
ATOM     40  C   UNL A   1      40.140  29.041  29.027  1.00  0.00     0.031 A 
ATOM     41  C   UNL A   1      39.112  30.094  29.161  1.00  0.00     0.074 A 
ATOM     42  C   UNL A   1      41.258  29.076  29.788  1.00  0.00     0.049 A 
ATOM     43  N   UNL A   1      39.337  31.283  29.607  1.00  0.00    -0.248 NA
ATOM     44  C   UNL A   1      37.734  29.897  28.737  1.00  0.00     0.031 C 
ATOM     45  C   UNL A   1      41.543  29.964  30.912  1.00  0.00     0.029 A 
ATOM     46  N   UNL A   1      42.476  28.410  29.558  1.00  0.00    -0.354 N 
ATOM     47  C   UNL A   1      38.121  31.899  29.804  1.00  0.00     0.074 A 
ATOM     48  C   UNL A   1      37.168  31.031  29.158  1.00  0.00     0.031 C 
ATOM     49  C   UNL A   1      42.871  30.027  31.092  1.00  0.00     0.029 A 
ATOM     50  C   UNL A   1      43.484  29.304  29.991  1.00  0.00     0.049 A 
ATOM     51  H   UNL A   1      42.600  27.510  29.177  1.00  0.00     0.167 HD
ATOM     52  C   UNL A   1      38.070  32.999  30.614  1.00  0.00     0.037 A 
ATOM     53  C   UNL A   1      44.377  29.841  29.111  1.00  0.00     0.037 A 
ATOM     54  C   UNL A   1      39.425  33.453  30.946  1.00  0.00     0.049 A 
ATOM     55  C   UNL A   1      44.335  31.350  29.035  1.00  0.00     0.074 A 
ATOM     56  C   UNL A   1      40.220  33.318  32.072  1.00  0.00     0.029 A 
ATOM     57  N   UNL A   1      40.265  33.896  29.926  1.00  0.00    -0.354 N 
ATOM     58  N   UNL A   1      43.332  32.068  29.457  1.00  0.00    -0.248 NA
ATOM     59  C   UNL A   1      45.394  32.162  28.445  1.00  0.00     0.031 C 
ATOM     60  C   UNL A   1      41.558  33.613  31.704  1.00  0.00     0.029 A 
ATOM     61  C   UNL A   1      41.575  33.952  30.363  1.00  0.00     0.049 A 
ATOM     62  H   UNL A   1      39.966  34.134  29.018  1.00  0.00     0.167 HD
ATOM     63  C   UNL A   1      43.567  33.390  29.182  1.00  0.00     0.074 A 
ATOM     64  C   UNL A   1      44.882  33.400  28.568  1.00  0.00     0.031 C 
ATOM     65  C   UNL A   1      42.647  34.358  29.466  1.00  0.00     0.037 A 
BRANCH  52  66
ATOM     66  C   UNL A   1      36.826  33.487  31.351  1.00  0.00     0.064 A 
ATOM     67  C   UNL A   1      35.768  34.098  30.637  1.00  0.00     0.173 A 
ATOM     68  C   UNL A   1      36.641  33.487  32.746  1.00  0.00     0.173 A 
ATOM     69  F   UNL A   1      35.724  34.083  29.299  1.00  0.00    -0.203 F 
ATOM     70  C   UNL A   1      34.703  34.754  31.268  1.00  0.00     0.198 A 
ATOM     71  C   UNL A   1      35.596  34.168  33.381  1.00  0.00     0.198 A 
ATOM     72  F   UNL A   1      37.421  32.780  33.566  1.00  0.00    -0.203 F 
ATOM     73  F   UNL A   1      33.749  35.337  30.529  1.00  0.00    -0.200 F 
ATOM     74  C   UNL A   1      34.636  34.819  32.642  1.00  0.00     0.200 A 
ATOM     75  F   UNL A   1      35.535  34.184  34.720  1.00  0.00    -0.200 F 
ATOM     76  F   UNL A   1      33.639  35.475  33.251  1.00  0.00    -0.200 F 
ENDBRANCH  52  66
BRANCH  53  77
ATOM     77  C   UNL A   1      44.700  28.934  27.977  1.00  0.00     0.064 A 
ATOM     78  C   UNL A   1      45.542  27.833  28.224  1.00  0.00     0.173 A 
ATOM     79  C   UNL A   1      43.927  28.905  26.811  1.00  0.00     0.173 A 
ATOM     80  F   UNL A   1      46.285  27.801  29.340  1.00  0.00    -0.203 F 
ATOM     81  C   UNL A   1      45.533  26.708  27.404  1.00  0.00     0.198 A 
ATOM     82  C   UNL A   1      43.926  27.777  25.985  1.00  0.00     0.198 A 
ATOM     83  F   UNL A   1      43.079  29.905  26.535  1.00  0.00    -0.203 F 
ATOM     84  F   UNL A   1      46.265  25.634  27.734  1.00  0.00    -0.200 F 
ATOM     85  C   UNL A   1      44.701  26.670  26.299  1.00  0.00     0.200 A 
ATOM     86  F   UNL A   1      43.088  27.721  24.940  1.00  0.00    -0.200 F 
ATOM     87  F   UNL A   1      44.609  25.552  25.566  1.00  0.00    -0.200 F 
ENDBRANCH  53  77
BRANCH  65  88
ATOM     88  C   UNL A   1      42.701  35.791  28.996  1.00  0.00     0.064 A 
ATOM     89  C   UNL A   1      41.962  36.288  27.910  1.00  0.00     0.173 A 
ATOM     90  C   UNL A   1      43.403  36.762  29.751  1.00  0.00     0.173 A 
ATOM     91  F   UNL A   1      41.167  35.489  27.185  1.00  0.00    -0.203 F 
ATOM     92  C   UNL A   1      41.968  37.644  27.570  1.00  0.00     0.198 A 
ATOM     93  C   UNL A   1      43.361  38.121  29.444  1.00  0.00     0.198 A 
ATOM     94  F   UNL A   1      44.129  36.421  30.826  1.00  0.00    -0.203 F 
ATOM     95  F   UNL A   1      41.276  38.063  26.501  1.00  0.00    -0.200 F 
ATOM     96  C   UNL A   1      42.656  38.560  28.344  1.00  0.00     0.200 A 
ATOM     97  F   UNL A   1      43.991  39.002  30.234  1.00  0.00    -0.200 F 
ATOM     98  F   UNL A   1      42.619  39.866  28.042  1.00  0.00    -0.200 F 
ENDBRANCH  65  88
ENDBRANCH  39  40
ENDBRANCH  31  34
ENDBRANCH  29  30
ENDBRANCH  28  29
ENDBRANCH   1  28
TORSDOF 14
ENDMDL
MODEL 2
REMARK VINA RESULT:     -13.7      3.938     10.241
REMARK SMILES Cc1cc(NC(=O)c2ccc(Br)cc2N)ccc1C(=O)NCCCCNC(=O)c1ccc(-c2c3nc(c(-c4c(F)c(F)c(F)c(F)c4F)c4ccc([nH]4)c(-c4c(F)c(F)c(F)c(F)c4F)c4nc(c(-c5c(F)c(F)c(F)c(F)c5F)c5ccc2[nH]5)C=C4)C=C3)cc1
REMARK SMILES IDX 23 1 22 2 21 3 19 4 20 5 18 7 1 8 2 9 3 10 4 11 17 12 16 13
REMARK SMILES IDX 5 14 6 15 7 17 8 18 9 19 14 20 10 21 13 22 11 23 12 24 15 25
REMARK SMILES IDX 24 28 25 29 26 30 27 31 28 33 29 34 30 35 91 36 31 37 90 38
REMARK SMILES IDX 32 39 33 40 34 41 84 42 35 43 89 44 83 45 85 46 36 47 88 48
REMARK SMILES IDX 82 49 81 50 37 52 69 53 49 54 68 55 50 56 53 57 67 58 86 59
REMARK SMILES IDX 51 60 52 61 66 63 87 64 54 65 38 66 39 67 47 68 40 69 41 70
REMARK SMILES IDX 45 71 48 72 42 73 43 74 46 75 44 76 70 77 71 78 79 79 72 80
REMARK SMILES IDX 73 81 77 82 80 83 74 84 75 85 78 86 76 87 55 88 56 89 64 90
REMARK SMILES IDX 57 91 58 92 62 93 65 94 59 95 60 96 63 97 61 98
REMARK H PARENT 21 6 5 16 15 26 15 27 26 32 85 51 53 62
REMARK Flexibility Score: inf
ROOT
ATOM      1  C   UNL A   1      32.180  30.533  26.318  1.00  0.00     0.023 C 
ENDROOT
BRANCH   1   2
ATOM      2  C   UNL A   1      32.551  29.697  25.085  1.00  0.00     0.116 C 
BRANCH   2   3
ATOM      3  N   UNL A   1      31.379  29.460  24.274  1.00  0.00    -0.352 N 
ATOM      4  C   UNL A   1      30.656  28.358  23.908  1.00  0.00     0.251 C 
ATOM      5  O   UNL A   1      29.749  28.600  23.101  1.00  0.00    -0.269 OA
ATOM      6  H   UNL A   1      31.012  30.290  23.894  1.00  0.00     0.163 HD
BRANCH   4   7
ATOM      7  C   UNL A   1      30.772  26.948  24.430  1.00  0.00     0.042 A 
ATOM      8  C   UNL A   1      31.031  27.207  27.019  1.00  0.00     0.045 C 
ATOM      9  C   UNL A   1      30.896  26.445  25.740  1.00  0.00    -0.036 A 
ATOM     10  C   UNL A   1      30.976  25.047  25.931  1.00  0.00     0.030 A 
ATOM     11  C   UNL A   1      30.967  24.139  24.881  1.00  0.00     0.041 A 
ATOM     12  C   UNL A   1      30.854  25.998  23.373  1.00  0.00     0.016 A 
ATOM     13  C   UNL A   1      30.985  24.621  23.586  1.00  0.00     0.027 A 
BRANCH  11  14
ATOM     14  N   UNL A   1      30.928  22.756  25.106  1.00  0.00    -0.322 N 
ATOM     15  C   UNL A   1      31.985  21.864  25.142  1.00  0.00     0.257 C 
ATOM     16  H   UNL A   1      30.034  22.370  25.258  1.00  0.00     0.170 HD
ATOM     17  O   UNL A   1      31.777  20.661  24.999  1.00  0.00    -0.269 OA
BRANCH  15  18
ATOM     18  C   UNL A   1      33.378  22.327  25.427  1.00  0.00     0.063 A 
ATOM     19  C   UNL A   1      34.236  22.448  24.319  1.00  0.00     0.017 A 
ATOM     20  C   UNL A   1      33.853  22.617  26.728  1.00  0.00     0.045 A 
ATOM     21  C   UNL A   1      35.561  22.848  24.490  1.00  0.00     0.016 A 
ATOM     22  C   UNL A   1      35.193  23.004  26.877  1.00  0.00     0.042 A 
ATOM     23  C   UNL A   1      36.035  23.117  25.770  1.00  0.00     0.020 A 
ATOM     24  Br  UNL A   1      37.851  23.577  26.020  1.00  0.00    -0.051 Br
BRANCH  20  25
ATOM     25  N   UNL A   1      33.115  22.388  27.888  1.00  0.00    -0.398 N 
ATOM     26  H   UNL A   1      33.564  22.372  28.764  1.00  0.00     0.156 HD
ATOM     27  H   UNL A   1      32.142  22.241  27.832  1.00  0.00     0.156 HD
ENDBRANCH  20  25
ENDBRANCH  15  18
ENDBRANCH  11  14
ENDBRANCH   4   7
ENDBRANCH   2   3
ENDBRANCH   1   2
BRANCH   1  28
ATOM     28  C   UNL A   1      33.090  30.366  27.529  1.00  0.00     0.023 C 
BRANCH  28  29
ATOM     29  C   UNL A   1      34.522  30.774  27.250  1.00  0.00     0.116 C 
BRANCH  29  30
ATOM     30  N   UNL A   1      35.171  31.525  28.321  1.00  0.00    -0.352 N 
ATOM     31  C   UNL A   1      36.208  31.140  29.156  1.00  0.00     0.251 C 
ATOM     32  H   UNL A   1      34.821  32.433  28.470  1.00  0.00     0.163 HD
ATOM     33  O   UNL A   1      36.580  31.886  30.059  1.00  0.00    -0.269 OA
BRANCH  31  34
ATOM     34  C   UNL A   1      36.975  29.906  28.853  1.00  0.00     0.039 A 
ATOM     35  C   UNL A   1      37.104  28.954  29.872  1.00  0.00     0.014 A 
ATOM     36  C   UNL A   1      37.800  29.844  27.737  1.00  0.00     0.014 A 
ATOM     37  C   UNL A   1      38.250  28.168  29.920  1.00  0.00     0.010 A 
ATOM     38  C   UNL A   1      39.005  29.191  27.864  1.00  0.00     0.010 A 
ATOM     39  C   UNL A   1      39.263  28.415  28.998  1.00  0.00    -0.014 A 
BRANCH  39  40
ATOM     40  C   UNL A   1      40.659  28.049  29.218  1.00  0.00     0.031 A 
ATOM     41  C   UNL A   1      41.193  26.784  28.676  1.00  0.00     0.074 A 
ATOM     42  C   UNL A   1      41.488  28.954  29.787  1.00  0.00     0.049 A 
ATOM     43  N   UNL A   1      42.295  26.233  29.056  1.00  0.00    -0.248 NA
ATOM     44  C   UNL A   1      40.478  25.996  27.682  1.00  0.00     0.031 C 
ATOM     45  C   UNL A   1      42.948  28.941  29.796  1.00  0.00     0.029 A 
ATOM     46  N   UNL A   1      41.147  30.003  30.661  1.00  0.00    -0.354 N 
ATOM     47  C   UNL A   1      42.581  25.207  28.182  1.00  0.00     0.074 A 
ATOM     48  C   UNL A   1      41.374  25.044  27.411  1.00  0.00     0.031 C 
ATOM     49  C   UNL A   1      43.384  29.695  30.817  1.00  0.00     0.029 A 
ATOM     50  C   UNL A   1      42.215  30.087  31.585  1.00  0.00     0.049 A 
ATOM     51  H   UNL A   1      40.336  30.561  30.634  1.00  0.00     0.167 HD
ATOM     52  C   UNL A   1      43.859  24.725  28.137  1.00  0.00     0.037 A 
ATOM     53  C   UNL A   1      42.028  29.813  32.908  1.00  0.00     0.037 A 
ATOM     54  C   UNL A   1      44.653  25.274  29.242  1.00  0.00     0.049 A 
ATOM     55  C   UNL A   1      42.864  28.665  33.423  1.00  0.00     0.074 A 
ATOM     56  C   UNL A   1      45.602  26.280  29.318  1.00  0.00     0.029 A 
ATOM     57  N   UNL A   1      44.289  24.980  30.554  1.00  0.00    -0.354 N 
ATOM     58  N   UNL A   1      43.427  27.776  32.653  1.00  0.00    -0.248 NA
ATOM     59  C   UNL A   1      43.098  28.403  34.840  1.00  0.00     0.031 C 
ATOM     60  C   UNL A   1      45.752  26.640  30.682  1.00  0.00     0.029 A 
ATOM     61  C   UNL A   1      44.917  25.837  31.438  1.00  0.00     0.049 A 
ATOM     62  H   UNL A   1      43.668  24.261  30.816  1.00  0.00     0.167 HD
ATOM     63  C   UNL A   1      44.051  26.830  33.423  1.00  0.00     0.074 A 
ATOM     64  C   UNL A   1      43.836  27.279  34.787  1.00  0.00     0.031 C 
ATOM     65  C   UNL A   1      44.673  25.748  32.870  1.00  0.00     0.037 A 
BRANCH  52  66
ATOM     66  C   UNL A   1      44.482  24.005  26.944  1.00  0.00     0.064 A 
ATOM     67  C   UNL A   1      44.172  22.648  26.688  1.00  0.00     0.173 A 
ATOM     68  C   UNL A   1      45.456  24.536  26.077  1.00  0.00     0.173 A 
ATOM     69  F   UNL A   1      43.186  22.019  27.340  1.00  0.00    -0.203 F 
ATOM     70  C   UNL A   1      44.863  21.873  25.747  1.00  0.00     0.198 A 
ATOM     71  C   UNL A   1      46.171  23.758  25.159  1.00  0.00     0.198 A 
ATOM     72  F   UNL A   1      45.726  25.841  26.026  1.00  0.00    -0.203 F 
ATOM     73  F   UNL A   1      44.536  20.585  25.577  1.00  0.00    -0.200 F 
ATOM     74  C   UNL A   1      45.887  22.420  25.007  1.00  0.00     0.200 A 
ATOM     75  F   UNL A   1      47.139  24.325  24.425  1.00  0.00    -0.200 F 
ATOM     76  F   UNL A   1      46.576  21.676  24.132  1.00  0.00    -0.200 F 
ENDBRANCH  52  66
BRANCH  53  77
ATOM     77  C   UNL A   1      40.666  30.166  33.392  1.00  0.00     0.064 A 
ATOM     78  C   UNL A   1      40.376  31.523  33.630  1.00  0.00     0.173 A 
ATOM     79  C   UNL A   1      39.584  29.290  33.260  1.00  0.00     0.173 A 
ATOM     80  F   UNL A   1      41.378  32.408  33.740  1.00  0.00    -0.203 F 
ATOM     81  C   UNL A   1      39.069  32.002  33.626  1.00  0.00     0.198 A 
ATOM     82  C   UNL A   1      38.272  29.772  33.264  1.00  0.00     0.198 A 
ATOM     83  F   UNL A   1      39.790  27.992  32.998  1.00  0.00    -0.203 F 
ATOM     84  F   UNL A   1      38.838  33.318  33.743  1.00  0.00    -0.200 F 
ATOM     85  C   UNL A   1      38.018  31.128  33.415  1.00  0.00     0.200 A 
ATOM     86  F   UNL A   1      37.255  28.934  33.015  1.00  0.00    -0.200 F 
ATOM     87  F   UNL A   1      36.766  31.596  33.305  1.00  0.00    -0.200 F 
ENDBRANCH  53  77
BRANCH  65  88
ATOM     88  C   UNL A   1      45.177  24.540  33.621  1.00  0.00     0.064 A 
ATOM     89  C   UNL A   1      44.405  23.394  33.871  1.00  0.00     0.173 A 
ATOM     90  C   UNL A   1      46.542  24.446  33.984  1.00  0.00     0.173 A 
ATOM     91  F   UNL A   1      43.127  23.314  33.474  1.00  0.00    -0.203 F 
ATOM     92  C   UNL A   1      44.942  22.260  34.487  1.00  0.00     0.198 A 
ATOM     93  C   UNL A   1      47.089  23.293  34.545  1.00  0.00     0.198 A 
ATOM     94  F   UNL A   1      47.392  25.463  33.778  1.00  0.00    -0.203 F 
ATOM     95  F   UNL A   1      44.155  21.205  34.739  1.00  0.00    -0.200 F 
ATOM     96  C   UNL A   1      46.286  22.205  34.811  1.00  0.00     0.200 A 
ATOM     97  F   UNL A   1      48.403  23.237  34.804  1.00  0.00    -0.200 F 
ATOM     98  F   UNL A   1      46.807  21.097  35.356  1.00  0.00    -0.200 F 
ENDBRANCH  65  88
ENDBRANCH  39  40
ENDBRANCH  31  34
ENDBRANCH  29  30
ENDBRANCH  28  29
ENDBRANCH   1  28
TORSDOF 14
ENDMDL
MODEL 3
REMARK VINA RESULT:     -13.6      3.917     10.118
REMARK SMILES Cc1cc(NC(=O)c2ccc(Br)cc2N)ccc1C(=O)NCCCCNC(=O)c1ccc(-c2c3nc(c(-c4c(F)c(F)c(F)c(F)c4F)c4ccc([nH]4)c(-c4c(F)c(F)c(F)c(F)c4F)c4nc(c(-c5c(F)c(F)c(F)c(F)c5F)c5ccc2[nH]5)C=C4)C=C3)cc1
REMARK SMILES IDX 23 1 22 2 21 3 19 4 20 5 18 7 1 8 2 9 3 10 4 11 17 12 16 13
REMARK SMILES IDX 5 14 6 15 7 17 8 18 9 19 14 20 10 21 13 22 11 23 12 24 15 25
REMARK SMILES IDX 24 28 25 29 26 30 27 31 28 33 29 34 30 35 91 36 31 37 90 38
REMARK SMILES IDX 32 39 33 40 34 41 84 42 35 43 89 44 83 45 85 46 36 47 88 48
REMARK SMILES IDX 82 49 81 50 37 52 69 53 49 54 68 55 50 56 53 57 67 58 86 59
REMARK SMILES IDX 51 60 52 61 66 63 87 64 54 65 38 66 39 67 47 68 40 69 41 70
REMARK SMILES IDX 45 71 48 72 42 73 43 74 46 75 44 76 70 77 71 78 79 79 72 80
REMARK SMILES IDX 73 81 77 82 80 83 74 84 75 85 78 86 76 87 55 88 56 89 64 90
REMARK SMILES IDX 57 91 58 92 62 93 65 94 59 95 60 96 63 97 61 98
REMARK H PARENT 21 6 5 16 15 26 15 27 26 32 85 51 53 62
REMARK Flexibility Score: inf
ROOT
ATOM      1  C   UNL A   1      34.036  28.898  26.949  1.00  0.00     0.023 C 
ENDROOT
BRANCH   1   2
ATOM      2  C   UNL A   1      32.590  28.407  27.111  1.00  0.00     0.116 C 
BRANCH   2   3
ATOM      3  N   UNL A   1      31.706  29.175  26.265  1.00  0.00    -0.352 N 
ATOM      4  C   UNL A   1      31.433  29.216  24.925  1.00  0.00     0.251 C 
ATOM      5  O   UNL A   1      30.649  30.117  24.601  1.00  0.00    -0.269 OA
ATOM      6  H   UNL A   1      31.171  29.826  26.775  1.00  0.00     0.163 HD
BRANCH   4   7
ATOM      7  C   UNL A   1      31.889  28.262  23.849  1.00  0.00     0.042 A 
ATOM      8  C   UNL A   1      34.302  29.051  23.226  1.00  0.00     0.045 C 
ATOM      9  C   UNL A   1      33.106  28.158  23.148  1.00  0.00    -0.036 A 
ATOM     10  C   UNL A   1      33.254  27.137  22.183  1.00  0.00     0.030 A 
ATOM     11  C   UNL A   1      32.240  26.241  21.868  1.00  0.00     0.041 A 
ATOM     12  C   UNL A   1      30.843  27.387  23.443  1.00  0.00     0.016 A 
ATOM     13  C   UNL A   1      30.997  26.416  22.446  1.00  0.00     0.027 A 
BRANCH  11  14
ATOM     14  N   UNL A   1      32.455  25.167  20.994  1.00  0.00    -0.322 N 
ATOM     15  C   UNL A   1      33.125  23.982  21.241  1.00  0.00     0.257 C 
ATOM     16  H   UNL A   1      32.081  25.268  20.088  1.00  0.00     0.170 HD
ATOM     17  O   UNL A   1      33.533  23.301  20.302  1.00  0.00    -0.269 OA
BRANCH  15  18
ATOM     18  C   UNL A   1      33.301  23.470  22.635  1.00  0.00     0.063 A 
ATOM     19  C   UNL A   1      34.237  24.149  23.437  1.00  0.00     0.017 A 
ATOM     20  C   UNL A   1      32.601  22.354  23.151  1.00  0.00     0.045 A 
ATOM     21  C   UNL A   1      34.488  23.727  24.743  1.00  0.00     0.016 A 
ATOM     22  C   UNL A   1      32.881  21.939  24.461  1.00  0.00     0.042 A 
ATOM     23  C   UNL A   1      33.814  22.619  25.245  1.00  0.00     0.020 A 
ATOM     24  Br  UNL A   1      34.210  21.990  26.983  1.00  0.00    -0.051 Br
BRANCH  20  25
ATOM     25  N   UNL A   1      31.767  21.543  22.381  1.00  0.00    -0.398 N 
ATOM     26  H   UNL A   1      30.909  21.230  22.748  1.00  0.00     0.156 HD
ATOM     27  H   UNL A   1      32.038  21.283  21.471  1.00  0.00     0.156 HD
ENDBRANCH  20  25
ENDBRANCH  15  18
ENDBRANCH  11  14
ENDBRANCH   4   7
ENDBRANCH   2   3
ENDBRANCH   1   2
BRANCH   1  28
ATOM     28  C   UNL A   1      34.227  30.409  26.955  1.00  0.00     0.023 C 
BRANCH  28  29
ATOM     29  C   UNL A   1      34.211  30.999  28.350  1.00  0.00     0.116 C 
BRANCH  29  30
ATOM     30  N   UNL A   1      35.329  31.887  28.659  1.00  0.00    -0.352 N 
ATOM     31  C   UNL A   1      36.647  31.568  28.943  1.00  0.00     0.251 C 
ATOM     32  H   UNL A   1      35.115  32.848  28.666  1.00  0.00     0.163 HD
ATOM     33  O   UNL A   1      37.441  32.453  29.254  1.00  0.00    -0.269 OA
BRANCH  31  34
ATOM     34  C   UNL A   1      37.135  30.185  28.708  1.00  0.00     0.039 A 
ATOM     35  C   UNL A   1      37.280  29.349  29.823  1.00  0.00     0.014 A 
ATOM     36  C   UNL A   1      37.730  29.843  27.501  1.00  0.00     0.014 A 
ATOM     37  C   UNL A   1      38.272  28.373  29.809  1.00  0.00     0.010 A 
ATOM     38  C   UNL A   1      38.815  28.995  27.536  1.00  0.00     0.010 A 
ATOM     39  C   UNL A   1      39.135  28.320  28.718  1.00  0.00    -0.014 A 
BRANCH  39  40
ATOM     40  C   UNL A   1      40.467  27.728  28.775  1.00  0.00     0.031 A 
ATOM     41  C   UNL A   1      40.653  26.283  28.529  1.00  0.00     0.074 A 
ATOM     42  C   UNL A   1      41.539  28.544  28.900  1.00  0.00     0.049 A 
ATOM     43  N   UNL A   1      41.712  25.618  28.843  1.00  0.00    -0.248 NA
ATOM     44  C   UNL A   1      39.610  25.449  27.950  1.00  0.00     0.031 C 
ATOM     45  C   UNL A   1      42.940  28.219  28.645  1.00  0.00     0.029 A 
ATOM     46  N   UNL A   1      41.582  29.823  29.484  1.00  0.00    -0.354 N 
ATOM     47  C   UNL A   1      41.620  24.373  28.261  1.00  0.00     0.074 A 
ATOM     48  C   UNL A   1      40.256  24.290  27.804  1.00  0.00     0.031 C 
ATOM     49  C   UNL A   1      43.716  29.088  29.311  1.00  0.00     0.029 A 
ATOM     50  C   UNL A   1      42.837  29.899  30.134  1.00  0.00     0.049 A 
ATOM     51  H   UNL A   1      40.886  30.519  29.447  1.00  0.00     0.167 HD
ATOM     52  C   UNL A   1      42.760  23.630  28.123  1.00  0.00     0.037 A 
ATOM     53  C   UNL A   1      42.923  30.005  31.492  1.00  0.00     0.037 A 
ATOM     54  C   UNL A   1      43.866  24.249  28.861  1.00  0.00     0.049 A 
ATOM     55  C   UNL A   1      43.665  28.866  32.152  1.00  0.00     0.074 A 
ATOM     56  C   UNL A   1      44.953  25.015  28.472  1.00  0.00     0.029 A 
ATOM     57  N   UNL A   1      43.778  24.372  30.246  1.00  0.00    -0.354 N 
ATOM     58  N   UNL A   1      43.885  27.716  31.578  1.00  0.00    -0.248 NA
ATOM     59  C   UNL A   1      44.180  28.916  33.516  1.00  0.00     0.031 C 
ATOM     60  C   UNL A   1      45.474  25.657  29.624  1.00  0.00     0.029 A 
ATOM     61  C   UNL A   1      44.723  25.264  30.717  1.00  0.00     0.049 A 
ATOM     62  H   UNL A   1      43.131  23.891  30.811  1.00  0.00     0.167 HD
ATOM     63  C   UNL A   1      44.514  26.877  32.460  1.00  0.00     0.074 A 
ATOM     64  C   UNL A   1      44.698  27.682  33.653  1.00  0.00     0.031 C 
ATOM     65  C   UNL A   1      44.810  25.584  32.135  1.00  0.00     0.037 A 
BRANCH  52  66
ATOM     66  C   UNL A   1      42.964  22.523  27.093  1.00  0.00     0.064 A 
ATOM     67  C   UNL A   1      42.275  21.294  27.222  1.00  0.00     0.173 A 
ATOM     68  C   UNL A   1      43.881  22.549  26.026  1.00  0.00     0.173 A 
ATOM     69  F   UNL A   1      41.284  21.134  28.109  1.00  0.00    -0.203 F 
ATOM     70  C   UNL A   1      42.573  20.169  26.441  1.00  0.00     0.198 A 
ATOM     71  C   UNL A   1      44.204  21.419  25.266  1.00  0.00     0.198 A 
ATOM     72  F   UNL A   1      44.467  23.676  25.620  1.00  0.00    -0.203 F 
ATOM     73  F   UNL A   1      41.899  19.026  26.636  1.00  0.00    -0.200 F 
ATOM     74  C   UNL A   1      43.563  20.222  25.486  1.00  0.00     0.200 A 
ATOM     75  F   UNL A   1      45.147  21.509  24.317  1.00  0.00    -0.200 F 
ATOM     76  F   UNL A   1      43.877  19.140  24.761  1.00  0.00    -0.200 F 
ENDBRANCH  52  66
BRANCH  53  77
ATOM     77  C   UNL A   1      41.787  30.751  32.095  1.00  0.00     0.064 A 
ATOM     78  C   UNL A   1      41.764  32.153  31.961  1.00  0.00     0.173 A 
ATOM     79  C   UNL A   1      40.588  30.119  32.441  1.00  0.00     0.173 A 
ATOM     80  F   UNL A   1      42.882  32.804  31.606  1.00  0.00    -0.203 F 
ATOM     81  C   UNL A   1      40.580  32.877  32.060  1.00  0.00     0.198 A 
ATOM     82  C   UNL A   1      39.401  30.850  32.548  1.00  0.00     0.198 A 
ATOM     83  F   UNL A   1      40.532  28.784  32.550  1.00  0.00    -0.203 F 
ATOM     84  F   UNL A   1      40.580  34.196  31.815  1.00  0.00    -0.200 F 
ATOM     85  C   UNL A   1      39.393  32.220  32.326  1.00  0.00     0.200 A 
ATOM     86  F   UNL A   1      38.243  30.209  32.761  1.00  0.00    -0.200 F 
ATOM     87  F   UNL A   1      38.235  32.895  32.319  1.00  0.00    -0.200 F 
ENDBRANCH  53  77
BRANCH  65  88
ATOM     88  C   UNL A   1      45.279  24.518  33.095  1.00  0.00     0.064 A 
ATOM     89  C   UNL A   1      44.552  23.353  33.389  1.00  0.00     0.173 A 
ATOM     90  C   UNL A   1      46.585  24.576  33.640  1.00  0.00     0.173 A 
ATOM     91  F   UNL A   1      43.349  23.127  32.844  1.00  0.00    -0.203 F 
ATOM     92  C   UNL A   1      45.068  22.347  34.211  1.00  0.00     0.198 A 
ATOM     93  C   UNL A   1      47.119  23.544  34.411  1.00  0.00     0.198 A 
ATOM     94  F   UNL A   1      47.390  25.624  33.416  1.00  0.00    -0.203 F 
ATOM     95  F   UNL A   1      44.320  21.271  34.492  1.00  0.00    -0.200 F 
ATOM     96  C   UNL A   1      46.355  22.437  34.710  1.00  0.00     0.200 A 
ATOM     97  F   UNL A   1      48.385  23.624  34.844  1.00  0.00    -0.200 F 
ATOM     98  F   UNL A   1      46.863  21.447  35.456  1.00  0.00    -0.200 F 
ENDBRANCH  65  88
ENDBRANCH  39  40
ENDBRANCH  31  34
ENDBRANCH  29  30
ENDBRANCH  28  29
ENDBRANCH   1  28
TORSDOF 14
ENDMDL
