MODEL 1
REMARK VINA RESULT:     -12.2      0.000      0.000
REMARK SMILES CC(C)[C@H]1CC[C@@H](C)C/C1=C(\F)C(=O)NCCCCNC(=O)c1ccc(-c2c3nc(c(-c4c(F)c(F)c(F)c(F)c4F)c4ccc([nH]4)c(-c4c(F)c(F)c(F)c(F)c4F)c4nc(c(-c5c(F)c(F)c(F)c(F)c5F)c5ccc2[nH]5)C=C4)C=C3)cc1
REMARK SMILES IDX 18 1 17 2 16 3 15 4 13 5 14 6 11 8 4 9 5 10 10 11 6 12 9 13
REMARK SMILES IDX 7 14 12 15 8 16 2 17 1 18 3 19 19 20 20 21 21 22 22 24 23 25
REMARK SMILES IDX 24 26 85 27 25 28 84 29 26 30 27 31 28 32 78 33 29 34 83 35
REMARK SMILES IDX 77 36 79 37 30 38 82 39 76 40 75 41 31 43 63 44 43 45 62 46
REMARK SMILES IDX 44 47 47 48 61 49 80 50 45 51 46 52 60 54 81 55 48 56 32 57
REMARK SMILES IDX 33 58 41 59 34 60 35 61 39 62 42 63 36 64 37 65 40 66 38 67
REMARK SMILES IDX 64 68 65 69 73 70 66 71 67 72 71 73 74 74 68 75 69 76 72 77
REMARK SMILES IDX 70 78 49 79 50 80 58 81 51 82 52 83 56 84 59 85 53 86 54 87
REMARK SMILES IDX 57 88 55 89
REMARK H PARENT 15 7 20 23 79 42 47 53
REMARK Flexibility Score: inf
ROOT
ATOM      1  C   UNL A   1      32.363  29.326  24.874  1.00  0.00     0.023 C 
ENDROOT
BRANCH   1   2
ATOM      2  C   UNL A   1      33.472  28.643  24.073  1.00  0.00     0.023 C 
BRANCH   2   3
ATOM      3  C   UNL A   1      33.415  28.787  22.555  1.00  0.00     0.116 C 
BRANCH   3   4
ATOM      4  N   UNL A   1      33.698  27.559  21.832  1.00  0.00    -0.350 N 
ATOM      5  C   UNL A   1      32.984  26.395  21.743  1.00  0.00     0.279 C 
ATOM      6  O   UNL A   1      33.298  25.589  20.871  1.00  0.00    -0.267 OA
ATOM      7  H   UNL A   1      34.541  27.565  21.324  1.00  0.00     0.163 HD
BRANCH   5   8
ATOM      8  C   UNL A   1      31.828  26.170  22.658  1.00  0.00     0.187 C 
ATOM      9  C   UNL A   1      32.706  24.353  24.361  1.00  0.00     0.021 C 
ATOM     10  C   UNL A   1      32.506  24.204  25.899  1.00  0.00     0.009 C 
ATOM     11  C   UNL A   1      31.691  25.331  23.711  1.00  0.00    -0.025 C 
ATOM     12  C   UNL A   1      31.057  24.095  26.351  1.00  0.00     0.004 C 
ATOM     13  C   UNL A   1      30.279  25.243  24.298  1.00  0.00     0.038 C 
ATOM     14  C   UNL A   1      30.219  25.252  25.827  1.00  0.00    -0.010 C 
ATOM     15  F   UNL A   1      30.735  26.866  22.256  1.00  0.00    -0.201 F 
ATOM     16  C   UNL A   1      30.648  26.596  26.423  1.00  0.00     0.008 C 
BRANCH   9  17
ATOM     17  C   UNL A   1      34.237  24.518  24.069  1.00  0.00    -0.010 C 
ATOM     18  C   UNL A   1      35.107  24.687  25.319  1.00  0.00     0.008 C 
ATOM     19  C   UNL A   1      34.820  23.361  23.235  1.00  0.00     0.008 C 
ENDBRANCH   9  17
ENDBRANCH   5   8
ENDBRANCH   3   4
ENDBRANCH   2   3
ENDBRANCH   1   2
BRANCH   1  20
ATOM     20  C   UNL A   1      32.684  29.692  26.320  1.00  0.00     0.116 C 
BRANCH  20  21
ATOM     21  N   UNL A   1      32.590  31.112  26.600  1.00  0.00    -0.352 N 
ATOM     22  C   UNL A   1      33.410  31.930  27.338  1.00  0.00     0.251 C 
ATOM     23  H   UNL A   1      31.812  31.561  26.197  1.00  0.00     0.163 HD
ATOM     24  O   UNL A   1      33.089  33.102  27.510  1.00  0.00    -0.269 OA
BRANCH  22  25
ATOM     25  C   UNL A   1      34.656  31.418  27.963  1.00  0.00     0.039 A 
ATOM     26  C   UNL A   1      35.722  32.307  28.126  1.00  0.00     0.014 A 
ATOM     27  C   UNL A   1      34.807  30.087  28.359  1.00  0.00     0.014 A 
ATOM     28  C   UNL A   1      36.908  31.879  28.729  1.00  0.00     0.010 A 
ATOM     29  C   UNL A   1      35.958  29.680  29.038  1.00  0.00     0.010 A 
ATOM     30  C   UNL A   1      37.027  30.570  29.225  1.00  0.00    -0.014 A 
BRANCH  30  31
ATOM     31  C   UNL A   1      38.259  30.148  29.944  1.00  0.00     0.031 A 
ATOM     32  C   UNL A   1      38.543  30.624  31.344  1.00  0.00     0.074 A 
ATOM     33  C   UNL A   1      39.141  29.339  29.323  1.00  0.00     0.049 A 
ATOM     34  N   UNL A   1      39.542  30.320  32.136  1.00  0.00    -0.248 NA
ATOM     35  C   UNL A   1      37.595  31.586  31.924  1.00  0.00     0.031 C 
ATOM     36  C   UNL A   1      39.021  28.860  27.945  1.00  0.00     0.029 A 
ATOM     37  N   UNL A   1      40.309  28.772  29.769  1.00  0.00    -0.354 N 
ATOM     38  C   UNL A   1      39.344  31.053  33.298  1.00  0.00     0.074 A 
ATOM     39  C   UNL A   1      38.165  31.864  33.088  1.00  0.00     0.031 C 
ATOM     40  C   UNL A   1      40.047  28.041  27.671  1.00  0.00     0.029 A 
ATOM     41  C   UNL A   1      40.918  27.962  28.840  1.00  0.00     0.049 A 
ATOM     42  H   UNL A   1      40.677  28.930  30.668  1.00  0.00     0.167 HD
ATOM     43  C   UNL A   1      40.063  31.032  34.447  1.00  0.00     0.037 A 
ATOM     44  C   UNL A   1      42.047  27.232  28.921  1.00  0.00     0.037 A 
ATOM     45  C   UNL A   1      41.232  30.214  34.660  1.00  0.00     0.049 A 
ATOM     46  C   UNL A   1      42.819  27.219  30.213  1.00  0.00     0.074 A 
ATOM     47  C   UNL A   1      41.993  30.078  35.809  1.00  0.00     0.029 A 
ATOM     48  N   UNL A   1      41.813  29.400  33.699  1.00  0.00    -0.354 N 
ATOM     49  N   UNL A   1      42.571  27.847  31.336  1.00  0.00    -0.248 NA
ATOM     50  C   UNL A   1      44.024  26.380  30.250  1.00  0.00     0.031 C 
ATOM     51  C   UNL A   1      43.068  29.228  35.524  1.00  0.00     0.029 A 
ATOM     52  C   UNL A   1      42.939  28.779  34.220  1.00  0.00     0.049 A 
ATOM     53  H   UNL A   1      41.475  29.280  32.782  1.00  0.00     0.167 HD
ATOM     54  C   UNL A   1      43.568  27.459  32.220  1.00  0.00     0.074 A 
ATOM     55  C   UNL A   1      44.410  26.518  31.510  1.00  0.00     0.031 C 
ATOM     56  C   UNL A   1      43.774  27.850  33.503  1.00  0.00     0.037 A 
BRANCH  43  57
ATOM     57  C   UNL A   1      39.610  31.925  35.571  1.00  0.00     0.064 A 
ATOM     58  C   UNL A   1      40.107  33.229  35.722  1.00  0.00     0.173 A 
ATOM     59  C   UNL A   1      38.634  31.488  36.479  1.00  0.00     0.173 A 
ATOM     60  F   UNL A   1      41.048  33.696  34.889  1.00  0.00    -0.203 F 
ATOM     61  C   UNL A   1      39.666  34.049  36.759  1.00  0.00     0.198 A 
ATOM     62  C   UNL A   1      38.170  32.323  37.492  1.00  0.00     0.198 A 
ATOM     63  F   UNL A   1      38.118  30.254  36.376  1.00  0.00    -0.203 F 
ATOM     64  F   UNL A   1      40.192  35.272  36.914  1.00  0.00    -0.200 F 
ATOM     65  C   UNL A   1      38.692  33.599  37.637  1.00  0.00     0.200 A 
ATOM     66  F   UNL A   1      37.217  31.892  38.330  1.00  0.00    -0.200 F 
ATOM     67  F   UNL A   1      38.261  34.394  38.627  1.00  0.00    -0.200 F 
ENDBRANCH  43  57
BRANCH  44  68
ATOM     68  C   UNL A   1      42.500  26.427  27.755  1.00  0.00     0.064 A 
ATOM     69  C   UNL A   1      43.442  26.932  26.848  1.00  0.00     0.173 A 
ATOM     70  C   UNL A   1      41.988  25.144  27.515  1.00  0.00     0.173 A 
ATOM     71  F   UNL A   1      43.947  28.163  27.022  1.00  0.00    -0.203 F 
ATOM     72  C   UNL A   1      43.833  26.198  25.730  1.00  0.00     0.198 A 
ATOM     73  C   UNL A   1      42.406  24.396  26.415  1.00  0.00     0.198 A 
ATOM     74  F   UNL A   1      41.089  24.610  28.353  1.00  0.00    -0.203 F 
ATOM     75  F   UNL A   1      44.691  26.729  24.849  1.00  0.00    -0.200 F 
ATOM     76  C   UNL A   1      43.319  24.928  25.518  1.00  0.00     0.200 A 
ATOM     77  F   UNL A   1      41.920  23.162  26.225  1.00  0.00    -0.200 F 
ATOM     78  F   UNL A   1      43.697  24.220  24.445  1.00  0.00    -0.200 F 
ENDBRANCH  44  68
BRANCH  56  79
ATOM     79  C   UNL A   1      44.939  27.232  34.226  1.00  0.00     0.064 A 
ATOM     80  C   UNL A   1      46.210  27.827  34.229  1.00  0.00     0.173 A 
ATOM     81  C   UNL A   1      44.783  26.022  34.921  1.00  0.00     0.173 A 
ATOM     82  F   UNL A   1      46.418  28.978  33.570  1.00  0.00    -0.203 F 
ATOM     83  C   UNL A   1      47.290  27.210  34.854  1.00  0.00     0.198 A 
ATOM     84  C   UNL A   1      45.856  25.428  35.579  1.00  0.00     0.198 A 
ATOM     85  F   UNL A   1      43.588  25.414  34.962  1.00  0.00    -0.203 F 
ATOM     86  F   UNL A   1      48.510  27.759  34.776  1.00  0.00    -0.200 F 
ATOM     87  C   UNL A   1      47.112  26.014  35.532  1.00  0.00     0.200 A 
ATOM     88  F   UNL A   1      45.677  24.281  36.248  1.00  0.00    -0.200 F 
ATOM     89  F   UNL A   1      48.153  25.418  36.129  1.00  0.00    -0.200 F 
ENDBRANCH  56  79
ENDBRANCH  30  31
ENDBRANCH  22  25
ENDBRANCH  20  21
ENDBRANCH   1  20
TORSDOF 12
ENDMDL
MODEL 2
REMARK VINA RESULT:     -12.2      1.933      2.850
REMARK SMILES CC(C)[C@H]1CC[C@@H](C)C/C1=C(\F)C(=O)NCCCCNC(=O)c1ccc(-c2c3nc(c(-c4c(F)c(F)c(F)c(F)c4F)c4ccc([nH]4)c(-c4c(F)c(F)c(F)c(F)c4F)c4nc(c(-c5c(F)c(F)c(F)c(F)c5F)c5ccc2[nH]5)C=C4)C=C3)cc1
REMARK SMILES IDX 18 1 17 2 16 3 15 4 13 5 14 6 11 8 4 9 5 10 10 11 6 12 9 13
REMARK SMILES IDX 7 14 12 15 8 16 2 17 1 18 3 19 19 20 20 21 21 22 22 24 23 25
REMARK SMILES IDX 24 26 85 27 25 28 84 29 26 30 27 31 28 32 78 33 29 34 83 35
REMARK SMILES IDX 77 36 79 37 30 38 82 39 76 40 75 41 31 43 63 44 43 45 62 46
REMARK SMILES IDX 44 47 47 48 61 49 80 50 45 51 46 52 60 54 81 55 48 56 32 57
REMARK SMILES IDX 33 58 41 59 34 60 35 61 39 62 42 63 36 64 37 65 40 66 38 67
REMARK SMILES IDX 64 68 65 69 73 70 66 71 67 72 71 73 74 74 68 75 69 76 72 77
REMARK SMILES IDX 70 78 49 79 50 80 58 81 51 82 52 83 56 84 59 85 53 86 54 87
REMARK SMILES IDX 57 88 55 89
REMARK H PARENT 15 7 20 23 79 42 47 53
REMARK Flexibility Score: inf
ROOT
ATOM      1  C   UNL A   1      31.484  32.047  26.761  1.00  0.00     0.023 C 
ENDROOT
BRANCH   1   2
ATOM      2  C   UNL A   1      31.770  30.566  26.508  1.00  0.00     0.023 C 
BRANCH   2   3
ATOM      3  C   UNL A   1      33.215  30.105  26.676  1.00  0.00     0.116 C 
BRANCH   3   4
ATOM      4  N   UNL A   1      33.852  29.687  25.439  1.00  0.00    -0.350 N 
ATOM      5  C   UNL A   1      33.815  28.488  24.782  1.00  0.00     0.279 C 
ATOM      6  O   UNL A   1      34.227  28.450  23.625  1.00  0.00    -0.267 OA
ATOM      7  H   UNL A   1      34.399  30.379  25.003  1.00  0.00     0.163 HD
BRANCH   5   8
ATOM      8  C   UNL A   1      33.232  27.295  25.460  1.00  0.00     0.187 C 
ATOM      9  C   UNL A   1      30.662  27.413  24.864  1.00  0.00     0.021 C 
ATOM     10  C   UNL A   1      29.642  26.297  24.488  1.00  0.00     0.009 C 
ATOM     11  C   UNL A   1      31.953  26.856  25.521  1.00  0.00    -0.025 C 
ATOM     12  C   UNL A   1      29.467  25.208  25.536  1.00  0.00     0.004 C 
ATOM     13  C   UNL A   1      31.708  25.684  26.477  1.00  0.00     0.038 C 
ATOM     14  C   UNL A   1      30.800  24.585  25.923  1.00  0.00    -0.010 C 
ATOM     15  F   UNL A   1      34.161  26.645  26.206  1.00  0.00    -0.201 F 
ATOM     16  C   UNL A   1      31.444  23.822  24.761  1.00  0.00     0.008 C 
BRANCH   9  17
ATOM     17  C   UNL A   1      30.775  28.414  23.662  1.00  0.00    -0.010 C 
ATOM     18  C   UNL A   1      30.959  27.746  22.296  1.00  0.00     0.008 C 
ATOM     19  C   UNL A   1      29.575  29.376  23.565  1.00  0.00     0.008 C 
ENDBRANCH   9  17
ENDBRANCH   5   8
ENDBRANCH   3   4
ENDBRANCH   2   3
ENDBRANCH   1   2
BRANCH   1  20
ATOM     20  C   UNL A   1      32.692  32.957  26.959  1.00  0.00     0.116 C 
BRANCH  20  21
ATOM     21  N   UNL A   1      32.380  34.211  27.617  1.00  0.00    -0.352 N 
ATOM     22  C   UNL A   1      32.999  34.841  28.670  1.00  0.00     0.251 C 
ATOM     23  H   UNL A   1      31.598  34.686  27.252  1.00  0.00     0.163 HD
ATOM     24  O   UNL A   1      32.508  35.871  29.123  1.00  0.00    -0.269 OA
BRANCH  22  25
ATOM     25  C   UNL A   1      34.225  34.284  29.295  1.00  0.00     0.039 A 
ATOM     26  C   UNL A   1      34.071  33.396  30.364  1.00  0.00     0.014 A 
ATOM     27  C   UNL A   1      35.510  34.638  28.877  1.00  0.00     0.014 A 
ATOM     28  C   UNL A   1      35.193  32.827  30.971  1.00  0.00     0.010 A 
ATOM     29  C   UNL A   1      36.628  34.006  29.427  1.00  0.00     0.010 A 
ATOM     30  C   UNL A   1      36.483  33.098  30.486  1.00  0.00    -0.014 A 
BRANCH  30  31
ATOM     31  C   UNL A   1      37.667  32.420  31.082  1.00  0.00     0.031 A 
ATOM     32  C   UNL A   1      38.166  32.792  32.453  1.00  0.00     0.074 A 
ATOM     33  C   UNL A   1      38.310  31.471  30.372  1.00  0.00     0.049 A 
ATOM     34  N   UNL A   1      39.152  32.274  33.144  1.00  0.00    -0.248 NA
ATOM     35  C   UNL A   1      37.485  33.906  33.130  1.00  0.00     0.031 C 
ATOM     36  C   UNL A   1      37.972  31.064  29.008  1.00  0.00     0.029 A 
ATOM     37  N   UNL A   1      39.378  30.672  30.701  1.00  0.00    -0.354 N 
ATOM     38  C   UNL A   1      39.211  32.999  34.327  1.00  0.00     0.074 A 
ATOM     39  C   UNL A   1      38.203  34.032  34.236  1.00  0.00     0.031 C 
ATOM     40  C   UNL A   1      38.785  30.066  28.631  1.00  0.00     0.029 A 
ATOM     41  C   UNL A   1      39.726  29.784  29.711  1.00  0.00     0.049 A 
ATOM     42  H   UNL A   1      39.850  30.729  31.563  1.00  0.00     0.167 HD
ATOM     43  C   UNL A   1      40.013  32.805  35.402  1.00  0.00     0.037 A 
ATOM     44  C   UNL A   1      40.690  28.844  29.678  1.00  0.00     0.037 A 
ATOM     45  C   UNL A   1      41.009  31.766  35.496  1.00  0.00     0.049 A 
ATOM     46  C   UNL A   1      41.558  28.643  30.891  1.00  0.00     0.074 A 
ATOM     47  C   UNL A   1      41.829  31.450  36.566  1.00  0.00     0.029 A 
ATOM     48  N   UNL A   1      41.327  30.881  34.477  1.00  0.00    -0.354 N 
ATOM     49  N   UNL A   1      41.542  29.275  32.038  1.00  0.00    -0.248 NA
ATOM     50  C   UNL A   1      42.570  27.581  30.805  1.00  0.00     0.031 C 
ATOM     51  C   UNL A   1      42.683  30.413  36.173  1.00  0.00     0.029 A 
ATOM     52  C   UNL A   1      42.349  30.036  34.883  1.00  0.00     0.049 A 
ATOM     53  H   UNL A   1      40.890  30.855  33.595  1.00  0.00     0.167 HD
ATOM     54  C   UNL A   1      42.519  28.674  32.819  1.00  0.00     0.074 A 
ATOM     55  C   UNL A   1      43.088  27.606  32.025  1.00  0.00     0.031 C 
ATOM     56  C   UNL A   1      42.914  28.980  34.081  1.00  0.00     0.037 A 
BRANCH  43  57
ATOM     57  C   UNL A   1      39.851  33.737  36.572  1.00  0.00     0.064 A 
ATOM     58  C   UNL A   1      40.526  34.966  36.634  1.00  0.00     0.173 A 
ATOM     59  C   UNL A   1      38.975  33.419  37.621  1.00  0.00     0.173 A 
ATOM     60  F   UNL A   1      41.383  35.318  35.664  1.00  0.00    -0.203 F 
ATOM     61  C   UNL A   1      40.353  35.826  37.717  1.00  0.00     0.198 A 
ATOM     62  C   UNL A   1      38.778  34.298  38.684  1.00  0.00     0.198 A 
ATOM     63  F   UNL A   1      38.297  32.262  37.609  1.00  0.00    -0.203 F 
ATOM     64  F   UNL A   1      41.048  36.971  37.778  1.00  0.00    -0.200 F 
ATOM     65  C   UNL A   1      39.474  35.496  38.736  1.00  0.00     0.200 A 
ATOM     66  F   UNL A   1      37.914  33.983  39.660  1.00  0.00    -0.200 F 
ATOM     67  F   UNL A   1      39.300  36.330  39.771  1.00  0.00    -0.200 F 
ENDBRANCH  43  57
BRANCH  44  68
ATOM     68  C   UNL A   1      40.865  27.999  28.466  1.00  0.00     0.064 A 
ATOM     69  C   UNL A   1      41.675  28.418  27.401  1.00  0.00     0.173 A 
ATOM     70  C   UNL A   1      40.215  26.762  28.342  1.00  0.00     0.173 A 
ATOM     71  F   UNL A   1      42.301  29.602  27.462  1.00  0.00    -0.203 F 
ATOM     72  C   UNL A   1      41.803  27.648  26.247  1.00  0.00     0.198 A 
ATOM     73  C   UNL A   1      40.373  25.977  27.202  1.00  0.00     0.198 A 
ATOM     74  F   UNL A   1      39.434  26.310  29.334  1.00  0.00    -0.203 F 
ATOM     75  F   UNL A   1      42.537  28.101  25.221  1.00  0.00    -0.200 F 
ATOM     76  C   UNL A   1      41.157  26.425  26.151  1.00  0.00     0.200 A 
ATOM     77  F   UNL A   1      39.761  24.787  27.122  1.00  0.00    -0.200 F 
ATOM     78  F   UNL A   1      41.284  25.683  25.042  1.00  0.00    -0.200 F 
ENDBRANCH  44  68
BRANCH  56  79
ATOM     79  C   UNL A   1      43.993  28.125  34.685  1.00  0.00     0.064 A 
ATOM     80  C   UNL A   1      45.351  28.464  34.585  1.00  0.00     0.173 A 
ATOM     81  C   UNL A   1      43.664  26.943  35.368  1.00  0.00     0.173 A 
ATOM     82  F   UNL A   1      45.723  29.576  33.932  1.00  0.00    -0.203 F 
ATOM     83  C   UNL A   1      46.340  27.629  35.099  1.00  0.00     0.198 A 
ATOM     84  C   UNL A   1      44.653  26.130  35.916  1.00  0.00     0.198 A 
ATOM     85  F   UNL A   1      42.382  26.574  35.504  1.00  0.00    -0.203 F 
ATOM     86  F   UNL A   1      47.632  27.936  34.922  1.00  0.00    -0.200 F 
ATOM     87  C   UNL A   1      45.990  26.466  35.767  1.00  0.00     0.200 A 
ATOM     88  F   UNL A   1      44.312  25.015  36.576  1.00  0.00    -0.200 F 
ATOM     89  F   UNL A   1      46.943  25.660  36.257  1.00  0.00    -0.200 F 
ENDBRANCH  56  79
ENDBRANCH  30  31
ENDBRANCH  22  25
ENDBRANCH  20  21
ENDBRANCH   1  20
TORSDOF 12
ENDMDL
MODEL 3
REMARK VINA RESULT:     -12.2      1.900      3.229
REMARK SMILES CC(C)[C@H]1CC[C@@H](C)C/C1=C(\F)C(=O)NCCCCNC(=O)c1ccc(-c2c3nc(c(-c4c(F)c(F)c(F)c(F)c4F)c4ccc([nH]4)c(-c4c(F)c(F)c(F)c(F)c4F)c4nc(c(-c5c(F)c(F)c(F)c(F)c5F)c5ccc2[nH]5)C=C4)C=C3)cc1
REMARK SMILES IDX 18 1 17 2 16 3 15 4 13 5 14 6 11 8 4 9 5 10 10 11 6 12 9 13
REMARK SMILES IDX 7 14 12 15 8 16 2 17 1 18 3 19 19 20 20 21 21 22 22 24 23 25
REMARK SMILES IDX 24 26 85 27 25 28 84 29 26 30 27 31 28 32 78 33 29 34 83 35
REMARK SMILES IDX 77 36 79 37 30 38 82 39 76 40 75 41 31 43 63 44 43 45 62 46
REMARK SMILES IDX 44 47 47 48 61 49 80 50 45 51 46 52 60 54 81 55 48 56 32 57
REMARK SMILES IDX 33 58 41 59 34 60 35 61 39 62 42 63 36 64 37 65 40 66 38 67
REMARK SMILES IDX 64 68 65 69 73 70 66 71 67 72 71 73 74 74 68 75 69 76 72 77
REMARK SMILES IDX 70 78 49 79 50 80 58 81 51 82 52 83 56 84 59 85 53 86 54 87
REMARK SMILES IDX 57 88 55 89
REMARK H PARENT 15 7 20 23 79 42 47 53
REMARK Flexibility Score: inf
ROOT
ATOM      1  C   UNL A   1      31.403  32.166  26.661  1.00  0.00     0.023 C 
ENDROOT
BRANCH   1   2
ATOM      2  C   UNL A   1      31.632  30.748  26.135  1.00  0.00     0.023 C 
BRANCH   2   3
ATOM      3  C   UNL A   1      33.009  30.136  26.379  1.00  0.00     0.116 C 
BRANCH   3   4
ATOM      4  N   UNL A   1      33.677  29.679  25.173  1.00  0.00    -0.350 N 
ATOM      5  C   UNL A   1      33.719  28.439  24.596  1.00  0.00     0.279 C 
ATOM      6  O   UNL A   1      34.139  28.350  23.445  1.00  0.00    -0.267 OA
ATOM      7  H   UNL A   1      34.182  30.374  24.693  1.00  0.00     0.163 HD
BRANCH   5   8
ATOM      8  C   UNL A   1      33.209  27.259  25.352  1.00  0.00     0.187 C 
ATOM      9  C   UNL A   1      30.614  27.260  24.860  1.00  0.00     0.021 C 
ATOM     10  C   UNL A   1      29.622  26.092  24.578  1.00  0.00     0.009 C 
ATOM     11  C   UNL A   1      31.950  26.778  25.486  1.00  0.00    -0.025 C 
ATOM     12  C   UNL A   1      29.529  25.047  25.680  1.00  0.00     0.004 C 
ATOM     13  C   UNL A   1      31.788  25.645  26.503  1.00  0.00     0.038 C 
ATOM     14  C   UNL A   1      30.899  24.489  26.037  1.00  0.00    -0.010 C 
ATOM     15  F   UNL A   1      34.191  26.677  26.085  1.00  0.00    -0.201 F 
ATOM     16  C   UNL A   1      31.523  23.697  24.884  1.00  0.00     0.008 C 
BRANCH   9  17
ATOM     17  C   UNL A   1      30.640  28.207  23.611  1.00  0.00    -0.010 C 
ATOM     18  C   UNL A   1      30.831  27.487  22.273  1.00  0.00     0.008 C 
ATOM     19  C   UNL A   1      29.385  29.095  23.501  1.00  0.00     0.008 C 
ENDBRANCH   9  17
ENDBRANCH   5   8
ENDBRANCH   3   4
ENDBRANCH   2   3
ENDBRANCH   1   2
BRANCH   1  20
ATOM     20  C   UNL A   1      32.647  32.995  26.967  1.00  0.00     0.116 C 
BRANCH  20  21
ATOM     21  N   UNL A   1      32.363  34.255  27.626  1.00  0.00    -0.352 N 
ATOM     22  C   UNL A   1      32.995  34.871  28.680  1.00  0.00     0.251 C 
ATOM     23  H   UNL A   1      31.593  34.749  27.260  1.00  0.00     0.163 HD
ATOM     24  O   UNL A   1      32.528  35.912  29.132  1.00  0.00    -0.269 OA
BRANCH  22  25
ATOM     25  C   UNL A   1      34.207  34.285  29.305  1.00  0.00     0.039 A 
ATOM     26  C   UNL A   1      34.031  33.391  30.366  1.00  0.00     0.014 A 
ATOM     27  C   UNL A   1      35.501  34.618  28.897  1.00  0.00     0.014 A 
ATOM     28  C   UNL A   1      35.139  32.795  30.974  1.00  0.00     0.010 A 
ATOM     29  C   UNL A   1      36.604  33.960  29.447  1.00  0.00     0.010 A 
ATOM     30  C   UNL A   1      36.437  33.045  30.498  1.00  0.00    -0.014 A 
BRANCH  30  31
ATOM     31  C   UNL A   1      37.605  32.341  31.093  1.00  0.00     0.031 A 
ATOM     32  C   UNL A   1      38.089  32.674  32.480  1.00  0.00     0.074 A 
ATOM     33  C   UNL A   1      38.247  31.401  30.370  1.00  0.00     0.049 A 
ATOM     34  N   UNL A   1      39.059  32.129  33.171  1.00  0.00    -0.248 NA
ATOM     35  C   UNL A   1      37.411  33.779  33.173  1.00  0.00     0.031 C 
ATOM     36  C   UNL A   1      37.923  31.030  28.992  1.00  0.00     0.029 A 
ATOM     37  N   UNL A   1      39.300  30.582  30.694  1.00  0.00    -0.354 N 
ATOM     38  C   UNL A   1      39.110  32.825  34.372  1.00  0.00     0.074 A 
ATOM     39  C   UNL A   1      38.115  33.872  34.292  1.00  0.00     0.031 C 
ATOM     40  C   UNL A   1      38.730  30.032  28.603  1.00  0.00     0.029 A 
ATOM     41  C   UNL A   1      39.652  29.713  29.688  1.00  0.00     0.049 A 
ATOM     42  H   UNL A   1      39.761  30.613  31.564  1.00  0.00     0.167 HD
ATOM     43  C   UNL A   1      39.895  32.596  35.453  1.00  0.00     0.037 A 
ATOM     44  C   UNL A   1      40.605  28.763  29.647  1.00  0.00     0.037 A 
ATOM     45  C   UNL A   1      40.878  31.544  35.536  1.00  0.00     0.049 A 
ATOM     46  C   UNL A   1      41.454  28.523  30.866  1.00  0.00     0.074 A 
ATOM     47  C   UNL A   1      41.679  31.194  36.609  1.00  0.00     0.029 A 
ATOM     48  N   UNL A   1      41.199  30.679  34.500  1.00  0.00    -0.354 N 
ATOM     49  N   UNL A   1      41.430  29.129  32.027  1.00  0.00    -0.248 NA
ATOM     50  C   UNL A   1      42.455  27.452  30.769  1.00  0.00     0.031 C 
ATOM     51  C   UNL A   1      42.526  30.156  36.204  1.00  0.00     0.029 A 
ATOM     52  C   UNL A   1      42.206  29.813  34.901  1.00  0.00     0.049 A 
ATOM     53  H   UNL A   1      40.774  30.680  33.612  1.00  0.00     0.167 HD
ATOM     54  C   UNL A   1      42.389  28.498  32.808  1.00  0.00     0.074 A 
ATOM     55  C   UNL A   1      42.957  27.442  31.996  1.00  0.00     0.031 C 
ATOM     56  C   UNL A   1      42.770  28.770  34.081  1.00  0.00     0.037 A 
BRANCH  43  57
ATOM     57  C   UNL A   1      39.727  33.503  36.642  1.00  0.00     0.064 A 
ATOM     58  C   UNL A   1      40.407  34.727  36.738  1.00  0.00     0.173 A 
ATOM     59  C   UNL A   1      38.841  33.166  37.676  1.00  0.00     0.173 A 
ATOM     60  F   UNL A   1      41.274  35.096  35.783  1.00  0.00    -0.203 F 
ATOM     61  C   UNL A   1      40.229  35.563  37.838  1.00  0.00     0.198 A 
ATOM     62  C   UNL A   1      38.638  34.021  38.757  1.00  0.00     0.198 A 
ATOM     63  F   UNL A   1      38.157  32.012  37.633  1.00  0.00    -0.203 F 
ATOM     64  F   UNL A   1      40.928  36.703  37.931  1.00  0.00    -0.200 F 
ATOM     65  C   UNL A   1      39.339  35.214  38.842  1.00  0.00     0.200 A 
ATOM     66  F   UNL A   1      37.765  33.688  39.718  1.00  0.00    -0.200 F 
ATOM     67  F   UNL A   1      39.161  36.025  39.894  1.00  0.00    -0.200 F 
ENDBRANCH  43  57
BRANCH  44  68
ATOM     68  C   UNL A   1      40.788  27.945  28.418  1.00  0.00     0.064 A 
ATOM     69  C   UNL A   1      40.140  26.711  28.266  1.00  0.00     0.173 A 
ATOM     70  C   UNL A   1      41.627  28.372  27.378  1.00  0.00     0.173 A 
ATOM     71  F   UNL A   1      39.344  26.248  29.240  1.00  0.00    -0.203 F 
ATOM     72  C   UNL A   1      40.347  25.922  27.135  1.00  0.00     0.198 A 
ATOM     73  C   UNL A   1      41.805  27.599  26.232  1.00  0.00     0.198 A 
ATOM     74  F   UNL A   1      42.266  29.547  27.469  1.00  0.00    -0.203 F 
ATOM     75  F   UNL A   1      39.760  24.722  27.043  1.00  0.00    -0.200 F 
ATOM     76  C   UNL A   1      41.174  26.370  26.117  1.00  0.00     0.200 A 
ATOM     77  F   UNL A   1      42.591  28.044  25.243  1.00  0.00    -0.200 F 
ATOM     78  F   UNL A   1      41.370  25.613  25.028  1.00  0.00    -0.200 F 
ENDBRANCH  44  68
BRANCH  56  79
ATOM     79  C   UNL A   1      43.831  27.888  34.680  1.00  0.00     0.064 A 
ATOM     80  C   UNL A   1      43.518  26.668  35.300  1.00  0.00     0.173 A 
ATOM     81  C   UNL A   1      45.181  28.273  34.639  1.00  0.00     0.173 A 
ATOM     82  F   UNL A   1      42.243  26.258  35.378  1.00  0.00    -0.203 F 
ATOM     83  C   UNL A   1      44.507  25.894  35.901  1.00  0.00     0.198 A 
ATOM     84  C   UNL A   1      46.172  27.476  35.206  1.00  0.00     0.198 A 
ATOM     85  F   UNL A   1      45.539  29.422  34.050  1.00  0.00    -0.203 F 
ATOM     86  F   UNL A   1      44.173  24.773  36.555  1.00  0.00    -0.200 F 
ATOM     87  C   UNL A   1      45.833  26.296  35.850  1.00  0.00     0.200 A 
ATOM     88  F   UNL A   1      47.455  27.859  35.140  1.00  0.00    -0.200 F 
ATOM     89  F   UNL A   1      46.783  25.553  36.433  1.00  0.00    -0.200 F 
ENDBRANCH  56  79
ENDBRANCH  30  31
ENDBRANCH  22  25
ENDBRANCH  20  21
ENDBRANCH   1  20
TORSDOF 12
ENDMDL
