MODEL 1
REMARK VINA RESULT:     -12.3      0.000      0.000
REMARK SMILES CCC[C@]1(C(=O)NCCCCNC(=O)c2ccc(-c3c4nc(c(-c5c(F)c(F)c(F)c(F)c5F)c5ccc([nH]5)c(-c5c(F)c(F)c(F)c(F)c5F)c5nc(c(-c6c(F)c(F)c(F)c(F)c6F)c6ccc3[nH]6)C=C5)C=C4)cc2)CCN(C(=O)c2cccnc2C)C1
REMARK SMILES IDX 9 1 8 2 7 3 5 4 6 5 4 7 78 8 90 9 79 10 80 11 3 12 2 13 1 14
REMARK SMILES IDX 81 15 82 16 83 17 84 18 88 19 85 20 87 21 89 22 86 23 10 24
REMARK SMILES IDX 11 25 12 26 13 27 14 29 15 30 16 31 77 32 17 33 76 34 18 35
REMARK SMILES IDX 19 36 20 37 70 38 21 39 75 40 69 41 71 42 22 43 74 44 68 45
REMARK SMILES IDX 67 46 23 48 55 49 35 50 54 51 36 52 39 53 53 54 72 55 37 56
REMARK SMILES IDX 38 57 52 59 73 60 40 61 24 62 25 63 33 64 26 65 27 66 31 67
REMARK SMILES IDX 34 68 28 69 29 70 32 71 30 72 56 73 57 74 65 75 58 76 59 77
REMARK SMILES IDX 63 78 66 79 60 80 61 81 64 82 62 83 41 84 42 85 50 86 43 87
REMARK SMILES IDX 44 88 48 89 51 90 45 91 46 92 49 93 47 94
REMARK H PARENT 7 6 12 28 71 47 39 58
REMARK Flexibility Score: inf
ROOT
ATOM      1  C   UNL A   1      31.999  30.022  26.958  1.00  0.00     0.023 C 
ENDROOT
BRANCH   1   2
ATOM      2  C   UNL A   1      33.209  29.369  26.298  1.00  0.00     0.116 C 
BRANCH   2   3
ATOM      3  N   UNL A   1      33.321  27.961  26.625  1.00  0.00    -0.356 N 
ATOM      4  C   UNL A   1      33.061  26.823  25.925  1.00  0.00     0.228 C 
ATOM      5  O   UNL A   1      33.313  25.784  26.544  1.00  0.00    -0.274 OA
ATOM      6  H   UNL A   1      33.652  27.794  27.537  1.00  0.00     0.163 HD
BRANCH   4   7
ATOM      7  C   UNL A   1      32.471  26.801  24.481  1.00  0.00     0.068 C 
ATOM      8  C   UNL A   1      33.471  27.434  23.482  1.00  0.00     0.040 C 
ATOM      9  C   UNL A   1      32.351  25.329  24.013  1.00  0.00     0.136 C 
ATOM     10  C   UNL A   1      33.525  26.489  22.290  1.00  0.00     0.121 C 
ATOM     11  N   UNL A   1      33.215  25.194  22.848  1.00  0.00    -0.337 N 
BRANCH   7  12
ATOM     12  C   UNL A   1      31.041  27.469  24.500  1.00  0.00     0.018 C 
BRANCH  12  13
ATOM     13  C   UNL A   1      30.757  28.771  23.737  1.00  0.00    -0.002 C 
ATOM     14  C   UNL A   1      30.011  28.607  22.425  1.00  0.00     0.004 C 
ENDBRANCH  12  13
ENDBRANCH   7  12
BRANCH  11  15
ATOM     15  C   UNL A   1      33.560  23.949  22.360  1.00  0.00     0.255 C 
ATOM     16  O   UNL A   1      33.326  23.590  21.209  1.00  0.00    -0.269 OA
BRANCH  15  17
ATOM     17  C   UNL A   1      34.327  23.041  23.229  1.00  0.00     0.061 A 
ATOM     18  C   UNL A   1      35.706  23.256  23.296  1.00  0.00     0.017 A 
ATOM     19  C   UNL A   1      33.772  21.978  23.940  1.00  0.00     0.050 A 
ATOM     20  C   UNL A   1      36.486  22.450  24.116  1.00  0.00     0.021 A 
ATOM     21  N   UNL A   1      34.524  21.207  24.773  1.00  0.00    -0.261 NA
ATOM     22  C   UNL A   1      32.322  21.603  23.871  1.00  0.00     0.067 C 
ATOM     23  C   UNL A   1      35.852  21.458  24.841  1.00  0.00     0.111 A 
ENDBRANCH  15  17
ENDBRANCH  11  15
ENDBRANCH   4   7
ENDBRANCH   2   3
ENDBRANCH   1   2
BRANCH   1  24
ATOM     24  C   UNL A   1      31.855  31.522  26.703  1.00  0.00     0.023 C 
BRANCH  24  25
ATOM     25  C   UNL A   1      32.947  32.394  27.315  1.00  0.00     0.116 C 
BRANCH  25  26
ATOM     26  N   UNL A   1      32.519  33.766  27.555  1.00  0.00    -0.352 N 
ATOM     27  C   UNL A   1      33.018  34.690  28.443  1.00  0.00     0.251 C 
ATOM     28  H   UNL A   1      31.765  34.075  27.002  1.00  0.00     0.163 HD
ATOM     29  O   UNL A   1      32.456  35.768  28.603  1.00  0.00    -0.269 OA
BRANCH  27  30
ATOM     30  C   UNL A   1      34.218  34.359  29.234  1.00  0.00     0.039 A 
ATOM     31  C   UNL A   1      34.057  33.840  30.522  1.00  0.00     0.014 A 
ATOM     32  C   UNL A   1      35.494  34.511  28.685  1.00  0.00     0.014 A 
ATOM     33  C   UNL A   1      35.172  33.375  31.221  1.00  0.00     0.010 A 
ATOM     34  C   UNL A   1      36.595  33.989  29.356  1.00  0.00     0.010 A 
ATOM     35  C   UNL A   1      36.440  33.396  30.619  1.00  0.00    -0.014 A 
BRANCH  35  36
ATOM     36  C   UNL A   1      37.617  32.765  31.266  1.00  0.00     0.031 A 
ATOM     37  C   UNL A   1      38.306  31.607  30.607  1.00  0.00     0.074 A 
ATOM     38  C   UNL A   1      37.996  33.173  32.492  1.00  0.00     0.049 A 
ATOM     39  N   UNL A   1      39.250  30.831  31.075  1.00  0.00    -0.248 NA
ATOM     40  C   UNL A   1      37.858  31.259  29.250  1.00  0.00     0.031 C 
ATOM     41  C   UNL A   1      37.381  34.263  33.252  1.00  0.00     0.029 A 
ATOM     42  N   UNL A   1      38.977  32.700  33.329  1.00  0.00    -0.354 N 
ATOM     43  C   UNL A   1      39.495  29.895  30.081  1.00  0.00     0.074 A 
ATOM     44  C   UNL A   1      38.576  30.174  28.999  1.00  0.00     0.031 C 
ATOM     45  C   UNL A   1      38.004  34.382  34.434  1.00  0.00     0.029 A 
ATOM     46  C   UNL A   1      39.030  33.350  34.537  1.00  0.00     0.049 A 
ATOM     47  H   UNL A   1      39.584  31.964  33.085  1.00  0.00     0.167 HD
ATOM     48  C   UNL A   1      40.417  28.903  30.068  1.00  0.00     0.037 A 
ATOM     49  C   UNL A   1      39.805  33.125  35.616  1.00  0.00     0.037 A 
ATOM     50  C   UNL A   1      41.349  28.647  31.133  1.00  0.00     0.049 A 
ATOM     51  C   UNL A   1      40.800  31.998  35.584  1.00  0.00     0.074 A 
ATOM     52  C   UNL A   1      42.369  27.712  31.180  1.00  0.00     0.029 A 
ATOM     53  N   UNL A   1      41.373  29.329  32.340  1.00  0.00    -0.354 N 
ATOM     54  N   UNL A   1      41.060  31.153  34.617  1.00  0.00    -0.248 NA
ATOM     55  C   UNL A   1      41.602  31.787  36.798  1.00  0.00     0.031 C 
ATOM     56  C   UNL A   1      42.988  27.804  32.431  1.00  0.00     0.029 A 
ATOM     57  C   UNL A   1      42.375  28.819  33.149  1.00  0.00     0.049 A 
ATOM     58  H   UNL A   1      40.768  30.066  32.585  1.00  0.00     0.167 HD
ATOM     59  C   UNL A   1      42.065  30.324  35.096  1.00  0.00     0.074 A 
ATOM     60  C   UNL A   1      42.378  30.775  36.435  1.00  0.00     0.031 C 
ATOM     61  C   UNL A   1      42.672  29.282  34.480  1.00  0.00     0.037 A 
BRANCH  48  62
ATOM     62  C   UNL A   1      40.470  28.024  28.855  1.00  0.00     0.064 A 
ATOM     63  C   UNL A   1      39.740  26.830  28.784  1.00  0.00     0.173 A 
ATOM     64  C   UNL A   1      41.223  28.402  27.733  1.00  0.00     0.173 A 
ATOM     65  F   UNL A   1      39.013  26.420  29.835  1.00  0.00    -0.203 F 
ATOM     66  C   UNL A   1      39.776  26.034  27.642  1.00  0.00     0.198 A 
ATOM     67  C   UNL A   1      41.239  27.617  26.584  1.00  0.00     0.198 A 
ATOM     68  F   UNL A   1      41.936  29.539  27.749  1.00  0.00    -0.203 F 
ATOM     69  F   UNL A   1      39.099  24.877  27.612  1.00  0.00    -0.200 F 
ATOM     70  C   UNL A   1      40.520  26.431  26.542  1.00  0.00     0.200 A 
ATOM     71  F   UNL A   1      41.949  28.006  25.516  1.00  0.00    -0.200 F 
ATOM     72  F   UNL A   1      40.549  25.668  25.440  1.00  0.00    -0.200 F 
ENDBRANCH  48  62
BRANCH  49  73
ATOM     73  C   UNL A   1      39.671  33.984  36.820  1.00  0.00     0.064 A 
ATOM     74  C   UNL A   1      38.849  33.596  37.886  1.00  0.00     0.173 A 
ATOM     75  C   UNL A   1      40.350  35.206  36.927  1.00  0.00     0.173 A 
ATOM     76  F   UNL A   1      38.162  32.447  37.818  1.00  0.00    -0.203 F 
ATOM     77  C   UNL A   1      38.699  34.406  39.010  1.00  0.00     0.198 A 
ATOM     78  C   UNL A   1      40.218  36.003  38.061  1.00  0.00     0.198 A 
ATOM     79  F   UNL A   1      41.149  35.620  35.933  1.00  0.00    -0.203 F 
ATOM     80  F   UNL A   1      37.876  34.030  39.998  1.00  0.00    -0.200 F 
ATOM     81  C   UNL A   1      39.388  35.607  39.099  1.00  0.00     0.200 A 
ATOM     82  F   UNL A   1      40.893  37.157  38.149  1.00  0.00    -0.200 F 
ATOM     83  F   UNL A   1      39.245  36.384  40.181  1.00  0.00    -0.200 F 
ENDBRANCH  49  73
BRANCH  61  84
ATOM     84  C   UNL A   1      43.746  28.566  35.242  1.00  0.00     0.064 A 
ATOM     85  C   UNL A   1      45.086  28.967  35.162  1.00  0.00     0.173 A 
ATOM     86  C   UNL A   1      43.423  27.503  36.098  1.00  0.00     0.173 A 
ATOM     87  F   UNL A   1      45.444  29.967  34.343  1.00  0.00    -0.203 F 
ATOM     88  C   UNL A   1      46.070  28.320  35.905  1.00  0.00     0.198 A 
ATOM     89  C   UNL A   1      44.405  26.874  36.857  1.00  0.00     0.198 A 
ATOM     90  F   UNL A   1      42.153  27.086  36.209  1.00  0.00    -0.203 F 
ATOM     91  F   UNL A   1      47.351  28.698  35.791  1.00  0.00    -0.200 F 
ATOM     92  C   UNL A   1      45.727  27.281  36.758  1.00  0.00     0.200 A 
ATOM     93  F   UNL A   1      44.072  25.876  37.687  1.00  0.00    -0.200 F 
ATOM     94  F   UNL A   1      46.674  26.667  37.481  1.00  0.00    -0.200 F 
ENDBRANCH  61  84
ENDBRANCH  35  36
ENDBRANCH  27  30
ENDBRANCH  25  26
ENDBRANCH  24  25
ENDBRANCH   1  24
TORSDOF 15
ENDMDL
MODEL 2
REMARK VINA RESULT:     -12.2      0.398      1.991
REMARK SMILES CCC[C@]1(C(=O)NCCCCNC(=O)c2ccc(-c3c4nc(c(-c5c(F)c(F)c(F)c(F)c5F)c5ccc([nH]5)c(-c5c(F)c(F)c(F)c(F)c5F)c5nc(c(-c6c(F)c(F)c(F)c(F)c6F)c6ccc3[nH]6)C=C5)C=C4)cc2)CCN(C(=O)c2cccnc2C)C1
REMARK SMILES IDX 9 1 8 2 7 3 5 4 6 5 4 7 78 8 90 9 79 10 80 11 3 12 2 13 1 14
REMARK SMILES IDX 81 15 82 16 83 17 84 18 88 19 85 20 87 21 89 22 86 23 10 24
REMARK SMILES IDX 11 25 12 26 13 27 14 29 15 30 16 31 77 32 17 33 76 34 18 35
REMARK SMILES IDX 19 36 20 37 70 38 21 39 75 40 69 41 71 42 22 43 74 44 68 45
REMARK SMILES IDX 67 46 23 48 55 49 35 50 54 51 36 52 39 53 53 54 72 55 37 56
REMARK SMILES IDX 38 57 52 59 73 60 40 61 24 62 25 63 33 64 26 65 27 66 31 67
REMARK SMILES IDX 34 68 28 69 29 70 32 71 30 72 56 73 57 74 65 75 58 76 59 77
REMARK SMILES IDX 63 78 66 79 60 80 61 81 64 82 62 83 41 84 42 85 50 86 43 87
REMARK SMILES IDX 44 88 48 89 51 90 45 91 46 92 49 93 47 94
REMARK H PARENT 7 6 12 28 71 47 39 58
REMARK Flexibility Score: inf
ROOT
ATOM      1  C   UNL A   1      32.022  30.163  26.804  1.00  0.00     0.023 C 
ENDROOT
BRANCH   1   2
ATOM      2  C   UNL A   1      33.003  29.618  25.771  1.00  0.00     0.116 C 
BRANCH   2   3
ATOM      3  N   UNL A   1      33.503  28.304  26.126  1.00  0.00    -0.356 N 
ATOM      4  C   UNL A   1      33.374  27.077  25.552  1.00  0.00     0.228 C 
ATOM      5  O   UNL A   1      33.982  26.180  26.144  1.00  0.00    -0.274 OA
ATOM      6  H   UNL A   1      34.044  28.298  26.948  1.00  0.00     0.163 HD
BRANCH   4   7
ATOM      7  C   UNL A   1      32.522  26.794  24.276  1.00  0.00     0.068 C 
ATOM      8  C   UNL A   1      33.212  27.390  23.025  1.00  0.00     0.040 C 
ATOM      9  C   UNL A   1      32.511  25.268  24.011  1.00  0.00     0.136 C 
ATOM     10  C   UNL A   1      33.158  26.302  21.961  1.00  0.00     0.121 C 
ATOM     11  N   UNL A   1      33.140  25.069  22.713  1.00  0.00    -0.337 N 
BRANCH   7  12
ATOM     12  C   UNL A   1      31.047  27.299  24.522  1.00  0.00     0.018 C 
BRANCH  12  13
ATOM     13  C   UNL A   1      29.852  26.334  24.471  1.00  0.00    -0.002 C 
ATOM     14  C   UNL A   1      28.627  26.856  23.742  1.00  0.00     0.004 C 
ENDBRANCH  12  13
ENDBRANCH   7  12
BRANCH  11  15
ATOM     15  C   UNL A   1      33.546  23.814  22.304  1.00  0.00     0.255 C 
ATOM     16  O   UNL A   1      33.356  23.382  21.170  1.00  0.00    -0.269 OA
BRANCH  15  17
ATOM     17  C   UNL A   1      34.326  22.989  23.242  1.00  0.00     0.061 A 
ATOM     18  C   UNL A   1      35.687  23.284  23.353  1.00  0.00     0.017 A 
ATOM     19  C   UNL A   1      33.801  21.926  23.977  1.00  0.00     0.050 A 
ATOM     20  C   UNL A   1      36.475  22.558  24.237  1.00  0.00     0.021 A 
ATOM     21  N   UNL A   1      34.559  21.234  24.871  1.00  0.00    -0.261 NA
ATOM     22  C   UNL A   1      32.378  21.467  23.868  1.00  0.00     0.067 C 
ATOM     23  C   UNL A   1      35.867  21.563  24.981  1.00  0.00     0.111 A 
ENDBRANCH  15  17
ENDBRANCH  11  15
ENDBRANCH   4   7
ENDBRANCH   2   3
ENDBRANCH   1   2
BRANCH   1  24
ATOM     24  C   UNL A   1      31.791  31.672  26.741  1.00  0.00     0.023 C 
BRANCH  24  25
ATOM     25  C   UNL A   1      32.883  32.526  27.378  1.00  0.00     0.116 C 
BRANCH  25  26
ATOM     26  N   UNL A   1      32.469  33.901  27.621  1.00  0.00    -0.352 N 
ATOM     27  C   UNL A   1      32.976  34.817  28.513  1.00  0.00     0.251 C 
ATOM     28  H   UNL A   1      31.719  34.220  27.070  1.00  0.00     0.163 HD
ATOM     29  O   UNL A   1      32.424  35.899  28.677  1.00  0.00    -0.269 OA
BRANCH  27  30
ATOM     30  C   UNL A   1      34.172  34.471  29.305  1.00  0.00     0.039 A 
ATOM     31  C   UNL A   1      34.004  33.945  30.589  1.00  0.00     0.014 A 
ATOM     32  C   UNL A   1      35.450  34.616  28.759  1.00  0.00     0.014 A 
ATOM     33  C   UNL A   1      35.114  33.467  31.287  1.00  0.00     0.010 A 
ATOM     34  C   UNL A   1      36.546  34.081  29.429  1.00  0.00     0.010 A 
ATOM     35  C   UNL A   1      36.383  33.482  30.688  1.00  0.00    -0.014 A 
BRANCH  35  36
ATOM     36  C   UNL A   1      37.554  32.837  31.332  1.00  0.00     0.031 A 
ATOM     37  C   UNL A   1      38.219  31.661  30.680  1.00  0.00     0.074 A 
ATOM     38  C   UNL A   1      37.949  33.250  32.552  1.00  0.00     0.049 A 
ATOM     39  N   UNL A   1      39.152  30.873  31.150  1.00  0.00    -0.248 NA
ATOM     40  C   UNL A   1      37.755  31.307  29.331  1.00  0.00     0.031 C 
ATOM     41  C   UNL A   1      37.358  34.358  33.305  1.00  0.00     0.029 A 
ATOM     42  N   UNL A   1      38.928  32.769  33.387  1.00  0.00    -0.354 N 
ATOM     43  C   UNL A   1      39.374  29.923  30.164  1.00  0.00     0.074 A 
ATOM     44  C   UNL A   1      38.452  30.208  29.085  1.00  0.00     0.031 C 
ATOM     45  C   UNL A   1      37.991  34.478  34.482  1.00  0.00     0.029 A 
ATOM     46  C   UNL A   1      39.000  33.430  34.588  1.00  0.00     0.049 A 
ATOM     47  H   UNL A   1      39.520  32.020  33.146  1.00  0.00     0.167 HD
ATOM     48  C   UNL A   1      40.280  28.916  30.154  1.00  0.00     0.037 A 
ATOM     49  C   UNL A   1      39.779  33.202  35.663  1.00  0.00     0.037 A 
ATOM     50  C   UNL A   1      41.214  28.654  31.215  1.00  0.00     0.049 A 
ATOM     51  C   UNL A   1      40.754  32.058  35.636  1.00  0.00     0.074 A 
ATOM     52  C   UNL A   1      42.218  27.703  31.265  1.00  0.00     0.029 A 
ATOM     53  N   UNL A   1      41.258  29.347  32.415  1.00  0.00    -0.354 N 
ATOM     54  N   UNL A   1      40.993  31.199  34.676  1.00  0.00    -0.248 NA
ATOM     55  C   UNL A   1      41.562  31.846  36.846  1.00  0.00     0.031 C 
ATOM     56  C   UNL A   1      42.847  27.796  32.511  1.00  0.00     0.029 A 
ATOM     57  C   UNL A   1      42.257  28.828  33.222  1.00  0.00     0.049 A 
ATOM     58  H   UNL A   1      40.668  30.097  32.657  1.00  0.00     0.167 HD
ATOM     59  C   UNL A   1      41.987  30.358  35.156  1.00  0.00     0.074 A 
ATOM     60  C   UNL A   1      42.317  30.817  36.489  1.00  0.00     0.031 C 
ATOM     61  C   UNL A   1      42.572  29.299  34.546  1.00  0.00     0.037 A 
BRANCH  48  62
ATOM     62  C   UNL A   1      40.309  28.024  28.949  1.00  0.00     0.064 A 
ATOM     63  C   UNL A   1      41.071  28.348  27.818  1.00  0.00     0.173 A 
ATOM     64  C   UNL A   1      39.603  26.812  28.943  1.00  0.00     0.173 A 
ATOM     65  F   UNL A   1      41.754  29.502  27.772  1.00  0.00    -0.203 F 
ATOM     66  C   UNL A   1      41.110  27.500  26.715  1.00  0.00     0.198 A 
ATOM     67  C   UNL A   1      39.664  25.954  27.848  1.00  0.00     0.198 A 
ATOM     68  F   UNL A   1      38.863  26.454  30.003  1.00  0.00    -0.203 F 
ATOM     69  F   UNL A   1      41.816  27.848  25.629  1.00  0.00    -0.200 F 
ATOM     70  C   UNL A   1      40.412  26.302  26.732  1.00  0.00     0.200 A 
ATOM     71  F   UNL A   1      38.998  24.792  27.870  1.00  0.00    -0.200 F 
ATOM     72  F   UNL A   1      40.457  25.483  25.673  1.00  0.00    -0.200 F 
ENDBRANCH  48  62
BRANCH  49  73
ATOM     73  C   UNL A   1      39.668  34.076  36.859  1.00  0.00     0.064 A 
ATOM     74  C   UNL A   1      40.367  35.288  36.925  1.00  0.00     0.173 A 
ATOM     75  C   UNL A   1      38.874  33.717  37.958  1.00  0.00     0.173 A 
ATOM     76  F   UNL A   1      41.157  35.661  35.908  1.00  0.00    -0.203 F 
ATOM     77  C   UNL A   1      40.288  36.104  38.052  1.00  0.00     0.198 A 
ATOM     78  C   UNL A   1      38.777  34.545  39.074  1.00  0.00     0.198 A 
ATOM     79  F   UNL A   1      38.185  32.567  37.941  1.00  0.00    -0.203 F 
ATOM     80  F   UNL A   1      40.997  37.239  38.106  1.00  0.00    -0.200 F 
ATOM     81  C   UNL A   1      39.489  35.734  39.123  1.00  0.00     0.200 A 
ATOM     82  F   UNL A   1      37.995  34.189  40.103  1.00  0.00    -0.200 F 
ATOM     83  F   UNL A   1      39.411  36.519  40.206  1.00  0.00    -0.200 F 
ENDBRANCH  49  73
BRANCH  61  84
ATOM     84  C   UNL A   1      43.639  28.573  35.307  1.00  0.00     0.064 A 
ATOM     85  C   UNL A   1      43.322  27.535  36.196  1.00  0.00     0.173 A 
ATOM     86  C   UNL A   1      44.992  28.881  35.107  1.00  0.00     0.173 A 
ATOM     87  F   UNL A   1      42.040  27.218  36.432  1.00  0.00    -0.203 F 
ATOM     88  C   UNL A   1      44.323  26.840  36.867  1.00  0.00     0.198 A 
ATOM     89  C   UNL A   1      45.991  28.168  35.762  1.00  0.00     0.198 A 
ATOM     90  F   UNL A   1      45.344  29.863  34.264  1.00  0.00    -0.203 F 
ATOM     91  F   UNL A   1      43.998  25.873  37.736  1.00  0.00    -0.200 F 
ATOM     92  C   UNL A   1      45.656  27.151  36.643  1.00  0.00     0.200 A 
ATOM     93  F   UNL A   1      47.279  28.463  35.539  1.00  0.00    -0.200 F 
ATOM     94  F   UNL A   1      46.620  26.473  37.282  1.00  0.00    -0.200 F 
ENDBRANCH  61  84
ENDBRANCH  35  36
ENDBRANCH  27  30
ENDBRANCH  25  26
ENDBRANCH  24  25
ENDBRANCH   1  24
TORSDOF 15
ENDMDL
MODEL 3
REMARK VINA RESULT:     -12.2      5.475     11.105
REMARK SMILES CCC[C@]1(C(=O)NCCCCNC(=O)c2ccc(-c3c4nc(c(-c5c(F)c(F)c(F)c(F)c5F)c5ccc([nH]5)c(-c5c(F)c(F)c(F)c(F)c5F)c5nc(c(-c6c(F)c(F)c(F)c(F)c6F)c6ccc3[nH]6)C=C5)C=C4)cc2)CCN(C(=O)c2cccnc2C)C1
REMARK SMILES IDX 9 1 8 2 7 3 5 4 6 5 4 7 78 8 90 9 79 10 80 11 3 12 2 13 1 14
REMARK SMILES IDX 81 15 82 16 83 17 84 18 88 19 85 20 87 21 89 22 86 23 10 24
REMARK SMILES IDX 11 25 12 26 13 27 14 29 15 30 16 31 77 32 17 33 76 34 18 35
REMARK SMILES IDX 19 36 20 37 70 38 21 39 75 40 69 41 71 42 22 43 74 44 68 45
REMARK SMILES IDX 67 46 23 48 55 49 35 50 54 51 36 52 39 53 53 54 72 55 37 56
REMARK SMILES IDX 38 57 52 59 73 60 40 61 24 62 25 63 33 64 26 65 27 66 31 67
REMARK SMILES IDX 34 68 28 69 29 70 32 71 30 72 56 73 57 74 65 75 58 76 59 77
REMARK SMILES IDX 63 78 66 79 60 80 61 81 64 82 62 83 41 84 42 85 50 86 43 87
REMARK SMILES IDX 44 88 48 89 51 90 45 91 46 92 49 93 47 94
REMARK H PARENT 7 6 12 28 71 47 39 58
REMARK Flexibility Score: inf
ROOT
ATOM      1  C   UNL A   1      37.254  21.545  24.499  1.00  0.00     0.023 C 
ENDROOT
BRANCH   1   2
ATOM      2  C   UNL A   1      36.442  22.330  25.523  1.00  0.00     0.116 C 
BRANCH   2   3
ATOM      3  N   UNL A   1      35.987  23.605  25.004  1.00  0.00    -0.356 N 
ATOM      4  C   UNL A   1      34.749  24.137  24.808  1.00  0.00     0.228 C 
ATOM      5  O   UNL A   1      34.764  25.290  24.363  1.00  0.00    -0.274 OA
ATOM      6  H   UNL A   1      36.719  24.207  24.742  1.00  0.00     0.163 HD
BRANCH   4   7
ATOM      7  C   UNL A   1      33.416  23.375  25.083  1.00  0.00     0.068 C 
ATOM      8  C   UNL A   1      33.274  23.069  26.594  1.00  0.00     0.040 C 
ATOM      9  C   UNL A   1      32.228  24.320  24.776  1.00  0.00     0.136 C 
ATOM     10  C   UNL A   1      31.848  23.451  26.965  1.00  0.00     0.121 C 
ATOM     11  N   UNL A   1      31.504  24.495  26.028  1.00  0.00    -0.337 N 
BRANCH   7  12
ATOM     12  C   UNL A   1      33.344  22.110  24.141  1.00  0.00     0.018 C 
BRANCH  12  13
ATOM     13  C   UNL A   1      32.841  20.754  24.660  1.00  0.00    -0.002 C 
ATOM     14  C   UNL A   1      33.889  19.658  24.733  1.00  0.00     0.004 C 
ENDBRANCH  12  13
ENDBRANCH   7  12
BRANCH  11  15
ATOM     15  C   UNL A   1      30.564  25.496  26.171  1.00  0.00     0.255 C 
ATOM     16  O   UNL A   1      29.415  25.290  26.552  1.00  0.00    -0.269 OA
BRANCH  15  17
ATOM     17  C   UNL A   1      30.983  26.890  25.947  1.00  0.00     0.061 A 
ATOM     18  C   UNL A   1      31.637  27.524  27.007  1.00  0.00     0.017 A 
ATOM     19  C   UNL A   1      30.731  27.608  24.779  1.00  0.00     0.050 A 
ATOM     20  C   UNL A   1      32.079  28.832  26.853  1.00  0.00     0.021 A 
ATOM     21  N   UNL A   1      31.193  28.877  24.608  1.00  0.00    -0.261 NA
ATOM     22  C   UNL A   1      29.961  27.056  23.617  1.00  0.00     0.067 C 
ATOM     23  C   UNL A   1      31.851  29.456  25.639  1.00  0.00     0.111 A 
ENDBRANCH  15  17
ENDBRANCH  11  15
ENDBRANCH   4   7
ENDBRANCH   2   3
ENDBRANCH   1   2
BRANCH   1  24
ATOM     24  C   UNL A   1      37.925  20.282  25.037  1.00  0.00     0.023 C 
BRANCH  24  25
ATOM     25  C   UNL A   1      39.206  20.512  25.831  1.00  0.00     0.116 C 
BRANCH  25  26
ATOM     26  N   UNL A   1      40.081  19.348  25.861  1.00  0.00    -0.352 N 
ATOM     27  C   UNL A   1      41.437  19.284  26.080  1.00  0.00     0.251 C 
ATOM     28  H   UNL A   1      39.638  18.483  25.701  1.00  0.00     0.163 HD
ATOM     29  O   UNL A   1      42.042  18.226  25.947  1.00  0.00    -0.269 OA
BRANCH  27  30
ATOM     30  C   UNL A   1      42.171  20.512  26.440  1.00  0.00     0.039 A 
ATOM     31  C   UNL A   1      42.721  21.294  25.421  1.00  0.00     0.014 A 
ATOM     32  C   UNL A   1      42.267  20.916  27.775  1.00  0.00     0.014 A 
ATOM     33  C   UNL A   1      43.279  22.536  25.730  1.00  0.00     0.010 A 
ATOM     34  C   UNL A   1      42.765  22.180  28.073  1.00  0.00     0.010 A 
ATOM     35  C   UNL A   1      43.254  23.009  27.052  1.00  0.00    -0.014 A 
BRANCH  35  36
ATOM     36  C   UNL A   1      43.688  24.387  27.392  1.00  0.00     0.031 A 
ATOM     37  C   UNL A   1      42.689  25.392  27.882  1.00  0.00     0.074 A 
ATOM     38  C   UNL A   1      44.964  24.754  27.159  1.00  0.00     0.049 A 
ATOM     39  N   UNL A   1      42.840  26.675  28.089  1.00  0.00    -0.248 NA
ATOM     40  C   UNL A   1      41.332  24.894  28.152  1.00  0.00     0.031 C 
ATOM     41  C   UNL A   1      46.019  23.877  26.649  1.00  0.00     0.029 A 
ATOM     42  N   UNL A   1      45.584  25.971  27.299  1.00  0.00    -0.354 N 
ATOM     43  C   UNL A   1      41.598  27.140  28.495  1.00  0.00     0.074 A 
ATOM     44  C   UNL A   1      40.693  26.010  28.469  1.00  0.00     0.031 C 
ATOM     45  C   UNL A   1      47.156  24.581  26.528  1.00  0.00     0.029 A 
ATOM     46  C   UNL A   1      46.901  25.966  26.909  1.00  0.00     0.049 A 
ATOM     47  H   UNL A   1      45.128  26.771  27.646  1.00  0.00     0.167 HD
ATOM     48  C   UNL A   1      41.250  28.393  28.872  1.00  0.00     0.037 A 
ATOM     49  C   UNL A   1      47.795  26.971  26.845  1.00  0.00     0.037 A 
ATOM     50  C   UNL A   1      42.158  29.507  28.925  1.00  0.00     0.049 A 
ATOM     51  C   UNL A   1      47.373  28.358  27.241  1.00  0.00     0.074 A 
ATOM     52  C   UNL A   1      41.917  30.796  29.364  1.00  0.00     0.029 A 
ATOM     53  N   UNL A   1      43.485  29.461  28.524  1.00  0.00    -0.354 N 
ATOM     54  N   UNL A   1      46.209  28.775  27.675  1.00  0.00    -0.248 NA
ATOM     55  C   UNL A   1      48.386  29.417  27.130  1.00  0.00     0.031 C 
ATOM     56  C   UNL A   1      43.088  31.542  29.195  1.00  0.00     0.029 A 
ATOM     57  C   UNL A   1      44.068  30.707  28.682  1.00  0.00     0.049 A 
ATOM     58  H   UNL A   1      43.944  28.661  28.179  1.00  0.00     0.167 HD
ATOM     59  C   UNL A   1      46.353  30.135  27.906  1.00  0.00     0.074 A 
ATOM     60  C   UNL A   1      47.722  30.474  27.576  1.00  0.00     0.031 C 
ATOM     61  C   UNL A   1      45.433  31.025  28.350  1.00  0.00     0.037 A 
BRANCH  48  62
ATOM     62  C   UNL A   1      39.823  28.625  29.269  1.00  0.00     0.064 A 
ATOM     63  C   UNL A   1      39.385  28.412  30.583  1.00  0.00     0.173 A 
ATOM     64  C   UNL A   1      38.894  29.107  28.335  1.00  0.00     0.173 A 
ATOM     65  F   UNL A   1      40.234  27.940  31.510  1.00  0.00    -0.203 F 
ATOM     66  C   UNL A   1      38.063  28.655  30.946  1.00  0.00     0.198 A 
ATOM     67  C   UNL A   1      37.578  29.372  28.707  1.00  0.00     0.198 A 
ATOM     68  F   UNL A   1      39.264  29.331  27.065  1.00  0.00    -0.203 F 
ATOM     69  F   UNL A   1      37.658  28.408  32.200  1.00  0.00    -0.200 F 
ATOM     70  C   UNL A   1      37.162  29.140  30.010  1.00  0.00     0.200 A 
ATOM     71  F   UNL A   1      36.711  29.851  27.804  1.00  0.00    -0.200 F 
ATOM     72  F   UNL A   1      35.892  29.380  30.362  1.00  0.00    -0.200 F 
ENDBRANCH  48  62
BRANCH  49  73
ATOM     73  C   UNL A   1      49.182  26.703  26.384  1.00  0.00     0.064 A 
ATOM     74  C   UNL A   1      49.535  26.881  25.040  1.00  0.00     0.173 A 
ATOM     75  C   UNL A   1      50.174  26.258  27.269  1.00  0.00     0.173 A 
ATOM     76  F   UNL A   1      48.613  27.283  24.153  1.00  0.00    -0.203 F 
ATOM     77  C   UNL A   1      50.827  26.612  24.594  1.00  0.00     0.198 A 
ATOM     78  C   UNL A   1      51.472  26.011  26.827  1.00  0.00     0.198 A 
ATOM     79  F   UNL A   1      49.885  26.074  28.565  1.00  0.00    -0.203 F 
ATOM     80  F   UNL A   1      51.129  26.753  23.297  1.00  0.00    -0.200 F 
ATOM     81  C   UNL A   1      51.796  26.181  25.489  1.00  0.00     0.200 A 
ATOM     82  F   UNL A   1      52.408  25.606  27.696  1.00  0.00    -0.200 F 
ATOM     83  F   UNL A   1      53.039  25.923  25.060  1.00  0.00    -0.200 F 
ENDBRANCH  49  73
BRANCH  61  84
ATOM     84  C   UNL A   1      45.877  32.445  28.519  1.00  0.00     0.064 A 
ATOM     85  C   UNL A   1      46.452  32.892  29.717  1.00  0.00     0.173 A 
ATOM     86  C   UNL A   1      45.775  33.354  27.455  1.00  0.00     0.173 A 
ATOM     87  F   UNL A   1      46.553  32.062  30.766  1.00  0.00    -0.203 F 
ATOM     88  C   UNL A   1      46.898  34.203  29.849  1.00  0.00     0.198 A 
ATOM     89  C   UNL A   1      46.244  34.659  27.584  1.00  0.00     0.198 A 
ATOM     90  F   UNL A   1      45.236  32.973  26.289  1.00  0.00    -0.203 F 
ATOM     91  F   UNL A   1      47.415  34.619  31.014  1.00  0.00    -0.200 F 
ATOM     92  C   UNL A   1      46.802  35.082  28.780  1.00  0.00     0.200 A 
ATOM     93  F   UNL A   1      46.158  35.504  26.548  1.00  0.00    -0.200 F 
ATOM     94  F   UNL A   1      47.242  36.342  28.906  1.00  0.00    -0.200 F 
ENDBRANCH  61  84
ENDBRANCH  35  36
ENDBRANCH  27  30
ENDBRANCH  25  26
ENDBRANCH  24  25
ENDBRANCH   1  24
TORSDOF 15
ENDMDL
