MODEL 1
REMARK VINA RESULT:     -12.7      0.000      0.000
REMARK SMILES C[C@H]1SC[C@H](C(=O)NCCCCNC(=O)c2ccc(-c3c4nc(c(-c5c(F)c(F)c(F)c(F)c5F)c5ccc([nH]5)c(-c5c(F)c(F)c(F)c(F)c5F)c5nc(c(-c6c(F)c(F)c(F)c(F)c6F)c6ccc3[nH]6)C=C5)C=C4)cc2)N1C(=O)[C@@H]1CSc2ccccc21
REMARK SMILES IDX 10 1 9 2 8 3 6 4 7 5 5 7 1 8 2 9 3 10 79 11 4 12 80 13 81 14
REMARK SMILES IDX 82 15 83 16 90 17 84 18 85 19 89 20 86 21 88 22 87 23 11 24
REMARK SMILES IDX 12 25 13 26 14 27 15 29 16 30 17 31 78 32 18 33 77 34 19 35
REMARK SMILES IDX 20 36 21 37 71 38 22 39 76 40 70 41 72 42 23 43 75 44 69 45
REMARK SMILES IDX 68 46 24 48 56 49 36 50 55 51 37 52 40 53 54 54 73 55 38 56
REMARK SMILES IDX 39 57 53 59 74 60 41 61 25 62 26 63 34 64 27 65 28 66 32 67
REMARK SMILES IDX 35 68 29 69 30 70 33 71 31 72 57 73 58 74 66 75 59 76 60 77
REMARK SMILES IDX 64 78 67 79 61 80 62 81 65 82 63 83 42 84 43 85 51 86 44 87
REMARK SMILES IDX 45 88 49 89 52 90 46 91 47 92 50 93 48 94
REMARK H PARENT 8 6 13 28 72 47 40 58
REMARK Flexibility Score: inf
ROOT
ATOM      1  C   UNL A   1      31.495  30.602  26.325  1.00  0.00     0.023 C 
ENDROOT
BRANCH   1   2
ATOM      2  C   UNL A   1      32.899  30.090  26.024  1.00  0.00     0.116 C 
BRANCH   2   3
ATOM      3  N   UNL A   1      33.056  29.732  24.632  1.00  0.00    -0.354 N 
ATOM      4  C   UNL A   1      32.532  28.685  23.932  1.00  0.00     0.243 C 
ATOM      5  O   UNL A   1      33.007  28.468  22.812  1.00  0.00    -0.273 OA
ATOM      6  H   UNL A   1      33.629  30.337  24.109  1.00  0.00     0.163 HD
BRANCH   4   7
ATOM      7  C   UNL A   1      31.568  27.673  24.578  1.00  0.00     0.185 C 
ATOM      8  C   UNL A   1      30.210  25.297  26.136  1.00  0.00     0.043 C 
ATOM      9  C   UNL A   1      30.879  25.350  24.760  1.00  0.00     0.141 C 
ATOM     10  S   UNL A   1      29.665  26.021  23.595  1.00  0.00    -0.135 SA
ATOM     11  N   UNL A   1      32.008  26.268  24.719  1.00  0.00    -0.318 N 
ATOM     12  C   UNL A   1      30.280  27.716  23.738  1.00  0.00     0.107 C 
BRANCH  11  13
ATOM     13  C   UNL A   1      33.276  26.010  25.217  1.00  0.00     0.232 C 
ATOM     14  O   UNL A   1      33.735  26.716  26.123  1.00  0.00    -0.274 OA
BRANCH  13  15
ATOM     15  C   UNL A   1      34.199  24.933  24.620  1.00  0.00     0.120 C 
ATOM     16  C   UNL A   1      34.061  24.737  23.103  1.00  0.00     0.093 C 
ATOM     17  C   UNL A   1      34.111  23.595  25.294  1.00  0.00    -0.021 A 
ATOM     18  S   UNL A   1      33.562  23.015  22.771  1.00  0.00    -0.125 SA
ATOM     19  C   UNL A   1      33.711  22.545  24.468  1.00  0.00     0.011 A 
ATOM     20  C   UNL A   1      34.363  23.373  26.646  1.00  0.00     0.006 A 
ATOM     21  C   UNL A   1      33.437  21.293  24.994  1.00  0.00     0.015 A 
ATOM     22  C   UNL A   1      34.114  22.109  27.178  1.00  0.00     0.000 A 
ATOM     23  C   UNL A   1      33.625  21.082  26.361  1.00  0.00     0.001 A 
ENDBRANCH  13  15
ENDBRANCH  11  13
ENDBRANCH   4   7
ENDBRANCH   2   3
ENDBRANCH   1   2
BRANCH   1  24
ATOM     24  C   UNL A   1      31.392  32.115  26.511  1.00  0.00     0.023 C 
BRANCH  24  25
ATOM     25  C   UNL A   1      32.603  32.770  27.164  1.00  0.00     0.116 C 
BRANCH  25  26
ATOM     26  N   UNL A   1      32.337  34.123  27.620  1.00  0.00    -0.352 N 
ATOM     27  C   UNL A   1      32.973  34.859  28.590  1.00  0.00     0.251 C 
ATOM     28  H   UNL A   1      31.592  34.581  27.167  1.00  0.00     0.163 HD
ATOM     29  O   UNL A   1      32.515  35.943  28.933  1.00  0.00    -0.269 OA
BRANCH  27  30
ATOM     30  C   UNL A   1      34.188  34.331  29.249  1.00  0.00     0.039 A 
ATOM     31  C   UNL A   1      34.037  33.563  30.405  1.00  0.00     0.014 A 
ATOM     32  C   UNL A   1      35.464  34.585  28.738  1.00  0.00     0.014 A 
ATOM     33  C   UNL A   1      35.160  33.002  31.014  1.00  0.00     0.010 A 
ATOM     34  C   UNL A   1      36.575  33.956  29.298  1.00  0.00     0.010 A 
ATOM     35  C   UNL A   1      36.435  33.162  30.445  1.00  0.00    -0.014 A 
BRANCH  35  36
ATOM     36  C   UNL A   1      37.615  32.485  31.043  1.00  0.00     0.031 A 
ATOM     37  C   UNL A   1      38.105  32.858  32.414  1.00  0.00     0.074 A 
ATOM     38  C   UNL A   1      38.262  31.541  30.331  1.00  0.00     0.049 A 
ATOM     39  N   UNL A   1      39.084  32.338  33.112  1.00  0.00    -0.248 NA
ATOM     40  C   UNL A   1      37.424  33.978  33.083  1.00  0.00     0.031 C 
ATOM     41  C   UNL A   1      37.930  31.142  28.961  1.00  0.00     0.029 A 
ATOM     42  N   UNL A   1      39.326  30.740  30.660  1.00  0.00    -0.354 N 
ATOM     43  C   UNL A   1      39.136  33.066  34.294  1.00  0.00     0.074 A 
ATOM     44  C   UNL A   1      38.136  34.106  34.192  1.00  0.00     0.031 C 
ATOM     45  C   UNL A   1      38.742  30.143  28.585  1.00  0.00     0.029 A 
ATOM     46  C   UNL A   1      39.671  29.851  29.672  1.00  0.00     0.049 A 
ATOM     47  H   UNL A   1      39.797  30.798  31.522  1.00  0.00     0.167 HD
ATOM     48  C   UNL A   1      39.927  32.867  35.376  1.00  0.00     0.037 A 
ATOM     49  C   UNL A   1      40.621  28.896  29.651  1.00  0.00     0.037 A 
ATOM     50  C   UNL A   1      40.914  31.824  35.477  1.00  0.00     0.049 A 
ATOM     51  C   UNL A   1      41.471  28.685  30.873  1.00  0.00     0.074 A 
ATOM     52  C   UNL A   1      41.729  31.506  36.550  1.00  0.00     0.029 A 
ATOM     53  N   UNL A   1      41.225  30.930  34.462  1.00  0.00    -0.354 N 
ATOM     54  N   UNL A   1      41.452  29.322  32.019  1.00  0.00    -0.248 NA
ATOM     55  C   UNL A   1      42.465  27.606  30.803  1.00  0.00     0.031 C 
ATOM     56  C   UNL A   1      42.567  30.453  36.166  1.00  0.00     0.029 A 
ATOM     57  C   UNL A   1      42.234  30.073  34.877  1.00  0.00     0.049 A 
ATOM     58  H   UNL A   1      40.793  30.907  33.578  1.00  0.00     0.167 HD
ATOM     59  C   UNL A   1      42.406  28.704  32.816  1.00  0.00     0.074 A 
ATOM     60  C   UNL A   1      42.968  27.625  32.030  1.00  0.00     0.031 C 
ATOM     61  C   UNL A   1      42.784  29.003  34.083  1.00  0.00     0.037 A 
BRANCH  48  62
ATOM     62  C   UNL A   1      39.751  33.797  36.544  1.00  0.00     0.064 A 
ATOM     63  C   UNL A   1      40.394  35.044  36.596  1.00  0.00     0.173 A 
ATOM     64  C   UNL A   1      38.901  33.456  37.607  1.00  0.00     0.173 A 
ATOM     65  F   UNL A   1      41.227  35.416  35.611  1.00  0.00    -0.203 F 
ATOM     66  C   UNL A   1      40.218  35.900  37.681  1.00  0.00     0.198 A 
ATOM     67  C   UNL A   1      38.701  34.329  38.675  1.00  0.00     0.198 A 
ATOM     68  F   UNL A   1      38.256  32.280  37.608  1.00  0.00    -0.203 F 
ATOM     69  F   UNL A   1      40.885  37.061  37.731  1.00  0.00    -0.200 F 
ATOM     70  C   UNL A   1      39.365  35.545  38.714  1.00  0.00     0.200 A 
ATOM     71  F   UNL A   1      37.866  33.991  39.667  1.00  0.00    -0.200 F 
ATOM     72  F   UNL A   1      39.190  36.372  39.754  1.00  0.00    -0.200 F 
ENDBRANCH  48  62
BRANCH  49  73
ATOM     73  C   UNL A   1      40.785  28.038  28.448  1.00  0.00     0.064 A 
ATOM     74  C   UNL A   1      41.597  28.442  27.379  1.00  0.00     0.173 A 
ATOM     75  C   UNL A   1      40.129  26.804  28.338  1.00  0.00     0.173 A 
ATOM     76  F   UNL A   1      42.232  29.623  27.429  1.00  0.00    -0.203 F 
ATOM     77  C   UNL A   1      41.726  27.657  26.235  1.00  0.00     0.198 A 
ATOM     78  C   UNL A   1      40.284  26.004  27.207  1.00  0.00     0.198 A 
ATOM     79  F   UNL A   1      39.346  26.367  29.336  1.00  0.00    -0.203 F 
ATOM     80  F   UNL A   1      42.467  28.091  25.207  1.00  0.00    -0.200 F 
ATOM     81  C   UNL A   1      41.074  26.436  26.153  1.00  0.00     0.200 A 
ATOM     82  F   UNL A   1      39.666  24.817  27.138  1.00  0.00    -0.200 F 
ATOM     83  F   UNL A   1      41.202  25.680  25.054  1.00  0.00    -0.200 F 
ENDBRANCH  49  73
BRANCH  61  84
ATOM     84  C   UNL A   1      43.831  28.124  34.707  1.00  0.00     0.064 A 
ATOM     85  C   UNL A   1      43.496  26.947  35.394  1.00  0.00     0.173 A 
ATOM     86  C   UNL A   1      45.189  28.465  34.616  1.00  0.00     0.173 A 
ATOM     87  F   UNL A   1      42.211  26.581  35.521  1.00  0.00    -0.203 F 
ATOM     88  C   UNL A   1      44.477  26.173  36.010  1.00  0.00     0.198 A 
ATOM     89  C   UNL A   1      46.171  27.669  35.201  1.00  0.00     0.198 A 
ATOM     90  F   UNL A   1      45.567  29.573  33.962  1.00  0.00    -0.203 F 
ATOM     91  F   UNL A   1      44.125  25.093  36.723  1.00  0.00    -0.200 F 
ATOM     92  C   UNL A   1      45.812  26.531  35.909  1.00  0.00     0.200 A 
ATOM     93  F   UNL A   1      47.462  28.008  35.089  1.00  0.00    -0.200 F 
ATOM     94  F   UNL A   1      46.755  25.788  36.506  1.00  0.00    -0.200 F 
ENDBRANCH  61  84
ENDBRANCH  35  36
ENDBRANCH  27  30
ENDBRANCH  25  26
ENDBRANCH  24  25
ENDBRANCH   1  24
TORSDOF 13
ENDMDL
MODEL 2
REMARK VINA RESULT:     -12.7      0.075      1.585
REMARK SMILES C[C@H]1SC[C@H](C(=O)NCCCCNC(=O)c2ccc(-c3c4nc(c(-c5c(F)c(F)c(F)c(F)c5F)c5ccc([nH]5)c(-c5c(F)c(F)c(F)c(F)c5F)c5nc(c(-c6c(F)c(F)c(F)c(F)c6F)c6ccc3[nH]6)C=C5)C=C4)cc2)N1C(=O)[C@@H]1CSc2ccccc21
REMARK SMILES IDX 10 1 9 2 8 3 6 4 7 5 5 7 1 8 2 9 3 10 79 11 4 12 80 13 81 14
REMARK SMILES IDX 82 15 83 16 90 17 84 18 85 19 89 20 86 21 88 22 87 23 11 24
REMARK SMILES IDX 12 25 13 26 14 27 15 29 16 30 17 31 78 32 18 33 77 34 19 35
REMARK SMILES IDX 20 36 21 37 71 38 22 39 76 40 70 41 72 42 23 43 75 44 69 45
REMARK SMILES IDX 68 46 24 48 56 49 36 50 55 51 37 52 40 53 54 54 73 55 38 56
REMARK SMILES IDX 39 57 53 59 74 60 41 61 25 62 26 63 34 64 27 65 28 66 32 67
REMARK SMILES IDX 35 68 29 69 30 70 33 71 31 72 57 73 58 74 66 75 59 76 60 77
REMARK SMILES IDX 64 78 67 79 61 80 62 81 65 82 63 83 42 84 43 85 51 86 44 87
REMARK SMILES IDX 45 88 49 89 52 90 46 91 47 92 50 93 48 94
REMARK H PARENT 8 6 13 28 72 47 40 58
REMARK Flexibility Score: inf
ROOT
ATOM      1  C   UNL A   1      31.442  30.657  26.348  1.00  0.00     0.023 C 
ENDROOT
BRANCH   1   2
ATOM      2  C   UNL A   1      32.842  30.116  26.081  1.00  0.00     0.116 C 
BRANCH   2   3
ATOM      3  N   UNL A   1      33.028  29.764  24.691  1.00  0.00    -0.354 N 
ATOM      4  C   UNL A   1      32.526  28.714  23.980  1.00  0.00     0.243 C 
ATOM      5  O   UNL A   1      33.025  28.503  22.868  1.00  0.00    -0.273 OA
ATOM      6  H   UNL A   1      33.606  30.375  24.181  1.00  0.00     0.163 HD
BRANCH   4   7
ATOM      7  C   UNL A   1      31.559  27.692  24.605  1.00  0.00     0.185 C 
ATOM      8  C   UNL A   1      30.193  25.295  26.123  1.00  0.00     0.043 C 
ATOM      9  C   UNL A   1      30.874  25.366  24.753  1.00  0.00     0.141 C 
ATOM     10  S   UNL A   1      29.668  26.047  23.586  1.00  0.00    -0.135 SA
ATOM     11  N   UNL A   1      32.001  26.287  24.734  1.00  0.00    -0.318 N 
ATOM     12  C   UNL A   1      30.278  27.742  23.754  1.00  0.00     0.107 C 
BRANCH  11  13
ATOM     13  C   UNL A   1      33.266  26.026  25.239  1.00  0.00     0.232 C 
ATOM     14  O   UNL A   1      33.720  26.729  26.150  1.00  0.00    -0.274 OA
BRANCH  13  15
ATOM     15  C   UNL A   1      34.190  24.948  24.647  1.00  0.00     0.120 C 
ATOM     16  C   UNL A   1      34.077  24.769  23.126  1.00  0.00     0.093 C 
ATOM     17  C   UNL A   1      34.082  23.604  25.306  1.00  0.00    -0.021 A 
ATOM     18  S   UNL A   1      33.571  23.054  22.767  1.00  0.00    -0.125 SA
ATOM     19  C   UNL A   1      33.689  22.566  24.461  1.00  0.00     0.011 A 
ATOM     20  C   UNL A   1      34.309  23.365  26.659  1.00  0.00     0.006 A 
ATOM     21  C   UNL A   1      33.397  21.310  24.970  1.00  0.00     0.015 A 
ATOM     22  C   UNL A   1      34.043  22.098  27.174  1.00  0.00     0.000 A 
ATOM     23  C   UNL A   1      33.560  21.083  26.337  1.00  0.00     0.001 A 
ENDBRANCH  13  15
ENDBRANCH  11  13
ENDBRANCH   4   7
ENDBRANCH   2   3
ENDBRANCH   1   2
BRANCH   1  24
ATOM     24  C   UNL A   1      31.364  32.173  26.525  1.00  0.00     0.023 C 
BRANCH  24  25
ATOM     25  C   UNL A   1      32.573  32.808  27.200  1.00  0.00     0.116 C 
BRANCH  25  26
ATOM     26  N   UNL A   1      32.321  34.167  27.648  1.00  0.00    -0.352 N 
ATOM     27  C   UNL A   1      32.970  34.905  28.607  1.00  0.00     0.251 C 
ATOM     28  H   UNL A   1      31.576  34.627  27.198  1.00  0.00     0.163 HD
ATOM     29  O   UNL A   1      32.524  35.995  28.945  1.00  0.00    -0.269 OA
BRANCH  27  30
ATOM     30  C   UNL A   1      34.187  34.373  29.260  1.00  0.00     0.039 A 
ATOM     31  C   UNL A   1      34.040  33.620  30.426  1.00  0.00     0.014 A 
ATOM     32  C   UNL A   1      35.460  34.608  28.735  1.00  0.00     0.014 A 
ATOM     33  C   UNL A   1      35.163  33.054  31.031  1.00  0.00     0.010 A 
ATOM     34  C   UNL A   1      36.570  33.974  29.290  1.00  0.00     0.010 A 
ATOM     35  C   UNL A   1      36.434  33.195  30.447  1.00  0.00    -0.014 A 
BRANCH  35  36
ATOM     36  C   UNL A   1      37.612  32.513  31.042  1.00  0.00     0.031 A 
ATOM     37  C   UNL A   1      38.114  32.891  32.407  1.00  0.00     0.074 A 
ATOM     38  C   UNL A   1      38.248  31.560  30.332  1.00  0.00     0.049 A 
ATOM     39  N   UNL A   1      39.095  32.368  33.102  1.00  0.00    -0.248 NA
ATOM     40  C   UNL A   1      37.447  34.020  33.073  1.00  0.00     0.031 C 
ATOM     41  C   UNL A   1      37.904  31.155  28.967  1.00  0.00     0.029 A 
ATOM     42  N   UNL A   1      39.308  30.754  30.658  1.00  0.00    -0.354 N 
ATOM     43  C   UNL A   1      39.160  33.103  34.279  1.00  0.00     0.074 A 
ATOM     44  C   UNL A   1      38.167  34.150  34.178  1.00  0.00     0.031 C 
ATOM     45  C   UNL A   1      38.706  30.147  28.592  1.00  0.00     0.029 A 
ATOM     46  C   UNL A   1      39.640  29.855  29.674  1.00  0.00     0.049 A 
ATOM     47  H   UNL A   1      39.786  30.813  31.517  1.00  0.00     0.167 HD
ATOM     48  C   UNL A   1      39.956  32.906  35.357  1.00  0.00     0.037 A 
ATOM     49  C   UNL A   1      40.583  28.893  29.652  1.00  0.00     0.037 A 
ATOM     50  C   UNL A   1      40.937  31.856  35.458  1.00  0.00     0.049 A 
ATOM     51  C   UNL A   1      41.440  28.684  30.870  1.00  0.00     0.074 A 
ATOM     52  C   UNL A   1      41.757  31.538  36.527  1.00  0.00     0.029 A 
ATOM     53  N   UNL A   1      41.235  30.953  34.447  1.00  0.00    -0.354 N 
ATOM     54  N   UNL A   1      41.433  29.328  32.012  1.00  0.00    -0.248 NA
ATOM     55  C   UNL A   1      42.426  27.597  30.801  1.00  0.00     0.031 C 
ATOM     56  C   UNL A   1      42.585  30.477  36.145  1.00  0.00     0.029 A 
ATOM     57  C   UNL A   1      42.240  30.091  34.860  1.00  0.00     0.049 A 
ATOM     58  H   UNL A   1      40.796  30.928  33.565  1.00  0.00     0.167 HD
ATOM     59  C   UNL A   1      42.388  28.709  32.806  1.00  0.00     0.074 A 
ATOM     60  C   UNL A   1      42.937  27.621  32.023  1.00  0.00     0.031 C 
ATOM     61  C   UNL A   1      42.777  29.013  34.069  1.00  0.00     0.037 A 
BRANCH  48  62
ATOM     62  C   UNL A   1      39.795  33.844  36.520  1.00  0.00     0.064 A 
ATOM     63  C   UNL A   1      38.969  33.530  37.610  1.00  0.00     0.173 A 
ATOM     64  C   UNL A   1      40.503  35.055  36.564  1.00  0.00     0.173 A 
ATOM     65  F   UNL A   1      38.260  32.390  37.615  1.00  0.00    -0.203 F 
ATOM     66  C   UNL A   1      38.832  34.405  38.686  1.00  0.00     0.198 A 
ATOM     67  C   UNL A   1      40.390  35.913  37.656  1.00  0.00     0.198 A 
ATOM     68  F   UNL A   1      41.311  35.404  35.552  1.00  0.00    -0.203 F 
ATOM     69  F   UNL A   1      37.997  34.107  39.690  1.00  0.00    -0.200 F 
ATOM     70  C   UNL A   1      39.550  35.591  38.711  1.00  0.00     0.200 A 
ATOM     71  F   UNL A   1      41.094  37.053  37.686  1.00  0.00    -0.200 F 
ATOM     72  F   UNL A   1      39.425  36.430  39.750  1.00  0.00    -0.200 F 
ENDBRANCH  48  62
BRANCH  49  73
ATOM     73  C   UNL A   1      40.732  28.027  28.454  1.00  0.00     0.064 A 
ATOM     74  C   UNL A   1      40.099  26.778  28.383  1.00  0.00     0.173 A 
ATOM     75  C   UNL A   1      41.516  28.423  27.361  1.00  0.00     0.173 A 
ATOM     76  F   UNL A   1      39.353  26.346  29.411  1.00  0.00    -0.203 F 
ATOM     77  C   UNL A   1      40.264  25.947  27.277  1.00  0.00     0.198 A 
ATOM     78  C   UNL A   1      41.654  27.605  26.241  1.00  0.00     0.198 A 
ATOM     79  F   UNL A   1      42.137  29.611  27.374  1.00  0.00    -0.203 F 
ATOM     80  F   UNL A   1      39.690  24.737  27.258  1.00  0.00    -0.200 F 
ATOM     81  C   UNL A   1      41.037  26.364  26.204  1.00  0.00     0.200 A 
ATOM     82  F   UNL A   1      42.389  28.018  25.199  1.00  0.00    -0.200 F 
ATOM     83  F   UNL A   1      41.193  25.567  25.139  1.00  0.00    -0.200 F 
ENDBRANCH  49  73
BRANCH  61  84
ATOM     84  C   UNL A   1      43.821  28.129  34.692  1.00  0.00     0.064 A 
ATOM     85  C   UNL A   1      43.484  26.950  35.373  1.00  0.00     0.173 A 
ATOM     86  C   UNL A   1      45.180  28.469  34.605  1.00  0.00     0.173 A 
ATOM     87  F   UNL A   1      42.198  26.585  35.495  1.00  0.00    -0.203 F 
ATOM     88  C   UNL A   1      44.463  26.173  35.988  1.00  0.00     0.198 A 
ATOM     89  C   UNL A   1      46.160  27.670  35.189  1.00  0.00     0.198 A 
ATOM     90  F   UNL A   1      45.560  29.581  33.956  1.00  0.00    -0.203 F 
ATOM     91  F   UNL A   1      44.109  25.090  36.695  1.00  0.00    -0.200 F 
ATOM     92  C   UNL A   1      45.799  26.530  35.891  1.00  0.00     0.200 A 
ATOM     93  F   UNL A   1      47.451  28.009  35.081  1.00  0.00    -0.200 F 
ATOM     94  F   UNL A   1      46.739  25.783  36.487  1.00  0.00    -0.200 F 
ENDBRANCH  61  84
ENDBRANCH  35  36
ENDBRANCH  27  30
ENDBRANCH  25  26
ENDBRANCH  24  25
ENDBRANCH   1  24
TORSDOF 13
ENDMDL
MODEL 3
REMARK VINA RESULT:     -12.6      0.672      7.385
REMARK SMILES C[C@H]1SC[C@H](C(=O)NCCCCNC(=O)c2ccc(-c3c4nc(c(-c5c(F)c(F)c(F)c(F)c5F)c5ccc([nH]5)c(-c5c(F)c(F)c(F)c(F)c5F)c5nc(c(-c6c(F)c(F)c(F)c(F)c6F)c6ccc3[nH]6)C=C5)C=C4)cc2)N1C(=O)[C@@H]1CSc2ccccc21
REMARK SMILES IDX 10 1 9 2 8 3 6 4 7 5 5 7 1 8 2 9 3 10 79 11 4 12 80 13 81 14
REMARK SMILES IDX 82 15 83 16 90 17 84 18 85 19 89 20 86 21 88 22 87 23 11 24
REMARK SMILES IDX 12 25 13 26 14 27 15 29 16 30 17 31 78 32 18 33 77 34 19 35
REMARK SMILES IDX 20 36 21 37 71 38 22 39 76 40 70 41 72 42 23 43 75 44 69 45
REMARK SMILES IDX 68 46 24 48 56 49 36 50 55 51 37 52 40 53 54 54 73 55 38 56
REMARK SMILES IDX 39 57 53 59 74 60 41 61 25 62 26 63 34 64 27 65 28 66 32 67
REMARK SMILES IDX 35 68 29 69 30 70 33 71 31 72 57 73 58 74 66 75 59 76 60 77
REMARK SMILES IDX 64 78 67 79 61 80 62 81 65 82 63 83 42 84 43 85 51 86 44 87
REMARK SMILES IDX 45 88 49 89 52 90 46 91 47 92 50 93 48 94
REMARK H PARENT 8 6 13 28 72 47 40 58
REMARK Flexibility Score: inf
ROOT
ATOM      1  C   UNL A   1      31.475  30.739  26.417  1.00  0.00     0.023 C 
ENDROOT
BRANCH   1   2
ATOM      2  C   UNL A   1      32.860  30.165  26.143  1.00  0.00     0.116 C 
BRANCH   2   3
ATOM      3  N   UNL A   1      33.033  29.817  24.750  1.00  0.00    -0.354 N 
ATOM      4  C   UNL A   1      32.530  28.767  24.040  1.00  0.00     0.243 C 
ATOM      5  O   UNL A   1      33.018  28.563  22.923  1.00  0.00    -0.273 OA
ATOM      6  H   UNL A   1      33.602  30.434  24.236  1.00  0.00     0.163 HD
BRANCH   4   7
ATOM      7  C   UNL A   1      31.576  27.738  24.672  1.00  0.00     0.185 C 
ATOM      8  C   UNL A   1      30.239  25.329  26.197  1.00  0.00     0.043 C 
ATOM      9  C   UNL A   1      30.907  25.407  24.822  1.00  0.00     0.141 C 
ATOM     10  S   UNL A   1      29.687  26.082  23.666  1.00  0.00    -0.135 SA
ATOM     11  N   UNL A   1      32.028  26.335  24.794  1.00  0.00    -0.318 N 
ATOM     12  C   UNL A   1      30.287  27.780  23.832  1.00  0.00     0.107 C 
BRANCH  11  13
ATOM     13  C   UNL A   1      33.299  26.082  25.288  1.00  0.00     0.232 C 
ATOM     14  O   UNL A   1      33.762  26.796  26.187  1.00  0.00    -0.274 OA
BRANCH  13  15
ATOM     15  C   UNL A   1      34.219  25.000  24.697  1.00  0.00     0.120 C 
ATOM     16  C   UNL A   1      34.103  24.817  23.177  1.00  0.00     0.093 C 
ATOM     17  C   UNL A   1      34.107  23.657  25.359  1.00  0.00    -0.021 A 
ATOM     18  S   UNL A   1      33.590  23.104  22.823  1.00  0.00    -0.125 SA
ATOM     19  C   UNL A   1      33.708  22.619  24.518  1.00  0.00     0.011 A 
ATOM     20  C   UNL A   1      34.335  23.421  26.713  1.00  0.00     0.006 A 
ATOM     21  C   UNL A   1      33.412  21.365  25.029  1.00  0.00     0.015 A 
ATOM     22  C   UNL A   1      34.064  22.156  27.231  1.00  0.00     0.000 A 
ATOM     23  C   UNL A   1      33.577  21.141  26.398  1.00  0.00     0.001 A 
ENDBRANCH  13  15
ENDBRANCH  11  13
ENDBRANCH   4   7
ENDBRANCH   2   3
ENDBRANCH   1   2
BRANCH   1  24
ATOM     24  C   UNL A   1      31.429  32.260  26.556  1.00  0.00     0.023 C 
BRANCH  24  25
ATOM     25  C   UNL A   1      32.628  32.881  27.261  1.00  0.00     0.116 C 
BRANCH  25  26
ATOM     26  N   UNL A   1      32.402  34.262  27.653  1.00  0.00    -0.352 N 
ATOM     27  C   UNL A   1      33.012  35.003  28.635  1.00  0.00     0.251 C 
ATOM     28  H   UNL A   1      31.709  34.736  27.139  1.00  0.00     0.163 HD
ATOM     29  O   UNL A   1      32.588  36.119  28.911  1.00  0.00    -0.269 OA
BRANCH  27  30
ATOM     30  C   UNL A   1      34.157  34.444  29.387  1.00  0.00     0.039 A 
ATOM     31  C   UNL A   1      33.905  33.790  30.594  1.00  0.00     0.014 A 
ATOM     32  C   UNL A   1      35.467  34.558  28.913  1.00  0.00     0.014 A 
ATOM     33  C   UNL A   1      34.957  33.200  31.295  1.00  0.00     0.010 A 
ATOM     34  C   UNL A   1      36.504  33.896  29.570  1.00  0.00     0.010 A 
ATOM     35  C   UNL A   1      36.261  33.216  30.770  1.00  0.00    -0.014 A 
BRANCH  35  36
ATOM     36  C   UNL A   1      37.361  32.506  31.472  1.00  0.00     0.031 A 
ATOM     37  C   UNL A   1      38.079  31.359  30.819  1.00  0.00     0.074 A 
ATOM     38  C   UNL A   1      37.699  32.888  32.720  1.00  0.00     0.049 A 
ATOM     39  N   UNL A   1      39.094  30.659  31.262  1.00  0.00    -0.248 NA
ATOM     40  C   UNL A   1      37.579  30.920  29.507  1.00  0.00     0.031 C 
ATOM     41  C   UNL A   1      37.029  33.938  33.492  1.00  0.00     0.029 A 
ATOM     42  N   UNL A   1      38.691  32.445  33.557  1.00  0.00    -0.354 N 
ATOM     43  C   UNL A   1      39.350  29.703  30.287  1.00  0.00     0.074 A 
ATOM     44  C   UNL A   1      38.344  29.867  29.262  1.00  0.00     0.031 C 
ATOM     45  C   UNL A   1      37.658  34.089  34.667  1.00  0.00     0.029 A 
ATOM     46  C   UNL A   1      38.754  33.129  34.747  1.00  0.00     0.049 A 
ATOM     47  H   UNL A   1      39.301  31.708  33.326  1.00  0.00     0.167 HD
ATOM     48  C   UNL A   1      40.349  28.788  30.239  1.00  0.00     0.037 A 
ATOM     49  C   UNL A   1      39.608  33.005  35.781  1.00  0.00     0.037 A 
ATOM     50  C   UNL A   1      41.356  28.635  31.258  1.00  0.00     0.049 A 
ATOM     51  C   UNL A   1      40.719  31.996  35.692  1.00  0.00     0.074 A 
ATOM     52  C   UNL A   1      42.441  27.776  31.279  1.00  0.00     0.029 A 
ATOM     53  N   UNL A   1      41.397  29.357  32.443  1.00  0.00    -0.354 N 
ATOM     54  N   UNL A   1      41.004  31.156  34.726  1.00  0.00    -0.248 NA
ATOM     55  C   UNL A   1      41.640  31.931  36.835  1.00  0.00     0.031 C 
ATOM     56  C   UNL A   1      43.108  27.942  32.498  1.00  0.00     0.029 A 
ATOM     57  C   UNL A   1      42.477  28.948  33.211  1.00  0.00     0.049 A 
ATOM     58  H   UNL A   1      40.753  30.057  32.700  1.00  0.00     0.167 HD
ATOM     59  C   UNL A   1      42.151  30.486  35.129  1.00  0.00     0.074 A 
ATOM     60  C   UNL A   1      42.523  31.036  36.416  1.00  0.00     0.031 C 
ATOM     61  C   UNL A   1      42.835  29.504  34.491  1.00  0.00     0.037 A 
BRANCH  48  62
ATOM     62  C   UNL A   1      40.407  27.885  29.039  1.00  0.00     0.064 A 
ATOM     63  C   UNL A   1      39.680  26.686  28.985  1.00  0.00     0.173 A 
ATOM     64  C   UNL A   1      41.167  28.239  27.914  1.00  0.00     0.173 A 
ATOM     65  F   UNL A   1      38.945  26.293  30.038  1.00  0.00    -0.203 F 
ATOM     66  C   UNL A   1      39.736  25.860  27.865  1.00  0.00     0.198 A 
ATOM     67  C   UNL A   1      41.196  27.428  26.783  1.00  0.00     0.198 A 
ATOM     68  F   UNL A   1      41.878  29.377  27.909  1.00  0.00    -0.203 F 
ATOM     69  F   UNL A   1      39.075  24.695  27.859  1.00  0.00    -0.200 F 
ATOM     70  C   UNL A   1      40.487  26.236  26.762  1.00  0.00     0.200 A 
ATOM     71  F   UNL A   1      41.910  27.799  25.711  1.00  0.00    -0.200 F 
ATOM     72  F   UNL A   1      40.535  25.446  25.680  1.00  0.00    -0.200 F 
ENDBRANCH  48  62
BRANCH  49  73
ATOM     73  C   UNL A   1      39.473  33.891  36.966  1.00  0.00     0.064 A 
ATOM     74  C   UNL A   1      40.056  35.166  36.984  1.00  0.00     0.173 A 
ATOM     75  C   UNL A   1      38.767  33.481  38.107  1.00  0.00     0.173 A 
ATOM     76  F   UNL A   1      40.756  35.598  35.925  1.00  0.00    -0.203 F 
ATOM     77  C   UNL A   1      39.961  35.987  38.107  1.00  0.00     0.198 A 
ATOM     78  C   UNL A   1      38.645  34.315  39.217  1.00  0.00     0.198 A 
ATOM     79  F   UNL A   1      38.184  32.273  38.139  1.00  0.00    -0.203 F 
ATOM     80  F   UNL A   1      40.572  37.179  38.116  1.00  0.00    -0.200 F 
ATOM     81  C   UNL A   1      39.251  35.562  39.220  1.00  0.00     0.200 A 
ATOM     82  F   UNL A   1      37.945  33.909  40.284  1.00  0.00    -0.200 F 
ATOM     83  F   UNL A   1      39.157  36.353  40.297  1.00  0.00    -0.200 F 
ENDBRANCH  49  73
BRANCH  61  84
ATOM     84  C   UNL A   1      44.077  28.990  35.165  1.00  0.00     0.064 A 
ATOM     85  C   UNL A   1      45.339  29.552  34.919  1.00  0.00     0.173 A 
ATOM     86  C   UNL A   1      44.001  27.920  36.069  1.00  0.00     0.173 A 
ATOM     87  F   UNL A   1      45.469  30.570  34.054  1.00  0.00    -0.203 F 
ATOM     88  C   UNL A   1      46.484  29.028  35.514  1.00  0.00     0.198 A 
ATOM     89  C   UNL A   1      45.144  27.423  36.691  1.00  0.00     0.198 A 
ATOM     90  F   UNL A   1      42.819  27.352  36.349  1.00  0.00    -0.203 F 
ATOM     91  F   UNL A   1      47.687  29.535  35.207  1.00  0.00    -0.200 F 
ATOM     92  C   UNL A   1      46.385  27.968  36.402  1.00  0.00     0.200 A 
ATOM     93  F   UNL A   1      45.044  26.409  37.561  1.00  0.00    -0.200 F 
ATOM     94  F   UNL A   1      47.489  27.462  36.970  1.00  0.00    -0.200 F 
ENDBRANCH  61  84
ENDBRANCH  35  36
ENDBRANCH  27  30
ENDBRANCH  25  26
ENDBRANCH  24  25
ENDBRANCH   1  24
TORSDOF 13
ENDMDL
