MODEL 1
REMARK VINA RESULT:     -13.0      0.000      0.000
REMARK SMILES Cc1cccc([C@@H](CC(F)(F)F)C(=O)NCCCCNC(=O)c2ccc(-c3c4nc(c(-c5c(F)c(F)c(F)c(F)c5F)c5ccc([nH]5)c(-c5c(F)c(F)c(F)c(F)c5F)c5nc(c(-c6c(F)c(F)c(F)c(F)c6F)c6ccc3[nH]6)C=C5)C=C4)cc2)c1
REMARK SMILES IDX 17 1 16 2 15 3 13 4 14 5 7 7 6 8 1 9 2 10 3 11 86 12 4 13
REMARK SMILES IDX 5 14 8 15 9 16 10 17 11 18 12 19 18 20 19 21 20 22 21 23
REMARK SMILES IDX 22 25 23 26 24 27 85 28 25 29 84 30 26 31 27 32 28 33 78 34
REMARK SMILES IDX 29 35 83 36 77 37 79 38 30 39 82 40 76 41 75 42 31 44 63 45
REMARK SMILES IDX 43 46 62 47 44 48 47 49 61 50 80 51 45 52 46 53 60 55 81 56
REMARK SMILES IDX 48 57 32 58 33 59 41 60 34 61 35 62 39 63 42 64 36 65 37 66
REMARK SMILES IDX 40 67 38 68 64 69 65 70 73 71 66 72 67 73 71 74 74 75 68 76
REMARK SMILES IDX 69 77 72 78 70 79 49 80 50 81 58 82 51 83 52 84 56 85 59 86
REMARK SMILES IDX 53 87 54 88 57 89 55 90
REMARK H PARENT 15 6 20 24 79 43 47 54
REMARK Flexibility Score: inf
ROOT
ATOM      1  C   UNL A   1      37.056  21.122  24.859  1.00  0.00     0.023 C 
ENDROOT
BRANCH   1   2
ATOM      2  C   UNL A   1      36.126  22.251  25.314  1.00  0.00     0.116 C 
BRANCH   2   3
ATOM      3  N   UNL A   1      35.262  21.888  26.418  1.00  0.00    -0.356 N 
ATOM      4  C   UNL A   1      33.977  21.454  26.473  1.00  0.00     0.227 C 
ATOM      5  O   UNL A   1      33.586  21.084  27.589  1.00  0.00    -0.274 OA
ATOM      6  H   UNL A   1      35.690  21.972  27.301  1.00  0.00     0.163 HD
BRANCH   4   7
ATOM      7  C   UNL A   1      33.016  21.359  25.279  1.00  0.00     0.117 C 
BRANCH   7   8
ATOM      8  C   UNL A   1      33.073  20.067  24.469  1.00  0.00    -0.035 A 
ATOM      9  C   UNL A   1      34.986  16.749  24.674  1.00  0.00     0.044 C 
ATOM     10  C   UNL A   1      34.020  17.807  24.232  1.00  0.00    -0.051 A 
ATOM     11  C   UNL A   1      33.193  17.579  23.133  1.00  0.00     0.003 A 
ATOM     12  C   UNL A   1      33.929  19.033  24.908  1.00  0.00     0.008 A 
ATOM     13  C   UNL A   1      32.356  18.589  22.672  1.00  0.00     0.001 A 
ATOM     14  C   UNL A   1      32.329  19.833  23.311  1.00  0.00     0.004 A 
ENDBRANCH   7   8
BRANCH   7  15
ATOM     15  C   UNL A   1      31.671  22.087  25.421  1.00  0.00     0.133 C 
BRANCH  15  16
ATOM     16  C   UNL A   1      31.443  23.365  24.663  1.00  0.00     0.390 C 
ATOM     17  F   UNL A   1      32.573  24.087  24.525  1.00  0.00    -0.171 F 
ATOM     18  F   UNL A   1      31.001  23.083  23.414  1.00  0.00    -0.171 F 
ATOM     19  F   UNL A   1      30.512  24.149  25.237  1.00  0.00    -0.171 F 
ENDBRANCH  15  16
ENDBRANCH   7  15
ENDBRANCH   4   7
ENDBRANCH   2   3
ENDBRANCH   1   2
BRANCH   1  20
ATOM     20  C   UNL A   1      38.476  21.174  25.422  1.00  0.00     0.023 C 
BRANCH  20  21
ATOM     21  C   UNL A   1      38.871  22.527  25.998  1.00  0.00     0.116 C 
BRANCH  21  22
ATOM     22  N   UNL A   1      40.274  22.682  26.359  1.00  0.00    -0.352 N 
ATOM     23  C   UNL A   1      40.990  23.836  26.656  1.00  0.00     0.251 C 
ATOM     24  H   UNL A   1      40.792  21.846  26.399  1.00  0.00     0.163 HD
ATOM     25  O   UNL A   1      42.197  23.775  26.821  1.00  0.00    -0.269 OA
BRANCH  23  26
ATOM     26  C   UNL A   1      40.273  25.116  26.923  1.00  0.00     0.039 A 
ATOM     27  C   UNL A   1      40.704  26.269  26.252  1.00  0.00     0.014 A 
ATOM     28  C   UNL A   1      39.361  25.234  27.964  1.00  0.00     0.014 A 
ATOM     29  C   UNL A   1      40.451  27.523  26.808  1.00  0.00     0.010 A 
ATOM     30  C   UNL A   1      39.231  26.453  28.596  1.00  0.00     0.010 A 
ATOM     31  C   UNL A   1      39.838  27.590  28.055  1.00  0.00    -0.014 A 
BRANCH  31  32
ATOM     32  C   UNL A   1      39.883  28.758  28.931  1.00  0.00     0.031 A 
ATOM     33  C   UNL A   1      38.872  29.829  28.810  1.00  0.00     0.074 A 
ATOM     34  C   UNL A   1      40.751  28.759  29.968  1.00  0.00     0.049 A 
ATOM     35  N   UNL A   1      38.976  30.999  29.345  1.00  0.00    -0.248 NA
ATOM     36  C   UNL A   1      37.649  29.663  28.037  1.00  0.00     0.031 C 
ATOM     37  C   UNL A   1      40.747  29.639  31.133  1.00  0.00     0.029 A 
ATOM     38  N   UNL A   1      41.966  28.058  30.071  1.00  0.00    -0.354 N 
ATOM     39  C   UNL A   1      37.760  31.634  29.222  1.00  0.00     0.074 A 
ATOM     40  C   UNL A   1      36.983  30.773  28.361  1.00  0.00     0.031 C 
ATOM     41  C   UNL A   1      41.987  29.683  31.644  1.00  0.00     0.029 A 
ATOM     42  C   UNL A   1      42.848  28.947  30.736  1.00  0.00     0.049 A 
ATOM     43  H   UNL A   1      42.162  27.148  29.752  1.00  0.00     0.167 HD
ATOM     44  C   UNL A   1      37.524  32.762  29.957  1.00  0.00     0.037 A 
ATOM     45  C   UNL A   1      43.921  29.472  30.073  1.00  0.00     0.037 A 
ATOM     46  C   UNL A   1      38.735  33.198  30.656  1.00  0.00     0.049 A 
ATOM     47  C   UNL A   1      43.884  30.977  29.897  1.00  0.00     0.074 A 
ATOM     48  C   UNL A   1      39.217  33.061  31.947  1.00  0.00     0.029 A 
ATOM     49  N   UNL A   1      39.804  33.639  29.897  1.00  0.00    -0.354 N 
ATOM     50  N   UNL A   1      42.893  31.741  30.266  1.00  0.00    -0.248 NA
ATOM     51  C   UNL A   1      44.927  31.724  29.191  1.00  0.00     0.031 C 
ATOM     52  C   UNL A   1      40.607  33.375  31.937  1.00  0.00     0.029 A 
ATOM     53  C   UNL A   1      40.963  33.710  30.643  1.00  0.00     0.049 A 
ATOM     54  H   UNL A   1      39.746  33.873  28.942  1.00  0.00     0.167 HD
ATOM     55  C   UNL A   1      43.113  33.015  29.818  1.00  0.00     0.074 A 
ATOM     56  C   UNL A   1      44.402  32.959  29.155  1.00  0.00     0.031 C 
ATOM     57  C   UNL A   1      42.213  34.024  29.976  1.00  0.00     0.037 A 
BRANCH  44  58
ATOM     58  C   UNL A   1      36.153  33.351  30.219  1.00  0.00     0.064 A 
ATOM     59  C   UNL A   1      35.420  33.954  29.172  1.00  0.00     0.173 A 
ATOM     60  C   UNL A   1      35.524  33.413  31.476  1.00  0.00     0.173 A 
ATOM     61  F   UNL A   1      35.830  33.881  27.899  1.00  0.00    -0.203 F 
ATOM     62  C   UNL A   1      34.232  34.658  29.390  1.00  0.00     0.198 A 
ATOM     63  C   UNL A   1      34.369  34.167  31.708  1.00  0.00     0.198 A 
ATOM     64  F   UNL A   1      35.957  32.687  32.512  1.00  0.00    -0.203 F 
ATOM     65  F   UNL A   1      33.585  35.209  28.354  1.00  0.00    -0.200 F 
ATOM     66  C   UNL A   1      33.727  34.800  30.665  1.00  0.00     0.200 A 
ATOM     67  F   UNL A   1      33.878  34.264  32.952  1.00  0.00    -0.200 F 
ATOM     68  F   UNL A   1      32.614  35.513  30.884  1.00  0.00    -0.200 F 
ENDBRANCH  44  58
BRANCH  45  69
ATOM     69  C   UNL A   1      44.512  28.514  29.100  1.00  0.00     0.064 A 
ATOM     70  C   UNL A   1      45.291  27.451  29.597  1.00  0.00     0.173 A 
ATOM     71  C   UNL A   1      44.030  28.407  27.791  1.00  0.00     0.173 A 
ATOM     72  F   UNL A   1      45.781  27.505  30.847  1.00  0.00    -0.203 F 
ATOM     73  C   UNL A   1      45.469  26.280  28.864  1.00  0.00     0.198 A 
ATOM     74  C   UNL A   1      44.229  27.240  27.052  1.00  0.00     0.198 A 
ATOM     75  F   UNL A   1      43.263  29.374  27.268  1.00  0.00    -0.203 F 
ATOM     76  F   UNL A   1      46.112  25.239  29.413  1.00  0.00    -0.200 F 
ATOM     77  C   UNL A   1      44.914  26.166  27.602  1.00  0.00     0.200 A 
ATOM     78  F   UNL A   1      43.667  27.119  25.841  1.00  0.00    -0.200 F 
ATOM     79  F   UNL A   1      45.001  25.009  26.931  1.00  0.00    -0.200 F 
ENDBRANCH  45  69
BRANCH  57  80
ATOM     80  C   UNL A   1      42.476  35.416  29.497  1.00  0.00     0.064 A 
ATOM     81  C   UNL A   1      41.989  35.874  28.264  1.00  0.00     0.173 A 
ATOM     82  C   UNL A   1      43.326  36.287  30.206  1.00  0.00     0.173 A 
ATOM     83  F   UNL A   1      41.196  35.096  27.512  1.00  0.00    -0.203 F 
ATOM     84  C   UNL A   1      42.319  37.138  27.776  1.00  0.00     0.198 A 
ATOM     85  C   UNL A   1      43.691  37.530  29.694  1.00  0.00     0.198 A 
ATOM     86  F   UNL A   1      43.800  35.959  31.416  1.00  0.00    -0.203 F 
ATOM     87  F   UNL A   1      41.801  37.560  26.615  1.00  0.00    -0.200 F 
ATOM     88  C   UNL A   1      43.181  37.958  28.483  1.00  0.00     0.200 A 
ATOM     89  F   UNL A   1      44.538  38.309  30.383  1.00  0.00    -0.200 F 
ATOM     90  F   UNL A   1      43.517  39.163  28.002  1.00  0.00    -0.200 F 
ENDBRANCH  57  80
ENDBRANCH  31  32
ENDBRANCH  23  26
ENDBRANCH  21  22
ENDBRANCH  20  21
ENDBRANCH   1  20
TORSDOF 14
ENDMDL
MODEL 2
REMARK VINA RESULT:     -12.8      4.968     10.835
REMARK SMILES Cc1cccc([C@@H](CC(F)(F)F)C(=O)NCCCCNC(=O)c2ccc(-c3c4nc(c(-c5c(F)c(F)c(F)c(F)c5F)c5ccc([nH]5)c(-c5c(F)c(F)c(F)c(F)c5F)c5nc(c(-c6c(F)c(F)c(F)c(F)c6F)c6ccc3[nH]6)C=C5)C=C4)cc2)c1
REMARK SMILES IDX 17 1 16 2 15 3 13 4 14 5 7 7 6 8 1 9 2 10 3 11 86 12 4 13
REMARK SMILES IDX 5 14 8 15 9 16 10 17 11 18 12 19 18 20 19 21 20 22 21 23
REMARK SMILES IDX 22 25 23 26 24 27 85 28 25 29 84 30 26 31 27 32 28 33 78 34
REMARK SMILES IDX 29 35 83 36 77 37 79 38 30 39 82 40 76 41 75 42 31 44 63 45
REMARK SMILES IDX 43 46 62 47 44 48 47 49 61 50 80 51 45 52 46 53 60 55 81 56
REMARK SMILES IDX 48 57 32 58 33 59 41 60 34 61 35 62 39 63 42 64 36 65 37 66
REMARK SMILES IDX 40 67 38 68 64 69 65 70 73 71 66 72 67 73 71 74 74 75 68 76
REMARK SMILES IDX 69 77 72 78 70 79 49 80 50 81 58 82 51 83 52 84 56 85 59 86
REMARK SMILES IDX 53 87 54 88 57 89 55 90
REMARK H PARENT 15 6 20 24 79 43 47 54
REMARK Flexibility Score: inf
ROOT
ATOM      1  C   UNL A   1      32.166  29.412  27.160  1.00  0.00     0.023 C 
ENDROOT
BRANCH   1   2
ATOM      2  C   UNL A   1      31.891  30.226  25.892  1.00  0.00     0.116 C 
BRANCH   2   3
ATOM      3  N   UNL A   1      32.327  29.576  24.673  1.00  0.00    -0.356 N 
ATOM      4  C   UNL A   1      31.654  29.118  23.587  1.00  0.00     0.227 C 
ATOM      5  O   UNL A   1      32.361  28.745  22.640  1.00  0.00    -0.274 OA
ATOM      6  H   UNL A   1      33.301  29.440  24.623  1.00  0.00     0.163 HD
BRANCH   4   7
ATOM      7  C   UNL A   1      30.127  29.064  23.441  1.00  0.00     0.117 C 
BRANCH   7   8
ATOM      8  C   UNL A   1      29.445  30.361  23.017  1.00  0.00    -0.035 A 
ATOM      9  C   UNL A   1      28.037  31.818  19.760  1.00  0.00     0.044 C 
ATOM     10  C   UNL A   1      28.391  31.657  21.209  1.00  0.00    -0.051 A 
ATOM     11  C   UNL A   1      28.068  32.662  22.119  1.00  0.00     0.003 A 
ATOM     12  C   UNL A   1      29.044  30.505  21.670  1.00  0.00     0.008 A 
ATOM     13  C   UNL A   1      28.468  32.551  23.447  1.00  0.00     0.001 A 
ATOM     14  C   UNL A   1      29.184  31.430  23.879  1.00  0.00     0.004 A 
ENDBRANCH   7   8
BRANCH   7  15
ATOM     15  C   UNL A   1      29.527  27.727  22.983  1.00  0.00     0.133 C 
BRANCH  15  16
ATOM     16  C   UNL A   1      29.386  26.606  23.974  1.00  0.00     0.390 C 
ATOM     17  F   UNL A   1      29.994  25.477  23.560  1.00  0.00    -0.171 F 
ATOM     18  F   UNL A   1      29.963  26.958  25.148  1.00  0.00    -0.171 F 
ATOM     19  F   UNL A   1      28.100  26.314  24.247  1.00  0.00    -0.171 F 
ENDBRANCH  15  16
ENDBRANCH   7  15
ENDBRANCH   4   7
ENDBRANCH   2   3
ENDBRANCH   1   2
BRANCH   1  20
ATOM     20  C   UNL A   1      33.626  29.372  27.610  1.00  0.00     0.023 C 
BRANCH  20  21
ATOM     21  C   UNL A   1      34.411  30.639  27.303  1.00  0.00     0.116 C 
BRANCH  21  22
ATOM     22  N   UNL A   1      34.916  31.374  28.455  1.00  0.00    -0.352 N 
ATOM     23  C   UNL A   1      35.873  31.002  29.392  1.00  0.00     0.251 C 
ATOM     24  H   UNL A   1      34.521  32.265  28.589  1.00  0.00     0.163 HD
ATOM     25  O   UNL A   1      36.077  31.712  30.364  1.00  0.00    -0.269 OA
BRANCH  23  26
ATOM     26  C   UNL A   1      36.753  29.825  29.140  1.00  0.00     0.039 A 
ATOM     27  C   UNL A   1      37.013  28.953  30.208  1.00  0.00     0.014 A 
ATOM     28  C   UNL A   1      37.484  29.703  27.966  1.00  0.00     0.014 A 
ATOM     29  C   UNL A   1      38.175  28.180  30.196  1.00  0.00     0.010 A 
ATOM     30  C   UNL A   1      38.701  29.056  28.008  1.00  0.00     0.010 A 
ATOM     31  C   UNL A   1      39.081  28.352  29.153  1.00  0.00    -0.014 A 
BRANCH  31  32
ATOM     32  C   UNL A   1      40.483  27.947  29.209  1.00  0.00     0.031 A 
ATOM     33  C   UNL A   1      40.913  26.644  28.661  1.00  0.00     0.074 A 
ATOM     34  C   UNL A   1      41.405  28.853  29.606  1.00  0.00     0.049 A 
ATOM     35  N   UNL A   1      42.057  26.093  28.892  1.00  0.00    -0.248 NA
ATOM     36  C   UNL A   1      40.054  25.836  27.807  1.00  0.00     0.031 C 
ATOM     37  C   UNL A   1      42.854  28.786  29.431  1.00  0.00     0.029 A 
ATOM     38  N   UNL A   1      41.212  29.963  30.447  1.00  0.00    -0.354 N 
ATOM     39  C   UNL A   1      42.195  25.021  28.038  1.00  0.00     0.074 A 
ATOM     40  C   UNL A   1      40.900  24.881  27.414  1.00  0.00     0.031 C 
ATOM     41  C   UNL A   1      43.435  29.561  30.360  1.00  0.00     0.029 A 
ATOM     42  C   UNL A   1      42.383  30.029  31.244  1.00  0.00     0.049 A 
ATOM     43  H   UNL A   1      40.433  30.564  30.477  1.00  0.00     0.167 HD
ATOM     44  C   UNL A   1      43.427  24.451  27.884  1.00  0.00     0.037 A 
ATOM     45  C   UNL A   1      42.316  29.782  32.585  1.00  0.00     0.037 A 
ATOM     46  C   UNL A   1      44.391  25.016  28.831  1.00  0.00     0.049 A 
ATOM     47  C   UNL A   1      43.087  28.560  33.044  1.00  0.00     0.074 A 
ATOM     48  C   UNL A   1      45.381  25.982  28.753  1.00  0.00     0.029 A 
ATOM     49  N   UNL A   1      44.197  24.780  30.180  1.00  0.00    -0.354 N 
ATOM     50  N   UNL A   1      43.718  27.741  32.249  1.00  0.00    -0.248 NA
ATOM     51  C   UNL A   1      43.117  28.113  34.438  1.00  0.00     0.031 C 
ATOM     52  C   UNL A   1      45.737  26.359  30.080  1.00  0.00     0.029 A 
ATOM     53  C   UNL A   1      44.970  25.617  30.960  1.00  0.00     0.049 A 
ATOM     54  H   UNL A   1      43.583  24.099  30.540  1.00  0.00     0.167 HD
ATOM     55  C   UNL A   1      44.167  26.668  32.968  1.00  0.00     0.074 A 
ATOM     56  C   UNL A   1      43.774  26.946  34.337  1.00  0.00     0.031 C 
ATOM     57  C   UNL A   1      44.792  25.601  32.400  1.00  0.00     0.037 A 
BRANCH  44  58
ATOM     58  C   UNL A   1      43.821  23.539  26.740  1.00  0.00     0.064 A 
ATOM     59  C   UNL A   1      43.328  22.215  26.677  1.00  0.00     0.173 A 
ATOM     60  C   UNL A   1      44.716  23.873  25.708  1.00  0.00     0.173 A 
ATOM     61  F   UNL A   1      42.383  21.779  27.520  1.00  0.00    -0.203 F 
ATOM     62  C   UNL A   1      43.788  21.283  25.741  1.00  0.00     0.198 A 
ATOM     63  C   UNL A   1      45.223  22.927  24.809  1.00  0.00     0.198 A 
ATOM     64  F   UNL A   1      45.080  25.139  25.478  1.00  0.00    -0.203 F 
ATOM     65  F   UNL A   1      43.282  20.042  25.736  1.00  0.00    -0.200 F 
ATOM     66  C   UNL A   1      44.766  21.627  24.833  1.00  0.00     0.200 A 
ATOM     67  F   UNL A   1      46.151  23.293  23.914  1.00  0.00    -0.200 F 
ATOM     68  F   UNL A   1      45.242  20.723  23.966  1.00  0.00    -0.200 F 
ENDBRANCH  44  58
BRANCH  45  69
ATOM     69  C   UNL A   1      41.043  30.263  33.189  1.00  0.00     0.064 A 
ATOM     70  C   UNL A   1      40.866  31.650  33.357  1.00  0.00     0.173 A 
ATOM     71  C   UNL A   1      39.905  29.453  33.242  1.00  0.00     0.173 A 
ATOM     72  F   UNL A   1      41.927  32.473  33.316  1.00  0.00    -0.203 F 
ATOM     73  C   UNL A   1      39.594  32.212  33.443  1.00  0.00     0.198 A 
ATOM     74  C   UNL A   1      38.633  30.018  33.351  1.00  0.00     0.198 A 
ATOM     75  F   UNL A   1      40.003  28.128  33.067  1.00  0.00    -0.203 F 
ATOM     76  F   UNL A   1      39.452  33.545  33.479  1.00  0.00    -0.200 F 
ATOM     77  C   UNL A   1      38.477  31.395  33.413  1.00  0.00     0.200 A 
ATOM     78  F   UNL A   1      37.550  29.230  33.293  1.00  0.00    -0.200 F 
ATOM     79  F   UNL A   1      37.250  31.936  33.400  1.00  0.00    -0.200 F 
ENDBRANCH  45  69
BRANCH  57  80
ATOM     80  C   UNL A   1      45.295  24.444  33.202  1.00  0.00     0.064 A 
ATOM     81  C   UNL A   1      44.487  23.331  33.475  1.00  0.00     0.173 A 
ATOM     82  C   UNL A   1      46.560  24.476  33.822  1.00  0.00     0.173 A 
ATOM     83  F   UNL A   1      43.256  23.236  32.948  1.00  0.00    -0.203 F 
ATOM     84  C   UNL A   1      44.925  22.300  34.306  1.00  0.00     0.198 A 
ATOM     85  C   UNL A   1      46.976  23.468  34.689  1.00  0.00     0.198 A 
ATOM     86  F   UNL A   1      47.424  25.473  33.583  1.00  0.00    -0.203 F 
ATOM     87  F   UNL A   1      44.142  21.231  34.510  1.00  0.00    -0.200 F 
ATOM     88  C   UNL A   1      46.161  22.376  34.924  1.00  0.00     0.200 A 
ATOM     89  F   UNL A   1      48.169  23.560  35.291  1.00  0.00    -0.200 F 
ATOM     90  F   UNL A   1      46.571  21.397  35.742  1.00  0.00    -0.200 F 
ENDBRANCH  57  80
ENDBRANCH  31  32
ENDBRANCH  23  26
ENDBRANCH  21  22
ENDBRANCH  20  21
ENDBRANCH   1  20
TORSDOF 14
ENDMDL
MODEL 3
REMARK VINA RESULT:     -12.8      1.465      2.522
REMARK SMILES Cc1cccc([C@@H](CC(F)(F)F)C(=O)NCCCCNC(=O)c2ccc(-c3c4nc(c(-c5c(F)c(F)c(F)c(F)c5F)c5ccc([nH]5)c(-c5c(F)c(F)c(F)c(F)c5F)c5nc(c(-c6c(F)c(F)c(F)c(F)c6F)c6ccc3[nH]6)C=C5)C=C4)cc2)c1
REMARK SMILES IDX 17 1 16 2 15 3 13 4 14 5 7 7 6 8 1 9 2 10 3 11 86 12 4 13
REMARK SMILES IDX 5 14 8 15 9 16 10 17 11 18 12 19 18 20 19 21 20 22 21 23
REMARK SMILES IDX 22 25 23 26 24 27 85 28 25 29 84 30 26 31 27 32 28 33 78 34
REMARK SMILES IDX 29 35 83 36 77 37 79 38 30 39 82 40 76 41 75 42 31 44 63 45
REMARK SMILES IDX 43 46 62 47 44 48 47 49 61 50 80 51 45 52 46 53 60 55 81 56
REMARK SMILES IDX 48 57 32 58 33 59 41 60 34 61 35 62 39 63 42 64 36 65 37 66
REMARK SMILES IDX 40 67 38 68 64 69 65 70 73 71 66 72 67 73 71 74 74 75 68 76
REMARK SMILES IDX 69 77 72 78 70 79 49 80 50 81 58 82 51 83 52 84 56 85 59 86
REMARK SMILES IDX 53 87 54 88 57 89 55 90
REMARK H PARENT 15 6 20 24 79 43 47 54
REMARK Flexibility Score: inf
ROOT
ATOM      1  C   UNL A   1      37.671  21.338  24.928  1.00  0.00     0.023 C 
ENDROOT
BRANCH   1   2
ATOM      2  C   UNL A   1      36.928  22.678  24.940  1.00  0.00     0.116 C 
BRANCH   2   3
ATOM      3  N   UNL A   1      36.193  22.949  23.722  1.00  0.00    -0.356 N 
ATOM      4  C   UNL A   1      34.866  22.963  23.435  1.00  0.00     0.227 C 
ATOM      5  O   UNL A   1      34.567  23.391  22.311  1.00  0.00    -0.274 OA
ATOM      6  H   UNL A   1      36.767  23.167  22.952  1.00  0.00     0.163 HD
BRANCH   4   7
ATOM      7  C   UNL A   1      33.743  22.532  24.389  1.00  0.00     0.117 C 
BRANCH   7   8
ATOM      8  C   UNL A   1      32.977  23.656  25.080  1.00  0.00    -0.035 A 
ATOM      9  C   UNL A   1      33.719  27.262  26.158  1.00  0.00     0.044 C 
ATOM     10  C   UNL A   1      32.986  25.981  25.889  1.00  0.00    -0.051 A 
ATOM     11  C   UNL A   1      31.643  25.861  26.242  1.00  0.00     0.003 A 
ATOM     12  C   UNL A   1      33.629  24.892  25.282  1.00  0.00     0.008 A 
ATOM     13  C   UNL A   1      30.985  24.648  26.069  1.00  0.00     0.001 A 
ATOM     14  C   UNL A   1      31.659  23.547  25.532  1.00  0.00     0.004 A 
ENDBRANCH   7   8
BRANCH   7  15
ATOM     15  C   UNL A   1      32.998  21.237  24.032  1.00  0.00     0.133 C 
BRANCH  15  16
ATOM     16  C   UNL A   1      33.206  20.012  24.878  1.00  0.00     0.390 C 
ATOM     17  F   UNL A   1      32.164  19.159  24.808  1.00  0.00    -0.171 F 
ATOM     18  F   UNL A   1      34.297  19.337  24.444  1.00  0.00    -0.171 F 
ATOM     19  F   UNL A   1      33.422  20.307  26.173  1.00  0.00    -0.171 F 
ENDBRANCH  15  16
ENDBRANCH   7  15
ENDBRANCH   4   7
ENDBRANCH   2   3
ENDBRANCH   1   2
BRANCH   1  20
ATOM     20  C   UNL A   1      38.962  21.297  25.745  1.00  0.00     0.023 C 
BRANCH  20  21
ATOM     21  C   UNL A   1      39.318  22.614  26.419  1.00  0.00     0.116 C 
BRANCH  21  22
ATOM     22  N   UNL A   1      40.738  22.933  26.489  1.00  0.00    -0.352 N 
ATOM     23  C   UNL A   1      41.365  24.172  26.566  1.00  0.00     0.251 C 
ATOM     24  H   UNL A   1      41.343  22.157  26.479  1.00  0.00     0.163 HD
ATOM     25  O   UNL A   1      42.581  24.241  26.495  1.00  0.00    -0.269 OA
BRANCH  23  26
ATOM     26  C   UNL A   1      40.574  25.394  26.886  1.00  0.00     0.039 A 
ATOM     27  C   UNL A   1      40.853  26.569  26.173  1.00  0.00     0.014 A 
ATOM     28  C   UNL A   1      39.748  25.453  28.001  1.00  0.00     0.014 A 
ATOM     29  C   UNL A   1      40.550  27.807  26.742  1.00  0.00     0.010 A 
ATOM     30  C   UNL A   1      39.575  26.667  28.635  1.00  0.00     0.010 A 
ATOM     31  C   UNL A   1      40.042  27.840  28.037  1.00  0.00    -0.014 A 
BRANCH  31  32
ATOM     32  C   UNL A   1      40.069  29.019  28.899  1.00  0.00     0.031 A 
ATOM     33  C   UNL A   1      39.019  30.054  28.793  1.00  0.00     0.074 A 
ATOM     34  C   UNL A   1      40.963  29.062  29.913  1.00  0.00     0.049 A 
ATOM     35  N   UNL A   1      39.095  31.232  29.313  1.00  0.00    -0.248 NA
ATOM     36  C   UNL A   1      37.783  29.836  28.054  1.00  0.00     0.031 C 
ATOM     37  C   UNL A   1      40.958  29.955  31.069  1.00  0.00     0.029 A 
ATOM     38  N   UNL A   1      42.203  28.405  29.992  1.00  0.00    -0.354 N 
ATOM     39  C   UNL A   1      37.856  31.824  29.215  1.00  0.00     0.074 A 
ATOM     40  C   UNL A   1      37.087  30.927  28.383  1.00  0.00     0.031 C 
ATOM     41  C   UNL A   1      42.208  30.048  31.547  1.00  0.00     0.029 A 
ATOM     42  C   UNL A   1      43.071  29.332  30.624  1.00  0.00     0.049 A 
ATOM     43  H   UNL A   1      42.423  27.498  29.678  1.00  0.00     0.167 HD
ATOM     44  C   UNL A   1      37.600  32.951  29.943  1.00  0.00     0.037 A 
ATOM     45  C   UNL A   1      44.108  29.886  29.929  1.00  0.00     0.037 A 
ATOM     46  C   UNL A   1      38.812  33.437  30.606  1.00  0.00     0.049 A 
ATOM     47  C   UNL A   1      44.013  31.386  29.737  1.00  0.00     0.074 A 
ATOM     48  C   UNL A   1      39.331  33.332  31.886  1.00  0.00     0.029 A 
ATOM     49  N   UNL A   1      39.845  33.906  29.815  1.00  0.00    -0.354 N 
ATOM     50  N   UNL A   1      43.007  32.120  30.124  1.00  0.00    -0.248 NA
ATOM     51  C   UNL A   1      45.012  32.160  28.997  1.00  0.00     0.031 C 
ATOM     52  C   UNL A   1      40.708  33.693  31.836  1.00  0.00     0.029 A 
ATOM     53  C   UNL A   1      41.020  34.025  30.530  1.00  0.00     0.049 A 
ATOM     54  H   UNL A   1      39.755  34.127  28.860  1.00  0.00     0.167 HD
ATOM     55  C   UNL A   1      43.171  33.395  29.657  1.00  0.00     0.074 A 
ATOM     56  C   UNL A   1      44.443  33.376  28.961  1.00  0.00     0.031 C 
ATOM     57  C   UNL A   1      42.240  34.374  29.827  1.00  0.00     0.037 A 
BRANCH  44  58
ATOM     58  C   UNL A   1      36.216  33.496  30.235  1.00  0.00     0.064 A 
ATOM     59  C   UNL A   1      35.427  34.041  29.196  1.00  0.00     0.173 A 
ATOM     60  C   UNL A   1      35.626  33.570  31.510  1.00  0.00     0.173 A 
ATOM     61  F   UNL A   1      35.798  33.946  27.913  1.00  0.00    -0.203 F 
ATOM     62  C   UNL A   1      34.220  34.705  29.435  1.00  0.00     0.198 A 
ATOM     63  C   UNL A   1      34.450  34.286  31.759  1.00  0.00     0.198 A 
ATOM     64  F   UNL A   1      36.119  32.891  32.551  1.00  0.00    -0.203 F 
ATOM     65  F   UNL A   1      33.520  35.202  28.406  1.00  0.00    -0.200 F 
ATOM     66  C   UNL A   1      33.752  34.865  30.722  1.00  0.00     0.200 A 
ATOM     67  F   UNL A   1      33.996  34.401  33.015  1.00  0.00    -0.200 F 
ATOM     68  F   UNL A   1      32.619  35.541  30.957  1.00  0.00    -0.200 F 
ENDBRANCH  44  58
BRANCH  45  69
ATOM     69  C   UNL A   1      44.706  28.938  28.950  1.00  0.00     0.064 A 
ATOM     70  C   UNL A   1      45.576  27.939  29.432  1.00  0.00     0.173 A 
ATOM     71  C   UNL A   1      44.165  28.762  27.673  1.00  0.00     0.173 A 
ATOM     72  F   UNL A   1      46.126  28.060  30.652  1.00  0.00    -0.203 F 
ATOM     73  C   UNL A   1      45.790  26.760  28.723  1.00  0.00     0.198 A 
ATOM     74  C   UNL A   1      44.398  27.588  26.955  1.00  0.00     0.198 A 
ATOM     75  F   UNL A   1      43.312  29.664  27.166  1.00  0.00    -0.203 F 
ATOM     76  F   UNL A   1      46.525  25.778  29.263  1.00  0.00    -0.200 F 
ATOM     77  C   UNL A   1      45.177  26.575  27.495  1.00  0.00     0.200 A 
ATOM     78  F   UNL A   1      43.783  27.397  25.780  1.00  0.00    -0.200 F 
ATOM     79  F   UNL A   1      45.303  25.406  26.852  1.00  0.00    -0.200 F 
ENDBRANCH  45  69
BRANCH  57  80
ATOM     80  C   UNL A   1      42.443  35.769  29.327  1.00  0.00     0.064 A 
ATOM     81  C   UNL A   1      41.883  36.205  28.117  1.00  0.00     0.173 A 
ATOM     82  C   UNL A   1      43.303  36.668  29.987  1.00  0.00     0.173 A 
ATOM     83  F   UNL A   1      41.074  35.400  27.410  1.00  0.00    -0.203 F 
ATOM     84  C   UNL A   1      42.155  37.473  27.605  1.00  0.00     0.198 A 
ATOM     85  C   UNL A   1      43.610  37.916  29.450  1.00  0.00     0.198 A 
ATOM     86  F   UNL A   1      43.846  36.361  31.174  1.00  0.00    -0.203 F 
ATOM     87  F   UNL A   1      41.569  37.873  26.468  1.00  0.00    -0.200 F 
ATOM     88  C   UNL A   1      43.030  38.321  28.263  1.00  0.00     0.200 A 
ATOM     89  F   UNL A   1      44.469  38.721  30.090  1.00  0.00    -0.200 F 
ATOM     90  F   UNL A   1      43.309  39.531  27.758  1.00  0.00    -0.200 F 
ENDBRANCH  57  80
ENDBRANCH  31  32
ENDBRANCH  23  26
ENDBRANCH  21  22
ENDBRANCH  20  21
ENDBRANCH   1  20
TORSDOF 14
ENDMDL
