MODEL 1
REMARK VINA RESULT:     -11.8      0.000      0.000
REMARK SMILES O=C(NCCCCNC(=O)c1cc(-n2ccnc2)ccn1)c1ccc(-c2c3nc(c(-c4c(F)c(F)c(F)c(F)c4F)c4ccc([nH]4)c(-c4c(F)c(F)c(F)c(F)c4F)c4nc(c(-c5c(F)c(F)c(F)c(F)c5F)c5ccc2[nH]5)C=C4)C=C3)cc1
REMARK SMILES IDX 5 1 4 2 3 3 1 4 2 5 22 7 23 8 84 9 24 10 83 11 25 12 26 13
REMARK SMILES IDX 27 14 77 15 28 16 82 17 76 18 78 19 29 20 81 21 75 22 74 23
REMARK SMILES IDX 30 25 62 26 42 27 61 28 43 29 46 30 60 31 79 32 44 33 45 34
REMARK SMILES IDX 59 36 80 37 47 38 31 39 32 40 40 41 33 42 34 43 38 44 41 45
REMARK SMILES IDX 35 46 36 47 39 48 37 49 63 50 64 51 72 52 65 53 66 54 70 55
REMARK SMILES IDX 73 56 67 57 68 58 71 59 69 60 48 61 49 62 57 63 50 64 51 65
REMARK SMILES IDX 55 66 58 67 52 68 53 69 56 70 54 71 6 72 7 73 8 74 9 75
REMARK SMILES IDX 10 77 11 78 12 79 21 80 13 81 20 82 19 83 14 84 15 85 18 86
REMARK SMILES IDX 16 87 17 88
REMARK H PARENT 3 6 78 24 46 35 8 76
REMARK Flexibility Score: inf
ROOT
ATOM      1  C   UNL A   1      42.204  18.928  27.301  1.00  0.00     0.023 C 
ENDROOT
BRANCH   1   2
ATOM      2  C   UNL A   1      41.983  20.393  26.929  1.00  0.00     0.116 C 
BRANCH   2   3
ATOM      3  N   UNL A   1      40.650  20.716  26.461  1.00  0.00    -0.352 N 
ATOM      4  O   UNL A   1      38.832  21.775  25.784  1.00  0.00    -0.269 OA
ATOM      5  C   UNL A   1      39.904  21.860  26.389  1.00  0.00     0.251 C 
ATOM      6  H   UNL A   1      40.170  19.929  26.115  1.00  0.00     0.163 HD
BRANCH   5   7
ATOM      7  C   UNL A   1      40.259  23.158  27.023  1.00  0.00     0.039 A 
ATOM      8  C   UNL A   1      41.412  23.413  27.767  1.00  0.00     0.014 A 
ATOM      9  C   UNL A   1      39.338  24.207  26.838  1.00  0.00     0.014 A 
ATOM     10  C   UNL A   1      41.606  24.654  28.372  1.00  0.00     0.010 A 
ATOM     11  C   UNL A   1      39.537  25.457  27.419  1.00  0.00     0.010 A 
ATOM     12  C   UNL A   1      40.663  25.672  28.211  1.00  0.00    -0.014 A 
BRANCH  12  13
ATOM     13  C   UNL A   1      40.958  26.986  28.782  1.00  0.00     0.031 A 
ATOM     14  C   UNL A   1      42.158  27.688  28.234  1.00  0.00     0.074 A 
ATOM     15  C   UNL A   1      40.129  27.636  29.622  1.00  0.00     0.049 A 
ATOM     16  N   UNL A   1      43.168  28.185  28.877  1.00  0.00    -0.248 NA
ATOM     17  C   UNL A   1      42.255  27.827  26.773  1.00  0.00     0.031 C 
ATOM     18  C   UNL A   1      38.770  27.257  30.012  1.00  0.00     0.029 A 
ATOM     19  N   UNL A   1      40.299  28.855  30.218  1.00  0.00    -0.354 N 
ATOM     20  C   UNL A   1      43.962  28.824  27.923  1.00  0.00     0.074 A 
ATOM     21  C   UNL A   1      43.401  28.496  26.638  1.00  0.00     0.031 C 
ATOM     22  C   UNL A   1      38.168  28.315  30.600  1.00  0.00     0.029 A 
ATOM     23  C   UNL A   1      39.131  29.395  30.734  1.00  0.00     0.049 A 
ATOM     24  H   UNL A   1      41.172  29.306  30.275  1.00  0.00     0.167 HD
ATOM     25  C   UNL A   1      44.929  29.721  28.262  1.00  0.00     0.037 A 
ATOM     26  C   UNL A   1      38.948  30.664  31.174  1.00  0.00     0.037 A 
ATOM     27  C   UNL A   1      45.328  29.590  29.636  1.00  0.00     0.049 A 
ATOM     28  C   UNL A   1      40.278  31.254  31.457  1.00  0.00     0.074 A 
ATOM     29  C   UNL A   1      45.892  28.586  30.397  1.00  0.00     0.029 A 
ATOM     30  N   UNL A   1      44.906  30.536  30.534  1.00  0.00    -0.354 N 
ATOM     31  N   UNL A   1      41.044  30.911  32.452  1.00  0.00    -0.248 NA
ATOM     32  C   UNL A   1      40.931  32.012  30.399  1.00  0.00     0.031 C 
ATOM     33  C   UNL A   1      45.341  28.754  31.702  1.00  0.00     0.029 A 
ATOM     34  C   UNL A   1      44.494  29.861  31.652  1.00  0.00     0.049 A 
ATOM     35  H   UNL A   1      44.900  31.511  30.401  1.00  0.00     0.167 HD
ATOM     36  C   UNL A   1      42.332  31.029  31.959  1.00  0.00     0.074 A 
ATOM     37  C   UNL A   1      42.205  31.829  30.747  1.00  0.00     0.031 C 
ATOM     38  C   UNL A   1      43.338  30.234  32.427  1.00  0.00     0.037 A 
BRANCH  25  39
ATOM     39  C   UNL A   1      45.301  30.933  27.441  1.00  0.00     0.064 A 
ATOM     40  C   UNL A   1      46.645  31.130  27.064  1.00  0.00     0.173 A 
ATOM     41  C   UNL A   1      44.454  32.050  27.285  1.00  0.00     0.173 A 
ATOM     42  F   UNL A   1      47.544  30.142  27.189  1.00  0.00    -0.203 F 
ATOM     43  C   UNL A   1      47.121  32.376  26.644  1.00  0.00     0.198 A 
ATOM     44  C   UNL A   1      44.920  33.277  26.813  1.00  0.00     0.198 A 
ATOM     45  F   UNL A   1      43.177  32.031  27.685  1.00  0.00    -0.203 F 
ATOM     46  F   UNL A   1      48.431  32.549  26.425  1.00  0.00    -0.200 F 
ATOM     47  C   UNL A   1      46.258  33.450  26.527  1.00  0.00     0.200 A 
ATOM     48  F   UNL A   1      44.074  34.312  26.721  1.00  0.00    -0.200 F 
ATOM     49  F   UNL A   1      46.722  34.660  26.188  1.00  0.00    -0.200 F 
ENDBRANCH  25  39
BRANCH  26  50
ATOM     50  C   UNL A   1      37.719  31.486  31.130  1.00  0.00     0.064 A 
ATOM     51  C   UNL A   1      37.012  31.802  32.303  1.00  0.00     0.173 A 
ATOM     52  C   UNL A   1      37.359  32.201  29.971  1.00  0.00     0.173 A 
ATOM     53  F   UNL A   1      37.324  31.202  33.461  1.00  0.00    -0.203 F 
ATOM     54  C   UNL A   1      36.021  32.788  32.317  1.00  0.00     0.198 A 
ATOM     55  C   UNL A   1      36.362  33.175  29.984  1.00  0.00     0.198 A 
ATOM     56  F   UNL A   1      38.034  32.037  28.824  1.00  0.00    -0.203 F 
ATOM     57  F   UNL A   1      35.413  33.106  33.469  1.00  0.00    -0.200 F 
ATOM     58  C   UNL A   1      35.701  33.479  31.160  1.00  0.00     0.200 A 
ATOM     59  F   UNL A   1      36.088  33.860  28.865  1.00  0.00    -0.200 F 
ATOM     60  F   UNL A   1      34.793  34.463  31.186  1.00  0.00    -0.200 F 
ENDBRANCH  26  50
BRANCH  38  61
ATOM     61  C   UNL A   1      43.096  29.474  33.697  1.00  0.00     0.064 A 
ATOM     62  C   UNL A   1      43.394  29.975  34.976  1.00  0.00     0.173 A 
ATOM     63  C   UNL A   1      42.417  28.252  33.622  1.00  0.00     0.173 A 
ATOM     64  F   UNL A   1      43.943  31.187  35.133  1.00  0.00    -0.203 F 
ATOM     65  C   UNL A   1      43.074  29.253  36.123  1.00  0.00     0.198 A 
ATOM     66  C   UNL A   1      42.063  27.552  34.772  1.00  0.00     0.198 A 
ATOM     67  F   UNL A   1      42.052  27.756  32.428  1.00  0.00    -0.203 F 
ATOM     68  F   UNL A   1      43.384  29.743  37.333  1.00  0.00    -0.200 F 
ATOM     69  C   UNL A   1      42.402  28.046  36.020  1.00  0.00     0.200 A 
ATOM     70  F   UNL A   1      41.367  26.411  34.670  1.00  0.00    -0.200 F 
ATOM     71  F   UNL A   1      42.058  27.371  37.126  1.00  0.00    -0.200 F 
ENDBRANCH  38  61
ENDBRANCH  12  13
ENDBRANCH   5   7
ENDBRANCH   2   3
ENDBRANCH   1   2
BRANCH   1  72
ATOM     72  C   UNL A   1      43.296  18.201  26.513  1.00  0.00     0.023 C 
BRANCH  72  73
ATOM     73  C   UNL A   1      43.687  18.823  25.177  1.00  0.00     0.116 C 
BRANCH  73  74
ATOM     74  N   UNL A   1      45.120  18.808  24.927  1.00  0.00    -0.351 N 
ATOM     75  C   UNL A   1      45.985  19.877  24.766  1.00  0.00     0.269 C 
ATOM     76  H   UNL A   1      45.530  17.916  24.864  1.00  0.00     0.163 HD
ATOM     77  O   UNL A   1      47.169  19.674  24.551  1.00  0.00    -0.268 OA
BRANCH  75  78
ATOM     78  C   UNL A   1      45.448  21.266  24.867  1.00  0.00     0.130 A 
ATOM     79  C   UNL A   1      45.776  22.049  25.967  1.00  0.00     0.060 A 
ATOM     80  N   UNL A   1      44.558  21.631  23.913  1.00  0.00    -0.251 NA
ATOM     81  C   UNL A   1      45.048  23.223  26.158  1.00  0.00     0.050 A 
ATOM     82  C   UNL A   1      43.933  22.813  24.086  1.00  0.00     0.114 A 
ATOM     83  C   UNL A   1      44.111  23.620  25.199  1.00  0.00     0.047 A 
BRANCH  81  84
ATOM     84  N   UNL A   1      45.205  23.958  27.357  1.00  0.00    -0.306 N 
ATOM     85  C   UNL A   1      45.015  23.506  28.642  1.00  0.00     0.113 A 
ATOM     86  C   UNL A   1      45.508  25.296  27.467  1.00  0.00     0.204 A 
ATOM     87  C   UNL A   1      45.229  24.593  29.458  1.00  0.00     0.131 A 
ATOM     88  N   UNL A   1      45.523  25.704  28.717  1.00  0.00    -0.245 NA
ENDBRANCH  81  84
ENDBRANCH  75  78
ENDBRANCH  73  74
ENDBRANCH  72  73
ENDBRANCH   1  72
TORSDOF 12
ENDMDL
MODEL 2
REMARK VINA RESULT:     -11.8      5.645     11.395
REMARK SMILES O=C(NCCCCNC(=O)c1cc(-n2ccnc2)ccn1)c1ccc(-c2c3nc(c(-c4c(F)c(F)c(F)c(F)c4F)c4ccc([nH]4)c(-c4c(F)c(F)c(F)c(F)c4F)c4nc(c(-c5c(F)c(F)c(F)c(F)c5F)c5ccc2[nH]5)C=C4)C=C3)cc1
REMARK SMILES IDX 5 1 4 2 3 3 1 4 2 5 22 7 23 8 84 9 24 10 83 11 25 12 26 13
REMARK SMILES IDX 27 14 77 15 28 16 82 17 76 18 78 19 29 20 81 21 75 22 74 23
REMARK SMILES IDX 30 25 62 26 42 27 61 28 43 29 46 30 60 31 79 32 44 33 45 34
REMARK SMILES IDX 59 36 80 37 47 38 31 39 32 40 40 41 33 42 34 43 38 44 41 45
REMARK SMILES IDX 35 46 36 47 39 48 37 49 63 50 64 51 72 52 65 53 66 54 70 55
REMARK SMILES IDX 73 56 67 57 68 58 71 59 69 60 48 61 49 62 57 63 50 64 51 65
REMARK SMILES IDX 55 66 58 67 52 68 53 69 56 70 54 71 6 72 7 73 8 74 9 75
REMARK SMILES IDX 10 77 11 78 12 79 21 80 13 81 20 82 19 83 14 84 15 85 18 86
REMARK SMILES IDX 16 87 17 88
REMARK H PARENT 3 6 78 24 46 35 8 76
REMARK Flexibility Score: inf
ROOT
ATOM      1  C   UNL A   1      34.341  29.806  27.383  1.00  0.00     0.023 C 
ENDROOT
BRANCH   1   2
ATOM      2  C   UNL A   1      34.460  31.311  27.619  1.00  0.00     0.116 C 
BRANCH   2   3
ATOM      3  N   UNL A   1      34.371  31.726  29.004  1.00  0.00    -0.352 N 
ATOM      4  O   UNL A   1      34.841  32.302  31.086  1.00  0.00    -0.269 OA
ATOM      5  C   UNL A   1      35.231  31.725  30.068  1.00  0.00     0.251 C 
ATOM      6  H   UNL A   1      33.487  32.094  29.233  1.00  0.00     0.163 HD
BRANCH   5   7
ATOM      7  C   UNL A   1      36.554  31.043  30.103  1.00  0.00     0.039 A 
ATOM      8  C   UNL A   1      37.796  31.668  29.985  1.00  0.00     0.014 A 
ATOM      9  C   UNL A   1      36.522  29.645  30.276  1.00  0.00     0.014 A 
ATOM     10  C   UNL A   1      38.969  30.915  29.964  1.00  0.00     0.010 A 
ATOM     11  C   UNL A   1      37.692  28.890  30.280  1.00  0.00     0.010 A 
ATOM     12  C   UNL A   1      38.918  29.526  30.097  1.00  0.00    -0.014 A 
BRANCH  12  13
ATOM     13  C   UNL A   1      40.180  28.790  30.169  1.00  0.00     0.031 A 
ATOM     14  C   UNL A   1      40.767  28.619  31.532  1.00  0.00     0.074 A 
ATOM     15  C   UNL A   1      40.724  28.140  29.121  1.00  0.00     0.049 A 
ATOM     16  N   UNL A   1      41.960  28.915  31.943  1.00  0.00    -0.248 NA
ATOM     17  C   UNL A   1      39.894  28.071  32.582  1.00  0.00     0.031 C 
ATOM     18  C   UNL A   1      40.136  27.920  27.799  1.00  0.00     0.029 A 
ATOM     19  N   UNL A   1      41.891  27.430  29.069  1.00  0.00    -0.354 N 
ATOM     20  C   UNL A   1      42.042  28.465  33.262  1.00  0.00     0.074 A 
ATOM     21  C   UNL A   1      40.717  28.036  33.631  1.00  0.00     0.031 C 
ATOM     22  C   UNL A   1      40.842  26.965  27.154  1.00  0.00     0.029 A 
ATOM     23  C   UNL A   1      41.992  26.598  27.963  1.00  0.00     0.049 A 
ATOM     24  H   UNL A   1      42.595  27.503  29.752  1.00  0.00     0.167 HD
ATOM     25  C   UNL A   1      43.231  28.315  33.908  1.00  0.00     0.037 A 
ATOM     26  C   UNL A   1      42.914  25.625  27.761  1.00  0.00     0.037 A 
ATOM     27  C   UNL A   1      44.283  29.067  33.283  1.00  0.00     0.049 A 
ATOM     28  C   UNL A   1      44.065  25.881  28.658  1.00  0.00     0.074 A 
ATOM     29  C   UNL A   1      44.509  30.405  33.028  1.00  0.00     0.029 A 
ATOM     30  N   UNL A   1      45.223  28.392  32.549  1.00  0.00    -0.354 N 
ATOM     31  N   UNL A   1      44.914  26.858  28.514  1.00  0.00    -0.248 NA
ATOM     32  C   UNL A   1      44.076  25.232  29.961  1.00  0.00     0.031 C 
ATOM     33  C   UNL A   1      45.231  30.433  31.799  1.00  0.00     0.029 A 
ATOM     34  C   UNL A   1      45.414  29.110  31.398  1.00  0.00     0.049 A 
ATOM     35  H   UNL A   1      45.675  27.554  32.800  1.00  0.00     0.167 HD
ATOM     36  C   UNL A   1      45.254  27.220  29.806  1.00  0.00     0.074 A 
ATOM     37  C   UNL A   1      44.813  26.111  30.642  1.00  0.00     0.031 C 
ATOM     38  C   UNL A   1      45.604  28.505  30.104  1.00  0.00     0.037 A 
BRANCH  25  39
ATOM     39  C   UNL A   1      43.524  27.241  34.928  1.00  0.00     0.064 A 
ATOM     40  C   UNL A   1      43.931  27.609  36.228  1.00  0.00     0.173 A 
ATOM     41  C   UNL A   1      43.722  25.886  34.589  1.00  0.00     0.173 A 
ATOM     42  F   UNL A   1      43.808  28.876  36.651  1.00  0.00    -0.203 F 
ATOM     43  C   UNL A   1      44.566  26.707  37.087  1.00  0.00     0.198 A 
ATOM     44  C   UNL A   1      44.306  24.976  35.470  1.00  0.00     0.198 A 
ATOM     45  F   UNL A   1      43.464  25.420  33.361  1.00  0.00    -0.203 F 
ATOM     46  F   UNL A   1      45.055  27.136  38.259  1.00  0.00    -0.200 F 
ATOM     47  C   UNL A   1      44.760  25.393  36.703  1.00  0.00     0.200 A 
ATOM     48  F   UNL A   1      44.501  23.710  35.075  1.00  0.00    -0.200 F 
ATOM     49  F   UNL A   1      45.425  24.544  37.497  1.00  0.00    -0.200 F 
ENDBRANCH  25  39
BRANCH  26  50
ATOM     50  C   UNL A   1      42.762  24.350  27.025  1.00  0.00     0.064 A 
ATOM     51  C   UNL A   1      43.299  24.184  25.738  1.00  0.00     0.173 A 
ATOM     52  C   UNL A   1      42.317  23.182  27.674  1.00  0.00     0.173 A 
ATOM     53  F   UNL A   1      43.788  25.239  25.069  1.00  0.00    -0.203 F 
ATOM     54  C   UNL A   1      43.404  22.922  25.146  1.00  0.00     0.198 A 
ATOM     55  C   UNL A   1      42.411  21.925  27.077  1.00  0.00     0.198 A 
ATOM     56  F   UNL A   1      41.872  23.223  28.938  1.00  0.00    -0.203 F 
ATOM     57  F   UNL A   1      43.981  22.795  23.942  1.00  0.00    -0.200 F 
ATOM     58  C   UNL A   1      42.967  21.793  25.818  1.00  0.00     0.200 A 
ATOM     59  F   UNL A   1      42.017  20.837  27.753  1.00  0.00    -0.200 F 
ATOM     60  F   UNL A   1      43.121  20.577  25.274  1.00  0.00    -0.200 F 
ENDBRANCH  26  50
BRANCH  38  61
ATOM     61  C   UNL A   1      45.931  29.424  28.965  1.00  0.00     0.064 A 
ATOM     62  C   UNL A   1      44.966  30.129  28.227  1.00  0.00     0.173 A 
ATOM     63  C   UNL A   1      47.279  29.701  28.701  1.00  0.00     0.173 A 
ATOM     64  F   UNL A   1      43.660  30.001  28.496  1.00  0.00    -0.203 F 
ATOM     65  C   UNL A   1      45.338  31.029  27.231  1.00  0.00     0.198 A 
ATOM     66  C   UNL A   1      47.648  30.630  27.733  1.00  0.00     0.198 A 
ATOM     67  F   UNL A   1      48.243  29.102  29.419  1.00  0.00    -0.203 F 
ATOM     68  F   UNL A   1      44.399  31.677  26.526  1.00  0.00    -0.200 F 
ATOM     69  C   UNL A   1      46.678  31.284  26.990  1.00  0.00     0.200 A 
ATOM     70  F   UNL A   1      48.944  30.912  27.539  1.00  0.00    -0.200 F 
ATOM     71  F   UNL A   1      47.036  32.180  26.059  1.00  0.00    -0.200 F 
ENDBRANCH  38  61
ENDBRANCH  12  13
ENDBRANCH   5   7
ENDBRANCH   2   3
ENDBRANCH   1   2
BRANCH   1  72
ATOM     72  C   UNL A   1      33.001  29.327  26.820  1.00  0.00     0.023 C 
BRANCH  72  73
ATOM     73  C   UNL A   1      32.596  29.903  25.467  1.00  0.00     0.116 C 
BRANCH  73  74
ATOM     74  N   UNL A   1      33.367  29.370  24.355  1.00  0.00    -0.351 N 
ATOM     75  C   UNL A   1      32.915  28.846  23.156  1.00  0.00     0.269 C 
ATOM     76  H   UNL A   1      34.345  29.383  24.472  1.00  0.00     0.163 HD
ATOM     77  O   UNL A   1      33.716  28.431  22.333  1.00  0.00    -0.268 OA
BRANCH  75  78
ATOM     78  C   UNL A   1      31.447  28.807  22.890  1.00  0.00     0.130 A 
ATOM     79  C   UNL A   1      30.833  29.891  22.277  1.00  0.00     0.060 A 
ATOM     80  N   UNL A   1      30.780  27.738  23.388  1.00  0.00    -0.251 NA
ATOM     81  C   UNL A   1      29.439  29.932  22.292  1.00  0.00     0.050 A 
ATOM     82  C   UNL A   1      29.435  27.772  23.310  1.00  0.00     0.114 A 
ATOM     83  C   UNL A   1      28.722  28.850  22.812  1.00  0.00     0.047 A 
BRANCH  81  84
ATOM     84  N   UNL A   1      28.767  31.097  21.855  1.00  0.00    -0.306 N 
ATOM     85  C   UNL A   1      28.136  31.293  20.648  1.00  0.00     0.113 A 
ATOM     86  C   UNL A   1      28.677  32.295  22.528  1.00  0.00     0.204 A 
ATOM     87  C   UNL A   1      27.688  32.594  20.666  1.00  0.00     0.131 A 
ATOM     88  N   UNL A   1      28.040  33.212  21.833  1.00  0.00    -0.245 NA
ENDBRANCH  81  84
ENDBRANCH  75  78
ENDBRANCH  73  74
ENDBRANCH  72  73
ENDBRANCH   1  72
TORSDOF 12
ENDMDL
MODEL 3
REMARK VINA RESULT:     -11.7      3.954     11.574
REMARK SMILES O=C(NCCCCNC(=O)c1cc(-n2ccnc2)ccn1)c1ccc(-c2c3nc(c(-c4c(F)c(F)c(F)c(F)c4F)c4ccc([nH]4)c(-c4c(F)c(F)c(F)c(F)c4F)c4nc(c(-c5c(F)c(F)c(F)c(F)c5F)c5ccc2[nH]5)C=C4)C=C3)cc1
REMARK SMILES IDX 5 1 4 2 3 3 1 4 2 5 22 7 23 8 84 9 24 10 83 11 25 12 26 13
REMARK SMILES IDX 27 14 77 15 28 16 82 17 76 18 78 19 29 20 81 21 75 22 74 23
REMARK SMILES IDX 30 25 62 26 42 27 61 28 43 29 46 30 60 31 79 32 44 33 45 34
REMARK SMILES IDX 59 36 80 37 47 38 31 39 32 40 40 41 33 42 34 43 38 44 41 45
REMARK SMILES IDX 35 46 36 47 39 48 37 49 63 50 64 51 72 52 65 53 66 54 70 55
REMARK SMILES IDX 73 56 67 57 68 58 71 59 69 60 48 61 49 62 57 63 50 64 51 65
REMARK SMILES IDX 55 66 58 67 52 68 53 69 56 70 54 71 6 72 7 73 8 74 9 75
REMARK SMILES IDX 10 77 11 78 12 79 21 80 13 81 20 82 19 83 14 84 15 85 18 86
REMARK SMILES IDX 16 87 17 88
REMARK H PARENT 3 6 78 24 46 35 8 76
REMARK Flexibility Score: inf
ROOT
ATOM      1  C   UNL A   1      35.177  34.757  28.862  1.00  0.00     0.023 C 
ENDROOT
BRANCH   1   2
ATOM      2  C   UNL A   1      34.633  33.423  29.371  1.00  0.00     0.116 C 
BRANCH   2   3
ATOM      3  N   UNL A   1      34.138  32.528  28.345  1.00  0.00    -0.352 N 
ATOM      4  O   UNL A   1      33.782  30.782  27.037  1.00  0.00    -0.269 OA
ATOM      5  C   UNL A   1      34.555  31.334  27.824  1.00  0.00     0.251 C 
ATOM      6  H   UNL A   1      33.309  32.855  27.925  1.00  0.00     0.163 HD
BRANCH   5   7
ATOM      7  C   UNL A   1      35.871  30.693  28.091  1.00  0.00     0.039 A 
ATOM      8  C   UNL A   1      36.145  29.327  28.002  1.00  0.00     0.014 A 
ATOM      9  C   UNL A   1      36.917  31.562  28.457  1.00  0.00     0.014 A 
ATOM     10  C   UNL A   1      37.404  28.833  28.342  1.00  0.00     0.010 A 
ATOM     11  C   UNL A   1      38.183  31.077  28.775  1.00  0.00     0.010 A 
ATOM     12  C   UNL A   1      38.419  29.705  28.742  1.00  0.00    -0.014 A 
BRANCH  12  13
ATOM     13  C   UNL A   1      39.749  29.150  28.993  1.00  0.00     0.031 A 
ATOM     14  C   UNL A   1      40.127  28.967  30.427  1.00  0.00     0.074 A 
ATOM     15  C   UNL A   1      40.546  28.657  28.024  1.00  0.00     0.049 A 
ATOM     16  N   UNL A   1      41.181  29.398  31.047  1.00  0.00    -0.248 NA
ATOM     17  C   UNL A   1      39.189  28.231  31.287  1.00  0.00     0.031 C 
ATOM     18  C   UNL A   1      40.218  28.451  26.613  1.00  0.00     0.029 A 
ATOM     19  N   UNL A   1      41.799  28.123  28.137  1.00  0.00    -0.354 N 
ATOM     20  C   UNL A   1      41.116  28.872  32.339  1.00  0.00     0.074 A 
ATOM     21  C   UNL A   1      39.828  28.238  32.457  1.00  0.00     0.031 C 
ATOM     22  C   UNL A   1      41.154  27.652  26.053  1.00  0.00     0.029 A 
ATOM     23  C   UNL A   1      42.200  27.394  27.028  1.00  0.00     0.049 A 
ATOM     24  H   UNL A   1      42.364  28.246  28.933  1.00  0.00     0.167 HD
ATOM     25  C   UNL A   1      42.194  28.846  33.170  1.00  0.00     0.037 A 
ATOM     26  C   UNL A   1      43.278  26.576  26.940  1.00  0.00     0.037 A 
ATOM     27  C   UNL A   1      43.208  29.779  32.767  1.00  0.00     0.049 A 
ATOM     28  C   UNL A   1      44.217  26.927  28.031  1.00  0.00     0.074 A 
ATOM     29  C   UNL A   1      43.269  31.151  32.616  1.00  0.00     0.029 A 
ATOM     30  N   UNL A   1      44.345  29.296  32.173  1.00  0.00    -0.354 N 
ATOM     31  N   UNL A   1      44.923  28.021  28.077  1.00  0.00    -0.248 NA
ATOM     32  C   UNL A   1      44.116  26.196  29.285  1.00  0.00     0.031 C 
ATOM     33  C   UNL A   1      44.167  31.366  31.530  1.00  0.00     0.029 A 
ATOM     34  C   UNL A   1      44.609  30.113  31.106  1.00  0.00     0.049 A 
ATOM     35  H   UNL A   1      44.871  28.514  32.458  1.00  0.00     0.167 HD
ATOM     36  C   UNL A   1      44.992  28.336  29.424  1.00  0.00     0.074 A 
ATOM     37  C   UNL A   1      44.594  27.119  30.121  1.00  0.00     0.031 C 
ATOM     38  C   UNL A   1      45.093  29.633  29.836  1.00  0.00     0.037 A 
BRANCH  25  39
ATOM     39  C   UNL A   1      42.476  27.754  34.174  1.00  0.00     0.064 A 
ATOM     40  C   UNL A   1      43.072  26.550  33.743  1.00  0.00     0.173 A 
ATOM     41  C   UNL A   1      41.903  27.722  35.463  1.00  0.00     0.173 A 
ATOM     42  F   UNL A   1      43.629  26.460  32.526  1.00  0.00    -0.203 F 
ATOM     43  C   UNL A   1      43.020  25.383  34.510  1.00  0.00     0.198 A 
ATOM     44  C   UNL A   1      41.902  26.570  36.249  1.00  0.00     0.198 A 
ATOM     45  F   UNL A   1      41.228  28.764  35.962  1.00  0.00    -0.203 F 
ATOM     46  F   UNL A   1      43.481  24.231  34.003  1.00  0.00    -0.200 F 
ATOM     47  C   UNL A   1      42.428  25.393  35.760  1.00  0.00     0.200 A 
ATOM     48  F   UNL A   1      41.309  26.593  37.451  1.00  0.00    -0.200 F 
ATOM     49  F   UNL A   1      42.319  24.262  36.469  1.00  0.00    -0.200 F 
ENDBRANCH  25  39
BRANCH  26  50
ATOM     50  C   UNL A   1      43.439  25.347  26.132  1.00  0.00     0.064 A 
ATOM     51  C   UNL A   1      44.596  25.126  25.367  1.00  0.00     0.173 A 
ATOM     52  C   UNL A   1      42.579  24.245  26.301  1.00  0.00     0.173 A 
ATOM     53  F   UNL A   1      45.491  26.110  25.196  1.00  0.00    -0.203 F 
ATOM     54  C   UNL A   1      44.885  23.871  24.823  1.00  0.00     0.198 A 
ATOM     55  C   UNL A   1      42.862  22.997  25.747  1.00  0.00     0.198 A 
ATOM     56  F   UNL A   1      41.496  24.330  27.087  1.00  0.00    -0.203 F 
ATOM     57  F   UNL A   1      46.030  23.681  24.153  1.00  0.00    -0.200 F 
ATOM     58  C   UNL A   1      44.022  22.805  25.019  1.00  0.00     0.200 A 
ATOM     59  F   UNL A   1      42.036  21.966  25.974  1.00  0.00    -0.200 F 
ATOM     60  F   UNL A   1      44.327  21.589  24.547  1.00  0.00    -0.200 F 
ENDBRANCH  26  50
BRANCH  38  61
ATOM     61  C   UNL A   1      45.458  30.666  28.813  1.00  0.00     0.064 A 
ATOM     62  C   UNL A   1      44.533  31.263  27.938  1.00  0.00     0.173 A 
ATOM     63  C   UNL A   1      46.767  31.165  28.810  1.00  0.00     0.173 A 
ATOM     64  F   UNL A   1      43.240  30.916  27.960  1.00  0.00    -0.203 F 
ATOM     65  C   UNL A   1      44.920  32.274  27.063  1.00  0.00     0.198 A 
ATOM     66  C   UNL A   1      47.141  32.204  27.962  1.00  0.00     0.198 A 
ATOM     67  F   UNL A   1      47.677  30.675  29.668  1.00  0.00    -0.203 F 
ATOM     68  F   UNL A   1      44.024  32.816  26.225  1.00  0.00    -0.200 F 
ATOM     69  C   UNL A   1      46.222  32.748  27.080  1.00  0.00     0.200 A 
ATOM     70  F   UNL A   1      48.387  32.695  28.019  1.00  0.00    -0.200 F 
ATOM     71  F   UNL A   1      46.584  33.750  26.266  1.00  0.00    -0.200 F 
ENDBRANCH  38  61
ENDBRANCH  12  13
ENDBRANCH   5   7
ENDBRANCH   2   3
ENDBRANCH   1   2
BRANCH   1  72
ATOM     72  C   UNL A   1      34.143  35.870  28.683  1.00  0.00     0.023 C 
BRANCH  72  73
ATOM     73  C   UNL A   1      32.879  35.755  29.528  1.00  0.00     0.116 C 
BRANCH  73  74
ATOM     74  N   UNL A   1      32.730  36.828  30.498  1.00  0.00    -0.351 N 
ATOM     75  C   UNL A   1      33.121  36.859  31.826  1.00  0.00     0.269 C 
ATOM     76  H   UNL A   1      32.289  37.643  30.165  1.00  0.00     0.163 HD
ATOM     77  O   UNL A   1      32.903  37.853  32.501  1.00  0.00    -0.268 OA
BRANCH  75  78
ATOM     78  C   UNL A   1      33.815  35.671  32.405  1.00  0.00     0.130 A 
ATOM     79  C   UNL A   1      35.201  35.666  32.501  1.00  0.00     0.060 A 
ATOM     80  N   UNL A   1      33.029  34.605  32.693  1.00  0.00    -0.251 NA
ATOM     81  C   UNL A   1      35.819  34.449  32.790  1.00  0.00     0.050 A 
ATOM     82  C   UNL A   1      33.657  33.468  33.051  1.00  0.00     0.114 A 
ATOM     83  C   UNL A   1      35.036  33.327  33.077  1.00  0.00     0.047 A 
BRANCH  81  84
ATOM     84  N   UNL A   1      37.227  34.343  32.711  1.00  0.00    -0.306 N 
ATOM     85  C   UNL A   1      38.128  34.420  33.748  1.00  0.00     0.113 A 
ATOM     86  C   UNL A   1      37.979  34.215  31.565  1.00  0.00     0.204 A 
ATOM     87  C   UNL A   1      39.373  34.320  33.171  1.00  0.00     0.131 A 
ATOM     88  N   UNL A   1      39.270  34.205  31.813  1.00  0.00    -0.245 NA
ENDBRANCH  81  84
ENDBRANCH  75  78
ENDBRANCH  73  74
ENDBRANCH  72  73
ENDBRANCH   1  72
TORSDOF 12
ENDMDL
