MODEL 1
REMARK VINA RESULT:     -12.9      0.000      0.000
REMARK SMILES O=C(NCCCCNC(=O)c1ccc(C[N@@H+]2CCN3C(=O)NC[C@@H]3C2)nc1)c1ccc(-c2c3nc(c(-c4c(F)c(F)c(F)c(F)c4F)c4ccc([nH]4)c(-c4c(F)c(F)c(F)c(F)c4F)c4nc(c(-c5c(F)c(F)c(F)c(F)c5F)c5ccc2[nH]5)C=C4)C=C3)cc1
REMARK SMILES IDX 5 1 4 2 3 3 1 4 2 5 28 7 29 8 90 9 30 10 89 11 31 12 32 13
REMARK SMILES IDX 33 14 83 15 34 16 88 17 82 18 84 19 35 20 87 21 81 22 80 23
REMARK SMILES IDX 36 25 68 26 48 27 67 28 49 29 52 30 66 31 85 32 50 33 51 34
REMARK SMILES IDX 65 36 86 37 53 38 37 39 38 40 46 41 39 42 40 43 44 44 47 45
REMARK SMILES IDX 41 46 42 47 45 48 43 49 69 50 70 51 78 52 71 53 72 54 76 55
REMARK SMILES IDX 79 56 73 57 74 58 77 59 75 60 54 61 55 62 63 63 56 64 57 65
REMARK SMILES IDX 61 66 64 67 58 68 59 69 62 70 60 71 6 72 7 73 8 74 9 75
REMARK SMILES IDX 10 77 11 78 12 79 27 80 13 81 26 82 14 83 15 84 16 85 17 86
REMARK SMILES IDX 25 87 18 89 24 90 19 91 23 92 20 93 22 94 21 95
REMARK H PARENT 3 6 84 24 52 35 8 76 16 88 22 96
REMARK Flexibility Score: inf
ROOT
ATOM      1  C   UNL A   1      31.474  31.720  26.559  1.00  0.00     0.023 C 
ENDROOT
BRANCH   1   2
ATOM      2  C   UNL A   1      32.709  32.465  27.050  1.00  0.00     0.116 C 
BRANCH   2   3
ATOM      3  N   UNL A   1      32.409  33.822  27.478  1.00  0.00    -0.352 N 
ATOM      4  O   UNL A   1      32.507  35.646  28.803  1.00  0.00    -0.269 OA
ATOM      5  C   UNL A   1      32.996  34.573  28.466  1.00  0.00     0.251 C 
ATOM      6  H   UNL A   1      31.680  34.267  26.989  1.00  0.00     0.163 HD
BRANCH   5   7
ATOM      7  C   UNL A   1      34.206  34.066  29.144  1.00  0.00     0.039 A 
ATOM      8  C   UNL A   1      35.475  34.512  28.767  1.00  0.00     0.014 A 
ATOM      9  C   UNL A   1      34.061  33.123  30.165  1.00  0.00     0.014 A 
ATOM     10  C   UNL A   1      36.606  33.911  29.308  1.00  0.00     0.010 A 
ATOM     11  C   UNL A   1      35.197  32.583  30.767  1.00  0.00     0.010 A 
ATOM     12  C   UNL A   1      36.478  32.949  30.322  1.00  0.00    -0.014 A 
BRANCH  12  13
ATOM     13  C   UNL A   1      37.686  32.360  30.948  1.00  0.00     0.031 A 
ATOM     14  C   UNL A   1      38.451  31.269  30.258  1.00  0.00     0.074 A 
ATOM     15  C   UNL A   1      38.068  32.792  32.164  1.00  0.00     0.049 A 
ATOM     16  N   UNL A   1      39.464  30.563  30.696  1.00  0.00    -0.248 NA
ATOM     17  C   UNL A   1      38.014  30.914  28.901  1.00  0.00     0.031 C 
ATOM     18  C   UNL A   1      37.405  33.851  32.926  1.00  0.00     0.029 A 
ATOM     19  N   UNL A   1      39.095  32.387  32.977  1.00  0.00    -0.354 N 
ATOM     20  C   UNL A   1      39.769  29.666  29.682  1.00  0.00     0.074 A 
ATOM     21  C   UNL A   1      38.815  29.897  28.616  1.00  0.00     0.031 C 
ATOM     22  C   UNL A   1      38.044  34.018  34.092  1.00  0.00     0.029 A 
ATOM     23  C   UNL A   1      39.116  33.032  34.188  1.00  0.00     0.049 A 
ATOM     24  H   UNL A   1      39.752  31.701  32.718  1.00  0.00     0.167 HD
ATOM     25  C   UNL A   1      40.756  28.738  29.646  1.00  0.00     0.037 A 
ATOM     26  C   UNL A   1      39.883  32.828  35.274  1.00  0.00     0.037 A 
ATOM     27  C   UNL A   1      41.697  28.520  30.716  1.00  0.00     0.049 A 
ATOM     28  C   UNL A   1      40.936  31.757  35.234  1.00  0.00     0.074 A 
ATOM     29  C   UNL A   1      42.756  27.631  30.766  1.00  0.00     0.029 A 
ATOM     30  N   UNL A   1      41.682  29.190  31.932  1.00  0.00    -0.354 N 
ATOM     31  N   UNL A   1      41.238  30.933  34.260  1.00  0.00    -0.248 NA
ATOM     32  C   UNL A   1      41.755  31.588  36.440  1.00  0.00     0.031 C 
ATOM     33  C   UNL A   1      43.338  27.714  32.036  1.00  0.00     0.029 A 
ATOM     34  C   UNL A   1      42.692  28.710  32.750  1.00  0.00     0.049 A 
ATOM     35  H   UNL A   1      41.047  29.901  32.177  1.00  0.00     0.167 HD
ATOM     36  C   UNL A   1      42.302  30.172  34.721  1.00  0.00     0.074 A 
ATOM     37  C   UNL A   1      42.594  30.632  36.063  1.00  0.00     0.031 C 
ATOM     38  C   UNL A   1      42.981  29.187  34.082  1.00  0.00     0.037 A 
BRANCH  25  39
ATOM     39  C   UNL A   1      40.841  27.860  28.428  1.00  0.00     0.064 A 
ATOM     40  C   UNL A   1      40.180  26.625  28.352  1.00  0.00     0.173 A 
ATOM     41  C   UNL A   1      41.588  28.269  27.311  1.00  0.00     0.173 A 
ATOM     42  F   UNL A   1      39.457  26.180  29.391  1.00  0.00    -0.203 F 
ATOM     43  C   UNL A   1      40.302  25.812  27.226  1.00  0.00     0.198 A 
ATOM     44  C   UNL A   1      41.677  27.472  26.173  1.00  0.00     0.198 A 
ATOM     45  F   UNL A   1      42.232  29.445  27.321  1.00  0.00    -0.203 F 
ATOM     46  F   UNL A   1      39.717  24.606  27.207  1.00  0.00    -0.200 F 
ATOM     47  C   UNL A   1      41.046  26.238  26.137  1.00  0.00     0.200 A 
ATOM     48  F   UNL A   1      42.383  27.894  25.115  1.00  0.00    -0.200 F 
ATOM     49  F   UNL A   1      41.164  25.454  25.056  1.00  0.00    -0.200 F 
ENDBRANCH  25  39
BRANCH  26  50
ATOM     50  C   UNL A   1      39.662  33.658  36.484  1.00  0.00     0.064 A 
ATOM     51  C   UNL A   1      40.239  34.929  36.603  1.00  0.00     0.173 A 
ATOM     52  C   UNL A   1      38.828  33.218  37.524  1.00  0.00     0.173 A 
ATOM     53  F   UNL A   1      41.054  35.386  35.641  1.00  0.00    -0.203 F 
ATOM     54  C   UNL A   1      39.997  35.725  37.719  1.00  0.00     0.198 A 
ATOM     55  C   UNL A   1      38.563  34.027  38.625  1.00  0.00     0.198 A 
ATOM     56  F   UNL A   1      38.243  32.013  37.452  1.00  0.00    -0.203 F 
ATOM     57  F   UNL A   1      40.584  36.925  37.823  1.00  0.00    -0.200 F 
ATOM     58  C   UNL A   1      39.151  35.279  38.724  1.00  0.00     0.200 A 
ATOM     59  F   UNL A   1      37.727  33.601  39.582  1.00  0.00    -0.200 F 
ATOM     60  F   UNL A   1      38.904  36.055  39.788  1.00  0.00    -0.200 F 
ENDBRANCH  26  50
BRANCH  38  61
ATOM     61  C   UNL A   1      44.150  28.573  34.796  1.00  0.00     0.064 A 
ATOM     62  C   UNL A   1      45.430  29.144  34.759  1.00  0.00     0.173 A 
ATOM     63  C   UNL A   1      43.966  27.428  35.588  1.00  0.00     0.173 A 
ATOM     64  F   UNL A   1      45.665  30.229  34.004  1.00  0.00    -0.203 F 
ATOM     65  C   UNL A   1      46.484  28.584  35.478  1.00  0.00     0.198 A 
ATOM     66  C   UNL A   1      45.012  26.891  36.330  1.00  0.00     0.198 A 
ATOM     67  F   UNL A   1      42.760  26.843  35.660  1.00  0.00    -0.203 F 
ATOM     68  F   UNL A   1      47.708  29.125  35.398  1.00  0.00    -0.200 F 
ATOM     69  C   UNL A   1      46.273  27.466  36.271  1.00  0.00     0.200 A 
ATOM     70  F   UNL A   1      44.800  25.820  37.108  1.00  0.00    -0.200 F 
ATOM     71  F   UNL A   1      47.283  26.942  36.976  1.00  0.00    -0.200 F 
ENDBRANCH  38  61
ENDBRANCH  12  13
ENDBRANCH   5   7
ENDBRANCH   2   3
ENDBRANCH   1   2
BRANCH   1  72
ATOM     72  C   UNL A   1      31.630  30.204  26.494  1.00  0.00     0.023 C 
BRANCH  72  73
ATOM     73  C   UNL A   1      31.777  29.641  25.085  1.00  0.00     0.116 C 
BRANCH  73  74
ATOM     74  N   UNL A   1      30.648  29.982  24.236  1.00  0.00    -0.352 N 
ATOM     75  C   UNL A   1      29.974  29.166  23.366  1.00  0.00     0.252 C 
ATOM     76  H   UNL A   1      30.330  30.912  24.292  1.00  0.00     0.163 HD
ATOM     77  O   UNL A   1      29.139  29.615  22.590  1.00  0.00    -0.269 OA
BRANCH  75  78
ATOM     78  C   UNL A   1      30.284  27.734  23.368  1.00  0.00     0.058 A 
ATOM     79  C   UNL A   1      29.835  26.888  24.382  1.00  0.00     0.017 A 
ATOM     80  C   UNL A   1      31.077  27.219  22.362  1.00  0.00     0.125 A 
ATOM     81  C   UNL A   1      30.220  25.554  24.362  1.00  0.00     0.030 A 
ATOM     82  N   UNL A   1      31.472  25.928  22.330  1.00  0.00    -0.255 NA
ATOM     83  C   UNL A   1      31.022  25.101  23.313  1.00  0.00     0.095 A 
BRANCH  83  84
ATOM     84  C   UNL A   1      31.284  23.608  23.149  1.00  0.00     0.319 C 
BRANCH  84  85
ATOM     85  N   UNL A   1      32.239  23.021  24.119  1.00  0.00    -0.327 N 
ATOM     86  C   UNL A   1      33.512  23.786  24.161  1.00  0.00     0.284 C 
ATOM     87  C   UNL A   1      32.440  21.576  23.908  1.00  0.00     0.289 C 
ATOM     88  H   UNL A   1      31.819  23.104  25.044  1.00  0.00     0.348 HD
ATOM     89  C   UNL A   1      34.793  23.095  24.695  1.00  0.00     0.183 C 
ATOM     90  C   UNL A   1      33.405  21.015  24.947  1.00  0.00     0.161 C 
ATOM     91  N   UNL A   1      34.691  21.661  24.830  1.00  0.00    -0.309 N 
ATOM     92  C   UNL A   1      33.756  19.539  24.769  1.00  0.00     0.148 C 
ATOM     93  C   UNL A   1      35.728  20.768  24.994  1.00  0.00     0.318 C 
ATOM     94  N   UNL A   1      35.171  19.498  25.041  1.00  0.00    -0.336 N 
ATOM     95  O   UNL A   1      36.920  21.013  25.068  1.00  0.00    -0.249 OA
ATOM     96  H   UNL A   1      35.676  18.675  25.235  1.00  0.00     0.165 HD
ENDBRANCH  84  85
ENDBRANCH  83  84
ENDBRANCH  75  78
ENDBRANCH  73  74
ENDBRANCH  72  73
ENDBRANCH   1  72
TORSDOF 13
ENDMDL
MODEL 2
REMARK VINA RESULT:     -12.9      0.228      1.143
REMARK SMILES O=C(NCCCCNC(=O)c1ccc(C[N@@H+]2CCN3C(=O)NC[C@@H]3C2)nc1)c1ccc(-c2c3nc(c(-c4c(F)c(F)c(F)c(F)c4F)c4ccc([nH]4)c(-c4c(F)c(F)c(F)c(F)c4F)c4nc(c(-c5c(F)c(F)c(F)c(F)c5F)c5ccc2[nH]5)C=C4)C=C3)cc1
REMARK SMILES IDX 5 1 4 2 3 3 1 4 2 5 28 7 29 8 90 9 30 10 89 11 31 12 32 13
REMARK SMILES IDX 33 14 83 15 34 16 88 17 82 18 84 19 35 20 87 21 81 22 80 23
REMARK SMILES IDX 36 25 68 26 48 27 67 28 49 29 52 30 66 31 85 32 50 33 51 34
REMARK SMILES IDX 65 36 86 37 53 38 37 39 38 40 46 41 39 42 40 43 44 44 47 45
REMARK SMILES IDX 41 46 42 47 45 48 43 49 69 50 70 51 78 52 71 53 72 54 76 55
REMARK SMILES IDX 79 56 73 57 74 58 77 59 75 60 54 61 55 62 63 63 56 64 57 65
REMARK SMILES IDX 61 66 64 67 58 68 59 69 62 70 60 71 6 72 7 73 8 74 9 75
REMARK SMILES IDX 10 77 11 78 12 79 27 80 13 81 26 82 14 83 15 84 16 85 17 86
REMARK SMILES IDX 25 87 18 89 24 90 19 91 23 92 20 93 22 94 21 95
REMARK H PARENT 3 6 84 24 52 35 8 76 16 88 22 96
REMARK Flexibility Score: inf
ROOT
ATOM      1  C   UNL A   1      31.512  31.683  26.811  1.00  0.00     0.023 C 
ENDROOT
BRANCH   1   2
ATOM      2  C   UNL A   1      32.759  32.538  26.997  1.00  0.00     0.116 C 
BRANCH   2   3
ATOM      3  N   UNL A   1      32.452  33.877  27.475  1.00  0.00    -0.352 N 
ATOM      4  O   UNL A   1      32.528  35.645  28.874  1.00  0.00    -0.269 OA
ATOM      5  C   UNL A   1      33.022  34.587  28.502  1.00  0.00     0.251 C 
ATOM      6  H   UNL A   1      31.731  34.342  26.992  1.00  0.00     0.163 HD
BRANCH   5   7
ATOM      7  C   UNL A   1      34.221  34.051  29.179  1.00  0.00     0.039 A 
ATOM      8  C   UNL A   1      35.500  34.456  28.791  1.00  0.00     0.014 A 
ATOM      9  C   UNL A   1      34.054  33.123  30.209  1.00  0.00     0.014 A 
ATOM     10  C   UNL A   1      36.616  33.828  29.332  1.00  0.00     0.010 A 
ATOM     11  C   UNL A   1      35.177  32.556  30.812  1.00  0.00     0.010 A 
ATOM     12  C   UNL A   1      36.466  32.881  30.356  1.00  0.00    -0.014 A 
BRANCH  12  13
ATOM     13  C   UNL A   1      37.660  32.263  30.982  1.00  0.00     0.031 A 
ATOM     14  C   UNL A   1      38.409  31.165  30.285  1.00  0.00     0.074 A 
ATOM     15  C   UNL A   1      38.043  32.675  32.204  1.00  0.00     0.049 A 
ATOM     16  N   UNL A   1      39.406  30.436  30.720  1.00  0.00    -0.248 NA
ATOM     17  C   UNL A   1      37.972  30.833  28.921  1.00  0.00     0.031 C 
ATOM     18  C   UNL A   1      37.396  33.738  32.975  1.00  0.00     0.029 A 
ATOM     19  N   UNL A   1      39.058  32.243  33.018  1.00  0.00    -0.354 N 
ATOM     20  C   UNL A   1      39.700  29.544  29.698  1.00  0.00     0.074 A 
ATOM     21  C   UNL A   1      38.756  29.804  28.630  1.00  0.00     0.031 C 
ATOM     22  C   UNL A   1      38.031  33.880  34.146  1.00  0.00     0.029 A 
ATOM     23  C   UNL A   1      39.084  32.874  34.236  1.00  0.00     0.049 A 
ATOM     24  H   UNL A   1      39.704  31.548  32.755  1.00  0.00     0.167 HD
ATOM     25  C   UNL A   1      40.670  28.599  29.657  1.00  0.00     0.037 A 
ATOM     26  C   UNL A   1      39.842  32.644  35.323  1.00  0.00     0.037 A 
ATOM     27  C   UNL A   1      41.601  28.352  30.729  1.00  0.00     0.049 A 
ATOM     28  C   UNL A   1      40.875  31.555  35.277  1.00  0.00     0.074 A 
ATOM     29  C   UNL A   1      42.643  27.443  30.775  1.00  0.00     0.029 A 
ATOM     30  N   UNL A   1      41.592  29.010  31.953  1.00  0.00    -0.354 N 
ATOM     31  N   UNL A   1      41.167  30.736  34.296  1.00  0.00    -0.248 NA
ATOM     32  C   UNL A   1      41.685  31.358  36.486  1.00  0.00     0.031 C 
ATOM     33  C   UNL A   1      43.220  27.502  32.049  1.00  0.00     0.029 A 
ATOM     34  C   UNL A   1      42.589  28.503  32.771  1.00  0.00     0.049 A 
ATOM     35  H   UNL A   1      40.968  29.730  32.202  1.00  0.00     0.167 HD
ATOM     36  C   UNL A   1      42.215  29.950  34.755  1.00  0.00     0.074 A 
ATOM     37  C   UNL A   1      42.509  30.391  36.103  1.00  0.00     0.031 C 
ATOM     38  C   UNL A   1      42.879  28.960  34.109  1.00  0.00     0.037 A 
BRANCH  25  39
ATOM     39  C   UNL A   1      40.745  27.733  28.430  1.00  0.00     0.064 A 
ATOM     40  C   UNL A   1      40.048  26.519  28.331  1.00  0.00     0.173 A 
ATOM     41  C   UNL A   1      41.520  28.130  27.329  1.00  0.00     0.173 A 
ATOM     42  F   UNL A   1      39.297  26.085  29.355  1.00  0.00    -0.203 F 
ATOM     43  C   UNL A   1      40.161  25.716  27.197  1.00  0.00     0.198 A 
ATOM     44  C   UNL A   1      41.600  27.344  26.183  1.00  0.00     0.198 A 
ATOM     45  F   UNL A   1      42.199  29.287  27.361  1.00  0.00    -0.203 F 
ATOM     46  F   UNL A   1      39.540  24.529  27.156  1.00  0.00    -0.200 F 
ATOM     47  C   UNL A   1      40.933  26.131  26.124  1.00  0.00     0.200 A 
ATOM     48  F   UNL A   1      42.333  27.756  25.139  1.00  0.00    -0.200 F 
ATOM     49  F   UNL A   1      41.042  25.356  25.035  1.00  0.00    -0.200 F 
ENDBRANCH  25  39
BRANCH  26  50
ATOM     50  C   UNL A   1      39.630  33.465  36.542  1.00  0.00     0.064 A 
ATOM     51  C   UNL A   1      40.264  34.705  36.696  1.00  0.00     0.173 A 
ATOM     52  C   UNL A   1      38.749  33.051  37.553  1.00  0.00     0.173 A 
ATOM     53  F   UNL A   1      41.125  35.137  35.762  1.00  0.00    -0.203 F 
ATOM     54  C   UNL A   1      40.031  35.495  37.819  1.00  0.00     0.198 A 
ATOM     55  C   UNL A   1      38.495  33.855  38.660  1.00  0.00     0.198 A 
ATOM     56  F   UNL A   1      38.109  31.877  37.447  1.00  0.00    -0.203 F 
ATOM     57  F   UNL A   1      40.672  36.664  37.957  1.00  0.00    -0.200 F 
ATOM     58  C   UNL A   1      39.139  35.075  38.795  1.00  0.00     0.200 A 
ATOM     59  F   UNL A   1      37.615  33.455  39.588  1.00  0.00    -0.200 F 
ATOM     60  F   UNL A   1      38.902  35.846  39.865  1.00  0.00    -0.200 F 
ENDBRANCH  26  50
BRANCH  38  61
ATOM     61  C   UNL A   1      44.034  28.317  34.823  1.00  0.00     0.064 A 
ATOM     62  C   UNL A   1      43.883  27.146  35.577  1.00  0.00     0.173 A 
ATOM     63  C   UNL A   1      45.326  28.851  34.689  1.00  0.00     0.173 A 
ATOM     64  F   UNL A   1      42.668  26.604  35.750  1.00  0.00    -0.203 F 
ATOM     65  C   UNL A   1      44.982  26.538  36.182  1.00  0.00     0.198 A 
ATOM     66  C   UNL A   1      46.425  28.224  35.267  1.00  0.00     0.198 A 
ATOM     67  F   UNL A   1      45.525  29.970  33.975  1.00  0.00    -0.203 F 
ATOM     68  F   UNL A   1      44.810  25.439  36.929  1.00  0.00    -0.200 F 
ATOM     69  C   UNL A   1      46.252  27.071  36.017  1.00  0.00     0.200 A 
ATOM     70  F   UNL A   1      47.653  28.732  35.092  1.00  0.00    -0.200 F 
ATOM     71  F   UNL A   1      47.309  26.474  36.583  1.00  0.00    -0.200 F 
ENDBRANCH  38  61
ENDBRANCH  12  13
ENDBRANCH   5   7
ENDBRANCH   2   3
ENDBRANCH   1   2
BRANCH   1  72
ATOM     72  C   UNL A   1      31.777  30.184  26.711  1.00  0.00     0.023 C 
BRANCH  72  73
ATOM     73  C   UNL A   1      31.991  29.670  25.292  1.00  0.00     0.116 C 
BRANCH  73  74
ATOM     74  N   UNL A   1      30.925  30.078  24.393  1.00  0.00    -0.352 N 
ATOM     75  C   UNL A   1      30.275  29.315  23.459  1.00  0.00     0.252 C 
ATOM     76  H   UNL A   1      30.636  31.017  24.462  1.00  0.00     0.163 HD
ATOM     77  O   UNL A   1      29.503  29.819  22.653  1.00  0.00    -0.269 OA
BRANCH  75  78
ATOM     78  C   UNL A   1      30.537  27.875  23.429  1.00  0.00     0.058 A 
ATOM     79  C   UNL A   1      30.023  27.016  24.401  1.00  0.00     0.017 A 
ATOM     80  C   UNL A   1      31.347  27.361  22.436  1.00  0.00     0.125 A 
ATOM     81  C   UNL A   1      30.364  25.670  24.355  1.00  0.00     0.030 A 
ATOM     82  N   UNL A   1      31.699  26.058  22.379  1.00  0.00    -0.255 NA
ATOM     83  C   UNL A   1      31.187  25.220  23.321  1.00  0.00     0.095 A 
BRANCH  83  84
ATOM     84  C   UNL A   1      31.404  23.724  23.122  1.00  0.00     0.319 C 
BRANCH  84  85
ATOM     85  N   UNL A   1      32.313  23.079  24.100  1.00  0.00    -0.327 N 
ATOM     86  C   UNL A   1      33.610  23.797  24.193  1.00  0.00     0.284 C 
ATOM     87  C   UNL A   1      32.468  21.633  23.856  1.00  0.00     0.289 C 
ATOM     88  H   UNL A   1      31.872  23.154  25.016  1.00  0.00     0.348 HD
ATOM     89  C   UNL A   1      34.852  23.047  24.740  1.00  0.00     0.183 C 
ATOM     90  C   UNL A   1      33.386  21.013  24.903  1.00  0.00     0.161 C 
ATOM     91  N   UNL A   1      34.697  21.615  24.835  1.00  0.00    -0.309 N 
ATOM     92  C   UNL A   1      33.690  19.530  24.695  1.00  0.00     0.148 C 
ATOM     93  C   UNL A   1      35.697  20.681  25.001  1.00  0.00     0.318 C 
ATOM     94  N   UNL A   1      35.095  19.431  25.001  1.00  0.00    -0.336 N 
ATOM     95  O   UNL A   1      36.895  20.882  25.111  1.00  0.00    -0.249 OA
ATOM     96  H   UNL A   1      35.566  18.586  25.186  1.00  0.00     0.165 HD
ENDBRANCH  84  85
ENDBRANCH  83  84
ENDBRANCH  75  78
ENDBRANCH  73  74
ENDBRANCH  72  73
ENDBRANCH   1  72
TORSDOF 13
ENDMDL
MODEL 3
REMARK VINA RESULT:     -12.8      0.226      1.951
REMARK SMILES O=C(NCCCCNC(=O)c1ccc(C[N@@H+]2CCN3C(=O)NC[C@@H]3C2)nc1)c1ccc(-c2c3nc(c(-c4c(F)c(F)c(F)c(F)c4F)c4ccc([nH]4)c(-c4c(F)c(F)c(F)c(F)c4F)c4nc(c(-c5c(F)c(F)c(F)c(F)c5F)c5ccc2[nH]5)C=C4)C=C3)cc1
REMARK SMILES IDX 5 1 4 2 3 3 1 4 2 5 28 7 29 8 90 9 30 10 89 11 31 12 32 13
REMARK SMILES IDX 33 14 83 15 34 16 88 17 82 18 84 19 35 20 87 21 81 22 80 23
REMARK SMILES IDX 36 25 68 26 48 27 67 28 49 29 52 30 66 31 85 32 50 33 51 34
REMARK SMILES IDX 65 36 86 37 53 38 37 39 38 40 46 41 39 42 40 43 44 44 47 45
REMARK SMILES IDX 41 46 42 47 45 48 43 49 69 50 70 51 78 52 71 53 72 54 76 55
REMARK SMILES IDX 79 56 73 57 74 58 77 59 75 60 54 61 55 62 63 63 56 64 57 65
REMARK SMILES IDX 61 66 64 67 58 68 59 69 62 70 60 71 6 72 7 73 8 74 9 75
REMARK SMILES IDX 10 77 11 78 12 79 27 80 13 81 26 82 14 83 15 84 16 85 17 86
REMARK SMILES IDX 25 87 18 89 24 90 19 91 23 92 20 93 22 94 21 95
REMARK H PARENT 3 6 84 24 52 35 8 76 16 88 22 96
REMARK Flexibility Score: inf
ROOT
ATOM      1  C   UNL A   1      31.446  31.815  26.562  1.00  0.00     0.023 C 
ENDROOT
BRANCH   1   2
ATOM      2  C   UNL A   1      32.679  32.526  27.107  1.00  0.00     0.116 C 
BRANCH   2   3
ATOM      3  N   UNL A   1      32.406  33.902  27.491  1.00  0.00    -0.352 N 
ATOM      4  O   UNL A   1      32.536  35.763  28.760  1.00  0.00    -0.269 OA
ATOM      5  C   UNL A   1      33.003  34.670  28.460  1.00  0.00     0.251 C 
ATOM      6  H   UNL A   1      31.690  34.348  26.984  1.00  0.00     0.163 HD
BRANCH   5   7
ATOM      7  C   UNL A   1      34.198  34.158  29.161  1.00  0.00     0.039 A 
ATOM      8  C   UNL A   1      35.480  34.533  28.753  1.00  0.00     0.014 A 
ATOM      9  C   UNL A   1      34.025  33.282  30.235  1.00  0.00     0.014 A 
ATOM     10  C   UNL A   1      36.592  33.923  29.322  1.00  0.00     0.010 A 
ATOM     11  C   UNL A   1      35.144  32.735  30.863  1.00  0.00     0.010 A 
ATOM     12  C   UNL A   1      36.435  33.027  30.391  1.00  0.00    -0.014 A 
BRANCH  12  13
ATOM     13  C   UNL A   1      37.624  32.430  31.045  1.00  0.00     0.031 A 
ATOM     14  C   UNL A   1      38.375  31.307  30.391  1.00  0.00     0.074 A 
ATOM     15  C   UNL A   1      38.001  32.885  32.254  1.00  0.00     0.049 A 
ATOM     16  N   UNL A   1      39.369  30.593  30.858  1.00  0.00    -0.248 NA
ATOM     17  C   UNL A   1      37.945  30.927  29.038  1.00  0.00     0.031 C 
ATOM     18  C   UNL A   1      37.352  33.975  32.982  1.00  0.00     0.029 A 
ATOM     19  N   UNL A   1      39.012  32.480  33.088  1.00  0.00    -0.354 N 
ATOM     20  C   UNL A   1      39.667  29.665  29.869  1.00  0.00     0.074 A 
ATOM     21  C   UNL A   1      38.730  29.888  28.788  1.00  0.00     0.031 C 
ATOM     22  C   UNL A   1      37.981  34.158  34.151  1.00  0.00     0.029 A 
ATOM     23  C   UNL A   1      39.032  33.154  34.283  1.00  0.00     0.049 A 
ATOM     24  H   UNL A   1      39.658  31.775  32.854  1.00  0.00     0.167 HD
ATOM     25  C   UNL A   1      40.636  28.717  29.868  1.00  0.00     0.037 A 
ATOM     26  C   UNL A   1      39.783  32.962  35.382  1.00  0.00     0.037 A 
ATOM     27  C   UNL A   1      41.560  28.508  30.953  1.00  0.00     0.049 A 
ATOM     28  C   UNL A   1      40.815  31.871  35.380  1.00  0.00     0.074 A 
ATOM     29  C   UNL A   1      42.601  27.599  31.036  1.00  0.00     0.029 A 
ATOM     30  N   UNL A   1      41.546  29.208  32.152  1.00  0.00    -0.354 N 
ATOM     31  N   UNL A   1      41.111  31.017  34.431  1.00  0.00    -0.248 NA
ATOM     32  C   UNL A   1      41.618  31.716  36.600  1.00  0.00     0.031 C 
ATOM     33  C   UNL A   1      43.171  27.703  32.310  1.00  0.00     0.029 A 
ATOM     34  C   UNL A   1      42.538  28.729  32.993  1.00  0.00     0.049 A 
ATOM     35  H   UNL A   1      40.922  29.937  32.372  1.00  0.00     0.167 HD
ATOM     36  C   UNL A   1      42.155  30.246  34.922  1.00  0.00     0.074 A 
ATOM     37  C   UNL A   1      42.442  30.735  36.256  1.00  0.00     0.031 C 
ATOM     38  C   UNL A   1      42.821  29.233  34.316  1.00  0.00     0.037 A 
BRANCH  25  39
ATOM     39  C   UNL A   1      40.716  27.808  28.673  1.00  0.00     0.064 A 
ATOM     40  C   UNL A   1      41.508  28.114  27.555  1.00  0.00     0.173 A 
ATOM     41  C   UNL A   1      39.995  26.603  28.649  1.00  0.00     0.173 A 
ATOM     42  F   UNL A   1      42.214  29.254  27.519  1.00  0.00    -0.203 F 
ATOM     43  C   UNL A   1      41.540  27.273  26.445  1.00  0.00     0.198 A 
ATOM     44  C   UNL A   1      40.058  25.747  27.553  1.00  0.00     0.198 A 
ATOM     45  F   UNL A   1      39.229  26.253  29.693  1.00  0.00    -0.203 F 
ATOM     46  F   UNL A   1      42.250  27.622  25.363  1.00  0.00    -0.200 F 
ATOM     47  C   UNL A   1      40.818  26.089  26.446  1.00  0.00     0.200 A 
ATOM     48  F   UNL A   1      39.373  24.595  27.565  1.00  0.00    -0.200 F 
ATOM     49  F   UNL A   1      40.848  25.282  25.375  1.00  0.00    -0.200 F 
ENDBRANCH  25  39
BRANCH  26  50
ATOM     50  C   UNL A   1      39.566  33.826  36.570  1.00  0.00     0.064 A 
ATOM     51  C   UNL A   1      38.753  33.404  37.630  1.00  0.00     0.173 A 
ATOM     52  C   UNL A   1      40.207  35.069  36.691  1.00  0.00     0.173 A 
ATOM     53  F   UNL A   1      38.108  32.230  37.553  1.00  0.00    -0.203 F 
ATOM     54  C   UNL A   1      38.584  34.196  38.763  1.00  0.00     0.198 A 
ATOM     55  C   UNL A   1      40.061  35.845  37.837  1.00  0.00     0.198 A 
ATOM     56  F   UNL A   1      41.005  35.511  35.708  1.00  0.00    -0.203 F 
ATOM     57  F   UNL A   1      37.778  33.783  39.751  1.00  0.00    -0.200 F 
ATOM     58  C   UNL A   1      39.246  35.410  38.871  1.00  0.00     0.200 A 
ATOM     59  F   UNL A   1      40.721  37.006  37.946  1.00  0.00    -0.200 F 
ATOM     60  F   UNL A   1      39.097  36.161  39.970  1.00  0.00    -0.200 F 
ENDBRANCH  26  50
BRANCH  38  61
ATOM     61  C   UNL A   1      43.971  28.614  35.058  1.00  0.00     0.064 A 
ATOM     62  C   UNL A   1      43.809  27.486  35.873  1.00  0.00     0.173 A 
ATOM     63  C   UNL A   1      45.268  29.124  34.893  1.00  0.00     0.173 A 
ATOM     64  F   UNL A   1      42.588  26.969  36.079  1.00  0.00    -0.203 F 
ATOM     65  C   UNL A   1      44.903  26.897  36.505  1.00  0.00     0.198 A 
ATOM     66  C   UNL A   1      46.362  28.515  35.499  1.00  0.00     0.198 A 
ATOM     67  F   UNL A   1      45.478  30.202  34.121  1.00  0.00    -0.203 F 
ATOM     68  F   UNL A   1      44.721  25.841  37.309  1.00  0.00    -0.200 F 
ATOM     69  C   UNL A   1      46.179  27.405  36.308  1.00  0.00     0.200 A 
ATOM     70  F   UNL A   1      47.596  28.999  35.293  1.00  0.00    -0.200 F 
ATOM     71  F   UNL A   1      47.231  26.825  36.901  1.00  0.00    -0.200 F 
ENDBRANCH  38  61
ENDBRANCH  12  13
ENDBRANCH   5   7
ENDBRANCH   2   3
ENDBRANCH   1   2
BRANCH   1  72
ATOM     72  C   UNL A   1      31.552  30.294  26.528  1.00  0.00     0.023 C 
BRANCH  72  73
ATOM     73  C   UNL A   1      31.736  29.702  25.135  1.00  0.00     0.116 C 
BRANCH  73  74
ATOM     74  N   UNL A   1      30.653  30.063  24.236  1.00  0.00    -0.352 N 
ATOM     75  C   UNL A   1      30.027  29.269  23.312  1.00  0.00     0.252 C 
ATOM     76  H   UNL A   1      30.330  30.992  24.299  1.00  0.00     0.163 HD
ATOM     77  O   UNL A   1      29.234  29.738  22.504  1.00  0.00    -0.269 OA
BRANCH  75  78
ATOM     78  C   UNL A   1      30.340  27.839  23.294  1.00  0.00     0.058 A 
ATOM     79  C   UNL A   1      29.840  26.966  24.261  1.00  0.00     0.017 A 
ATOM     80  C   UNL A   1      31.186  27.350  22.318  1.00  0.00     0.125 A 
ATOM     81  C   UNL A   1      30.229  25.633  24.227  1.00  0.00     0.030 A 
ATOM     82  N   UNL A   1      31.585  26.060  22.274  1.00  0.00    -0.255 NA
ATOM     83  C   UNL A   1      31.086  25.209  23.210  1.00  0.00     0.095 A 
BRANCH  83  84
ATOM     84  C   UNL A   1      31.360  23.720  23.022  1.00  0.00     0.319 C 
BRANCH  84  85
ATOM     85  N   UNL A   1      32.271  23.112  24.021  1.00  0.00    -0.327 N 
ATOM     86  C   UNL A   1      33.544  23.870  24.130  1.00  0.00     0.284 C 
ATOM     87  C   UNL A   1      32.476  21.669  23.793  1.00  0.00     0.289 C 
ATOM     88  H   UNL A   1      31.813  23.180  24.930  1.00  0.00     0.348 HD
ATOM     89  C   UNL A   1      34.799  23.164  24.705  1.00  0.00     0.183 C 
ATOM     90  C   UNL A   1      33.394  21.086  24.861  1.00  0.00     0.161 C 
ATOM     91  N   UNL A   1      34.686  21.728  24.810  1.00  0.00    -0.309 N 
ATOM     92  C   UNL A   1      33.746  19.612  24.671  1.00  0.00     0.148 C 
ATOM     93  C   UNL A   1      35.711  20.827  25.001  1.00  0.00     0.318 C 
ATOM     94  N   UNL A   1      35.149  19.559  25.001  1.00  0.00    -0.336 N 
ATOM     95  O   UNL A   1      36.901  21.066  25.130  1.00  0.00    -0.249 OA
ATOM     96  H   UNL A   1      35.642  18.731  25.201  1.00  0.00     0.165 HD
ENDBRANCH  84  85
ENDBRANCH  83  84
ENDBRANCH  75  78
ENDBRANCH  73  74
ENDBRANCH  72  73
ENDBRANCH   1  72
TORSDOF 13
ENDMDL
