MODEL 1
REMARK VINA RESULT:     -12.2      0.000      0.000
REMARK SMILES O=C(NCCCCNC(=O)C1([NH+]2CCOCC2)CCC1)c1ccc(-c2c3nc(c(-c4c(F)c(F)c(F)c(F)c4F)c4ccc([nH]4)c(-c4c(F)c(F)c(F)c(F)c4F)c4nc(c(-c5c(F)c(F)c(F)c(F)c5F)c5ccc2[nH]5)C=C4)C=C3)cc1
REMARK SMILES IDX 5 1 4 2 3 3 1 4 2 5 21 7 22 8 83 9 23 10 82 11 24 12 25 13
REMARK SMILES IDX 26 14 76 15 27 16 81 17 75 18 77 19 28 20 80 21 74 22 73 23
REMARK SMILES IDX 29 25 61 26 41 27 60 28 42 29 45 30 59 31 78 32 43 33 44 34
REMARK SMILES IDX 58 36 79 37 46 38 30 39 31 40 39 41 32 42 33 43 37 44 40 45
REMARK SMILES IDX 34 46 35 47 38 48 36 49 62 50 63 51 71 52 64 53 65 54 69 55
REMARK SMILES IDX 72 56 66 57 67 58 70 59 68 60 47 61 48 62 56 63 49 64 50 65
REMARK SMILES IDX 54 66 57 67 51 68 52 69 55 70 53 71 6 72 7 73 8 74 9 75
REMARK SMILES IDX 10 77 11 78 18 79 20 80 19 81 12 82 13 83 17 84 14 86 16 87
REMARK SMILES IDX 15 88
REMARK H PARENT 3 6 77 24 45 35 8 76 12 85
REMARK Flexibility Score: inf
ROOT
ATOM      1  C   UNL A   1      31.518  32.113  26.607  1.00  0.00     0.023 C 
ENDROOT
BRANCH   1   2
ATOM      2  C   UNL A   1      32.679  32.817  27.286  1.00  0.00     0.116 C 
BRANCH   2   3
ATOM      3  N   UNL A   1      32.369  34.189  27.661  1.00  0.00    -0.352 N 
ATOM      4  O   UNL A   1      32.517  36.070  28.906  1.00  0.00    -0.269 OA
ATOM      5  C   UNL A   1      32.972  34.973  28.614  1.00  0.00     0.251 C 
ATOM      6  H   UNL A   1      31.629  34.610  27.165  1.00  0.00     0.163 HD
BRANCH   5   7
ATOM      7  C   UNL A   1      34.164  34.450  29.305  1.00  0.00     0.039 A 
ATOM      8  C   UNL A   1      35.437  34.664  28.767  1.00  0.00     0.014 A 
ATOM      9  C   UNL A   1      33.996  33.695  30.467  1.00  0.00     0.014 A 
ATOM     10  C   UNL A   1      36.530  34.006  29.312  1.00  0.00     0.010 A 
ATOM     11  C   UNL A   1      35.108  33.105  31.063  1.00  0.00     0.010 A 
ATOM     12  C   UNL A   1      36.376  33.235  30.473  1.00  0.00    -0.014 A 
BRANCH  12  13
ATOM     13  C   UNL A   1      37.563  32.619  31.108  1.00  0.00     0.031 A 
ATOM     14  C   UNL A   1      38.307  31.510  30.429  1.00  0.00     0.074 A 
ATOM     15  C   UNL A   1      37.939  33.060  32.321  1.00  0.00     0.049 A 
ATOM     16  N   UNL A   1      39.292  30.779  30.885  1.00  0.00    -0.248 NA
ATOM     17  C   UNL A   1      37.885  31.166  29.063  1.00  0.00     0.031 C 
ATOM     18  C   UNL A   1      37.282  34.138  33.064  1.00  0.00     0.029 A 
ATOM     19  N   UNL A   1      38.952  32.653  33.148  1.00  0.00    -0.354 N 
ATOM     20  C   UNL A   1      39.585  29.868  29.880  1.00  0.00     0.074 A 
ATOM     21  C   UNL A   1      38.668  30.131  28.791  1.00  0.00     0.031 C 
ATOM     22  C   UNL A   1      37.913  34.314  34.231  1.00  0.00     0.029 A 
ATOM     23  C   UNL A   1      38.970  33.316  34.348  1.00  0.00     0.049 A 
ATOM     24  H   UNL A   1      39.602  31.954  32.905  1.00  0.00     0.167 HD
ATOM     25  C   UNL A   1      40.534  28.901  29.877  1.00  0.00     0.037 A 
ATOM     26  C   UNL A   1      39.725  33.116  35.443  1.00  0.00     0.037 A 
ATOM     27  C   UNL A   1      41.450  28.668  30.965  1.00  0.00     0.049 A 
ATOM     28  C   UNL A   1      40.754  32.026  35.423  1.00  0.00     0.074 A 
ATOM     29  C   UNL A   1      42.478  27.746  31.046  1.00  0.00     0.029 A 
ATOM     30  N   UNL A   1      41.441  29.365  32.166  1.00  0.00    -0.354 N 
ATOM     31  N   UNL A   1      41.037  31.181  34.463  1.00  0.00    -0.248 NA
ATOM     32  C   UNL A   1      41.563  31.859  36.635  1.00  0.00     0.031 C 
ATOM     33  C   UNL A   1      43.063  27.855  32.312  1.00  0.00     0.029 A 
ATOM     34  C   UNL A   1      42.431  28.877  33.003  1.00  0.00     0.049 A 
ATOM     35  H   UNL A   1      40.822  30.098  32.389  1.00  0.00     0.167 HD
ATOM     36  C   UNL A   1      42.067  30.389  34.944  1.00  0.00     0.074 A 
ATOM     37  C   UNL A   1      42.365  30.862  36.283  1.00  0.00     0.031 C 
ATOM     38  C   UNL A   1      42.710  29.366  34.331  1.00  0.00     0.037 A 
BRANCH  25  39
ATOM     39  C   UNL A   1      40.604  28.000  28.678  1.00  0.00     0.064 A 
ATOM     40  C   UNL A   1      39.902  26.787  28.618  1.00  0.00     0.173 A 
ATOM     41  C   UNL A   1      41.369  28.370  27.561  1.00  0.00     0.173 A 
ATOM     42  F   UNL A   1      39.165  26.381  29.663  1.00  0.00    -0.203 F 
ATOM     43  C   UNL A   1      39.988  25.964  27.497  1.00  0.00     0.198 A 
ATOM     44  C   UNL A   1      41.432  27.557  26.432  1.00  0.00     0.198 A 
ATOM     45  F   UNL A   1      42.055  29.522  27.563  1.00  0.00    -0.203 F 
ATOM     46  F   UNL A   1      39.348  24.786  27.482  1.00  0.00    -0.200 F 
ATOM     47  C   UNL A   1      40.748  26.352  26.404  1.00  0.00     0.200 A 
ATOM     48  F   UNL A   1      42.158  27.939  25.372  1.00  0.00    -0.200 F 
ATOM     49  F   UNL A   1      40.829  25.557  25.327  1.00  0.00    -0.200 F 
ENDBRANCH  25  39
BRANCH  26  50
ATOM     50  C   UNL A   1      39.498  33.967  36.636  1.00  0.00     0.064 A 
ATOM     51  C   UNL A   1      38.711  33.517  37.702  1.00  0.00     0.173 A 
ATOM     52  C   UNL A   1      40.137  35.209  36.768  1.00  0.00     0.173 A 
ATOM     53  F   UNL A   1      38.073  32.341  37.615  1.00  0.00    -0.203 F 
ATOM     54  C   UNL A   1      38.576  34.277  38.862  1.00  0.00     0.198 A 
ATOM     55  C   UNL A   1      40.022  35.955  37.938  1.00  0.00     0.198 A 
ATOM     56  F   UNL A   1      40.913  35.674  35.778  1.00  0.00    -0.203 F 
ATOM     57  F   UNL A   1      37.808  33.831  39.866  1.00  0.00    -0.200 F 
ATOM     58  C   UNL A   1      39.240  35.489  38.984  1.00  0.00     0.200 A 
ATOM     59  F   UNL A   1      40.683  37.114  38.060  1.00  0.00    -0.200 F 
ATOM     60  F   UNL A   1      39.129  36.205  40.110  1.00  0.00    -0.200 F 
ENDBRANCH  26  50
BRANCH  38  61
ATOM     61  C   UNL A   1      43.820  28.706  35.090  1.00  0.00     0.064 A 
ATOM     62  C   UNL A   1      45.138  29.179  35.019  1.00  0.00     0.173 A 
ATOM     63  C   UNL A   1      43.549  27.625  35.942  1.00  0.00     0.173 A 
ATOM     64  F   UNL A   1      45.447  30.199  34.204  1.00  0.00    -0.203 F 
ATOM     65  C   UNL A   1      46.148  28.585  35.769  1.00  0.00     0.198 A 
ATOM     66  C   UNL A   1      44.557  27.049  36.706  1.00  0.00     0.198 A 
ATOM     67  F   UNL A   1      42.303  27.141  36.042  1.00  0.00    -0.203 F 
ATOM     68  F   UNL A   1      47.408  29.031  35.666  1.00  0.00    -0.200 F 
ATOM     69  C   UNL A   1      45.857  27.527  36.618  1.00  0.00     0.200 A 
ATOM     70  F   UNL A   1      44.272  26.033  37.534  1.00  0.00    -0.200 F 
ATOM     71  F   UNL A   1      46.829  26.965  37.349  1.00  0.00    -0.200 F 
ENDBRANCH  38  61
ENDBRANCH  12  13
ENDBRANCH   5   7
ENDBRANCH   2   3
ENDBRANCH   1   2
BRANCH   1  72
ATOM     72  C   UNL A   1      31.562  30.592  26.694  1.00  0.00     0.023 C 
BRANCH  72  73
ATOM     73  C   UNL A   1      32.194  29.896  25.487  1.00  0.00     0.116 C 
BRANCH  73  74
ATOM     74  N   UNL A   1      31.222  29.748  24.427  1.00  0.00    -0.351 N 
ATOM     75  C   UNL A   1      30.733  28.611  23.817  1.00  0.00     0.281 C 
ATOM     76  H   UNL A   1      30.848  30.593  24.088  1.00  0.00     0.163 HD
ATOM     77  O   UNL A   1      29.992  28.829  22.846  1.00  0.00    -0.268 OA
BRANCH  75  78
ATOM     78  C   UNL A   1      31.042  27.135  24.392  1.00  0.00     0.177 C 
ATOM     79  C   UNL A   1      31.010  27.113  25.957  1.00  0.00     0.079 C 
ATOM     80  C   UNL A   1      29.815  26.168  24.438  1.00  0.00     0.079 C 
ATOM     81  C   UNL A   1      30.102  25.874  25.918  1.00  0.00     0.014 C 
BRANCH  78  82
ATOM     82  N   UNL A   1      32.228  26.444  23.814  1.00  0.00    -0.318 N 
ATOM     83  C   UNL A   1      33.398  27.305  23.580  1.00  0.00     0.291 C 
ATOM     84  C   UNL A   1      32.112  25.399  22.793  1.00  0.00     0.291 C 
ATOM     85  H   UNL A   1      32.369  25.853  24.634  1.00  0.00     0.349 HD
ATOM     86  C   UNL A   1      33.700  27.668  22.120  1.00  0.00     0.221 C 
ATOM     87  C   UNL A   1      32.415  25.861  21.360  1.00  0.00     0.221 C 
ATOM     88  O   UNL A   1      33.689  26.508  21.283  1.00  0.00    -0.370 OA
ENDBRANCH  78  82
ENDBRANCH  75  78
ENDBRANCH  73  74
ENDBRANCH  72  73
ENDBRANCH   1  72
TORSDOF 12
ENDMDL
MODEL 2
REMARK VINA RESULT:     -12.2      0.499      2.134
REMARK SMILES O=C(NCCCCNC(=O)C1([NH+]2CCOCC2)CCC1)c1ccc(-c2c3nc(c(-c4c(F)c(F)c(F)c(F)c4F)c4ccc([nH]4)c(-c4c(F)c(F)c(F)c(F)c4F)c4nc(c(-c5c(F)c(F)c(F)c(F)c5F)c5ccc2[nH]5)C=C4)C=C3)cc1
REMARK SMILES IDX 5 1 4 2 3 3 1 4 2 5 21 7 22 8 83 9 23 10 82 11 24 12 25 13
REMARK SMILES IDX 26 14 76 15 27 16 81 17 75 18 77 19 28 20 80 21 74 22 73 23
REMARK SMILES IDX 29 25 61 26 41 27 60 28 42 29 45 30 59 31 78 32 43 33 44 34
REMARK SMILES IDX 58 36 79 37 46 38 30 39 31 40 39 41 32 42 33 43 37 44 40 45
REMARK SMILES IDX 34 46 35 47 38 48 36 49 62 50 63 51 71 52 64 53 65 54 69 55
REMARK SMILES IDX 72 56 66 57 67 58 70 59 68 60 47 61 48 62 56 63 49 64 50 65
REMARK SMILES IDX 54 66 57 67 51 68 52 69 55 70 53 71 6 72 7 73 8 74 9 75
REMARK SMILES IDX 10 77 11 78 18 79 20 80 19 81 12 82 13 83 17 84 14 86 16 87
REMARK SMILES IDX 15 88
REMARK H PARENT 3 6 77 24 45 35 8 76 12 85
REMARK Flexibility Score: inf
ROOT
ATOM      1  C   UNL A   1      31.590  32.108  26.844  1.00  0.00     0.023 C 
ENDROOT
BRANCH   1   2
ATOM      2  C   UNL A   1      32.802  32.927  27.250  1.00  0.00     0.116 C 
BRANCH   2   3
ATOM      3  N   UNL A   1      32.454  34.259  27.722  1.00  0.00    -0.352 N 
ATOM      4  O   UNL A   1      32.546  36.046  29.104  1.00  0.00    -0.269 OA
ATOM      5  C   UNL A   1      33.030  34.986  28.735  1.00  0.00     0.251 C 
ATOM      6  H   UNL A   1      31.708  34.697  27.252  1.00  0.00     0.163 HD
BRANCH   5   7
ATOM      7  C   UNL A   1      34.230  34.442  29.397  1.00  0.00     0.039 A 
ATOM      8  C   UNL A   1      35.496  34.667  28.848  1.00  0.00     0.014 A 
ATOM      9  C   UNL A   1      34.076  33.660  30.543  1.00  0.00     0.014 A 
ATOM     10  C   UNL A   1      36.594  33.993  29.361  1.00  0.00     0.010 A 
ATOM     11  C   UNL A   1      35.194  33.053  31.109  1.00  0.00     0.010 A 
ATOM     12  C   UNL A   1      36.454  33.194  30.505  1.00  0.00    -0.014 A 
BRANCH  12  13
ATOM     13  C   UNL A   1      37.648  32.559  31.108  1.00  0.00     0.031 A 
ATOM     14  C   UNL A   1      38.374  31.458  30.397  1.00  0.00     0.074 A 
ATOM     15  C   UNL A   1      38.047  32.976  32.323  1.00  0.00     0.049 A 
ATOM     16  N   UNL A   1      39.361  30.713  30.824  1.00  0.00    -0.248 NA
ATOM     17  C   UNL A   1      37.926  31.142  29.033  1.00  0.00     0.031 C 
ATOM     18  C   UNL A   1      37.409  34.045  33.096  1.00  0.00     0.029 A 
ATOM     19  N   UNL A   1      39.072  32.548  33.125  1.00  0.00    -0.354 N 
ATOM     20  C   UNL A   1      39.631  29.819  29.798  1.00  0.00     0.074 A 
ATOM     21  C   UNL A   1      38.698  30.107  28.729  1.00  0.00     0.031 C 
ATOM     22  C   UNL A   1      38.061  34.196  34.255  1.00  0.00     0.029 A 
ATOM     23  C   UNL A   1      39.114  33.190  34.336  1.00  0.00     0.049 A 
ATOM     24  H   UNL A   1      39.713  31.850  32.859  1.00  0.00     0.167 HD
ATOM     25  C   UNL A   1      40.574  28.846  29.761  1.00  0.00     0.037 A 
ATOM     26  C   UNL A   1      39.886  32.967  35.414  1.00  0.00     0.037 A 
ATOM     27  C   UNL A   1      41.506  28.588  30.829  1.00  0.00     0.049 A 
ATOM     28  C   UNL A   1      40.908  31.871  35.357  1.00  0.00     0.074 A 
ATOM     29  C   UNL A   1      42.531  27.659  30.876  1.00  0.00     0.029 A 
ATOM     30  N   UNL A   1      41.522  29.264  32.042  1.00  0.00    -0.354 N 
ATOM     31  N   UNL A   1      41.169  31.042  34.378  1.00  0.00    -0.248 NA
ATOM     32  C   UNL A   1      41.736  31.677  36.552  1.00  0.00     0.031 C 
ATOM     33  C   UNL A   1      43.137  27.742  32.134  1.00  0.00     0.029 A 
ATOM     34  C   UNL A   1      42.524  28.755  32.853  1.00  0.00     0.049 A 
ATOM     35  H   UNL A   1      40.912  29.996  32.289  1.00  0.00     0.167 HD
ATOM     36  C   UNL A   1      42.202  30.235  34.826  1.00  0.00     0.074 A 
ATOM     37  C   UNL A   1      42.526  30.681  36.168  1.00  0.00     0.031 C 
ATOM     38  C   UNL A   1      42.828  29.219  34.185  1.00  0.00     0.037 A 
BRANCH  25  39
ATOM     39  C   UNL A   1      40.618  27.967  28.545  1.00  0.00     0.064 A 
ATOM     40  C   UNL A   1      41.381  28.300  27.416  1.00  0.00     0.173 A 
ATOM     41  C   UNL A   1      39.902  26.760  28.520  1.00  0.00     0.173 A 
ATOM     42  F   UNL A   1      42.074  29.448  27.383  1.00  0.00    -0.203 F 
ATOM     43  C   UNL A   1      41.401  27.472  26.295  1.00  0.00     0.198 A 
ATOM     44  C   UNL A   1      39.946  25.922  27.409  1.00  0.00     0.198 A 
ATOM     45  F   UNL A   1      39.162  26.391  29.575  1.00  0.00    -0.203 F 
ATOM     46  F   UNL A   1      42.097  27.835  25.208  1.00  0.00    -0.200 F 
ATOM     47  C   UNL A   1      40.687  26.282  26.294  1.00  0.00     0.200 A 
ATOM     48  F   UNL A   1      39.265  24.768  27.414  1.00  0.00    -0.200 F 
ATOM     49  F   UNL A   1      40.708  25.488  25.215  1.00  0.00    -0.200 F 
ENDBRANCH  25  39
BRANCH  26  50
ATOM     50  C   UNL A   1      39.685  33.797  36.626  1.00  0.00     0.064 A 
ATOM     51  C   UNL A   1      40.247  35.075  36.724  1.00  0.00     0.173 A 
ATOM     52  C   UNL A   1      38.852  33.363  37.668  1.00  0.00     0.173 A 
ATOM     53  F   UNL A   1      41.057  35.527  35.756  1.00  0.00    -0.203 F 
ATOM     54  C   UNL A   1      39.980  35.892  37.820  1.00  0.00     0.198 A 
ATOM     55  C   UNL A   1      38.566  34.190  38.751  1.00  0.00     0.198 A 
ATOM     56  F   UNL A   1      38.280  32.151  37.610  1.00  0.00    -0.203 F 
ATOM     57  F   UNL A   1      40.538  37.108  37.899  1.00  0.00    -0.200 F 
ATOM     58  C   UNL A   1      39.131  35.454  38.826  1.00  0.00     0.200 A 
ATOM     59  F   UNL A   1      37.728  33.771  39.708  1.00  0.00    -0.200 F 
ATOM     60  F   UNL A   1      38.855  36.251  39.867  1.00  0.00    -0.200 F 
ENDBRANCH  26  50
BRANCH  38  61
ATOM     61  C   UNL A   1      43.947  28.539  34.912  1.00  0.00     0.064 A 
ATOM     62  C   UNL A   1      43.727  27.390  35.685  1.00  0.00     0.173 A 
ATOM     63  C   UNL A   1      45.263  29.009  34.784  1.00  0.00     0.173 A 
ATOM     64  F   UNL A   1      42.483  26.915  35.851  1.00  0.00    -0.203 F 
ATOM     65  C   UNL A   1      44.786  26.742  36.315  1.00  0.00     0.198 A 
ATOM     66  C   UNL A   1      46.320  28.345  35.395  1.00  0.00     0.198 A 
ATOM     67  F   UNL A   1      45.520  30.103  34.052  1.00  0.00    -0.203 F 
ATOM     68  F   UNL A   1      44.553  25.663  37.075  1.00  0.00    -0.200 F 
ATOM     69  C   UNL A   1      46.082  27.214  36.162  1.00  0.00     0.200 A 
ATOM     70  F   UNL A   1      47.573  28.797  35.239  1.00  0.00    -0.200 F 
ATOM     71  F   UNL A   1      47.101  26.581  36.759  1.00  0.00    -0.200 F 
ENDBRANCH  38  61
ENDBRANCH  12  13
ENDBRANCH   5   7
ENDBRANCH   2   3
ENDBRANCH   1   2
BRANCH   1  72
ATOM     72  C   UNL A   1      31.825  30.603  26.809  1.00  0.00     0.023 C 
BRANCH  72  73
ATOM     73  C   UNL A   1      32.216  30.043  25.440  1.00  0.00     0.116 C 
BRANCH  73  74
ATOM     74  N   UNL A   1      31.052  29.951  24.586  1.00  0.00    -0.351 N 
ATOM     75  C   UNL A   1      30.568  28.889  23.850  1.00  0.00     0.281 C 
ATOM     76  H   UNL A   1      30.521  30.777  24.521  1.00  0.00     0.163 HD
ATOM     77  O   UNL A   1      29.608  29.171  23.115  1.00  0.00    -0.268 OA
BRANCH  75  78
ATOM     78  C   UNL A   1      31.160  27.396  24.016  1.00  0.00     0.177 C 
ATOM     79  C   UNL A   1      31.037  26.894  25.493  1.00  0.00     0.079 C 
ATOM     80  C   UNL A   1      30.176  26.244  23.632  1.00  0.00     0.079 C 
ATOM     81  C   UNL A   1      30.430  25.575  24.990  1.00  0.00     0.014 C 
BRANCH  78  82
ATOM     82  N   UNL A   1      32.502  27.156  23.417  1.00  0.00    -0.318 N 
ATOM     83  C   UNL A   1      32.486  26.606  22.052  1.00  0.00     0.291 C 
ATOM     84  C   UNL A   1      33.632  26.641  24.195  1.00  0.00     0.291 C 
ATOM     85  H   UNL A   1      32.750  28.146  23.407  1.00  0.00     0.349 HD
ATOM     86  C   UNL A   1      32.865  25.126  21.907  1.00  0.00     0.221 C 
ATOM     87  C   UNL A   1      33.924  25.147  23.997  1.00  0.00     0.221 C 
ATOM     88  O   UNL A   1      34.073  24.827  22.611  1.00  0.00    -0.370 OA
ENDBRANCH  78  82
ENDBRANCH  75  78
ENDBRANCH  73  74
ENDBRANCH  72  73
ENDBRANCH   1  72
TORSDOF 12
ENDMDL
MODEL 3
REMARK VINA RESULT:     -12.1      0.457      1.778
REMARK SMILES O=C(NCCCCNC(=O)C1([NH+]2CCOCC2)CCC1)c1ccc(-c2c3nc(c(-c4c(F)c(F)c(F)c(F)c4F)c4ccc([nH]4)c(-c4c(F)c(F)c(F)c(F)c4F)c4nc(c(-c5c(F)c(F)c(F)c(F)c5F)c5ccc2[nH]5)C=C4)C=C3)cc1
REMARK SMILES IDX 5 1 4 2 3 3 1 4 2 5 21 7 22 8 83 9 23 10 82 11 24 12 25 13
REMARK SMILES IDX 26 14 76 15 27 16 81 17 75 18 77 19 28 20 80 21 74 22 73 23
REMARK SMILES IDX 29 25 61 26 41 27 60 28 42 29 45 30 59 31 78 32 43 33 44 34
REMARK SMILES IDX 58 36 79 37 46 38 30 39 31 40 39 41 32 42 33 43 37 44 40 45
REMARK SMILES IDX 34 46 35 47 38 48 36 49 62 50 63 51 71 52 64 53 65 54 69 55
REMARK SMILES IDX 72 56 66 57 67 58 70 59 68 60 47 61 48 62 56 63 49 64 50 65
REMARK SMILES IDX 54 66 57 67 51 68 52 69 55 70 53 71 6 72 7 73 8 74 9 75
REMARK SMILES IDX 10 77 11 78 18 79 20 80 19 81 12 82 13 83 17 84 14 86 16 87
REMARK SMILES IDX 15 88
REMARK H PARENT 3 6 77 24 45 35 8 76 12 85
REMARK Flexibility Score: inf
ROOT
ATOM      1  C   UNL A   1      31.519  32.024  26.881  1.00  0.00     0.023 C 
ENDROOT
BRANCH   1   2
ATOM      2  C   UNL A   1      32.738  32.870  27.204  1.00  0.00     0.116 C 
BRANCH   2   3
ATOM      3  N   UNL A   1      32.395  34.220  27.624  1.00  0.00    -0.352 N 
ATOM      4  O   UNL A   1      32.488  36.057  28.939  1.00  0.00    -0.269 OA
ATOM      5  C   UNL A   1      32.969  34.981  28.613  1.00  0.00     0.251 C 
ATOM      6  H   UNL A   1      31.653  34.645  27.134  1.00  0.00     0.163 HD
BRANCH   5   7
ATOM      7  C   UNL A   1      34.162  34.456  29.302  1.00  0.00     0.039 A 
ATOM      8  C   UNL A   1      35.432  34.660  28.756  1.00  0.00     0.014 A 
ATOM      9  C   UNL A   1      33.996  33.711  30.471  1.00  0.00     0.014 A 
ATOM     10  C   UNL A   1      36.525  34.001  29.300  1.00  0.00     0.010 A 
ATOM     11  C   UNL A   1      35.108  33.120  31.065  1.00  0.00     0.010 A 
ATOM     12  C   UNL A   1      36.374  33.239  30.468  1.00  0.00    -0.014 A 
BRANCH  12  13
ATOM     13  C   UNL A   1      37.561  32.621  31.100  1.00  0.00     0.031 A 
ATOM     14  C   UNL A   1      38.303  31.512  30.420  1.00  0.00     0.074 A 
ATOM     15  C   UNL A   1      37.938  33.061  32.313  1.00  0.00     0.049 A 
ATOM     16  N   UNL A   1      39.287  30.779  30.875  1.00  0.00    -0.248 NA
ATOM     17  C   UNL A   1      37.879  31.170  29.054  1.00  0.00     0.031 C 
ATOM     18  C   UNL A   1      37.283  34.139  33.058  1.00  0.00     0.029 A 
ATOM     19  N   UNL A   1      38.952  32.652  33.139  1.00  0.00    -0.354 N 
ATOM     20  C   UNL A   1      39.578  29.869  29.869  1.00  0.00     0.074 A 
ATOM     21  C   UNL A   1      38.661  30.134  28.781  1.00  0.00     0.031 C 
ATOM     22  C   UNL A   1      37.915  34.313  34.225  1.00  0.00     0.029 A 
ATOM     23  C   UNL A   1      38.972  33.314  34.340  1.00  0.00     0.049 A 
ATOM     24  H   UNL A   1      39.601  31.953  32.895  1.00  0.00     0.167 HD
ATOM     25  C   UNL A   1      40.527  28.901  29.864  1.00  0.00     0.037 A 
ATOM     26  C   UNL A   1      39.727  33.113  35.434  1.00  0.00     0.037 A 
ATOM     27  C   UNL A   1      41.443  28.666  30.950  1.00  0.00     0.049 A 
ATOM     28  C   UNL A   1      40.756  32.022  35.412  1.00  0.00     0.074 A 
ATOM     29  C   UNL A   1      42.471  27.743  31.030  1.00  0.00     0.029 A 
ATOM     30  N   UNL A   1      41.436  29.362  32.152  1.00  0.00    -0.354 N 
ATOM     31  N   UNL A   1      41.037  31.178  34.451  1.00  0.00    -0.248 NA
ATOM     32  C   UNL A   1      41.566  31.853  36.623  1.00  0.00     0.031 C 
ATOM     33  C   UNL A   1      43.057  27.851  32.295  1.00  0.00     0.029 A 
ATOM     34  C   UNL A   1      42.427  28.873  32.988  1.00  0.00     0.049 A 
ATOM     35  H   UNL A   1      40.819  30.096  32.376  1.00  0.00     0.167 HD
ATOM     36  C   UNL A   1      42.067  30.384  34.930  1.00  0.00     0.074 A 
ATOM     37  C   UNL A   1      42.366  30.855  36.269  1.00  0.00     0.031 C 
ATOM     38  C   UNL A   1      42.708  29.361  34.316  1.00  0.00     0.037 A 
BRANCH  25  39
ATOM     39  C   UNL A   1      40.595  28.001  28.664  1.00  0.00     0.064 A 
ATOM     40  C   UNL A   1      41.380  28.315  27.544  1.00  0.00     0.173 A 
ATOM     41  C   UNL A   1      39.879  26.794  28.644  1.00  0.00     0.173 A 
ATOM     42  F   UNL A   1      42.074  29.463  27.507  1.00  0.00    -0.203 F 
ATOM     43  C   UNL A   1      41.422  27.469  26.438  1.00  0.00     0.198 A 
ATOM     44  C   UNL A   1      39.944  25.938  27.548  1.00  0.00     0.198 A 
ATOM     45  F   UNL A   1      39.118  26.443  29.691  1.00  0.00    -0.203 F 
ATOM     46  F   UNL A   1      42.140  27.813  25.360  1.00  0.00    -0.200 F 
ATOM     47  C   UNL A   1      40.708  26.279  26.443  1.00  0.00     0.200 A 
ATOM     48  F   UNL A   1      39.263  24.784  27.560  1.00  0.00    -0.200 F 
ATOM     49  F   UNL A   1      40.750  25.467  25.378  1.00  0.00    -0.200 F 
ENDBRANCH  25  39
BRANCH  26  50
ATOM     50  C   UNL A   1      39.503  33.963  36.627  1.00  0.00     0.064 A 
ATOM     51  C   UNL A   1      38.714  33.514  37.693  1.00  0.00     0.173 A 
ATOM     52  C   UNL A   1      40.146  35.203  36.762  1.00  0.00     0.173 A 
ATOM     53  F   UNL A   1      38.073  32.340  37.604  1.00  0.00    -0.203 F 
ATOM     54  C   UNL A   1      38.581  34.273  38.854  1.00  0.00     0.198 A 
ATOM     55  C   UNL A   1      40.032  35.948  37.932  1.00  0.00     0.198 A 
ATOM     56  F   UNL A   1      40.923  35.667  35.772  1.00  0.00    -0.203 F 
ATOM     57  F   UNL A   1      37.811  33.828  39.857  1.00  0.00    -0.200 F 
ATOM     58  C   UNL A   1      39.248  35.483  38.977  1.00  0.00     0.200 A 
ATOM     59  F   UNL A   1      40.696  37.105  38.055  1.00  0.00    -0.200 F 
ATOM     60  F   UNL A   1      39.140  36.198  40.104  1.00  0.00    -0.200 F 
ENDBRANCH  26  50
BRANCH  38  61
ATOM     61  C   UNL A   1      43.818  28.699  35.073  1.00  0.00     0.064 A 
ATOM     62  C   UNL A   1      43.575  27.628  35.944  1.00  0.00     0.173 A 
ATOM     63  C   UNL A   1      45.147  29.104  34.876  1.00  0.00     0.173 A 
ATOM     64  F   UNL A   1      42.319  27.218  36.175  1.00  0.00    -0.203 F 
ATOM     65  C   UNL A   1      44.624  26.993  36.601  1.00  0.00     0.198 A 
ATOM     66  C   UNL A   1      46.194  28.452  35.517  1.00  0.00     0.198 A 
ATOM     67  F   UNL A   1      45.427  30.123  34.050  1.00  0.00    -0.203 F 
ATOM     68  F   UNL A   1      44.370  25.990  37.454  1.00  0.00    -0.200 F 
ATOM     69  C   UNL A   1      45.932  27.399  36.381  1.00  0.00     0.200 A 
ATOM     70  F   UNL A   1      47.458  28.839  35.296  1.00  0.00    -0.200 F 
ATOM     71  F   UNL A   1      46.942  26.777  37.005  1.00  0.00    -0.200 F 
ENDBRANCH  38  61
ENDBRANCH  12  13
ENDBRANCH   5   7
ENDBRANCH   2   3
ENDBRANCH   1   2
BRANCH   1  72
ATOM     72  C   UNL A   1      31.796  30.528  26.778  1.00  0.00     0.023 C 
BRANCH  72  73
ATOM     73  C   UNL A   1      32.209  30.044  25.386  1.00  0.00     0.116 C 
BRANCH  73  74
ATOM     74  N   UNL A   1      31.051  29.947  24.526  1.00  0.00    -0.351 N 
ATOM     75  C   UNL A   1      30.570  28.881  23.794  1.00  0.00     0.281 C 
ATOM     76  H   UNL A   1      30.520  30.773  24.452  1.00  0.00     0.163 HD
ATOM     77  O   UNL A   1      29.615  29.158  23.051  1.00  0.00    -0.268 OA
BRANCH  75  78
ATOM     78  C   UNL A   1      31.161  27.389  23.972  1.00  0.00     0.177 C 
ATOM     79  C   UNL A   1      31.055  26.907  25.457  1.00  0.00     0.079 C 
ATOM     80  C   UNL A   1      30.170  26.234  23.615  1.00  0.00     0.079 C 
ATOM     81  C   UNL A   1      30.438  25.583  24.980  1.00  0.00     0.014 C 
BRANCH  78  82
ATOM     82  N   UNL A   1      32.496  27.137  23.361  1.00  0.00    -0.318 N 
ATOM     83  C   UNL A   1      32.462  26.518  22.027  1.00  0.00     0.291 C 
ATOM     84  C   UNL A   1      33.647  26.679  24.142  1.00  0.00     0.291 C 
ATOM     85  H   UNL A   1      32.728  28.129  23.295  1.00  0.00     0.349 HD
ATOM     86  C   UNL A   1      32.861  25.038  21.950  1.00  0.00     0.221 C 
ATOM     87  C   UNL A   1      33.958  25.181  24.015  1.00  0.00     0.221 C 
ATOM     88  O   UNL A   1      34.087  24.793  22.644  1.00  0.00    -0.370 OA
ENDBRANCH  78  82
ENDBRANCH  75  78
ENDBRANCH  73  74
ENDBRANCH  72  73
ENDBRANCH   1  72
TORSDOF 12
ENDMDL
