MODEL 1
REMARK VINA RESULT:     -14.6      0.000      0.000
REMARK SMILES COC(=O)c1ccc2oc(=O)c([C@H]3N=c4ccc(C(=O)NCCCCNC(=O)c5ccc(-c6c7nc(c(-c8c(F)c(F)c(F)c(F)c8F)c8ccc([nH]8)c(-c8c(F)c(F)c(F)c(F)c8F)c8nc(c(-c9c(F)c(F)c(F)c(F)c9F)c9ccc6[nH]9)C=C8)C=C7)cc5)cc4=N3)cc2c1
REMARK SMILES IDX 23 1 22 2 21 3 19 4 20 5 18 7 13 8 14 9 94 10 15 11 93 12
REMARK SMILES IDX 16 13 92 14 17 15 12 16 5 17 6 18 97 19 7 20 96 21 8 22
REMARK SMILES IDX 95 23 9 24 10 25 11 26 3 27 4 28 2 29 1 30 24 31 25 32 26 33
REMARK SMILES IDX 27 34 28 36 29 37 30 38 91 39 31 40 90 41 32 42 33 43 34 44
REMARK SMILES IDX 84 45 35 46 89 47 83 48 85 49 36 50 88 51 82 52 81 53 37 55
REMARK SMILES IDX 69 56 49 57 68 58 50 59 53 60 67 61 86 62 51 63 52 64 66 66
REMARK SMILES IDX 87 67 54 68 38 69 39 70 47 71 40 72 41 73 45 74 48 75 42 76
REMARK SMILES IDX 43 77 46 78 44 79 70 80 71 81 79 82 72 83 73 84 77 85 80 86
REMARK SMILES IDX 74 87 75 88 78 89 76 90 55 91 56 92 64 93 57 94 58 95 62 96
REMARK SMILES IDX 65 97 59 98 60 99 63 100 61 101
REMARK H PARENT 21 6 26 35 85 54 53 65
REMARK Flexibility Score: inf
ROOT
ATOM      1  C   UNL A   1      31.901  30.462  26.820  1.00  0.00     0.023 C 
ENDROOT
BRANCH   1   2
ATOM      2  C   UNL A   1      32.911  30.084  25.733  1.00  0.00     0.116 C 
BRANCH   2   3
ATOM      3  N   UNL A   1      32.231  29.710  24.509  1.00  0.00    -0.352 N 
ATOM      4  C   UNL A   1      32.039  28.523  23.874  1.00  0.00     0.251 C 
ATOM      5  O   UNL A   1      31.407  28.572  22.816  1.00  0.00    -0.269 OA
ATOM      6  H   UNL A   1      31.824  30.473  24.041  1.00  0.00     0.163 HD
BRANCH   4   7
ATOM      7  C   UNL A   1      32.505  27.201  24.425  1.00  0.00     0.042 A 
ATOM      8  C   UNL A   1      32.026  22.986  25.956  1.00  0.00     0.260 C 
ATOM      9  N   UNL A   1      33.382  23.568  26.132  1.00  0.00    -0.251 NA
ATOM     10  N   UNL A   1      31.077  23.992  25.413  1.00  0.00    -0.251 NA
ATOM     11  C   UNL A   1      33.244  24.725  25.583  1.00  0.00     0.086 A 
ATOM     12  C   UNL A   1      31.848  25.000  25.185  1.00  0.00     0.087 A 
ATOM     13  C   UNL A   1      34.279  25.706  25.283  1.00  0.00     0.031 A 
ATOM     14  C   UNL A   1      31.509  26.315  24.634  1.00  0.00     0.044 A 
ATOM     15  C   UNL A   1      33.893  26.833  24.671  1.00  0.00     0.016 A 
BRANCH   8  16
ATOM     16  C   UNL A   1      32.125  21.768  25.077  1.00  0.00     0.085 A 
ATOM     17  C   UNL A   1      33.037  17.054  24.377  1.00  0.00     0.060 A 
ATOM     18  C   UNL A   1      32.902  17.230  22.992  1.00  0.00     0.019 A 
ATOM     19  C   UNL A   1      32.820  18.129  25.251  1.00  0.00     0.027 A 
ATOM     20  C   UNL A   1      32.578  18.488  22.482  1.00  0.00     0.049 A 
ATOM     21  C   UNL A   1      32.509  19.389  24.741  1.00  0.00     0.019 A 
ATOM     22  C   UNL A   1      32.401  19.550  23.364  1.00  0.00     0.138 A 
ATOM     23  C   UNL A   1      32.324  20.545  25.598  1.00  0.00     0.027 A 
ATOM     24  O   UNL A   1      32.140  20.813  22.812  1.00  0.00    -0.422 OA
ATOM     25  C   UNL A   1      32.068  21.961  23.601  1.00  0.00     0.343 A 
ATOM     26  O   UNL A   1      31.972  23.062  23.067  1.00  0.00    -0.246 OA
BRANCH  17  27
ATOM     27  C   UNL A   1      33.425  15.750  24.970  1.00  0.00     0.337 C 
ATOM     28  O   UNL A   1      32.736  15.138  25.760  1.00  0.00    -0.246 OA
BRANCH  27  29
ATOM     29  O   UNL A   1      34.680  15.424  24.566  1.00  0.00    -0.465 OA
ATOM     30  C   UNL A   1      35.705  15.830  25.474  1.00  0.00     0.282 C 
ENDBRANCH  27  29
ENDBRANCH  17  27
ENDBRANCH   8  16
ENDBRANCH   4   7
ENDBRANCH   2   3
ENDBRANCH   1   2
BRANCH   1  31
ATOM     31  C   UNL A   1      31.590  31.958  26.898  1.00  0.00     0.023 C 
BRANCH  31  32
ATOM     32  C   UNL A   1      32.747  32.830  27.372  1.00  0.00     0.116 C 
BRANCH  32  33
ATOM     33  N   UNL A   1      32.370  34.207  27.655  1.00  0.00    -0.352 N 
ATOM     34  C   UNL A   1      32.947  35.086  28.544  1.00  0.00     0.251 C 
ATOM     35  H   UNL A   1      31.604  34.556  27.145  1.00  0.00     0.163 HD
ATOM     36  O   UNL A   1      32.456  36.193  28.735  1.00  0.00    -0.269 OA
BRANCH  34  37
ATOM     37  C   UNL A   1      34.138  34.657  29.307  1.00  0.00     0.039 A 
ATOM     38  C   UNL A   1      35.403  34.698  28.720  1.00  0.00     0.014 A 
ATOM     39  C   UNL A   1      33.975  34.143  30.595  1.00  0.00     0.014 A 
ATOM     40  C   UNL A   1      36.465  34.054  29.340  1.00  0.00     0.010 A 
ATOM     41  C   UNL A   1      35.070  33.585  31.261  1.00  0.00     0.010 A 
ATOM     42  C   UNL A   1      36.312  33.485  30.615  1.00  0.00    -0.014 A 
BRANCH  42  43
ATOM     43  C   UNL A   1      37.468  32.787  31.237  1.00  0.00     0.031 A 
ATOM     44  C   UNL A   1      37.915  33.123  32.634  1.00  0.00     0.074 A 
ATOM     45  C   UNL A   1      38.067  31.790  30.558  1.00  0.00     0.049 A 
ATOM     46  N   UNL A   1      38.868  32.576  33.348  1.00  0.00    -0.248 NA
ATOM     47  C   UNL A   1      37.208  34.215  33.323  1.00  0.00     0.031 C 
ATOM     48  C   UNL A   1      37.715  31.370  29.201  1.00  0.00     0.029 A 
ATOM     49  N   UNL A   1      39.068  30.926  30.924  1.00  0.00    -0.354 N 
ATOM     50  C   UNL A   1      38.882  33.261  34.556  1.00  0.00     0.074 A 
ATOM     51  C   UNL A   1      37.869  34.290  34.470  1.00  0.00     0.031 C 
ATOM     52  C   UNL A   1      38.435  30.289  28.874  1.00  0.00     0.029 A 
ATOM     53  C   UNL A   1      39.352  29.982  29.968  1.00  0.00     0.049 A 
ATOM     54  H   UNL A   1      39.537  30.978  31.787  1.00  0.00     0.167 HD
ATOM     55  C   UNL A   1      39.659  33.039  35.643  1.00  0.00     0.037 A 
ATOM     56  C   UNL A   1      40.255  28.983  29.965  1.00  0.00     0.037 A 
ATOM     57  C   UNL A   1      40.648  31.996  35.734  1.00  0.00     0.049 A 
ATOM     58  C   UNL A   1      41.136  28.792  31.167  1.00  0.00     0.074 A 
ATOM     59  C   UNL A   1      41.466  31.677  36.804  1.00  0.00     0.029 A 
ATOM     60  N   UNL A   1      40.953  31.102  34.718  1.00  0.00    -0.354 N 
ATOM     61  N   UNL A   1      41.127  29.436  32.307  1.00  0.00    -0.248 NA
ATOM     62  C   UNL A   1      42.160  27.741  31.076  1.00  0.00     0.031 C 
ATOM     63  C   UNL A   1      42.300  30.623  36.419  1.00  0.00     0.029 A 
ATOM     64  C   UNL A   1      41.965  30.249  35.127  1.00  0.00     0.049 A 
ATOM     65  H   UNL A   1      40.515  31.078  33.836  1.00  0.00     0.167 HD
ATOM     66  C   UNL A   1      42.131  28.865  33.076  1.00  0.00     0.074 A 
ATOM     67  C   UNL A   1      42.715  27.806  32.280  1.00  0.00     0.031 C 
ATOM     68  C   UNL A   1      42.535  29.196  34.325  1.00  0.00     0.037 A 
BRANCH  55  69
ATOM     69  C   UNL A   1      39.479  33.935  36.836  1.00  0.00     0.064 A 
ATOM     70  C   UNL A   1      38.693  33.550  37.932  1.00  0.00     0.173 A 
ATOM     71  C   UNL A   1      40.168  35.156  36.918  1.00  0.00     0.173 A 
ATOM     72  F   UNL A   1      38.008  32.397  37.900  1.00  0.00    -0.203 F 
ATOM     73  C   UNL A   1      38.594  34.360  39.061  1.00  0.00     0.198 A 
ATOM     74  C   UNL A   1      40.087  35.948  38.060  1.00  0.00     0.198 A 
ATOM     75  F   UNL A   1      40.940  35.567  35.901  1.00  0.00    -0.203 F 
ATOM     76  F   UNL A   1      37.812  33.986  40.084  1.00  0.00    -0.200 F 
ATOM     77  C   UNL A   1      39.298  35.553  39.128  1.00  0.00     0.200 A 
ATOM     78  F   UNL A   1      40.782  37.093  38.130  1.00  0.00    -0.200 F 
ATOM     79  F   UNL A   1      39.216  36.320  40.224  1.00  0.00    -0.200 F 
ENDBRANCH  55  69
BRANCH  56  80
ATOM     80  C   UNL A   1      40.355  28.090  28.782  1.00  0.00     0.064 A 
ATOM     81  C   UNL A   1      39.662  26.874  28.737  1.00  0.00     0.173 A 
ATOM     82  C   UNL A   1      41.114  28.451  27.658  1.00  0.00     0.173 A 
ATOM     83  F   UNL A   1      38.938  26.476  29.794  1.00  0.00    -0.203 F 
ATOM     84  C   UNL A   1      39.726  26.051  27.615  1.00  0.00     0.198 A 
ATOM     85  C   UNL A   1      41.152  27.644  26.524  1.00  0.00     0.198 A 
ATOM     86  F   UNL A   1      41.792  29.609  27.648  1.00  0.00    -0.203 F 
ATOM     87  F   UNL A   1      39.077  24.880  27.608  1.00  0.00    -0.200 F 
ATOM     88  C   UNL A   1      40.461  26.442  26.505  1.00  0.00     0.200 A 
ATOM     89  F   UNL A   1      41.847  28.036  25.448  1.00  0.00    -0.200 F 
ATOM     90  F   UNL A   1      40.506  25.660  25.418  1.00  0.00    -0.200 F 
ENDBRANCH  56  80
BRANCH  68  91
ATOM     91  C   UNL A   1      43.656  28.401  34.927  1.00  0.00     0.064 A 
ATOM     92  C   UNL A   1      44.986  28.835  34.837  1.00  0.00     0.173 A 
ATOM     93  C   UNL A   1      43.388  27.246  35.676  1.00  0.00     0.173 A 
ATOM     94  F   UNL A   1      45.294  29.926  34.120  1.00  0.00    -0.203 F 
ATOM     95  C   UNL A   1      46.010  28.133  35.468  1.00  0.00     0.198 A 
ATOM     96  C   UNL A   1      44.410  26.563  36.329  1.00  0.00     0.198 A 
ATOM     97  F   UNL A   1      42.130  26.795  35.798  1.00  0.00    -0.203 F 
ATOM     98  F   UNL A   1      47.278  28.548  35.346  1.00  0.00    -0.200 F 
ATOM     99  C   UNL A   1      45.720  27.006  36.223  1.00  0.00     0.200 A 
ATOM    100  F   UNL A   1      44.126  25.484  37.071  1.00  0.00    -0.200 F 
ATOM    101  F   UNL A   1      46.704  26.345  36.848  1.00  0.00    -0.200 F 
ENDBRANCH  68  91
ENDBRANCH  42  43
ENDBRANCH  34  37
ENDBRANCH  32  33
ENDBRANCH  31  32
ENDBRANCH   1  31
TORSDOF 14
ENDMDL
MODEL 2
REMARK VINA RESULT:     -14.2      2.542      3.803
REMARK SMILES COC(=O)c1ccc2oc(=O)c([C@H]3N=c4ccc(C(=O)NCCCCNC(=O)c5ccc(-c6c7nc(c(-c8c(F)c(F)c(F)c(F)c8F)c8ccc([nH]8)c(-c8c(F)c(F)c(F)c(F)c8F)c8nc(c(-c9c(F)c(F)c(F)c(F)c9F)c9ccc6[nH]9)C=C8)C=C7)cc5)cc4=N3)cc2c1
REMARK SMILES IDX 23 1 22 2 21 3 19 4 20 5 18 7 13 8 14 9 94 10 15 11 93 12
REMARK SMILES IDX 16 13 92 14 17 15 12 16 5 17 6 18 97 19 7 20 96 21 8 22
REMARK SMILES IDX 95 23 9 24 10 25 11 26 3 27 4 28 2 29 1 30 24 31 25 32 26 33
REMARK SMILES IDX 27 34 28 36 29 37 30 38 91 39 31 40 90 41 32 42 33 43 34 44
REMARK SMILES IDX 84 45 35 46 89 47 83 48 85 49 36 50 88 51 82 52 81 53 37 55
REMARK SMILES IDX 69 56 49 57 68 58 50 59 53 60 67 61 86 62 51 63 52 64 66 66
REMARK SMILES IDX 87 67 54 68 38 69 39 70 47 71 40 72 41 73 45 74 48 75 42 76
REMARK SMILES IDX 43 77 46 78 44 79 70 80 71 81 79 82 72 83 73 84 77 85 80 86
REMARK SMILES IDX 74 87 75 88 78 89 76 90 55 91 56 92 64 93 57 94 58 95 62 96
REMARK SMILES IDX 65 97 59 98 60 99 63 100 61 101
REMARK H PARENT 21 6 26 35 85 54 53 65
REMARK Flexibility Score: inf
ROOT
ATOM      1  C   UNL A   1      32.919  29.311  24.003  1.00  0.00     0.023 C 
ENDROOT
BRANCH   1   2
ATOM      2  C   UNL A   1      32.390  28.517  22.805  1.00  0.00     0.116 C 
BRANCH   2   3
ATOM      3  N   UNL A   1      30.941  28.487  22.810  1.00  0.00    -0.352 N 
ATOM      4  C   UNL A   1      30.028  27.627  23.335  1.00  0.00     0.251 C 
ATOM      5  O   UNL A   1      28.843  27.907  23.133  1.00  0.00    -0.269 OA
ATOM      6  H   UNL A   1      30.534  29.246  22.335  1.00  0.00     0.163 HD
BRANCH   4   7
ATOM      7  C   UNL A   1      30.398  26.426  24.166  1.00  0.00     0.042 A 
ATOM      8  C   UNL A   1      31.521  22.121  24.901  1.00  0.00     0.260 C 
ATOM      9  N   UNL A   1      31.208  22.907  26.124  1.00  0.00    -0.251 NA
ATOM     10  N   UNL A   1      31.269  22.919  23.672  1.00  0.00    -0.251 NA
ATOM     11  C   UNL A   1      30.971  24.073  25.632  1.00  0.00     0.086 A 
ATOM     12  C   UNL A   1      30.968  24.075  24.155  1.00  0.00     0.087 A 
ATOM     13  C   UNL A   1      30.776  25.326  26.349  1.00  0.00     0.031 A 
ATOM     14  C   UNL A   1      30.618  25.309  23.444  1.00  0.00     0.044 A 
ATOM     15  C   UNL A   1      30.577  26.427  25.613  1.00  0.00     0.016 A 
BRANCH   8  16
ATOM     16  C   UNL A   1      32.945  21.637  24.980  1.00  0.00     0.085 A 
ATOM     17  C   UNL A   1      37.669  22.349  25.831  1.00  0.00     0.060 A 
ATOM     18  C   UNL A   1      37.951  21.056  25.366  1.00  0.00     0.019 A 
ATOM     19  C   UNL A   1      36.343  22.800  25.906  1.00  0.00     0.027 A 
ATOM     20  C   UNL A   1      36.908  20.226  24.951  1.00  0.00     0.049 A 
ATOM     21  C   UNL A   1      35.302  21.975  25.479  1.00  0.00     0.019 A 
ATOM     22  C   UNL A   1      35.602  20.705  25.001  1.00  0.00     0.138 A 
ATOM     23  C   UNL A   1      33.918  22.411  25.490  1.00  0.00     0.027 A 
ATOM     24  O   UNL A   1      34.586  19.867  24.515  1.00  0.00    -0.422 OA
ATOM     25  C   UNL A   1      33.264  20.299  24.409  1.00  0.00     0.343 A 
ATOM     26  O   UNL A   1      32.433  19.585  23.856  1.00  0.00    -0.246 OA
BRANCH  17  27
ATOM     27  C   UNL A   1      38.741  23.289  26.240  1.00  0.00     0.337 C 
ATOM     28  O   UNL A   1      38.563  24.476  26.421  1.00  0.00    -0.246 OA
BRANCH  27  29
ATOM     29  O   UNL A   1      39.929  22.632  26.280  1.00  0.00    -0.465 OA
ATOM     30  C   UNL A   1      40.459  22.476  27.597  1.00  0.00     0.282 C 
ENDBRANCH  27  29
ENDBRANCH  17  27
ENDBRANCH   8  16
ENDBRANCH   4   7
ENDBRANCH   2   3
ENDBRANCH   1   2
BRANCH   1  31
ATOM     31  C   UNL A   1      33.540  28.449  25.104  1.00  0.00     0.023 C 
BRANCH  31  32
ATOM     32  C   UNL A   1      33.080  28.785  26.518  1.00  0.00     0.116 C 
BRANCH  32  33
ATOM     33  N   UNL A   1      32.669  30.171  26.691  1.00  0.00    -0.352 N 
ATOM     34  C   UNL A   1      33.376  31.207  27.260  1.00  0.00     0.251 C 
ATOM     35  H   UNL A   1      31.772  30.397  26.359  1.00  0.00     0.163 HD
ATOM     36  O   UNL A   1      32.856  32.306  27.414  1.00  0.00    -0.269 OA
BRANCH  34  37
ATOM     37  C   UNL A   1      34.755  30.961  27.731  1.00  0.00     0.039 A 
ATOM     38  C   UNL A   1      35.150  29.679  28.116  1.00  0.00     0.014 A 
ATOM     39  C   UNL A   1      35.637  32.037  27.854  1.00  0.00     0.014 A 
ATOM     40  C   UNL A   1      36.347  29.509  28.797  1.00  0.00     0.010 A 
ATOM     41  C   UNL A   1      36.885  31.843  28.451  1.00  0.00     0.010 A 
ATOM     42  C   UNL A   1      37.228  30.588  28.978  1.00  0.00    -0.014 A 
BRANCH  42  43
ATOM     43  C   UNL A   1      38.491  30.369  29.731  1.00  0.00     0.031 A 
ATOM     44  C   UNL A   1      38.641  30.848  31.150  1.00  0.00     0.074 A 
ATOM     45  C   UNL A   1      39.480  29.663  29.150  1.00  0.00     0.049 A 
ATOM     46  N   UNL A   1      39.651  30.693  31.970  1.00  0.00    -0.248 NA
ATOM     47  C   UNL A   1      37.516  31.602  31.727  1.00  0.00     0.031 C 
ATOM     48  C   UNL A   1      39.446  29.141  27.783  1.00  0.00     0.029 A 
ATOM     49  N   UNL A   1      40.687  29.231  29.640  1.00  0.00    -0.354 N 
ATOM     50  C   UNL A   1      39.290  31.336  33.146  1.00  0.00     0.074 A 
ATOM     51  C   UNL A   1      37.984  31.917  32.927  1.00  0.00     0.031 C 
ATOM     52  C   UNL A   1      40.543  28.403  27.566  1.00  0.00     0.029 A 
ATOM     53  C   UNL A   1      41.393  28.458  28.752  1.00  0.00     0.049 A 
ATOM     54  H   UNL A   1      41.014  29.455  30.540  1.00  0.00     0.167 HD
ATOM     55  C   UNL A   1      39.981  31.419  34.309  1.00  0.00     0.037 A 
ATOM     56  C   UNL A   1      42.595  27.865  28.871  1.00  0.00     0.037 A 
ATOM     57  C   UNL A   1      41.270  30.816  34.532  1.00  0.00     0.049 A 
ATOM     58  C   UNL A   1      43.360  28.014  30.156  1.00  0.00     0.074 A 
ATOM     59  C   UNL A   1      42.036  30.824  35.684  1.00  0.00     0.029 A 
ATOM     60  N   UNL A   1      41.982  30.097  33.583  1.00  0.00    -0.354 N 
ATOM     61  N   UNL A   1      42.999  28.610  31.265  1.00  0.00    -0.248 NA
ATOM     62  C   UNL A   1      44.702  27.417  30.202  1.00  0.00     0.031 C 
ATOM     63  C   UNL A   1      43.233  30.153  35.419  1.00  0.00     0.029 A 
ATOM     64  C   UNL A   1      43.191  29.680  34.117  1.00  0.00     0.049 A 
ATOM     65  H   UNL A   1      41.675  29.911  32.666  1.00  0.00     0.167 HD
ATOM     66  C   UNL A   1      44.060  28.453  32.145  1.00  0.00     0.074 A 
ATOM     67  C   UNL A   1      45.070  27.684  31.448  1.00  0.00     0.031 C 
ATOM     68  C   UNL A   1      44.186  28.911  33.413  1.00  0.00     0.037 A 
BRANCH  55  69
ATOM     69  C   UNL A   1      39.365  32.187  35.444  1.00  0.00     0.064 A 
ATOM     70  C   UNL A   1      38.556  31.558  36.402  1.00  0.00     0.173 A 
ATOM     71  C   UNL A   1      39.655  33.549  35.622  1.00  0.00     0.173 A 
ATOM     72  F   UNL A   1      38.241  30.261  36.274  1.00  0.00    -0.203 F 
ATOM     73  C   UNL A   1      38.050  32.268  37.489  1.00  0.00     0.198 A 
ATOM     74  C   UNL A   1      39.171  34.247  36.725  1.00  0.00     0.198 A 
ATOM     75  F   UNL A   1      40.432  34.196  34.740  1.00  0.00    -0.203 F 
ATOM     76  F   UNL A   1      37.254  31.654  38.376  1.00  0.00    -0.200 F 
ATOM     77  C   UNL A   1      38.366  33.608  37.655  1.00  0.00     0.200 A 
ATOM     78  F   UNL A   1      39.491  35.538  36.892  1.00  0.00    -0.200 F 
ATOM     79  F   UNL A   1      37.895  34.283  38.712  1.00  0.00    -0.200 F 
ENDBRANCH  55  69
BRANCH  56  80
ATOM     80  C   UNL A   1      43.136  27.070  27.738  1.00  0.00     0.064 A 
ATOM     81  C   UNL A   1      43.862  27.685  26.709  1.00  0.00     0.173 A 
ATOM     82  C   UNL A   1      42.971  25.678  27.679  1.00  0.00     0.173 A 
ATOM     83  F   UNL A   1      44.031  29.015  26.711  1.00  0.00    -0.203 F 
ATOM     84  C   UNL A   1      44.401  26.937  25.664  1.00  0.00     0.198 A 
ATOM     85  C   UNL A   1      43.537  24.928  26.652  1.00  0.00     0.198 A 
ATOM     86  F   UNL A   1      42.288  25.041  28.642  1.00  0.00    -0.203 F 
ATOM     87  F   UNL A   1      45.067  27.551  24.678  1.00  0.00    -0.200 F 
ATOM     88  C   UNL A   1      44.248  25.558  25.642  1.00  0.00     0.200 A 
ATOM     89  F   UNL A   1      43.403  23.594  26.646  1.00  0.00    -0.200 F 
ATOM     90  F   UNL A   1      44.783  24.838  24.647  1.00  0.00    -0.200 F 
ENDBRANCH  56  80
BRANCH  68  91
ATOM     91  C   UNL A   1      45.454  28.589  34.146  1.00  0.00     0.064 A 
ATOM     92  C   UNL A   1      46.544  29.471  34.140  1.00  0.00     0.173 A 
ATOM     93  C   UNL A   1      45.547  27.431  34.933  1.00  0.00     0.173 A 
ATOM     94  F   UNL A   1      46.508  30.585  33.393  1.00  0.00    -0.203 F 
ATOM     95  C   UNL A   1      47.685  29.201  34.891  1.00  0.00     0.198 A 
ATOM     96  C   UNL A   1      46.679  27.178  35.704  1.00  0.00     0.198 A 
ATOM     97  F   UNL A   1      44.529  26.560  34.977  1.00  0.00    -0.203 F 
ATOM     98  F   UNL A   1      48.727  30.043  34.849  1.00  0.00    -0.200 F 
ATOM     99  C   UNL A   1      47.747  28.062  35.680  1.00  0.00     0.200 A 
ATOM    100  F   UNL A   1      46.730  26.086  36.478  1.00  0.00    -0.200 F 
ATOM    101  F   UNL A   1      48.838  27.815  36.418  1.00  0.00    -0.200 F 
ENDBRANCH  68  91
ENDBRANCH  42  43
ENDBRANCH  34  37
ENDBRANCH  32  33
ENDBRANCH  31  32
ENDBRANCH   1  31
TORSDOF 14
ENDMDL
MODEL 3
REMARK VINA RESULT:     -14.1      2.122      7.635
REMARK SMILES COC(=O)c1ccc2oc(=O)c([C@H]3N=c4ccc(C(=O)NCCCCNC(=O)c5ccc(-c6c7nc(c(-c8c(F)c(F)c(F)c(F)c8F)c8ccc([nH]8)c(-c8c(F)c(F)c(F)c(F)c8F)c8nc(c(-c9c(F)c(F)c(F)c(F)c9F)c9ccc6[nH]9)C=C8)C=C7)cc5)cc4=N3)cc2c1
REMARK SMILES IDX 23 1 22 2 21 3 19 4 20 5 18 7 13 8 14 9 94 10 15 11 93 12
REMARK SMILES IDX 16 13 92 14 17 15 12 16 5 17 6 18 97 19 7 20 96 21 8 22
REMARK SMILES IDX 95 23 9 24 10 25 11 26 3 27 4 28 2 29 1 30 24 31 25 32 26 33
REMARK SMILES IDX 27 34 28 36 29 37 30 38 91 39 31 40 90 41 32 42 33 43 34 44
REMARK SMILES IDX 84 45 35 46 89 47 83 48 85 49 36 50 88 51 82 52 81 53 37 55
REMARK SMILES IDX 69 56 49 57 68 58 50 59 53 60 67 61 86 62 51 63 52 64 66 66
REMARK SMILES IDX 87 67 54 68 38 69 39 70 47 71 40 72 41 73 45 74 48 75 42 76
REMARK SMILES IDX 43 77 46 78 44 79 70 80 71 81 79 82 72 83 73 84 77 85 80 86
REMARK SMILES IDX 74 87 75 88 78 89 76 90 55 91 56 92 64 93 57 94 58 95 62 96
REMARK SMILES IDX 65 97 59 98 60 99 63 100 61 101
REMARK H PARENT 21 6 26 35 85 54 53 65
REMARK Flexibility Score: inf
ROOT
ATOM      1  C   UNL A   1      34.120  33.214  28.884  1.00  0.00     0.023 C 
ENDROOT
BRANCH   1   2
ATOM      2  C   UNL A   1      34.164  32.263  27.684  1.00  0.00     0.116 C 
BRANCH   2   3
ATOM      3  N   UNL A   1      35.260  31.324  27.815  1.00  0.00    -0.352 N 
ATOM      4  C   UNL A   1      35.367  29.983  27.618  1.00  0.00     0.251 C 
ATOM      5  O   UNL A   1      36.477  29.490  27.842  1.00  0.00    -0.269 OA
ATOM      6  H   UNL A   1      36.100  31.744  28.107  1.00  0.00     0.163 HD
BRANCH   4   7
ATOM      7  C   UNL A   1      34.241  29.125  27.104  1.00  0.00     0.042 A 
ATOM      8  C   UNL A   1      32.121  26.455  24.152  1.00  0.00     0.260 C 
ATOM      9  N   UNL A   1      31.290  26.909  25.298  1.00  0.00    -0.251 NA
ATOM     10  N   UNL A   1      33.461  27.098  24.173  1.00  0.00    -0.251 NA
ATOM     11  C   UNL A   1      32.138  27.599  25.979  1.00  0.00     0.086 A 
ATOM     12  C   UNL A   1      33.434  27.748  25.286  1.00  0.00     0.087 A 
ATOM     13  C   UNL A   1      31.971  28.163  27.312  1.00  0.00     0.031 A 
ATOM     14  C   UNL A   1      34.473  28.587  25.889  1.00  0.00     0.044 A 
ATOM     15  C   UNL A   1      33.017  28.817  27.834  1.00  0.00     0.016 A 
BRANCH   8  16
ATOM     16  C   UNL A   1      32.213  24.953  24.177  1.00  0.00     0.085 A 
ATOM     17  C   UNL A   1      34.696  20.824  24.752  1.00  0.00     0.060 A 
ATOM     18  C   UNL A   1      33.579  20.089  24.329  1.00  0.00     0.019 A 
ATOM     19  C   UNL A   1      34.619  22.219  24.877  1.00  0.00     0.027 A 
ATOM     20  C   UNL A   1      32.395  20.753  24.004  1.00  0.00     0.049 A 
ATOM     21  C   UNL A   1      33.440  22.884  24.540  1.00  0.00     0.019 A 
ATOM     22  C   UNL A   1      32.350  22.142  24.101  1.00  0.00     0.138 A 
ATOM     23  C   UNL A   1      33.324  24.329  24.603  1.00  0.00     0.027 A 
ATOM     24  O   UNL A   1      31.165  22.780  23.705  1.00  0.00    -0.422 OA
ATOM     25  C   UNL A   1      31.061  24.170  23.648  1.00  0.00     0.343 A 
ATOM     26  O   UNL A   1      30.056  24.687  23.170  1.00  0.00    -0.246 OA
BRANCH  17  27
ATOM     27  C   UNL A   1      35.993  20.174  25.065  1.00  0.00     0.337 C 
ATOM     28  O   UNL A   1      36.258  19.026  24.774  1.00  0.00    -0.246 OA
BRANCH  27  29
ATOM     29  O   UNL A   1      36.762  21.025  25.792  1.00  0.00    -0.465 OA
ATOM     30  C   UNL A   1      37.930  21.478  25.105  1.00  0.00     0.282 C 
ENDBRANCH  27  29
ENDBRANCH  17  27
ENDBRANCH   8  16
ENDBRANCH   4   7
ENDBRANCH   2   3
ENDBRANCH   1   2
BRANCH   1  31
ATOM     31  C   UNL A   1      33.282  34.474  28.657  1.00  0.00     0.023 C 
BRANCH  31  32
ATOM     32  C   UNL A   1      33.669  35.666  29.523  1.00  0.00     0.116 C 
BRANCH  32  33
ATOM     33  N   UNL A   1      32.628  36.081  30.454  1.00  0.00    -0.352 N 
ATOM     34  C   UNL A   1      32.565  35.873  31.814  1.00  0.00     0.251 C 
ATOM     35  H   UNL A   1      31.873  36.574  30.061  1.00  0.00     0.163 HD
ATOM     36  O   UNL A   1      31.574  36.208  32.451  1.00  0.00    -0.269 OA
BRANCH  34  37
ATOM     37  C   UNL A   1      33.690  35.190  32.488  1.00  0.00     0.039 A 
ATOM     38  C   UNL A   1      34.930  35.821  32.604  1.00  0.00     0.014 A 
ATOM     39  C   UNL A   1      33.519  33.882  32.944  1.00  0.00     0.014 A 
ATOM     40  C   UNL A   1      36.037  35.082  32.996  1.00  0.00     0.010 A 
ATOM     41  C   UNL A   1      34.618  33.172  33.434  1.00  0.00     0.010 A 
ATOM     42  C   UNL A   1      35.898  33.747  33.411  1.00  0.00    -0.014 A 
BRANCH  42  43
ATOM     43  C   UNL A   1      37.112  32.985  33.805  1.00  0.00     0.031 A 
ATOM     44  C   UNL A   1      37.725  31.972  32.876  1.00  0.00     0.074 A 
ATOM     45  C   UNL A   1      37.706  33.268  34.980  1.00  0.00     0.049 A 
ATOM     46  N   UNL A   1      38.813  31.258  33.036  1.00  0.00    -0.248 NA
ATOM     47  C   UNL A   1      37.031  31.720  31.602  1.00  0.00     0.031 C 
ATOM     48  C   UNL A   1      37.208  34.236  35.959  1.00  0.00     0.029 A 
ATOM     49  N   UNL A   1      38.870  32.802  35.537  1.00  0.00    -0.354 N 
ATOM     50  C   UNL A   1      38.925  30.471  31.898  1.00  0.00     0.074 A 
ATOM     51  C   UNL A   1      37.777  30.763  31.068  1.00  0.00     0.031 C 
ATOM     52  C   UNL A   1      38.092  34.344  36.960  1.00  0.00     0.029 A 
ATOM     53  C   UNL A   1      39.183  33.403  36.731  1.00  0.00     0.049 A 
ATOM     54  H   UNL A   1      39.426  32.106  35.120  1.00  0.00     0.167 HD
ATOM     55  C   UNL A   1      39.906  29.596  31.570  1.00  0.00     0.037 A 
ATOM     56  C   UNL A   1      40.228  33.212  37.559  1.00  0.00     0.037 A 
ATOM     57  C   UNL A   1      41.061  29.328  32.388  1.00  0.00     0.049 A 
ATOM     58  C   UNL A   1      41.276  32.200  37.192  1.00  0.00     0.074 A 
ATOM     59  C   UNL A   1      42.121  28.478  32.128  1.00  0.00     0.029 A 
ATOM     60  N   UNL A   1      41.307  29.907  33.624  1.00  0.00    -0.354 N 
ATOM     61  N   UNL A   1      41.378  31.476  36.105  1.00  0.00    -0.248 NA
ATOM     62  C   UNL A   1      42.349  31.973  38.170  1.00  0.00     0.031 C 
ATOM     63  C   UNL A   1      42.984  28.504  33.227  1.00  0.00     0.029 A 
ATOM     64  C   UNL A   1      42.489  29.412  34.150  1.00  0.00     0.049 A 
ATOM     65  H   UNL A   1      40.727  30.572  34.063  1.00  0.00     0.167 HD
ATOM     66  C   UNL A   1      42.528  30.715  36.260  1.00  0.00     0.074 A 
ATOM     67  C   UNL A   1      43.103  31.083  37.537  1.00  0.00     0.031 C 
ATOM     68  C   UNL A   1      43.053  29.790  35.422  1.00  0.00     0.037 A 
BRANCH  55  69
ATOM     69  C   UNL A   1      39.788  28.857  30.268  1.00  0.00     0.064 A 
ATOM     70  C   UNL A   1      40.269  29.401  29.068  1.00  0.00     0.173 A 
ATOM     71  C   UNL A   1      39.262  27.555  30.234  1.00  0.00     0.173 A 
ATOM     72  F   UNL A   1      40.773  30.644  29.044  1.00  0.00    -0.203 F 
ATOM     73  C   UNL A   1      40.218  28.674  27.880  1.00  0.00     0.198 A 
ATOM     74  C   UNL A   1      39.238  26.822  29.051  1.00  0.00     0.198 A 
ATOM     75  F   UNL A   1      38.796  26.985  31.355  1.00  0.00    -0.203 F 
ATOM     76  F   UNL A   1      40.656  29.225  26.740  1.00  0.00    -0.200 F 
ATOM     77  C   UNL A   1      39.712  27.383  27.875  1.00  0.00     0.200 A 
ATOM     78  F   UNL A   1      38.764  25.568  29.050  1.00  0.00    -0.200 F 
ATOM     79  F   UNL A   1      39.681  26.678  26.735  1.00  0.00    -0.200 F 
ENDBRANCH  55  69
BRANCH  56  80
ATOM     80  C   UNL A   1      40.326  34.009  38.809  1.00  0.00     0.064 A 
ATOM     81  C   UNL A   1      40.966  35.255  38.820  1.00  0.00     0.173 A 
ATOM     82  C   UNL A   1      39.751  33.559  40.008  1.00  0.00     0.173 A 
ATOM     83  F   UNL A   1      41.547  35.719  37.704  1.00  0.00    -0.203 F 
ATOM     84  C   UNL A   1      41.029  36.020  39.983  1.00  0.00     0.198 A 
ATOM     85  C   UNL A   1      39.786  34.339  41.160  1.00  0.00     0.198 A 
ATOM     86  F   UNL A   1      39.122  32.375  40.049  1.00  0.00    -0.203 F 
ATOM     87  F   UNL A   1      41.670  37.196  39.974  1.00  0.00    -0.200 F 
ATOM     88  C   UNL A   1      40.429  35.567  41.149  1.00  0.00     0.200 A 
ATOM     89  F   UNL A   1      39.188  33.906  42.279  1.00  0.00    -0.200 F 
ATOM     90  F   UNL A   1      40.473  36.312  42.261  1.00  0.00    -0.200 F 
ENDBRANCH  56  80
BRANCH  68  91
ATOM     91  C   UNL A   1      44.323  29.112  35.842  1.00  0.00     0.064 A 
ATOM     92  C   UNL A   1      45.577  29.663  35.541  1.00  0.00     0.173 A 
ATOM     93  C   UNL A   1      44.284  27.951  36.628  1.00  0.00     0.173 A 
ATOM     94  F   UNL A   1      45.666  30.765  34.780  1.00  0.00    -0.203 F 
ATOM     95  C   UNL A   1      46.748  29.069  36.005  1.00  0.00     0.198 A 
ATOM     96  C   UNL A   1      45.455  27.377  37.115  1.00  0.00     0.198 A 
ATOM     97  F   UNL A   1      43.109  27.391  36.950  1.00  0.00    -0.203 F 
ATOM     98  F   UNL A   1      47.937  29.595  35.682  1.00  0.00    -0.200 F 
ATOM     99  C   UNL A   1      46.685  27.934  36.801  1.00  0.00     0.200 A 
ATOM    100  F   UNL A   1      45.392  26.290  37.896  1.00  0.00    -0.200 F 
ATOM    101  F   UNL A   1      47.813  27.377  37.265  1.00  0.00    -0.200 F 
ENDBRANCH  68  91
ENDBRANCH  42  43
ENDBRANCH  34  37
ENDBRANCH  32  33
ENDBRANCH  31  32
ENDBRANCH   1  31
TORSDOF 14
ENDMDL
