MODEL 1
REMARK VINA RESULT:     -14.5      0.000      0.000
REMARK SMILES O=C(NCCCCNC(=O)[C@@H](Cc1ccc(O)cc1)Nc1c2ccccc2nc2ccccc12)c1ccc(-c2c3nc(c(-c4c(F)c(F)c(F)c(F)c4F)c4ccc([nH]4)c(-c4c(F)c(F)c(F)c(F)c4F)c4nc(c(-c5c(F)c(F)c(F)c(F)c5F)c5ccc2[nH]5)C=C4)C=C3)cc1
REMARK SMILES IDX 6 1 5 2 4 3 3 4 1 5 2 6 35 8 36 9 97 10 37 11 96 12 38 13
REMARK SMILES IDX 39 14 40 15 90 16 41 17 95 18 89 19 91 20 42 21 94 22 88 23
REMARK SMILES IDX 87 24 43 26 75 27 55 28 74 29 56 30 59 31 73 32 92 33 57 34
REMARK SMILES IDX 58 35 72 37 93 38 60 39 44 40 45 41 53 42 46 43 47 44 51 45
REMARK SMILES IDX 54 46 48 47 49 48 52 49 50 50 76 51 77 52 85 53 78 54 79 55
REMARK SMILES IDX 83 56 86 57 80 58 81 59 84 60 82 61 61 62 62 63 70 64 63 65
REMARK SMILES IDX 64 66 68 67 71 68 65 69 66 70 69 71 67 72 7 73 8 74 9 75
REMARK SMILES IDX 10 77 11 78 12 79 13 80 14 81 19 82 15 83 18 84 16 85 17 86
REMARK SMILES IDX 20 88 21 90 22 91 34 92 23 93 27 94 29 95 33 96 24 97 26 98
REMARK SMILES IDX 28 99 30 100 32 101 25 102 31 103
REMARK H PARENT 3 7 91 25 59 36 8 76 17 87 20 89
REMARK Flexibility Score: inf
ROOT
ATOM      1  C   UNL A   1      32.115  27.545  26.938  1.00  0.00     0.023 C 
ENDROOT
BRANCH   1   2
ATOM      2  C   UNL A   1      31.757  28.661  25.969  1.00  0.00     0.023 C 
BRANCH   2   3
ATOM      3  C   UNL A   1      32.780  29.786  25.896  1.00  0.00     0.116 C 
BRANCH   3   4
ATOM      4  N   UNL A   1      32.405  31.014  26.591  1.00  0.00    -0.352 N 
ATOM      5  O   UNL A   1      32.743  32.824  27.917  1.00  0.00    -0.269 OA
ATOM      6  C   UNL A   1      33.194  31.815  27.392  1.00  0.00     0.251 C 
ATOM      7  H   UNL A   1      31.473  31.307  26.474  1.00  0.00     0.163 HD
BRANCH   6   8
ATOM      8  C   UNL A   1      34.584  31.377  27.651  1.00  0.00     0.039 A 
ATOM      9  C   UNL A   1      34.842  30.042  27.957  1.00  0.00     0.014 A 
ATOM     10  C   UNL A   1      35.592  32.338  27.760  1.00  0.00     0.014 A 
ATOM     11  C   UNL A   1      36.031  29.712  28.592  1.00  0.00     0.010 A 
ATOM     12  C   UNL A   1      36.831  31.978  28.303  1.00  0.00     0.010 A 
ATOM     13  C   UNL A   1      37.032  30.680  28.798  1.00  0.00    -0.014 A 
BRANCH  13  14
ATOM     14  C   UNL A   1      38.241  30.303  29.579  1.00  0.00     0.031 A 
ATOM     15  C   UNL A   1      38.391  30.700  31.026  1.00  0.00     0.074 A 
ATOM     16  C   UNL A   1      39.163  29.504  29.008  1.00  0.00     0.049 A 
ATOM     17  N   UNL A   1      39.342  30.385  31.873  1.00  0.00    -0.248 NA
ATOM     18  C   UNL A   1      37.351  31.567  31.600  1.00  0.00     0.031 C 
ATOM     19  C   UNL A   1      39.133  29.049  27.617  1.00  0.00     0.029 A 
ATOM     20  N   UNL A   1      40.270  28.889  29.535  1.00  0.00    -0.354 N 
ATOM     21  C   UNL A   1      39.040  31.051  33.054  1.00  0.00     0.074 A 
ATOM     22  C   UNL A   1      37.818  31.790  32.821  1.00  0.00     0.031 C 
ATOM     23  C   UNL A   1      40.118  28.160  27.424  1.00  0.00     0.029 A 
ATOM     24  C   UNL A   1      40.883  28.027  28.660  1.00  0.00     0.049 A 
ATOM     25  H   UNL A   1      40.592  29.050  30.451  1.00  0.00     0.167 HD
ATOM     26  C   UNL A   1      39.718  31.045  34.227  1.00  0.00     0.037 A 
ATOM     27  C   UNL A   1      41.940  27.214  28.831  1.00  0.00     0.037 A 
ATOM     28  C   UNL A   1      40.899  30.264  34.485  1.00  0.00     0.049 A 
ATOM     29  C   UNL A   1      42.640  27.183  30.158  1.00  0.00     0.074 A 
ATOM     30  C   UNL A   1      41.638  30.172  35.654  1.00  0.00     0.029 A 
ATOM     31  N   UNL A   1      41.505  29.423  33.564  1.00  0.00    -0.354 N 
ATOM     32  N   UNL A   1      42.346  27.827  31.260  1.00  0.00    -0.248 NA
ATOM     33  C   UNL A   1      43.824  26.320  30.260  1.00  0.00     0.031 C 
ATOM     34  C   UNL A   1      42.704  29.292  35.432  1.00  0.00     0.029 A 
ATOM     35  C   UNL A   1      42.611  28.814  34.136  1.00  0.00     0.049 A 
ATOM     36  H   UNL A   1      41.195  29.280  32.641  1.00  0.00     0.167 HD
ATOM     37  C   UNL A   1      43.307  27.451  32.187  1.00  0.00     0.074 A 
ATOM     38  C   UNL A   1      44.176  26.498  31.526  1.00  0.00     0.031 C 
ATOM     39  C   UNL A   1      43.463  27.869  33.465  1.00  0.00     0.037 A 
BRANCH  26  40
ATOM     40  C   UNL A   1      39.215  31.931  35.330  1.00  0.00     0.064 A 
ATOM     41  C   UNL A   1      38.422  31.435  36.373  1.00  0.00     0.173 A 
ATOM     42  C   UNL A   1      39.582  33.285  35.368  1.00  0.00     0.173 A 
ATOM     43  F   UNL A   1      38.035  30.150  36.374  1.00  0.00    -0.203 F 
ATOM     44  C   UNL A   1      38.004  32.265  37.410  1.00  0.00     0.198 A 
ATOM     45  C   UNL A   1      39.180  34.108  36.416  1.00  0.00     0.198 A 
ATOM     46  F   UNL A   1      40.344  33.806  34.394  1.00  0.00    -0.203 F 
ATOM     47  F   UNL A   1      37.222  31.778  38.384  1.00  0.00    -0.200 F 
ATOM     48  C   UNL A   1      38.388  33.599  37.435  1.00  0.00     0.200 A 
ATOM     49  F   UNL A   1      39.559  35.393  36.442  1.00  0.00    -0.200 F 
ATOM     50  F   UNL A   1      37.991  34.394  38.438  1.00  0.00    -0.200 F 
ENDBRANCH  26  40
BRANCH  27  51
ATOM     51  C   UNL A   1      42.382  26.345  27.713  1.00  0.00     0.064 A 
ATOM     52  C   UNL A   1      41.773  25.103  27.487  1.00  0.00     0.173 A 
ATOM     53  C   UNL A   1      43.392  26.751  26.830  1.00  0.00     0.173 A 
ATOM     54  F   UNL A   1      40.814  24.667  28.318  1.00  0.00    -0.203 F 
ATOM     55  C   UNL A   1      42.162  24.297  26.420  1.00  0.00     0.198 A 
ATOM     56  C   UNL A   1      43.762  25.956  25.749  1.00  0.00     0.198 A 
ATOM     57  F   UNL A   1      43.999  27.934  27.004  1.00  0.00    -0.203 F 
ATOM     58  F   UNL A   1      41.581  23.103  26.239  1.00  0.00    -0.200 F 
ATOM     59  C   UNL A   1      43.149  24.728  25.547  1.00  0.00     0.200 A 
ATOM     60  F   UNL A   1      44.706  26.383  24.899  1.00  0.00    -0.200 F 
ATOM     61  F   UNL A   1      43.512  23.960  24.512  1.00  0.00    -0.200 F 
ENDBRANCH  27  51
BRANCH  39  62
ATOM     62  C   UNL A   1      44.612  27.289  34.232  1.00  0.00     0.064 A 
ATOM     63  C   UNL A   1      45.861  27.924  34.259  1.00  0.00     0.173 A 
ATOM     64  C   UNL A   1      44.457  26.100  34.958  1.00  0.00     0.173 A 
ATOM     65  F   UNL A   1      46.058  29.056  33.565  1.00  0.00    -0.203 F 
ATOM     66  C   UNL A   1      46.925  27.376  34.969  1.00  0.00     0.198 A 
ATOM     67  C   UNL A   1      45.519  25.564  35.682  1.00  0.00     0.198 A 
ATOM     68  F   UNL A   1      43.280  25.459  34.963  1.00  0.00    -0.203 F 
ATOM     69  F   UNL A   1      48.123  27.977  34.949  1.00  0.00    -0.200 F 
ATOM     70  C   UNL A   1      46.752  26.199  35.682  1.00  0.00     0.200 A 
ATOM     71  F   UNL A   1      45.350  24.429  36.374  1.00  0.00    -0.200 F 
ATOM     72  F   UNL A   1      47.779  25.670  36.362  1.00  0.00    -0.200 F 
ENDBRANCH  39  62
ENDBRANCH  13  14
ENDBRANCH   6   8
ENDBRANCH   3   4
ENDBRANCH   2   3
ENDBRANCH   1   2
BRANCH   1  73
ATOM     73  C   UNL A   1      32.444  26.192  26.313  1.00  0.00     0.116 C 
BRANCH  73  74
ATOM     74  N   UNL A   1      31.706  25.136  26.965  1.00  0.00    -0.354 N 
ATOM     75  C   UNL A   1      31.290  23.919  26.526  1.00  0.00     0.242 C 
ATOM     76  H   UNL A   1      31.459  25.334  27.897  1.00  0.00     0.163 HD
ATOM     77  O   UNL A   1      30.480  23.342  27.267  1.00  0.00    -0.273 OA
BRANCH  75  78
ATOM     78  C   UNL A   1      31.758  23.234  25.211  1.00  0.00     0.173 C 
BRANCH  78  79
ATOM     79  C   UNL A   1      30.958  23.623  23.938  1.00  0.00     0.070 C 
BRANCH  79  80
ATOM     80  C   UNL A   1      30.752  25.043  23.445  1.00  0.00    -0.045 A 
ATOM     81  C   UNL A   1      29.755  25.908  23.918  1.00  0.00     0.007 A 
ATOM     82  C   UNL A   1      31.677  25.561  22.515  1.00  0.00     0.007 A 
ATOM     83  C   UNL A   1      29.585  27.186  23.365  1.00  0.00     0.046 A 
ATOM     84  C   UNL A   1      31.531  26.845  21.985  1.00  0.00     0.046 A 
ATOM     85  C   UNL A   1      30.461  27.633  22.383  1.00  0.00     0.115 A 
BRANCH  85  86
ATOM     86  O   UNL A   1      30.301  28.836  21.769  1.00  0.00    -0.508 OA
ATOM     87  H   UNL A   1      29.476  29.280  21.813  1.00  0.00     0.293 HD
ENDBRANCH  85  86
ENDBRANCH  79  80
ENDBRANCH  78  79
BRANCH  78  88
ATOM     88  N   UNL A   1      33.217  23.270  25.051  1.00  0.00    -0.372 N 
ATOM     89  H   UNL A   1      33.610  24.165  24.939  1.00  0.00     0.161 HD
BRANCH  88  90
ATOM     90  C   UNL A   1      34.129  22.201  25.036  1.00  0.00     0.054 A 
ATOM     91  C   UNL A   1      33.791  20.836  24.708  1.00  0.00     0.024 A 
ATOM     92  C   UNL A   1      35.502  22.499  25.370  1.00  0.00     0.024 A 
ATOM     93  C   UNL A   1      32.529  20.330  24.279  1.00  0.00     0.012 A 
ATOM     94  C   UNL A   1      34.829  19.881  24.776  1.00  0.00     0.073 A 
ATOM     95  C   UNL A   1      36.427  21.436  25.350  1.00  0.00     0.073 A 
ATOM     96  C   UNL A   1      36.015  23.781  25.729  1.00  0.00     0.012 A 
ATOM     97  C   UNL A   1      32.291  18.978  24.016  1.00  0.00     0.001 A 
ATOM     98  C   UNL A   1      34.583  18.541  24.505  1.00  0.00     0.029 A 
ATOM     99  N   UNL A   1      36.092  20.177  25.077  1.00  0.00    -0.248 NA
ATOM    100  C   UNL A   1      37.767  21.666  25.625  1.00  0.00     0.029 A 
ATOM    101  C   UNL A   1      37.368  23.993  26.010  1.00  0.00     0.001 A 
ATOM    102  C   UNL A   1      33.325  18.073  24.140  1.00  0.00     0.002 A 
ATOM    103  C   UNL A   1      38.252  22.930  25.949  1.00  0.00     0.002 A 
ENDBRANCH  88  90
ENDBRANCH  78  88
ENDBRANCH  75  78
ENDBRANCH  73  74
ENDBRANCH   1  73
TORSDOF 16
ENDMDL
MODEL 2
REMARK VINA RESULT:     -13.9      0.534      2.453
REMARK SMILES O=C(NCCCCNC(=O)[C@@H](Cc1ccc(O)cc1)Nc1c2ccccc2nc2ccccc12)c1ccc(-c2c3nc(c(-c4c(F)c(F)c(F)c(F)c4F)c4ccc([nH]4)c(-c4c(F)c(F)c(F)c(F)c4F)c4nc(c(-c5c(F)c(F)c(F)c(F)c5F)c5ccc2[nH]5)C=C4)C=C3)cc1
REMARK SMILES IDX 6 1 5 2 4 3 3 4 1 5 2 6 35 8 36 9 97 10 37 11 96 12 38 13
REMARK SMILES IDX 39 14 40 15 90 16 41 17 95 18 89 19 91 20 42 21 94 22 88 23
REMARK SMILES IDX 87 24 43 26 75 27 55 28 74 29 56 30 59 31 73 32 92 33 57 34
REMARK SMILES IDX 58 35 72 37 93 38 60 39 44 40 45 41 53 42 46 43 47 44 51 45
REMARK SMILES IDX 54 46 48 47 49 48 52 49 50 50 76 51 77 52 85 53 78 54 79 55
REMARK SMILES IDX 83 56 86 57 80 58 81 59 84 60 82 61 61 62 62 63 70 64 63 65
REMARK SMILES IDX 64 66 68 67 71 68 65 69 66 70 69 71 67 72 7 73 8 74 9 75
REMARK SMILES IDX 10 77 11 78 12 79 13 80 14 81 19 82 15 83 18 84 16 85 17 86
REMARK SMILES IDX 20 88 21 90 22 91 34 92 23 93 27 94 29 95 33 96 24 97 26 98
REMARK SMILES IDX 28 99 30 100 32 101 25 102 31 103
REMARK H PARENT 3 7 91 25 59 36 8 76 17 87 20 89
REMARK Flexibility Score: inf
ROOT
ATOM      1  C   UNL A   1      33.532  27.712  25.263  1.00  0.00     0.023 C 
ENDROOT
BRANCH   1   2
ATOM      2  C   UNL A   1      32.234  28.167  25.912  1.00  0.00     0.023 C 
BRANCH   2   3
ATOM      3  C   UNL A   1      32.409  28.857  27.257  1.00  0.00     0.116 C 
BRANCH   3   4
ATOM      4  N   UNL A   1      32.188  30.301  27.248  1.00  0.00    -0.352 N 
ATOM      5  O   UNL A   1      32.794  32.485  27.356  1.00  0.00    -0.269 OA
ATOM      6  C   UNL A   1      33.124  31.306  27.381  1.00  0.00     0.251 C 
ATOM      7  H   UNL A   1      31.256  30.593  27.133  1.00  0.00     0.163 HD
BRANCH   6   8
ATOM      8  C   UNL A   1      34.530  30.914  27.624  1.00  0.00     0.039 A 
ATOM      9  C   UNL A   1      34.828  29.601  27.985  1.00  0.00     0.014 A 
ATOM     10  C   UNL A   1      35.517  31.902  27.661  1.00  0.00     0.014 A 
ATOM     11  C   UNL A   1      36.041  29.329  28.604  1.00  0.00     0.010 A 
ATOM     12  C   UNL A   1      36.777  31.597  28.188  1.00  0.00     0.010 A 
ATOM     13  C   UNL A   1      37.022  30.329  28.738  1.00  0.00    -0.014 A 
BRANCH  13  14
ATOM     14  C   UNL A   1      38.260  30.018  29.504  1.00  0.00     0.031 A 
ATOM     15  C   UNL A   1      38.430  30.474  30.931  1.00  0.00     0.074 A 
ATOM     16  C   UNL A   1      39.192  29.224  28.942  1.00  0.00     0.049 A 
ATOM     17  N   UNL A   1      39.409  30.220  31.766  1.00  0.00    -0.248 NA
ATOM     18  C   UNL A   1      37.378  31.333  31.496  1.00  0.00     0.031 C 
ATOM     19  C   UNL A   1      39.144  28.716  27.570  1.00  0.00     0.029 A 
ATOM     20  N   UNL A   1      40.329  28.663  29.465  1.00  0.00    -0.354 N 
ATOM     21  C   UNL A   1      39.115  30.922  32.928  1.00  0.00     0.074 A 
ATOM     22  C   UNL A   1      37.866  31.616  32.696  1.00  0.00     0.031 C 
ATOM     23  C   UNL A   1      40.150  27.849  27.388  1.00  0.00     0.029 A 
ATOM     24  C   UNL A   1      40.948  27.786  28.609  1.00  0.00     0.049 A 
ATOM     25  H   UNL A   1      40.666  28.868  30.367  1.00  0.00     0.167 HD
ATOM     26  C   UNL A   1      39.819  30.982  34.084  1.00  0.00     0.037 A 
ATOM     27  C   UNL A   1      42.032  27.011  28.786  1.00  0.00     0.037 A 
ATOM     28  C   UNL A   1      41.028  30.245  34.343  1.00  0.00     0.049 A 
ATOM     29  C   UNL A   1      42.762  27.052  30.096  1.00  0.00     0.074 A 
ATOM     30  C   UNL A   1      41.795  30.220  35.497  1.00  0.00     0.029 A 
ATOM     31  N   UNL A   1      41.638  29.388  33.441  1.00  0.00    -0.354 N 
ATOM     32  N   UNL A   1      42.474  27.729  31.180  1.00  0.00    -0.248 NA
ATOM     33  C   UNL A   1      43.973  26.228  30.203  1.00  0.00     0.031 C 
ATOM     34  C   UNL A   1      42.882  29.364  35.283  1.00  0.00     0.029 A 
ATOM     35  C   UNL A   1      42.774  28.834  34.009  1.00  0.00     0.049 A 
ATOM     36  H   UNL A   1      41.311  29.200  32.531  1.00  0.00     0.167 HD
ATOM     37  C   UNL A   1      43.466  27.417  32.097  1.00  0.00     0.074 A 
ATOM     38  C   UNL A   1      44.349  26.465  31.453  1.00  0.00     0.031 C 
ATOM     39  C   UNL A   1      43.639  27.888  33.355  1.00  0.00     0.037 A 
BRANCH  26  40
ATOM     40  C   UNL A   1      39.314  31.894  35.164  1.00  0.00     0.064 A 
ATOM     41  C   UNL A   1      39.575  33.272  35.149  1.00  0.00     0.173 A 
ATOM     42  C   UNL A   1      38.511  31.387  36.195  1.00  0.00     0.173 A 
ATOM     43  F   UNL A   1      40.349  33.802  34.190  1.00  0.00    -0.203 F 
ATOM     44  C   UNL A   1      39.059  34.107  36.136  1.00  0.00     0.198 A 
ATOM     45  C   UNL A   1      37.979  32.228  37.170  1.00  0.00     0.198 A 
ATOM     46  F   UNL A   1      38.229  30.077  36.250  1.00  0.00    -0.203 F 
ATOM     47  F   UNL A   1      39.343  35.417  36.121  1.00  0.00    -0.200 F 
ATOM     48  C   UNL A   1      38.256  33.586  37.142  1.00  0.00     0.200 A 
ATOM     49  F   UNL A   1      37.197  31.724  38.134  1.00  0.00    -0.200 F 
ATOM     50  F   UNL A   1      37.754  34.394  38.086  1.00  0.00    -0.200 F 
ENDBRANCH  26  40
BRANCH  27  51
ATOM     51  C   UNL A   1      42.474  26.113  27.691  1.00  0.00     0.064 A 
ATOM     52  C   UNL A   1      41.885  24.853  27.516  1.00  0.00     0.173 A 
ATOM     53  C   UNL A   1      43.464  26.507  26.781  1.00  0.00     0.173 A 
ATOM     54  F   UNL A   1      40.946  24.429  28.375  1.00  0.00    -0.203 F 
ATOM     55  C   UNL A   1      42.274  24.019  26.472  1.00  0.00     0.198 A 
ATOM     56  C   UNL A   1      43.834  25.682  25.722  1.00  0.00     0.198 A 
ATOM     57  F   UNL A   1      44.052  27.706  26.906  1.00  0.00    -0.203 F 
ATOM     58  F   UNL A   1      41.713  22.809  26.340  1.00  0.00    -0.200 F 
ATOM     59  C   UNL A   1      43.241  24.438  25.570  1.00  0.00     0.200 A 
ATOM     60  F   UNL A   1      44.757  26.097  24.845  1.00  0.00    -0.200 F 
ATOM     61  F   UNL A   1      43.604  23.641  24.556  1.00  0.00    -0.200 F 
ENDBRANCH  27  51
BRANCH  39  62
ATOM     62  C   UNL A   1      44.821  27.372  34.115  1.00  0.00     0.064 A 
ATOM     63  C   UNL A   1      44.727  26.219  34.907  1.00  0.00     0.173 A 
ATOM     64  C   UNL A   1      46.060  28.025  34.040  1.00  0.00     0.173 A 
ATOM     65  F   UNL A   1      43.558  25.572  35.021  1.00  0.00    -0.203 F 
ATOM     66  C   UNL A   1      45.829  25.749  35.616  1.00  0.00     0.198 A 
ATOM     67  C   UNL A   1      47.163  27.542  34.736  1.00  0.00     0.198 A 
ATOM     68  F   UNL A   1      46.196  29.131  33.294  1.00  0.00    -0.203 F 
ATOM     69  F   UNL A   1      45.708  24.668  36.399  1.00  0.00    -0.200 F 
ATOM     70  C   UNL A   1      47.046  26.408  35.527  1.00  0.00     0.200 A 
ATOM     71  F   UNL A   1      48.340  28.176  34.647  1.00  0.00    -0.200 F 
ATOM     72  F   UNL A   1      48.105  25.956  36.215  1.00  0.00    -0.200 F 
ENDBRANCH  39  62
ENDBRANCH  13  14
ENDBRANCH   6   8
ENDBRANCH   3   4
ENDBRANCH   2   3
ENDBRANCH   1   2
BRANCH   1  73
ATOM     73  C   UNL A   1      33.672  26.212  25.019  1.00  0.00     0.116 C 
BRANCH  73  74
ATOM     74  N   UNL A   1      33.110  25.462  26.117  1.00  0.00    -0.354 N 
ATOM     75  C   UNL A   1      32.316  24.358  26.147  1.00  0.00     0.242 C 
ATOM     76  H   UNL A   1      33.343  25.813  27.006  1.00  0.00     0.163 HD
ATOM     77  O   UNL A   1      31.823  24.095  27.253  1.00  0.00    -0.273 OA
BRANCH  75  78
ATOM     78  C   UNL A   1      32.013  23.441  24.928  1.00  0.00     0.173 C 
BRANCH  78  79
ATOM     79  C   UNL A   1      30.822  23.890  24.039  1.00  0.00     0.070 C 
BRANCH  79  80
ATOM     80  C   UNL A   1      30.618  25.298  23.510  1.00  0.00    -0.045 A 
ATOM     81  C   UNL A   1      29.691  26.212  24.030  1.00  0.00     0.007 A 
ATOM     82  C   UNL A   1      31.476  25.750  22.486  1.00  0.00     0.007 A 
ATOM     83  C   UNL A   1      29.513  27.474  23.445  1.00  0.00     0.046 A 
ATOM     84  C   UNL A   1      31.324  27.019  21.920  1.00  0.00     0.046 A 
ATOM     85  C   UNL A   1      30.316  27.855  22.376  1.00  0.00     0.115 A 
BRANCH  85  86
ATOM     86  O   UNL A   1      30.141  29.041  21.731  1.00  0.00    -0.508 OA
ATOM     87  H   UNL A   1      29.819  29.787  22.199  1.00  0.00     0.293 HD
ENDBRANCH  85  86
ENDBRANCH  79  80
ENDBRANCH  78  79
BRANCH  78  88
ATOM     88  N   UNL A   1      33.227  23.079  24.186  1.00  0.00    -0.372 N 
ATOM     89  H   UNL A   1      33.399  23.603  23.371  1.00  0.00     0.161 HD
BRANCH  88  90
ATOM     90  C   UNL A   1      34.177  22.086  24.481  1.00  0.00     0.054 A 
ATOM     91  C   UNL A   1      35.524  22.345  24.932  1.00  0.00     0.024 A 
ATOM     92  C   UNL A   1      33.765  20.711  24.325  1.00  0.00     0.024 A 
ATOM     93  C   UNL A   1      36.117  23.607  25.225  1.00  0.00     0.012 A 
ATOM     94  C   UNL A   1      36.357  21.225  25.149  1.00  0.00     0.073 A 
ATOM     95  C   UNL A   1      34.707  19.707  24.627  1.00  0.00     0.073 A 
ATOM     96  C   UNL A   1      32.483  20.267  23.883  1.00  0.00     0.012 A 
ATOM     97  C   UNL A   1      37.449  23.758  25.625  1.00  0.00     0.001 A 
ATOM     98  C   UNL A   1      37.676  21.386  25.554  1.00  0.00     0.029 A 
ATOM     99  N   UNL A   1      35.956  19.963  25.009  1.00  0.00    -0.248 NA
ATOM    100  C   UNL A   1      34.360  18.367  24.532  1.00  0.00     0.029 A 
ATOM    101  C   UNL A   1      32.153  18.913  23.787  1.00  0.00     0.001 A 
ATOM    102  C   UNL A   1      38.238  22.638  25.781  1.00  0.00     0.002 A 
ATOM    103  C   UNL A   1      33.094  17.956  24.122  1.00  0.00     0.002 A 
ENDBRANCH  88  90
ENDBRANCH  78  88
ENDBRANCH  75  78
ENDBRANCH  73  74
ENDBRANCH   1  73
TORSDOF 16
ENDMDL
MODEL 3
REMARK VINA RESULT:     -13.9      3.935      9.666
REMARK SMILES O=C(NCCCCNC(=O)[C@@H](Cc1ccc(O)cc1)Nc1c2ccccc2nc2ccccc12)c1ccc(-c2c3nc(c(-c4c(F)c(F)c(F)c(F)c4F)c4ccc([nH]4)c(-c4c(F)c(F)c(F)c(F)c4F)c4nc(c(-c5c(F)c(F)c(F)c(F)c5F)c5ccc2[nH]5)C=C4)C=C3)cc1
REMARK SMILES IDX 6 1 5 2 4 3 3 4 1 5 2 6 35 8 36 9 97 10 37 11 96 12 38 13
REMARK SMILES IDX 39 14 40 15 90 16 41 17 95 18 89 19 91 20 42 21 94 22 88 23
REMARK SMILES IDX 87 24 43 26 75 27 55 28 74 29 56 30 59 31 73 32 92 33 57 34
REMARK SMILES IDX 58 35 72 37 93 38 60 39 44 40 45 41 53 42 46 43 47 44 51 45
REMARK SMILES IDX 54 46 48 47 49 48 52 49 50 50 76 51 77 52 85 53 78 54 79 55
REMARK SMILES IDX 83 56 86 57 80 58 81 59 84 60 82 61 61 62 62 63 70 64 63 65
REMARK SMILES IDX 64 66 68 67 71 68 65 69 66 70 69 71 67 72 7 73 8 74 9 75
REMARK SMILES IDX 10 77 11 78 12 79 13 80 14 81 19 82 15 83 18 84 16 85 17 86
REMARK SMILES IDX 20 88 21 90 22 91 34 92 23 93 27 94 29 95 33 96 24 97 26 98
REMARK SMILES IDX 28 99 30 100 32 101 25 102 31 103
REMARK H PARENT 3 7 91 25 59 36 8 76 17 87 20 89
REMARK Flexibility Score: inf
ROOT
ATOM      1  C   UNL A   1      34.771  21.330  24.680  1.00  0.00     0.023 C 
ENDROOT
BRANCH   1   2
ATOM      2  C   UNL A   1      36.025  22.047  24.205  1.00  0.00     0.023 C 
BRANCH   2   3
ATOM      3  C   UNL A   1      37.093  22.227  25.274  1.00  0.00     0.116 C 
BRANCH   3   4
ATOM      4  N   UNL A   1      38.115  21.183  25.313  1.00  0.00    -0.352 N 
ATOM      5  O   UNL A   1      40.070  20.229  25.957  1.00  0.00    -0.269 OA
ATOM      6  C   UNL A   1      39.301  21.179  26.019  1.00  0.00     0.251 C 
ATOM      7  H   UNL A   1      37.935  20.384  24.769  1.00  0.00     0.163 HD
BRANCH   6   8
ATOM      8  C   UNL A   1      39.645  22.389  26.799  1.00  0.00     0.039 A 
ATOM      9  C   UNL A   1      39.037  23.605  26.493  1.00  0.00     0.014 A 
ATOM     10  C   UNL A   1      40.702  22.333  27.711  1.00  0.00     0.014 A 
ATOM     11  C   UNL A   1      39.634  24.785  26.914  1.00  0.00     0.010 A 
ATOM     12  C   UNL A   1      41.235  23.524  28.219  1.00  0.00     0.010 A 
ATOM     13  C   UNL A   1      40.758  24.761  27.762  1.00  0.00    -0.014 A 
BRANCH  13  14
ATOM     14  C   UNL A   1      41.427  26.048  28.097  1.00  0.00     0.031 A 
ATOM     15  C   UNL A   1      42.786  26.390  27.540  1.00  0.00     0.074 A 
ATOM     16  C   UNL A   1      40.756  26.961  28.824  1.00  0.00     0.049 A 
ATOM     17  N   UNL A   1      43.473  27.499  27.667  1.00  0.00    -0.248 NA
ATOM     18  C   UNL A   1      43.469  25.357  26.746  1.00  0.00     0.031 C 
ATOM     19  C   UNL A   1      39.435  26.753  29.420  1.00  0.00     0.029 A 
ATOM     20  N   UNL A   1      41.063  28.260  29.142  1.00  0.00    -0.354 N 
ATOM     21  C   UNL A   1      44.681  27.280  27.015  1.00  0.00     0.074 A 
ATOM     22  C   UNL A   1      44.637  25.931  26.491  1.00  0.00     0.031 C 
ATOM     23  C   UNL A   1      39.006  27.907  29.951  1.00  0.00     0.029 A 
ATOM     24  C   UNL A   1      40.045  28.919  29.786  1.00  0.00     0.049 A 
ATOM     25  H   UNL A   1      41.927  28.678  28.927  1.00  0.00     0.167 HD
ATOM     26  C   UNL A   1      45.728  28.125  26.865  1.00  0.00     0.037 A 
ATOM     27  C   UNL A   1      39.953  30.197  30.194  1.00  0.00     0.037 A 
ATOM     28  C   UNL A   1      45.752  29.488  27.329  1.00  0.00     0.049 A 
ATOM     29  C   UNL A   1      41.105  31.130  29.964  1.00  0.00     0.074 A 
ATOM     30  C   UNL A   1      46.760  30.429  27.195  1.00  0.00     0.029 A 
ATOM     31  N   UNL A   1      44.712  30.110  28.000  1.00  0.00    -0.354 N 
ATOM     32  N   UNL A   1      42.242  30.901  29.356  1.00  0.00    -0.248 NA
ATOM     33  C   UNL A   1      40.964  32.494  30.489  1.00  0.00     0.031 C 
ATOM     34  C   UNL A   1      46.337  31.616  27.807  1.00  0.00     0.029 A 
ATOM     35  C   UNL A   1      45.055  31.420  28.293  1.00  0.00     0.049 A 
ATOM     36  H   UNL A   1      43.856  29.684  28.234  1.00  0.00     0.167 HD
ATOM     37  C   UNL A   1      42.954  32.090  29.423  1.00  0.00     0.074 A 
ATOM     38  C   UNL A   1      42.108  33.047  30.107  1.00  0.00     0.031 C 
ATOM     39  C   UNL A   1      44.202  32.359  28.973  1.00  0.00     0.037 A 
BRANCH  26  40
ATOM     40  C   UNL A   1      46.958  27.599  26.184  1.00  0.00     0.064 A 
ATOM     41  C   UNL A   1      47.113  27.652  24.792  1.00  0.00     0.173 A 
ATOM     42  C   UNL A   1      48.020  27.088  26.946  1.00  0.00     0.173 A 
ATOM     43  F   UNL A   1      46.120  28.121  24.020  1.00  0.00    -0.203 F 
ATOM     44  C   UNL A   1      48.282  27.200  24.185  1.00  0.00     0.198 A 
ATOM     45  C   UNL A   1      49.195  26.656  26.338  1.00  0.00     0.198 A 
ATOM     46  F   UNL A   1      47.922  27.021  28.282  1.00  0.00    -0.203 F 
ATOM     47  F   UNL A   1      48.399  27.232  22.850  1.00  0.00    -0.200 F 
ATOM     48  C   UNL A   1      49.325  26.708  24.958  1.00  0.00     0.200 A 
ATOM     49  F   UNL A   1      50.204  26.189  27.087  1.00  0.00    -0.200 F 
ATOM     50  F   UNL A   1      50.451  26.281  24.372  1.00  0.00    -0.200 F 
ENDBRANCH  26  40
BRANCH  27  51
ATOM     51  C   UNL A   1      38.705  30.667  30.844  1.00  0.00     0.064 A 
ATOM     52  C   UNL A   1      38.586  30.680  32.240  1.00  0.00     0.173 A 
ATOM     53  C   UNL A   1      37.625  31.145  30.088  1.00  0.00     0.173 A 
ATOM     54  F   UNL A   1      39.588  30.216  33.002  1.00  0.00    -0.203 F 
ATOM     55  C   UNL A   1      37.428  31.150  32.856  1.00  0.00     0.198 A 
ATOM     56  C   UNL A   1      36.479  31.638  30.706  1.00  0.00     0.198 A 
ATOM     57  F   UNL A   1      37.697  31.157  28.749  1.00  0.00    -0.203 F 
ATOM     58  F   UNL A   1      37.328  31.129  34.193  1.00  0.00    -0.200 F 
ATOM     59  C   UNL A   1      36.380  31.636  32.090  1.00  0.00     0.200 A 
ATOM     60  F   UNL A   1      35.476  32.121  29.962  1.00  0.00    -0.200 F 
ATOM     61  F   UNL A   1      35.274  32.102  32.683  1.00  0.00    -0.200 F 
ENDBRANCH  27  51
BRANCH  39  62
ATOM     62  C   UNL A   1      44.720  33.746  29.199  1.00  0.00     0.064 A 
ATOM     63  C   UNL A   1      45.424  34.077  30.365  1.00  0.00     0.173 A 
ATOM     64  C   UNL A   1      44.525  34.746  28.236  1.00  0.00     0.173 A 
ATOM     65  F   UNL A   1      45.619  33.155  31.320  1.00  0.00    -0.203 F 
ATOM     66  C   UNL A   1      45.896  35.370  30.570  1.00  0.00     0.198 A 
ATOM     67  C   UNL A   1      45.015  36.033  28.436  1.00  0.00     0.198 A 
ATOM     68  F   UNL A   1      43.859  34.474  27.104  1.00  0.00    -0.203 F 
ATOM     69  F   UNL A   1      46.532  35.676  31.710  1.00  0.00    -0.200 F 
ATOM     70  C   UNL A   1      45.695  36.345  29.604  1.00  0.00     0.200 A 
ATOM     71  F   UNL A   1      44.824  36.974  27.502  1.00  0.00    -0.200 F 
ATOM     72  F   UNL A   1      46.147  37.591  29.806  1.00  0.00    -0.200 F 
ENDBRANCH  39  62
ENDBRANCH  13  14
ENDBRANCH   6   8
ENDBRANCH   3   4
ENDBRANCH   2   3
ENDBRANCH   1   2
BRANCH   1  73
ATOM     73  C   UNL A   1      34.177  21.816  25.999  1.00  0.00     0.116 C 
BRANCH  73  74
ATOM     74  N   UNL A   1      32.815  22.259  25.813  1.00  0.00    -0.354 N 
ATOM     75  C   UNL A   1      32.230  23.476  25.967  1.00  0.00     0.242 C 
ATOM     76  H   UNL A   1      32.198  21.550  25.520  1.00  0.00     0.163 HD
ATOM     77  O   UNL A   1      30.990  23.471  25.943  1.00  0.00    -0.273 OA
BRANCH  75  78
ATOM     78  C   UNL A   1      32.993  24.818  26.153  1.00  0.00     0.173 C 
BRANCH  78  79
ATOM     79  C   UNL A   1      33.952  25.204  24.994  1.00  0.00     0.070 C 
BRANCH  79  80
ATOM     80  C   UNL A   1      33.533  25.385  23.547  1.00  0.00    -0.045 A 
ATOM     81  C   UNL A   1      33.481  26.622  22.887  1.00  0.00     0.007 A 
ATOM     82  C   UNL A   1      33.265  24.228  22.787  1.00  0.00     0.007 A 
ATOM     83  C   UNL A   1      33.020  26.717  21.566  1.00  0.00     0.046 A 
ATOM     84  C   UNL A   1      32.836  24.316  21.460  1.00  0.00     0.046 A 
ATOM     85  C   UNL A   1      32.677  25.562  20.872  1.00  0.00     0.115 A 
BRANCH  85  86
ATOM     86  O   UNL A   1      32.163  25.605  19.613  1.00  0.00    -0.508 OA
ATOM     87  H   UNL A   1      32.737  25.634  18.872  1.00  0.00     0.293 HD
ENDBRANCH  85  86
ENDBRANCH  79  80
ENDBRANCH  78  79
BRANCH  78  88
ATOM     88  N   UNL A   1      32.113  25.904  26.605  1.00  0.00    -0.372 N 
ATOM     89  H   UNL A   1      31.519  25.683  27.358  1.00  0.00     0.161 HD
BRANCH  88  90
ATOM     90  C   UNL A   1      32.004  27.214  26.110  1.00  0.00     0.054 A 
ATOM     91  C   UNL A   1      32.832  28.322  26.525  1.00  0.00     0.024 A 
ATOM     92  C   UNL A   1      30.993  27.459  25.109  1.00  0.00     0.024 A 
ATOM     93  C   UNL A   1      33.930  28.296  27.433  1.00  0.00     0.012 A 
ATOM     94  C   UNL A   1      32.561  29.581  25.946  1.00  0.00     0.073 A 
ATOM     95  C   UNL A   1      30.880  28.768  24.599  1.00  0.00     0.073 A 
ATOM     96  C   UNL A   1      30.081  26.493  24.587  1.00  0.00     0.012 A 
ATOM     97  C   UNL A   1      34.652  29.436  27.800  1.00  0.00     0.001 A 
ATOM     98  C   UNL A   1      33.290  30.705  26.312  1.00  0.00     0.029 A 
ATOM     99  N   UNL A   1      31.629  29.786  25.017  1.00  0.00    -0.248 NA
ATOM    100  C   UNL A   1      29.952  29.059  23.609  1.00  0.00     0.029 A 
ATOM    101  C   UNL A   1      29.148  26.806  23.595  1.00  0.00     0.001 A 
ATOM    102  C   UNL A   1      34.322  30.653  27.242  1.00  0.00     0.002 A 
ATOM    103  C   UNL A   1      29.089  28.094  23.096  1.00  0.00     0.002 A 
ENDBRANCH  88  90
ENDBRANCH  78  88
ENDBRANCH  75  78
ENDBRANCH  73  74
ENDBRANCH   1  73
TORSDOF 16
ENDMDL
