MODEL 1
REMARK VINA RESULT:     -11.6      0.000      0.000
REMARK SMILES O=C(CC/C(=N\NC(=O)c1ccccc1Br)c1ccccc1)NCCCCNC(=O)c1ccc(-c2c3nc(c(-c4c(F)c(F)c(F)c(F)c4F)c4ccc([nH]4)c(-c4c(F)c(F)c(F)c(F)c4F)c4nc(c(-c5c(F)c(F)c(F)c(F)c5F)c5ccc2[nH]5)C=C4)C=C3)cc1
REMARK SMILES IDX 24 1 23 2 1 3 2 4 3 6 4 7 5 8 6 9 17 10 18 11 22 12 19 13
REMARK SMILES IDX 21 14 20 15 7 16 8 17 9 19 10 20 11 21 15 22 12 23 14 24
REMARK SMILES IDX 16 25 13 26 25 27 26 28 27 29 28 30 29 31 30 33 31 34 32 35
REMARK SMILES IDX 93 36 33 37 92 38 34 39 35 40 36 41 86 42 37 43 91 44 85 45
REMARK SMILES IDX 87 46 38 47 90 48 84 49 83 50 39 52 71 53 51 54 70 55 52 56
REMARK SMILES IDX 55 57 69 58 88 59 53 60 54 61 68 63 89 64 56 65 40 66 41 67
REMARK SMILES IDX 49 68 42 69 43 70 47 71 50 72 44 73 45 74 48 75 46 76 72 77
REMARK SMILES IDX 73 78 81 79 74 80 75 81 79 82 82 83 76 84 77 85 80 86 78 87
REMARK SMILES IDX 57 88 58 89 66 90 59 91 60 92 64 93 67 94 61 95 62 96 65 97
REMARK SMILES IDX 63 98
REMARK H PARENT 23 5 7 18 28 32 87 51 55 62
REMARK Flexibility Score: inf
ROOT
ATOM      1  C   UNL A   1      32.848  27.970  23.553  1.00  0.00     0.116 C 
ENDROOT
BRANCH   1   2
ATOM      2  N   UNL A   1      33.076  26.582  23.872  1.00  0.00    -0.356 N 
ATOM      3  O   UNL A   1      33.774  25.919  21.797  1.00  0.00    -0.275 OA
ATOM      4  C   UNL A   1      33.743  25.751  23.012  1.00  0.00     0.220 C 
ATOM      5  H   UNL A   1      32.744  26.224  24.728  1.00  0.00     0.163 HD
BRANCH   4   6
ATOM      6  C   UNL A   1      34.537  24.694  23.748  1.00  0.00     0.106 C 
BRANCH   6   7
ATOM      7  C   UNL A   1      34.355  24.788  25.257  1.00  0.00     0.068 C 
BRANCH   7   8
ATOM      8  C   UNL A   1      34.824  23.636  26.157  1.00  0.00     0.069 C 
ATOM      9  N   UNL A   1      34.084  23.076  27.073  1.00  0.00    -0.177 NA
BRANCH   8  10
ATOM     10  C   UNL A   1      36.210  23.026  25.994  1.00  0.00    -0.002 A 
ATOM     11  C   UNL A   1      36.321  21.732  25.449  1.00  0.00     0.010 A 
ATOM     12  C   UNL A   1      37.395  23.699  26.285  1.00  0.00     0.010 A 
ATOM     13  C   UNL A   1      37.569  21.130  25.241  1.00  0.00     0.001 A 
ATOM     14  C   UNL A   1      38.645  23.087  26.114  1.00  0.00     0.001 A 
ATOM     15  C   UNL A   1      38.733  21.802  25.594  1.00  0.00     0.000 A 
ENDBRANCH   8  10
BRANCH   9  16
ATOM     16  N   UNL A   1      32.770  23.340  27.302  1.00  0.00    -0.243 N 
ATOM     17  C   UNL A   1      31.644  22.877  26.635  1.00  0.00     0.272 C 
ATOM     18  H   UNL A   1      32.591  23.950  28.054  1.00  0.00     0.194 HD
ATOM     19  O   UNL A   1      30.535  22.976  27.163  1.00  0.00    -0.267 OA
BRANCH  17  20
ATOM     20  C   UNL A   1      31.704  22.407  25.240  1.00  0.00     0.055 A 
ATOM     21  C   UNL A   1      31.141  23.286  24.293  1.00  0.00     0.015 A 
ATOM     22  C   UNL A   1      32.328  21.234  24.816  1.00  0.00     0.030 A 
ATOM     23  C   UNL A   1      31.306  23.052  22.930  1.00  0.00     0.001 A 
ATOM     24  C   UNL A   1      32.488  21.003  23.443  1.00  0.00     0.016 A 
ATOM     25  Br  UNL A   1      32.951  19.902  26.012  1.00  0.00    -0.050 Br
ATOM     26  C   UNL A   1      31.999  21.921  22.507  1.00  0.00     0.001 A 
ENDBRANCH  17  20
ENDBRANCH   9  16
ENDBRANCH   7   8
ENDBRANCH   6   7
ENDBRANCH   4   6
ENDBRANCH   1   2
BRANCH   1  27
ATOM     27  C   UNL A   1      33.260  28.891  24.701  1.00  0.00     0.023 C 
BRANCH  27  28
ATOM     28  C   UNL A   1      34.097  28.268  25.835  1.00  0.00     0.023 C 
BRANCH  28  29
ATOM     29  C   UNL A   1      33.651  28.504  27.277  1.00  0.00     0.116 C 
BRANCH  29  30
ATOM     30  N   UNL A   1      33.569  29.904  27.648  1.00  0.00    -0.352 N 
ATOM     31  C   UNL A   1      34.514  30.721  28.219  1.00  0.00     0.251 C 
ATOM     32  H   UNL A   1      32.703  30.335  27.463  1.00  0.00     0.163 HD
ATOM     33  O   UNL A   1      34.223  31.877  28.512  1.00  0.00    -0.269 OA
BRANCH  31  34
ATOM     34  C   UNL A   1      35.874  30.219  28.520  1.00  0.00     0.039 A 
ATOM     35  C   UNL A   1      36.851  30.315  27.523  1.00  0.00     0.014 A 
ATOM     36  C   UNL A   1      36.184  29.621  29.745  1.00  0.00     0.014 A 
ATOM     37  C   UNL A   1      38.152  29.871  27.773  1.00  0.00     0.010 A 
ATOM     38  C   UNL A   1      37.492  29.204  30.005  1.00  0.00     0.010 A 
ATOM     39  C   UNL A   1      38.491  29.337  29.026  1.00  0.00    -0.014 A 
BRANCH  39  40
ATOM     40  C   UNL A   1      39.897  28.963  29.332  1.00  0.00     0.031 A 
ATOM     41  C   UNL A   1      40.797  29.890  30.097  1.00  0.00     0.074 A 
ATOM     42  C   UNL A   1      40.379  27.791  28.876  1.00  0.00     0.049 A 
ATOM     43  N   UNL A   1      42.054  29.734  30.431  1.00  0.00    -0.248 NA
ATOM     44  C   UNL A   1      40.212  31.166  30.535  1.00  0.00     0.031 C 
ATOM     45  C   UNL A   1      39.620  26.817  28.091  1.00  0.00     0.029 A 
ATOM     46  N   UNL A   1      41.624  27.223  28.997  1.00  0.00    -0.354 N 
ATOM     47  C   UNL A   1      42.412  30.887  31.116  1.00  0.00     0.074 A 
ATOM     48  C   UNL A   1      41.250  31.752  31.116  1.00  0.00     0.031 C 
ATOM     49  C   UNL A   1      40.412  25.771  27.805  1.00  0.00     0.029 A 
ATOM     50  C   UNL A   1      41.740  26.011  28.362  1.00  0.00     0.049 A 
ATOM     51  H   UNL A   1      42.364  27.646  29.491  1.00  0.00     0.167 HD
ATOM     52  C   UNL A   1      43.594  31.188  31.707  1.00  0.00     0.037 A 
ATOM     53  C   UNL A   1      42.798  25.188  28.237  1.00  0.00     0.037 A 
ATOM     54  C   UNL A   1      44.750  30.326  31.712  1.00  0.00     0.049 A 
ATOM     55  C   UNL A   1      44.104  25.554  28.885  1.00  0.00     0.074 A 
ATOM     56  C   UNL A   1      45.975  30.529  32.326  1.00  0.00     0.029 A 
ATOM     57  N   UNL A   1      44.826  29.101  31.068  1.00  0.00    -0.354 N 
ATOM     58  N   UNL A   1      44.408  26.616  29.591  1.00  0.00    -0.248 NA
ATOM     59  C   UNL A   1      45.213  24.601  28.729  1.00  0.00     0.031 C 
ATOM     60  C   UNL A   1      46.806  29.446  32.017  1.00  0.00     0.029 A 
ATOM     61  C   UNL A   1      46.084  28.547  31.249  1.00  0.00     0.049 A 
ATOM     62  H   UNL A   1      44.095  28.686  30.556  1.00  0.00     0.167 HD
ATOM     63  C   UNL A   1      45.729  26.449  29.982  1.00  0.00     0.074 A 
ATOM     64  C   UNL A   1      46.167  25.176  29.449  1.00  0.00     0.031 C 
ATOM     65  C   UNL A   1      46.509  27.277  30.719  1.00  0.00     0.037 A 
BRANCH  52  66
ATOM     66  C   UNL A   1      43.703  32.512  32.405  1.00  0.00     0.064 A 
ATOM     67  C   UNL A   1      44.049  33.680  31.708  1.00  0.00     0.173 A 
ATOM     68  C   UNL A   1      43.408  32.626  33.772  1.00  0.00     0.173 A 
ATOM     69  F   UNL A   1      44.346  33.622  30.401  1.00  0.00    -0.203 F 
ATOM     70  C   UNL A   1      44.119  34.909  32.360  1.00  0.00     0.198 A 
ATOM     71  C   UNL A   1      43.454  33.861  34.414  1.00  0.00     0.198 A 
ATOM     72  F   UNL A   1      43.063  31.542  34.483  1.00  0.00    -0.203 F 
ATOM     73  F   UNL A   1      44.489  36.004  31.682  1.00  0.00    -0.200 F 
ATOM     74  C   UNL A   1      43.816  34.999  33.710  1.00  0.00     0.200 A 
ATOM     75  F   UNL A   1      43.147  33.949  35.716  1.00  0.00    -0.200 F 
ATOM     76  F   UNL A   1      43.876  36.184  34.333  1.00  0.00    -0.200 F 
ENDBRANCH  52  66
BRANCH  53  77
ATOM     77  C   UNL A   1      42.660  23.921  27.474  1.00  0.00     0.064 A 
ATOM     78  C   UNL A   1      42.175  22.759  28.089  1.00  0.00     0.173 A 
ATOM     79  C   UNL A   1      43.011  23.846  26.118  1.00  0.00     0.173 A 
ATOM     80  F   UNL A   1      41.847  22.778  29.389  1.00  0.00    -0.203 F 
ATOM     81  C   UNL A   1      42.061  21.564  27.382  1.00  0.00     0.198 A 
ATOM     82  C   UNL A   1      42.872  22.658  25.405  1.00  0.00     0.198 A 
ATOM     83  F   UNL A   1      43.475  24.932  25.483  1.00  0.00    -0.203 F 
ATOM     84  F   UNL A   1      41.634  20.458  28.005  1.00  0.00    -0.200 F 
ATOM     85  C   UNL A   1      42.405  21.516  26.039  1.00  0.00     0.200 A 
ATOM     86  F   UNL A   1      43.192  22.618  24.104  1.00  0.00    -0.200 F 
ATOM     87  F   UNL A   1      42.291  20.368  25.358  1.00  0.00    -0.200 F 
ENDBRANCH  53  77
BRANCH  65  88
ATOM     88  C   UNL A   1      47.908  26.822  31.017  1.00  0.00     0.064 A 
ATOM     89  C   UNL A   1      48.993  27.211  30.220  1.00  0.00     0.173 A 
ATOM     90  C   UNL A   1      48.168  26.014  32.134  1.00  0.00     0.173 A 
ATOM     91  F   UNL A   1      48.794  27.969  29.130  1.00  0.00    -0.203 F 
ATOM     92  C   UNL A   1      50.287  26.789  30.516  1.00  0.00     0.198 A 
ATOM     93  C   UNL A   1      49.466  25.616  32.443  1.00  0.00     0.198 A 
ATOM     94  F   UNL A   1      47.165  25.618  32.932  1.00  0.00    -0.203 F 
ATOM     95  F   UNL A   1      51.303  27.136  29.715  1.00  0.00    -0.200 F 
ATOM     96  C   UNL A   1      50.523  25.998  31.631  1.00  0.00     0.200 A 
ATOM     97  F   UNL A   1      49.695  24.860  33.527  1.00  0.00    -0.200 F 
ATOM     98  F   UNL A   1      51.770  25.598  31.918  1.00  0.00    -0.200 F 
ENDBRANCH  65  88
ENDBRANCH  39  40
ENDBRANCH  31  34
ENDBRANCH  29  30
ENDBRANCH  28  29
ENDBRANCH  27  28
ENDBRANCH   1  27
TORSDOF 16
ENDMDL
MODEL 2
REMARK VINA RESULT:     -11.5      3.681      7.661
REMARK SMILES O=C(CC/C(=N\NC(=O)c1ccccc1Br)c1ccccc1)NCCCCNC(=O)c1ccc(-c2c3nc(c(-c4c(F)c(F)c(F)c(F)c4F)c4ccc([nH]4)c(-c4c(F)c(F)c(F)c(F)c4F)c4nc(c(-c5c(F)c(F)c(F)c(F)c5F)c5ccc2[nH]5)C=C4)C=C3)cc1
REMARK SMILES IDX 24 1 23 2 1 3 2 4 3 6 4 7 5 8 6 9 17 10 18 11 22 12 19 13
REMARK SMILES IDX 21 14 20 15 7 16 8 17 9 19 10 20 11 21 15 22 12 23 14 24
REMARK SMILES IDX 16 25 13 26 25 27 26 28 27 29 28 30 29 31 30 33 31 34 32 35
REMARK SMILES IDX 93 36 33 37 92 38 34 39 35 40 36 41 86 42 37 43 91 44 85 45
REMARK SMILES IDX 87 46 38 47 90 48 84 49 83 50 39 52 71 53 51 54 70 55 52 56
REMARK SMILES IDX 55 57 69 58 88 59 53 60 54 61 68 63 89 64 56 65 40 66 41 67
REMARK SMILES IDX 49 68 42 69 43 70 47 71 50 72 44 73 45 74 48 75 46 76 72 77
REMARK SMILES IDX 73 78 81 79 74 80 75 81 79 82 82 83 76 84 77 85 80 86 78 87
REMARK SMILES IDX 57 88 58 89 66 90 59 91 60 92 64 93 67 94 61 95 62 96 65 97
REMARK SMILES IDX 63 98
REMARK H PARENT 23 5 7 18 28 32 87 51 55 62
REMARK Flexibility Score: inf
ROOT
ATOM      1  C   UNL A   1      37.025  21.839  24.013  1.00  0.00     0.116 C 
ENDROOT
BRANCH   1   2
ATOM      2  N   UNL A   1      36.685  23.020  24.768  1.00  0.00    -0.356 N 
ATOM      3  O   UNL A   1      35.195  23.900  23.272  1.00  0.00    -0.275 OA
ATOM      4  C   UNL A   1      35.623  23.810  24.419  1.00  0.00     0.220 C 
ATOM      5  H   UNL A   1      37.229  23.264  25.552  1.00  0.00     0.163 HD
BRANCH   4   6
ATOM      6  C   UNL A   1      34.967  24.444  25.627  1.00  0.00     0.106 C 
BRANCH   6   7
ATOM      7  C   UNL A   1      34.036  23.477  26.346  1.00  0.00     0.068 C 
BRANCH   7   8
ATOM      8  C   UNL A   1      32.654  23.164  25.756  1.00  0.00     0.069 C 
ATOM      9  N   UNL A   1      31.569  23.828  26.042  1.00  0.00    -0.177 NA
BRANCH   8  10
ATOM     10  C   UNL A   1      32.472  22.054  24.729  1.00  0.00    -0.002 A 
ATOM     11  C   UNL A   1      32.113  22.401  23.411  1.00  0.00     0.010 A 
ATOM     12  C   UNL A   1      32.711  20.706  24.990  1.00  0.00     0.010 A 
ATOM     13  C   UNL A   1      31.964  21.429  22.413  1.00  0.00     0.001 A 
ATOM     14  C   UNL A   1      32.528  19.726  24.005  1.00  0.00     0.001 A 
ATOM     15  C   UNL A   1      32.153  20.086  22.716  1.00  0.00     0.000 A 
ENDBRANCH   8  10
BRANCH   9  16
ATOM     16  N   UNL A   1      31.505  24.950  26.807  1.00  0.00    -0.243 N 
ATOM     17  C   UNL A   1      31.373  26.278  26.424  1.00  0.00     0.272 C 
ATOM     18  H   UNL A   1      31.558  24.797  27.778  1.00  0.00     0.194 HD
ATOM     19  O   UNL A   1      31.028  27.123  27.251  1.00  0.00    -0.267 OA
BRANCH  17  20
ATOM     20  C   UNL A   1      31.783  26.747  25.089  1.00  0.00     0.055 A 
ATOM     21  C   UNL A   1      33.122  27.178  24.996  1.00  0.00     0.015 A 
ATOM     22  C   UNL A   1      30.982  26.714  23.947  1.00  0.00     0.030 A 
ATOM     23  C   UNL A   1      33.687  27.460  23.756  1.00  0.00     0.001 A 
ATOM     24  C   UNL A   1      31.557  27.002  22.702  1.00  0.00     0.016 A 
ATOM     25  Br  UNL A   1      29.128  26.328  23.994  1.00  0.00    -0.050 Br
ATOM     26  C   UNL A   1      32.909  27.350  22.606  1.00  0.00     0.001 A 
ENDBRANCH  17  20
ENDBRANCH   9  16
ENDBRANCH   7   8
ENDBRANCH   6   7
ENDBRANCH   4   6
ENDBRANCH   1   2
BRANCH   1  27
ATOM     27  C   UNL A   1      36.723  20.560  24.793  1.00  0.00     0.023 C 
BRANCH  27  28
ATOM     28  C   UNL A   1      37.889  19.574  25.001  1.00  0.00     0.023 C 
BRANCH  28  29
ATOM     29  C   UNL A   1      39.127  20.063  25.751  1.00  0.00     0.116 C 
BRANCH  29  30
ATOM     30  N   UNL A   1      40.188  19.078  25.845  1.00  0.00    -0.352 N 
ATOM     31  C   UNL A   1      41.521  19.244  26.126  1.00  0.00     0.251 C 
ATOM     32  H   UNL A   1      39.909  18.147  25.684  1.00  0.00     0.163 HD
ATOM     33  O   UNL A   1      42.275  18.275  26.101  1.00  0.00    -0.269 OA
BRANCH  31  34
ATOM     34  C   UNL A   1      42.076  20.584  26.427  1.00  0.00     0.039 A 
ATOM     35  C   UNL A   1      42.471  21.393  25.356  1.00  0.00     0.014 A 
ATOM     36  C   UNL A   1      42.252  21.030  27.740  1.00  0.00     0.014 A 
ATOM     37  C   UNL A   1      42.981  22.671  25.596  1.00  0.00     0.010 A 
ATOM     38  C   UNL A   1      42.735  22.320  27.978  1.00  0.00     0.010 A 
ATOM     39  C   UNL A   1      43.092  23.157  26.908  1.00  0.00    -0.014 A 
BRANCH  39  40
ATOM     40  C   UNL A   1      43.533  24.554  27.161  1.00  0.00     0.031 A 
ATOM     41  C   UNL A   1      42.571  25.592  27.663  1.00  0.00     0.074 A 
ATOM     42  C   UNL A   1      44.807  24.899  26.894  1.00  0.00     0.049 A 
ATOM     43  N   UNL A   1      42.780  26.860  27.914  1.00  0.00    -0.248 NA
ATOM     44  C   UNL A   1      41.189  25.151  27.901  1.00  0.00     0.031 C 
ATOM     45  C   UNL A   1      45.832  23.995  26.370  1.00  0.00     0.029 A 
ATOM     46  N   UNL A   1      45.457  26.103  27.016  1.00  0.00    -0.354 N 
ATOM     47  C   UNL A   1      41.561  27.370  28.341  1.00  0.00     0.074 A 
ATOM     48  C   UNL A   1      40.607  26.282  28.275  1.00  0.00     0.031 C 
ATOM     49  C   UNL A   1      46.981  24.674  26.220  1.00  0.00     0.029 A 
ATOM     50  C   UNL A   1      46.769  26.065  26.611  1.00  0.00     0.049 A 
ATOM     51  H   UNL A   1      45.022  26.917  27.359  1.00  0.00     0.167 HD
ATOM     52  C   UNL A   1      41.270  28.623  28.765  1.00  0.00     0.037 A 
ATOM     53  C   UNL A   1      47.695  27.040  26.555  1.00  0.00     0.037 A 
ATOM     54  C   UNL A   1      42.220  29.706  28.836  1.00  0.00     0.049 A 
ATOM     55  C   UNL A   1      47.341  28.427  27.014  1.00  0.00     0.074 A 
ATOM     56  C   UNL A   1      42.024  30.997  29.298  1.00  0.00     0.029 A 
ATOM     57  N   UNL A   1      43.542  29.626  28.428  1.00  0.00    -0.354 N 
ATOM     58  N   UNL A   1      46.202  28.878  27.480  1.00  0.00    -0.248 NA
ATOM     59  C   UNL A   1      48.404  29.440  26.947  1.00  0.00     0.031 C 
ATOM     60  C   UNL A   1      43.217  31.709  29.129  1.00  0.00     0.029 A 
ATOM     61  C   UNL A   1      44.168  30.850  28.605  1.00  0.00     0.049 A 
ATOM     62  H   UNL A   1      43.973  28.818  28.064  1.00  0.00     0.167 HD
ATOM     63  C   UNL A   1      46.418  30.215  27.786  1.00  0.00     0.074 A 
ATOM     64  C   UNL A   1      47.800  30.500  27.466  1.00  0.00     0.031 C 
ATOM     65  C   UNL A   1      45.546  31.123  28.288  1.00  0.00     0.037 A 
BRANCH  52  66
ATOM     66  C   UNL A   1      39.858  28.900  29.192  1.00  0.00     0.064 A 
ATOM     67  C   UNL A   1      38.892  29.348  28.278  1.00  0.00     0.173 A 
ATOM     68  C   UNL A   1      39.452  28.666  30.515  1.00  0.00     0.173 A 
ATOM     69  F   UNL A   1      39.231  29.592  27.004  1.00  0.00    -0.203 F 
ATOM     70  C   UNL A   1      37.577  29.574  28.678  1.00  0.00     0.198 A 
ATOM     71  C   UNL A   1      38.131  28.868  30.905  1.00  0.00     0.198 A 
ATOM     72  F   UNL A   1      40.334  28.228  31.426  1.00  0.00    -0.203 F 
ATOM     73  F   UNL A   1      36.681  30.038  27.798  1.00  0.00    -0.200 F 
ATOM     74  C   UNL A   1      37.196  29.328  29.989  1.00  0.00     0.200 A 
ATOM     75  F   UNL A   1      37.761  28.617  32.169  1.00  0.00    -0.200 F 
ATOM     76  F   UNL A   1      35.929  29.538  30.371  1.00  0.00    -0.200 F 
ENDBRANCH  52  66
BRANCH  53  77
ATOM     77  C   UNL A   1      49.060  26.732  26.056  1.00  0.00     0.064 A 
ATOM     78  C   UNL A   1      49.421  27.007  24.730  1.00  0.00     0.173 A 
ATOM     79  C   UNL A   1      50.028  26.159  26.893  1.00  0.00     0.173 A 
ATOM     80  F   UNL A   1      48.522  27.536  23.888  1.00  0.00    -0.203 F 
ATOM     81  C   UNL A   1      50.695  26.703  24.254  1.00  0.00     0.198 A 
ATOM     82  C   UNL A   1      51.309  25.879  26.423  1.00  0.00     0.198 A 
ATOM     83  F   UNL A   1      49.732  25.882  28.171  1.00  0.00    -0.203 F 
ATOM     84  F   UNL A   1      51.001  26.937  22.971  1.00  0.00    -0.200 F 
ATOM     85  C   UNL A   1      51.639  26.145  25.103  1.00  0.00     0.200 A 
ATOM     86  F   UNL A   1      52.223  25.353  27.250  1.00  0.00    -0.200 F 
ATOM     87  F   UNL A   1      52.865  25.856  24.646  1.00  0.00    -0.200 F 
ENDBRANCH  53  77
BRANCH  65  88
ATOM     88  C   UNL A   1      46.068  32.506  28.550  1.00  0.00     0.064 A 
ATOM     89  C   UNL A   1      46.668  32.847  29.770  1.00  0.00     0.173 A 
ATOM     90  C   UNL A   1      45.997  33.492  27.553  1.00  0.00     0.173 A 
ATOM     91  F   UNL A   1      46.744  31.945  30.761  1.00  0.00    -0.203 F 
ATOM     92  C   UNL A   1      47.157  34.132  29.993  1.00  0.00     0.198 A 
ATOM     93  C   UNL A   1      46.511  34.767  27.770  1.00  0.00     0.198 A 
ATOM     94  F   UNL A   1      45.438  33.215  26.366  1.00  0.00    -0.203 F 
ATOM     95  F   UNL A   1      47.685  34.448  31.183  1.00  0.00    -0.200 F 
ATOM     96  C   UNL A   1      47.085  35.089  28.991  1.00  0.00     0.200 A 
ATOM     97  F   UNL A   1      46.451  35.688  26.798  1.00  0.00    -0.200 F 
ATOM     98  F   UNL A   1      47.562  36.323  29.206  1.00  0.00    -0.200 F 
ENDBRANCH  65  88
ENDBRANCH  39  40
ENDBRANCH  31  34
ENDBRANCH  29  30
ENDBRANCH  28  29
ENDBRANCH  27  28
ENDBRANCH   1  27
TORSDOF 16
ENDMDL
MODEL 3
REMARK VINA RESULT:     -11.5      3.619      8.528
REMARK SMILES O=C(CC/C(=N\NC(=O)c1ccccc1Br)c1ccccc1)NCCCCNC(=O)c1ccc(-c2c3nc(c(-c4c(F)c(F)c(F)c(F)c4F)c4ccc([nH]4)c(-c4c(F)c(F)c(F)c(F)c4F)c4nc(c(-c5c(F)c(F)c(F)c(F)c5F)c5ccc2[nH]5)C=C4)C=C3)cc1
REMARK SMILES IDX 24 1 23 2 1 3 2 4 3 6 4 7 5 8 6 9 17 10 18 11 22 12 19 13
REMARK SMILES IDX 21 14 20 15 7 16 8 17 9 19 10 20 11 21 15 22 12 23 14 24
REMARK SMILES IDX 16 25 13 26 25 27 26 28 27 29 28 30 29 31 30 33 31 34 32 35
REMARK SMILES IDX 93 36 33 37 92 38 34 39 35 40 36 41 86 42 37 43 91 44 85 45
REMARK SMILES IDX 87 46 38 47 90 48 84 49 83 50 39 52 71 53 51 54 70 55 52 56
REMARK SMILES IDX 55 57 69 58 88 59 53 60 54 61 68 63 89 64 56 65 40 66 41 67
REMARK SMILES IDX 49 68 42 69 43 70 47 71 50 72 44 73 45 74 48 75 46 76 72 77
REMARK SMILES IDX 73 78 81 79 74 80 75 81 79 82 82 83 76 84 77 85 80 86 78 87
REMARK SMILES IDX 57 88 58 89 66 90 59 91 60 92 64 93 67 94 61 95 62 96 65 97
REMARK SMILES IDX 63 98
REMARK H PARENT 23 5 7 18 28 32 87 51 55 62
REMARK Flexibility Score: inf
ROOT
ATOM      1  C   UNL A   1      32.735  30.155  26.832  1.00  0.00     0.116 C 
ENDROOT
BRANCH   1   2
ATOM      2  N   UNL A   1      32.781  28.842  26.238  1.00  0.00    -0.356 N 
ATOM      3  O   UNL A   1      33.356  29.500  24.124  1.00  0.00    -0.275 OA
ATOM      4  C   UNL A   1      33.320  28.638  24.996  1.00  0.00     0.220 C 
ATOM      5  H   UNL A   1      32.417  28.075  26.737  1.00  0.00     0.163 HD
BRANCH   4   6
ATOM      6  C   UNL A   1      33.977  27.279  24.881  1.00  0.00     0.106 C 
BRANCH   6   7
ATOM      7  C   UNL A   1      33.674  26.393  26.082  1.00  0.00     0.068 C 
BRANCH   7   8
ATOM      8  C   UNL A   1      33.691  24.865  25.929  1.00  0.00     0.069 C 
ATOM      9  N   UNL A   1      32.717  24.083  26.304  1.00  0.00    -0.177 NA
BRANCH   8  10
ATOM     10  C   UNL A   1      34.861  24.155  25.262  1.00  0.00    -0.002 A 
ATOM     11  C   UNL A   1      34.700  23.664  23.952  1.00  0.00     0.010 A 
ATOM     12  C   UNL A   1      36.121  24.019  25.843  1.00  0.00     0.010 A 
ATOM     13  C   UNL A   1      35.749  23.033  23.272  1.00  0.00     0.001 A 
ATOM     14  C   UNL A   1      37.164  23.356  25.181  1.00  0.00     0.001 A 
ATOM     15  C   UNL A   1      36.978  22.861  23.896  1.00  0.00     0.000 A 
ENDBRANCH   8  10
BRANCH   9  16
ATOM     16  N   UNL A   1      31.511  24.490  26.781  1.00  0.00    -0.243 N 
ATOM     17  C   UNL A   1      30.391  24.937  26.092  1.00  0.00     0.272 C 
ATOM     18  H   UNL A   1      31.417  24.463  27.760  1.00  0.00     0.194 HD
ATOM     19  O   UNL A   1      29.297  24.973  26.658  1.00  0.00    -0.267 OA
BRANCH  17  20
ATOM     20  C   UNL A   1      30.489  25.521  24.744  1.00  0.00     0.055 A 
ATOM     21  C   UNL A   1      30.191  26.897  24.670  1.00  0.00     0.015 A 
ATOM     22  C   UNL A   1      30.917  24.841  23.603  1.00  0.00     0.030 A 
ATOM     23  C   UNL A   1      30.433  27.609  23.499  1.00  0.00     0.001 A 
ATOM     24  C   UNL A   1      31.155  25.563  22.427  1.00  0.00     0.016 A 
ATOM     25  Br  UNL A   1      31.165  22.963  23.552  1.00  0.00    -0.050 Br
ATOM     26  C   UNL A   1      30.936  26.945  22.384  1.00  0.00     0.001 A 
ENDBRANCH  17  20
ENDBRANCH   9  16
ENDBRANCH   7   8
ENDBRANCH   6   7
ENDBRANCH   4   6
ENDBRANCH   1   2
BRANCH   1  27
ATOM     27  C   UNL A   1      31.401  30.852  26.568  1.00  0.00     0.023 C 
BRANCH  27  28
ATOM     28  C   UNL A   1      31.386  32.391  26.645  1.00  0.00     0.023 C 
BRANCH  28  29
ATOM     29  C   UNL A   1      32.620  33.101  27.200  1.00  0.00     0.116 C 
BRANCH  29  30
ATOM     30  N   UNL A   1      32.348  34.415  27.750  1.00  0.00    -0.352 N 
ATOM     31  C   UNL A   1      32.989  35.100  28.752  1.00  0.00     0.251 C 
ATOM     32  H   UNL A   1      31.587  34.889  27.342  1.00  0.00     0.163 HD
ATOM     33  O   UNL A   1      32.561  36.192  29.115  1.00  0.00    -0.269 OA
BRANCH  31  34
ATOM     34  C   UNL A   1      34.173  34.526  29.431  1.00  0.00     0.039 A 
ATOM     35  C   UNL A   1      33.990  33.908  30.672  1.00  0.00     0.014 A 
ATOM     36  C   UNL A   1      35.456  34.629  28.885  1.00  0.00     0.014 A 
ATOM     37  C   UNL A   1      35.079  33.337  31.337  1.00  0.00     0.010 A 
ATOM     38  C   UNL A   1      36.540  34.031  29.536  1.00  0.00     0.010 A 
ATOM     39  C   UNL A   1      36.359  33.369  30.762  1.00  0.00    -0.014 A 
BRANCH  39  40
ATOM     40  C   UNL A   1      37.497  32.670  31.414  1.00  0.00     0.031 A 
ATOM     41  C   UNL A   1      38.153  31.485  30.766  1.00  0.00     0.074 A 
ATOM     42  C   UNL A   1      37.916  33.086  32.625  1.00  0.00     0.049 A 
ATOM     43  N   UNL A   1      39.140  30.744  31.205  1.00  0.00    -0.248 NA
ATOM     44  C   UNL A   1      37.622  31.069  29.460  1.00  0.00     0.031 C 
ATOM     45  C   UNL A   1      37.342  34.202  33.377  1.00  0.00     0.029 A 
ATOM     46  N   UNL A   1      38.914  32.613  33.441  1.00  0.00    -0.354 N 
ATOM     47  C   UNL A   1      39.350  29.775  30.232  1.00  0.00     0.074 A 
ATOM     48  C   UNL A   1      38.360  29.998  29.199  1.00  0.00     0.031 C 
ATOM     49  C   UNL A   1      37.999  34.331  34.541  1.00  0.00     0.029 A 
ATOM     50  C   UNL A   1      39.022  33.292  34.630  1.00  0.00     0.049 A 
ATOM     51  H   UNL A   1      39.497  31.856  33.198  1.00  0.00     0.167 HD
ATOM     52  C   UNL A   1      40.293  28.802  30.197  1.00  0.00     0.037 A 
ATOM     53  C   UNL A   1      39.847  33.098  35.676  1.00  0.00     0.037 A 
ATOM     54  C   UNL A   1      41.282  28.582  31.222  1.00  0.00     0.049 A 
ATOM     55  C   UNL A   1      40.871  32.000  35.620  1.00  0.00     0.074 A 
ATOM     56  C   UNL A   1      42.306  27.650  31.248  1.00  0.00     0.029 A 
ATOM     57  N   UNL A   1      41.367  29.298  32.406  1.00  0.00    -0.354 N 
ATOM     58  N   UNL A   1      41.105  31.135  34.663  1.00  0.00    -0.248 NA
ATOM     59  C   UNL A   1      41.755  31.856  36.786  1.00  0.00     0.031 C 
ATOM     60  C   UNL A   1      42.983  27.774  32.467  1.00  0.00     0.029 A 
ATOM     61  C   UNL A   1      42.410  28.814  33.180  1.00  0.00     0.049 A 
ATOM     62  H   UNL A   1      40.772  30.040  32.661  1.00  0.00     0.167 HD
ATOM     63  C   UNL A   1      42.174  30.364  35.098  1.00  0.00     0.074 A 
ATOM     64  C   UNL A   1      42.554  30.871  36.399  1.00  0.00     0.031 C 
ATOM     65  C   UNL A   1      42.784  29.328  34.472  1.00  0.00     0.037 A 
BRANCH  52  66
ATOM     66  C   UNL A   1      40.306  27.893  29.003  1.00  0.00     0.064 A 
ATOM     67  C   UNL A   1      41.072  28.192  27.865  1.00  0.00     0.173 A 
ATOM     68  C   UNL A   1      39.589  26.687  29.014  1.00  0.00     0.173 A 
ATOM     69  F   UNL A   1      41.770  29.335  27.803  1.00  0.00    -0.203 F 
ATOM     70  C   UNL A   1      41.101  27.327  26.774  1.00  0.00     0.198 A 
ATOM     71  C   UNL A   1      39.641  25.813  27.931  1.00  0.00     0.198 A 
ATOM     72  F   UNL A   1      38.849  26.350  30.080  1.00  0.00    -0.203 F 
ATOM     73  F   UNL A   1      41.808  27.651  25.684  1.00  0.00    -0.200 F 
ATOM     74  C   UNL A   1      40.390  26.136  26.810  1.00  0.00     0.200 A 
ATOM     75  F   UNL A   1      38.965  24.657  27.973  1.00  0.00    -0.200 F 
ATOM     76  F   UNL A   1      40.426  25.302  25.762  1.00  0.00    -0.200 F 
ENDBRANCH  52  66
BRANCH  53  77
ATOM     77  C   UNL A   1      39.747  33.980  36.867  1.00  0.00     0.064 A 
ATOM     78  C   UNL A   1      38.958  33.618  37.967  1.00  0.00     0.173 A 
ATOM     79  C   UNL A   1      40.436  35.200  36.929  1.00  0.00     0.173 A 
ATOM     80  F   UNL A   1      38.264  32.471  37.945  1.00  0.00    -0.203 F 
ATOM     81  C   UNL A   1      38.847  34.452  39.078  1.00  0.00     0.198 A 
ATOM     82  C   UNL A   1      40.346  36.021  38.051  1.00  0.00     0.198 A 
ATOM     83  F   UNL A   1      41.208  35.588  35.904  1.00  0.00    -0.203 F 
ATOM     84  F   UNL A   1      38.053  34.102  40.098  1.00  0.00    -0.200 F 
ATOM     85  C   UNL A   1      39.546  35.649  39.121  1.00  0.00     0.200 A 
ATOM     86  F   UNL A   1      41.033  37.170  38.095  1.00  0.00    -0.200 F 
ATOM     87  F   UNL A   1      39.442  36.448  40.191  1.00  0.00    -0.200 F 
ENDBRANCH  53  77
BRANCH  65  88
ATOM     88  C   UNL A   1      43.948  28.690  35.174  1.00  0.00     0.064 A 
ATOM     89  C   UNL A   1      43.776  27.607  36.047  1.00  0.00     0.173 A 
ATOM     90  C   UNL A   1      45.255  29.147  34.942  1.00  0.00     0.173 A 
ATOM     91  F   UNL A   1      42.545  27.144  36.316  1.00  0.00    -0.203 F 
ATOM     92  C   UNL A   1      44.867  27.019  36.682  1.00  0.00     0.198 A 
ATOM     93  C   UNL A   1      46.346  28.540  35.558  1.00  0.00     0.198 A 
ATOM     94  F   UNL A   1      45.473  30.177  34.112  1.00  0.00    -0.203 F 
ATOM     95  F   UNL A   1      44.675  26.014  37.548  1.00  0.00    -0.200 F 
ATOM     96  C   UNL A   1      46.151  27.481  36.432  1.00  0.00     0.200 A 
ATOM     97  F   UNL A   1      47.587  28.980  35.307  1.00  0.00    -0.200 F 
ATOM     98  F   UNL A   1      47.201  26.910  37.039  1.00  0.00    -0.200 F 
ENDBRANCH  65  88
ENDBRANCH  39  40
ENDBRANCH  31  34
ENDBRANCH  29  30
ENDBRANCH  28  29
ENDBRANCH  27  28
ENDBRANCH   1  27
TORSDOF 16
ENDMDL
