MODEL 1
REMARK VINA RESULT:     -12.8      0.000      0.000
REMARK SMILES C[N@@H+]1CCC[C@@H](C(=O)N[C@H](C(=O)NCCCCNC(=O)c2ccc(-c3c4nc(c(-c5c(F)c(F)c(F)c(F)c5F)c5ccc([nH]5)c(-c5c(F)c(F)c(F)c(F)c5F)c5nc(c(-c6c(F)c(F)c(F)c(F)c6F)c6ccc3[nH]6)C=C5)C=C4)cc2)c2ccccc2)C1
REMARK SMILES IDX 15 1 14 2 13 3 11 4 12 5 10 7 9 8 7 9 8 10 6 12 1 13 2 14
REMARK SMILES IDX 3 15 90 16 4 18 5 19 84 20 85 21 89 22 86 23 88 24 87 25
REMARK SMILES IDX 16 26 17 27 18 28 19 29 20 31 21 32 22 33 83 34 23 35 82 36
REMARK SMILES IDX 24 37 25 38 26 39 76 40 27 41 81 42 75 43 77 44 28 45 80 46
REMARK SMILES IDX 74 47 73 48 29 50 61 51 41 52 60 53 42 54 45 55 59 56 78 57
REMARK SMILES IDX 43 58 44 59 58 61 79 62 46 63 30 64 31 65 39 66 32 67 33 68
REMARK SMILES IDX 37 69 40 70 34 71 35 72 38 73 36 74 62 75 63 76 71 77 64 78
REMARK SMILES IDX 65 79 69 80 72 81 66 82 67 83 70 84 68 85 47 86 48 87 56 88
REMARK SMILES IDX 49 89 50 90 54 91 57 92 51 93 52 94 55 95 53 96
REMARK H PARENT 13 6 9 11 2 17 18 30 77 49 45 60
REMARK Flexibility Score: inf
ROOT
ATOM      1  C   UNL A   1      31.817  30.481  26.775  1.00  0.00     0.023 C 
ENDROOT
BRANCH   1   2
ATOM      2  C   UNL A   1      31.419  29.804  25.460  1.00  0.00     0.116 C 
BRANCH   2   3
ATOM      3  N   UNL A   1      32.519  29.760  24.504  1.00  0.00    -0.354 N 
ATOM      4  C   UNL A   1      32.716  28.899  23.446  1.00  0.00     0.247 C 
ATOM      5  O   UNL A   1      33.776  28.989  22.821  1.00  0.00    -0.272 OA
ATOM      6  H   UNL A   1      33.219  30.440  24.632  1.00  0.00     0.163 HD
BRANCH   4   7
ATOM      7  C   UNL A   1      31.613  27.870  23.083  1.00  0.00     0.202 C 
BRANCH   7   8
ATOM      8  N   UNL A   1      31.446  26.859  24.116  1.00  0.00    -0.340 N 
ATOM      9  C   UNL A   1      32.166  25.764  24.455  1.00  0.00     0.229 C 
ATOM     10  O   UNL A   1      31.717  25.104  25.404  1.00  0.00    -0.275 OA
ATOM     11  H   UNL A   1      30.651  27.000  24.681  1.00  0.00     0.164 HD
BRANCH   9  12
ATOM     12  C   UNL A   1      33.489  25.299  23.813  1.00  0.00     0.133 C 
ATOM     13  C   UNL A   1      35.604  23.025  26.015  1.00  0.00     0.332 C 
ATOM     14  N   UNL A   1      34.570  23.421  25.066  1.00  0.00    -0.337 N 
ATOM     15  C   UNL A   1      34.548  22.558  23.882  1.00  0.00     0.262 C 
ATOM     16  C   UNL A   1      34.638  24.842  24.718  1.00  0.00     0.275 C 
ATOM     17  H   UNL A   1      33.678  23.288  25.541  1.00  0.00     0.347 HD
ATOM     18  C   UNL A   1      33.381  22.898  22.949  1.00  0.00     0.062 C 
ATOM     19  C   UNL A   1      33.310  24.379  22.603  1.00  0.00     0.025 C 
ENDBRANCH   9  12
ENDBRANCH   7   8
BRANCH   7  20
ATOM     20  C   UNL A   1      30.281  28.466  22.631  1.00  0.00    -0.016 A 
ATOM     21  C   UNL A   1      29.042  28.009  23.094  1.00  0.00     0.006 A 
ATOM     22  C   UNL A   1      30.290  29.647  21.873  1.00  0.00     0.006 A 
ATOM     23  C   UNL A   1      27.901  28.811  22.988  1.00  0.00     0.000 A 
ATOM     24  C   UNL A   1      29.151  30.440  21.743  1.00  0.00     0.000 A 
ATOM     25  C   UNL A   1      27.965  30.044  22.345  1.00  0.00     0.000 A 
ENDBRANCH   7  20
ENDBRANCH   4   7
ENDBRANCH   2   3
ENDBRANCH   1   2
BRANCH   1  26
ATOM     26  C   UNL A   1      31.581  31.985  26.820  1.00  0.00     0.023 C 
BRANCH  26  27
ATOM     27  C   UNL A   1      32.817  32.789  27.186  1.00  0.00     0.116 C 
BRANCH  27  28
ATOM     28  N   UNL A   1      32.494  34.163  27.550  1.00  0.00    -0.352 N 
ATOM     29  C   UNL A   1      32.985  34.939  28.573  1.00  0.00     0.251 C 
ATOM     30  H   UNL A   1      31.823  34.600  26.977  1.00  0.00     0.163 HD
ATOM     31  O   UNL A   1      32.453  36.005  28.850  1.00  0.00    -0.269 OA
BRANCH  29  32
ATOM     32  C   UNL A   1      34.147  34.464  29.355  1.00  0.00     0.039 A 
ATOM     33  C   UNL A   1      33.934  33.882  30.606  1.00  0.00     0.014 A 
ATOM     34  C   UNL A   1      35.441  34.574  28.842  1.00  0.00     0.014 A 
ATOM     35  C   UNL A   1      35.013  33.342  31.307  1.00  0.00     0.010 A 
ATOM     36  C   UNL A   1      36.495  33.942  29.488  1.00  0.00     0.010 A 
ATOM     37  C   UNL A   1      36.295  33.328  30.733  1.00  0.00    -0.014 A 
BRANCH  37  38
ATOM     38  C   UNL A   1      37.447  32.691  31.419  1.00  0.00     0.031 A 
ATOM     39  C   UNL A   1      38.172  31.548  30.763  1.00  0.00     0.074 A 
ATOM     40  C   UNL A   1      37.795  33.093  32.658  1.00  0.00     0.049 A 
ATOM     41  N   UNL A   1      39.144  30.805  31.230  1.00  0.00    -0.248 NA
ATOM     42  C   UNL A   1      37.724  31.165  29.414  1.00  0.00     0.031 C 
ATOM     43  C   UNL A   1      37.135  34.155  33.421  1.00  0.00     0.029 A 
ATOM     44  N   UNL A   1      38.784  32.649  33.499  1.00  0.00    -0.354 N 
ATOM     45  C   UNL A   1      39.408  29.866  30.241  1.00  0.00     0.074 A 
ATOM     46  C   UNL A   1      38.453  30.086  29.179  1.00  0.00     0.031 C 
ATOM     47  C   UNL A   1      37.755  34.299  34.603  1.00  0.00     0.029 A 
ATOM     48  C   UNL A   1      38.824  33.311  34.702  1.00  0.00     0.049 A 
ATOM     49  H   UNL A   1      39.406  31.924  33.263  1.00  0.00     0.167 HD
ATOM     50  C   UNL A   1      40.380  28.924  30.208  1.00  0.00     0.037 A 
ATOM     51  C   UNL A   1      39.627  33.133  35.769  1.00  0.00     0.037 A 
ATOM     52  C   UNL A   1      41.346  28.727  31.258  1.00  0.00     0.049 A 
ATOM     53  C   UNL A   1      40.690  32.068  35.712  1.00  0.00     0.074 A 
ATOM     54  C   UNL A   1      42.405  27.838  31.298  1.00  0.00     0.029 A 
ATOM     55  N   UNL A   1      41.365  29.429  32.454  1.00  0.00    -0.354 N 
ATOM     56  N   UNL A   1      40.977  31.234  34.741  1.00  0.00    -0.248 NA
ATOM     57  C   UNL A   1      41.546  31.922  36.897  1.00  0.00     0.031 C 
ATOM     58  C   UNL A   1      43.032  27.965  32.541  1.00  0.00     0.029 A 
ATOM     59  C   UNL A   1      42.404  28.977  33.250  1.00  0.00     0.049 A 
ATOM     60  H   UNL A   1      40.734  30.144  32.700  1.00  0.00     0.167 HD
ATOM     61  C   UNL A   1      42.065  30.493  35.183  1.00  0.00     0.074 A 
ATOM     62  C   UNL A   1      42.396  30.987  36.504  1.00  0.00     0.031 C 
ATOM     63  C   UNL A   1      42.729  29.491  34.555  1.00  0.00     0.037 A 
BRANCH  50  64
ATOM     64  C   UNL A   1      40.456  28.040  28.996  1.00  0.00     0.064 A 
ATOM     65  C   UNL A   1      39.730  26.842  28.912  1.00  0.00     0.173 A 
ATOM     66  C   UNL A   1      41.229  28.415  27.887  1.00  0.00     0.173 A 
ATOM     67  F   UNL A   1      38.985  26.429  29.949  1.00  0.00    -0.203 F 
ATOM     68  C   UNL A   1      39.797  26.040  27.776  1.00  0.00     0.198 A 
ATOM     69  C   UNL A   1      41.266  27.629  26.739  1.00  0.00     0.198 A 
ATOM     70  F   UNL A   1      41.941  29.552  27.912  1.00  0.00    -0.203 F 
ATOM     71  F   UNL A   1      39.135  24.875  27.740  1.00  0.00    -0.200 F 
ATOM     72  C   UNL A   1      40.556  26.438  26.687  1.00  0.00     0.200 A 
ATOM     73  F   UNL A   1      41.990  28.022  25.682  1.00  0.00    -0.200 F 
ATOM     74  F   UNL A   1      40.610  25.672  25.589  1.00  0.00    -0.200 F 
ENDBRANCH  50  64
BRANCH  51  75
ATOM     75  C   UNL A   1      39.474  33.990  36.975  1.00  0.00     0.064 A 
ATOM     76  C   UNL A   1      40.088  35.248  37.049  1.00  0.00     0.173 A 
ATOM     77  C   UNL A   1      38.736  33.560  38.089  1.00  0.00     0.173 A 
ATOM     78  F   UNL A   1      40.820  35.697  36.019  1.00  0.00    -0.203 F 
ATOM     79  C   UNL A   1      39.998  36.030  38.200  1.00  0.00     0.198 A 
ATOM     80  C   UNL A   1      38.618  34.358  39.226  1.00  0.00     0.198 A 
ATOM     81  F   UNL A   1      38.123  32.369  38.070  1.00  0.00    -0.203 F 
ATOM     82  F   UNL A   1      40.645  37.201  38.264  1.00  0.00    -0.200 F 
ATOM     83  C   UNL A   1      39.259  35.586  39.286  1.00  0.00     0.200 A 
ATOM     84  F   UNL A   1      37.889  33.932  40.267  1.00  0.00    -0.200 F 
ATOM     85  F   UNL A   1      39.174  36.336  40.393  1.00  0.00    -0.200 F 
ENDBRANCH  51  75
BRANCH  63  86
ATOM     86  C   UNL A   1      43.910  28.895  35.265  1.00  0.00     0.064 A 
ATOM     87  C   UNL A   1      45.214  29.369  35.059  1.00  0.00     0.173 A 
ATOM     88  C   UNL A   1      43.727  27.863  36.198  1.00  0.00     0.173 A 
ATOM     89  F   UNL A   1      45.445  30.346  34.168  1.00  0.00    -0.203 F 
ATOM     90  C   UNL A   1      46.295  28.809  35.737  1.00  0.00     0.198 A 
ATOM     91  C   UNL A   1      44.805  27.331  36.901  1.00  0.00     0.198 A 
ATOM     92  F   UNL A   1      42.500  27.379  36.440  1.00  0.00    -0.203 F 
ATOM     93  F   UNL A   1      47.538  29.240  35.482  1.00  0.00    -0.200 F 
ATOM     94  C   UNL A   1      46.088  27.798  36.662  1.00  0.00     0.200 A 
ATOM     95  F   UNL A   1      44.600  26.366  37.808  1.00  0.00    -0.200 F 
ATOM     96  F   UNL A   1      47.128  27.268  37.321  1.00  0.00    -0.200 F 
ENDBRANCH  63  86
ENDBRANCH  37  38
ENDBRANCH  29  32
ENDBRANCH  27  28
ENDBRANCH  26  27
ENDBRANCH   1  26
TORSDOF 14
ENDMDL
MODEL 2
REMARK VINA RESULT:     -12.8      0.145      1.589
REMARK SMILES C[N@@H+]1CCC[C@@H](C(=O)N[C@H](C(=O)NCCCCNC(=O)c2ccc(-c3c4nc(c(-c5c(F)c(F)c(F)c(F)c5F)c5ccc([nH]5)c(-c5c(F)c(F)c(F)c(F)c5F)c5nc(c(-c6c(F)c(F)c(F)c(F)c6F)c6ccc3[nH]6)C=C5)C=C4)cc2)c2ccccc2)C1
REMARK SMILES IDX 15 1 14 2 13 3 11 4 12 5 10 7 9 8 7 9 8 10 6 12 1 13 2 14
REMARK SMILES IDX 3 15 90 16 4 18 5 19 84 20 85 21 89 22 86 23 88 24 87 25
REMARK SMILES IDX 16 26 17 27 18 28 19 29 20 31 21 32 22 33 83 34 23 35 82 36
REMARK SMILES IDX 24 37 25 38 26 39 76 40 27 41 81 42 75 43 77 44 28 45 80 46
REMARK SMILES IDX 74 47 73 48 29 50 61 51 41 52 60 53 42 54 45 55 59 56 78 57
REMARK SMILES IDX 43 58 44 59 58 61 79 62 46 63 30 64 31 65 39 66 32 67 33 68
REMARK SMILES IDX 37 69 40 70 34 71 35 72 38 73 36 74 62 75 63 76 71 77 64 78
REMARK SMILES IDX 65 79 69 80 72 81 66 82 67 83 70 84 68 85 47 86 48 87 56 88
REMARK SMILES IDX 49 89 50 90 54 91 57 92 51 93 52 94 55 95 53 96
REMARK H PARENT 13 6 9 11 2 17 18 30 77 49 45 60
REMARK Flexibility Score: inf
ROOT
ATOM      1  C   UNL A   1      31.870  30.484  26.784  1.00  0.00     0.023 C 
ENDROOT
BRANCH   1   2
ATOM      2  C   UNL A   1      31.446  29.797  25.482  1.00  0.00     0.116 C 
BRANCH   2   3
ATOM      3  N   UNL A   1      32.524  29.753  24.502  1.00  0.00    -0.354 N 
ATOM      4  C   UNL A   1      32.701  28.887  23.444  1.00  0.00     0.247 C 
ATOM      5  O   UNL A   1      33.746  28.978  22.795  1.00  0.00    -0.272 OA
ATOM      6  H   UNL A   1      33.223  30.437  24.610  1.00  0.00     0.163 HD
BRANCH   4   7
ATOM      7  C   UNL A   1      31.595  27.851  23.112  1.00  0.00     0.202 C 
BRANCH   7   8
ATOM      8  N   UNL A   1      31.445  26.854  24.161  1.00  0.00    -0.340 N 
ATOM      9  C   UNL A   1      32.219  25.817  24.561  1.00  0.00     0.229 C 
ATOM     10  O   UNL A   1      31.770  25.149  25.504  1.00  0.00    -0.275 OA
ATOM     11  H   UNL A   1      30.617  26.953  24.685  1.00  0.00     0.164 HD
BRANCH   9  12
ATOM     12  C   UNL A   1      33.599  25.427  23.992  1.00  0.00     0.133 C 
ATOM     13  C   UNL A   1      35.539  22.932  26.114  1.00  0.00     0.332 C 
ATOM     14  N   UNL A   1      34.587  23.426  25.125  1.00  0.00    -0.337 N 
ATOM     15  C   UNL A   1      34.680  22.697  23.858  1.00  0.00     0.262 C 
ATOM     16  C   UNL A   1      34.669  24.877  24.941  1.00  0.00     0.275 C 
ATOM     17  H   UNL A   1      33.659  23.241  25.503  1.00  0.00     0.347 HD
ATOM     18  C   UNL A   1      33.595  23.134  22.868  1.00  0.00     0.062 C 
ATOM     19  C   UNL A   1      33.537  24.644  22.679  1.00  0.00     0.025 C 
ENDBRANCH   9  12
ENDBRANCH   7   8
BRANCH   7  20
ATOM     20  C   UNL A   1      30.256  28.438  22.672  1.00  0.00    -0.016 A 
ATOM     21  C   UNL A   1      29.023  27.964  23.136  1.00  0.00     0.006 A 
ATOM     22  C   UNL A   1      30.249  29.626  21.925  1.00  0.00     0.006 A 
ATOM     23  C   UNL A   1      27.874  28.755  23.042  1.00  0.00     0.000 A 
ATOM     24  C   UNL A   1      29.101  30.409  21.808  1.00  0.00     0.000 A 
ATOM     25  C   UNL A   1      27.922  29.994  22.411  1.00  0.00     0.000 A 
ENDBRANCH   7  20
ENDBRANCH   4   7
ENDBRANCH   2   3
ENDBRANCH   1   2
BRANCH   1  26
ATOM     26  C   UNL A   1      31.645  31.991  26.817  1.00  0.00     0.023 C 
BRANCH  26  27
ATOM     27  C   UNL A   1      32.870  32.784  27.239  1.00  0.00     0.116 C 
BRANCH  27  28
ATOM     28  N   UNL A   1      32.536  34.150  27.625  1.00  0.00    -0.352 N 
ATOM     29  C   UNL A   1      33.024  34.913  28.659  1.00  0.00     0.251 C 
ATOM     30  H   UNL A   1      31.861  34.590  27.060  1.00  0.00     0.163 HD
ATOM     31  O   UNL A   1      32.484  35.971  28.952  1.00  0.00    -0.269 OA
BRANCH  29  32
ATOM     32  C   UNL A   1      34.191  34.436  29.430  1.00  0.00     0.039 A 
ATOM     33  C   UNL A   1      33.983  33.801  30.657  1.00  0.00     0.014 A 
ATOM     34  C   UNL A   1      35.486  34.597  28.933  1.00  0.00     0.014 A 
ATOM     35  C   UNL A   1      35.070  33.260  31.344  1.00  0.00     0.010 A 
ATOM     36  C   UNL A   1      36.550  33.964  29.561  1.00  0.00     0.010 A 
ATOM     37  C   UNL A   1      36.356  33.298  30.780  1.00  0.00    -0.014 A 
BRANCH  37  38
ATOM     38  C   UNL A   1      37.518  32.662  31.450  1.00  0.00     0.031 A 
ATOM     39  C   UNL A   1      38.240  31.525  30.780  1.00  0.00     0.074 A 
ATOM     40  C   UNL A   1      37.879  33.060  32.687  1.00  0.00     0.049 A 
ATOM     41  N   UNL A   1      39.219  30.783  31.233  1.00  0.00    -0.248 NA
ATOM     42  C   UNL A   1      37.777  31.147  29.435  1.00  0.00     0.031 C 
ATOM     43  C   UNL A   1      37.224  34.116  33.462  1.00  0.00     0.029 A 
ATOM     44  N   UNL A   1      38.879  32.616  33.515  1.00  0.00    -0.354 N 
ATOM     45  C   UNL A   1      39.476  29.850  30.237  1.00  0.00     0.074 A 
ATOM     46  C   UNL A   1      38.508  30.071  29.186  1.00  0.00     0.031 C 
ATOM     47  C   UNL A   1      37.856  34.256  34.638  1.00  0.00     0.029 A 
ATOM     48  C   UNL A   1      38.931  33.272  34.720  1.00  0.00     0.049 A 
ATOM     49  H   UNL A   1      39.501  31.894  33.268  1.00  0.00     0.167 HD
ATOM     50  C   UNL A   1      40.450  28.911  30.189  1.00  0.00     0.037 A 
ATOM     51  C   UNL A   1      39.746  33.092  35.777  1.00  0.00     0.037 A 
ATOM     52  C   UNL A   1      41.428  28.713  31.226  1.00  0.00     0.049 A 
ATOM     53  C   UNL A   1      40.812  32.031  35.703  1.00  0.00     0.074 A 
ATOM     54  C   UNL A   1      42.491  27.828  31.251  1.00  0.00     0.029 A 
ATOM     55  N   UNL A   1      41.459  29.410  32.425  1.00  0.00    -0.354 N 
ATOM     56  N   UNL A   1      41.091  31.203  34.725  1.00  0.00    -0.248 NA
ATOM     57  C   UNL A   1      41.682  31.883  36.878  1.00  0.00     0.031 C 
ATOM     58  C   UNL A   1      43.132  27.951  32.487  1.00  0.00     0.029 A 
ATOM     59  C   UNL A   1      42.509  28.958  33.207  1.00  0.00     0.049 A 
ATOM     60  H   UNL A   1      40.828  30.121  32.682  1.00  0.00     0.167 HD
ATOM     61  C   UNL A   1      42.186  30.463  35.151  1.00  0.00     0.074 A 
ATOM     62  C   UNL A   1      42.531  30.953  36.470  1.00  0.00     0.031 C 
ATOM     63  C   UNL A   1      42.846  29.467  34.511  1.00  0.00     0.037 A 
BRANCH  50  64
ATOM     64  C   UNL A   1      40.516  28.033  28.972  1.00  0.00     0.064 A 
ATOM     65  C   UNL A   1      39.778  26.842  28.883  1.00  0.00     0.173 A 
ATOM     66  C   UNL A   1      41.290  28.408  27.863  1.00  0.00     0.173 A 
ATOM     67  F   UNL A   1      39.032  26.431  29.920  1.00  0.00    -0.203 F 
ATOM     68  C   UNL A   1      39.835  26.046  27.742  1.00  0.00     0.198 A 
ATOM     69  C   UNL A   1      41.317  27.627  26.710  1.00  0.00     0.198 A 
ATOM     70  F   UNL A   1      42.011  29.538  27.892  1.00  0.00    -0.203 F 
ATOM     71  F   UNL A   1      39.163  24.887  27.702  1.00  0.00    -0.200 F 
ATOM     72  C   UNL A   1      40.596  26.443  26.654  1.00  0.00     0.200 A 
ATOM     73  F   UNL A   1      42.041  28.019  25.653  1.00  0.00    -0.200 F 
ATOM     74  F   UNL A   1      40.641  25.682  25.551  1.00  0.00    -0.200 F 
ENDBRANCH  50  64
BRANCH  51  75
ATOM     75  C   UNL A   1      39.604  33.943  36.989  1.00  0.00     0.064 A 
ATOM     76  C   UNL A   1      38.854  33.508  38.091  1.00  0.00     0.173 A 
ATOM     77  C   UNL A   1      40.189  35.216  37.062  1.00  0.00     0.173 A 
ATOM     78  F   UNL A   1      38.259  32.306  38.063  1.00  0.00    -0.203 F 
ATOM     79  C   UNL A   1      38.667  34.324  39.206  1.00  0.00     0.198 A 
ATOM     80  C   UNL A   1      40.031  36.018  38.191  1.00  0.00     0.198 A 
ATOM     81  F   UNL A   1      40.922  35.679  36.040  1.00  0.00    -0.203 F 
ATOM     82  F   UNL A   1      37.896  33.907  40.218  1.00  0.00    -0.200 F 
ATOM     83  C   UNL A   1      39.259  35.577  39.256  1.00  0.00     0.200 A 
ATOM     84  F   UNL A   1      40.619  37.221  38.244  1.00  0.00    -0.200 F 
ATOM     85  F   UNL A   1      39.079  36.363  40.326  1.00  0.00    -0.200 F 
ENDBRANCH  51  75
BRANCH  63  86
ATOM     86  C   UNL A   1      44.038  28.872  35.205  1.00  0.00     0.064 A 
ATOM     87  C   UNL A   1      43.925  27.756  36.046  1.00  0.00     0.173 A 
ATOM     88  C   UNL A   1      45.320  29.404  34.989  1.00  0.00     0.173 A 
ATOM     89  F   UNL A   1      42.721  27.218  36.296  1.00  0.00    -0.203 F 
ATOM     90  C   UNL A   1      45.046  27.213  36.670  1.00  0.00     0.198 A 
ATOM     91  C   UNL A   1      46.442  28.836  35.585  1.00  0.00     0.198 A 
ATOM     92  F   UNL A   1      45.485  30.465  34.186  1.00  0.00    -0.203 F 
ATOM     93  F   UNL A   1      44.905  26.181  37.513  1.00  0.00    -0.200 F 
ATOM     94  C   UNL A   1      46.302  27.749  36.433  1.00  0.00     0.200 A 
ATOM     95  F   UNL A   1      47.658  29.344  35.339  1.00  0.00    -0.200 F 
ATOM     96  F   UNL A   1      47.380  27.218  37.027  1.00  0.00    -0.200 F 
ENDBRANCH  63  86
ENDBRANCH  37  38
ENDBRANCH  29  32
ENDBRANCH  27  28
ENDBRANCH  26  27
ENDBRANCH   1  26
TORSDOF 14
ENDMDL
MODEL 3
REMARK VINA RESULT:     -12.8      5.868     11.511
REMARK SMILES C[N@@H+]1CCC[C@@H](C(=O)N[C@H](C(=O)NCCCCNC(=O)c2ccc(-c3c4nc(c(-c5c(F)c(F)c(F)c(F)c5F)c5ccc([nH]5)c(-c5c(F)c(F)c(F)c(F)c5F)c5nc(c(-c6c(F)c(F)c(F)c(F)c6F)c6ccc3[nH]6)C=C5)C=C4)cc2)c2ccccc2)C1
REMARK SMILES IDX 15 1 14 2 13 3 11 4 12 5 10 7 9 8 7 9 8 10 6 12 1 13 2 14
REMARK SMILES IDX 3 15 90 16 4 18 5 19 84 20 85 21 89 22 86 23 88 24 87 25
REMARK SMILES IDX 16 26 17 27 18 28 19 29 20 31 21 32 22 33 83 34 23 35 82 36
REMARK SMILES IDX 24 37 25 38 26 39 76 40 27 41 81 42 75 43 77 44 28 45 80 46
REMARK SMILES IDX 74 47 73 48 29 50 61 51 41 52 60 53 42 54 45 55 59 56 78 57
REMARK SMILES IDX 43 58 44 59 58 61 79 62 46 63 30 64 31 65 39 66 32 67 33 68
REMARK SMILES IDX 37 69 40 70 34 71 35 72 38 73 36 74 62 75 63 76 71 77 64 78
REMARK SMILES IDX 65 79 69 80 72 81 66 82 67 83 70 84 68 85 47 86 48 87 56 88
REMARK SMILES IDX 49 89 50 90 54 91 57 92 51 93 52 94 55 95 53 96
REMARK H PARENT 13 6 9 11 2 17 18 30 77 49 45 60
REMARK Flexibility Score: inf
ROOT
ATOM      1  C   UNL A   1      37.190  20.958  24.789  1.00  0.00     0.023 C 
ENDROOT
BRANCH   1   2
ATOM      2  C   UNL A   1      35.726  20.515  24.711  1.00  0.00     0.116 C 
BRANCH   2   3
ATOM      3  N   UNL A   1      34.980  20.851  25.918  1.00  0.00    -0.354 N 
ATOM      4  C   UNL A   1      33.616  20.905  26.109  1.00  0.00     0.247 C 
ATOM      5  O   UNL A   1      33.204  21.308  27.199  1.00  0.00    -0.272 OA
ATOM      6  H   UNL A   1      35.527  21.071  26.706  1.00  0.00     0.163 HD
BRANCH   4   7
ATOM      7  C   UNL A   1      32.667  20.458  24.966  1.00  0.00     0.202 C 
BRANCH   7   8
ATOM      8  N   UNL A   1      32.846  21.255  23.762  1.00  0.00    -0.340 N 
ATOM      9  C   UNL A   1      32.419  22.490  23.404  1.00  0.00     0.229 C 
ATOM     10  O   UNL A   1      32.756  22.862  22.270  1.00  0.00    -0.275 OA
ATOM     11  H   UNL A   1      33.386  20.808  23.069  1.00  0.00     0.164 HD
BRANCH   9  12
ATOM     12  C   UNL A   1      31.610  23.471  24.277  1.00  0.00     0.133 C 
ATOM     13  C   UNL A   1      33.648  26.328  25.752  1.00  0.00     0.332 C 
ATOM     14  N   UNL A   1      32.859  25.581  24.779  1.00  0.00    -0.337 N 
ATOM     15  C   UNL A   1      31.805  26.402  24.177  1.00  0.00     0.262 C 
ATOM     16  C   UNL A   1      32.344  24.321  25.320  1.00  0.00     0.275 C 
ATOM     17  H   UNL A   1      33.497  25.326  24.026  1.00  0.00     0.347 HD
ATOM     18  C   UNL A   1      31.062  25.652  23.067  1.00  0.00     0.062 C 
ATOM     19  C   UNL A   1      30.566  24.281  23.506  1.00  0.00     0.025 C 
ENDBRANCH   9  12
ENDBRANCH   7   8
BRANCH   7  20
ATOM     20  C   UNL A   1      32.649  18.960  24.674  1.00  0.00    -0.016 A 
ATOM     21  C   UNL A   1      32.906  18.423  23.407  1.00  0.00     0.006 A 
ATOM     22  C   UNL A   1      32.565  18.061  25.750  1.00  0.00     0.006 A 
ATOM     23  C   UNL A   1      33.277  17.082  23.263  1.00  0.00     0.000 A 
ATOM     24  C   UNL A   1      32.912  16.718  25.607  1.00  0.00     0.000 A 
ATOM     25  C   UNL A   1      33.316  16.239  24.369  1.00  0.00     0.000 A 
ENDBRANCH   7  20
ENDBRANCH   4   7
ENDBRANCH   2   3
ENDBRANCH   1   2
BRANCH   1  26
ATOM     26  C   UNL A   1      38.191  19.828  25.001  1.00  0.00     0.023 C 
BRANCH  26  27
ATOM     27  C   UNL A   1      39.323  20.182  25.949  1.00  0.00     0.116 C 
BRANCH  27  28
ATOM     28  N   UNL A   1      40.331  19.132  26.021  1.00  0.00    -0.352 N 
ATOM     29  C   UNL A   1      41.699  19.234  26.126  1.00  0.00     0.251 C 
ATOM     30  H   UNL A   1      39.980  18.213  25.990  1.00  0.00     0.163 HD
ATOM     31  O   UNL A   1      42.404  18.246  25.973  1.00  0.00    -0.269 OA
BRANCH  29  32
ATOM     32  C   UNL A   1      42.313  20.550  26.399  1.00  0.00     0.039 A 
ATOM     33  C   UNL A   1      42.726  21.345  25.328  1.00  0.00     0.014 A 
ATOM     34  C   UNL A   1      42.460  21.007  27.711  1.00  0.00     0.014 A 
ATOM     35  C   UNL A   1      43.216  22.628  25.572  1.00  0.00     0.010 A 
ATOM     36  C   UNL A   1      42.843  22.320  27.945  1.00  0.00     0.010 A 
ATOM     37  C   UNL A   1      43.237  23.143  26.879  1.00  0.00    -0.014 A 
BRANCH  37  38
ATOM     38  C   UNL A   1      43.678  24.532  27.161  1.00  0.00     0.031 A 
ATOM     39  C   UNL A   1      42.684  25.548  27.656  1.00  0.00     0.074 A 
ATOM     40  C   UNL A   1      44.950  24.896  26.906  1.00  0.00     0.049 A 
ATOM     41  N   UNL A   1      42.849  26.827  27.880  1.00  0.00    -0.248 NA
ATOM     42  C   UNL A   1      41.313  25.071  27.901  1.00  0.00     0.031 C 
ATOM     43  C   UNL A   1      45.993  24.016  26.374  1.00  0.00     0.029 A 
ATOM     44  N   UNL A   1      45.582  26.106  27.049  1.00  0.00    -0.354 N 
ATOM     45  C   UNL A   1      41.605  27.303  28.275  1.00  0.00     0.074 A 
ATOM     46  C   UNL A   1      40.680  26.195  28.196  1.00  0.00     0.031 C 
ATOM     47  C   UNL A   1      47.139  24.706  26.263  1.00  0.00     0.029 A 
ATOM     48  C   UNL A   1      46.903  26.087  26.672  1.00  0.00     0.049 A 
ATOM     49  H   UNL A   1      45.131  26.911  27.390  1.00  0.00     0.167 HD
ATOM     50  C   UNL A   1      41.271  28.546  28.696  1.00  0.00     0.037 A 
ATOM     51  C   UNL A   1      47.816  27.076  26.648  1.00  0.00     0.037 A 
ATOM     52  C   UNL A   1      42.201  29.639  28.798  1.00  0.00     0.049 A 
ATOM     53  C   UNL A   1      47.413  28.453  27.106  1.00  0.00     0.074 A 
ATOM     54  C   UNL A   1      41.977  30.921  29.266  1.00  0.00     0.029 A 
ATOM     55  N   UNL A   1      43.536  29.576  28.423  1.00  0.00    -0.354 N 
ATOM     56  N   UNL A   1      46.251  28.873  27.547  1.00  0.00    -0.248 NA
ATOM     57  C   UNL A   1      48.450  29.493  27.071  1.00  0.00     0.031 C 
ATOM     58  C   UNL A   1      43.161  31.651  29.123  1.00  0.00     0.029 A 
ATOM     59  C   UNL A   1      44.141  30.805  28.627  1.00  0.00     0.049 A 
ATOM     60  H   UNL A   1      43.986  28.777  28.066  1.00  0.00     0.167 HD
ATOM     61  C   UNL A   1      46.428  30.211  27.874  1.00  0.00     0.074 A 
ATOM     62  C   UNL A   1      47.813  30.528  27.595  1.00  0.00     0.031 C 
ATOM     63  C   UNL A   1      45.525  31.098  28.358  1.00  0.00     0.037 A 
BRANCH  50  64
ATOM     64  C   UNL A   1      39.841  28.789  29.087  1.00  0.00     0.064 A 
ATOM     65  C   UNL A   1      39.397  28.607  30.406  1.00  0.00     0.173 A 
ATOM     66  C   UNL A   1      38.912  29.253  28.143  1.00  0.00     0.173 A 
ATOM     67  F   UNL A   1      40.240  28.152  31.346  1.00  0.00    -0.203 F 
ATOM     68  C   UNL A   1      38.072  28.852  30.759  1.00  0.00     0.198 A 
ATOM     69  C   UNL A   1      37.597  29.531  28.507  1.00  0.00     0.198 A 
ATOM     70  F   UNL A   1      39.284  29.449  26.869  1.00  0.00    -0.203 F 
ATOM     71  F   UNL A   1      37.661  28.621  32.013  1.00  0.00    -0.200 F 
ATOM     72  C   UNL A   1      37.177  29.323  29.812  1.00  0.00     0.200 A 
ATOM     73  F   UNL A   1      36.736  30.001  27.593  1.00  0.00    -0.200 F 
ATOM     74  F   UNL A   1      35.905  29.572  30.154  1.00  0.00    -0.200 F 
ENDBRANCH  50  64
BRANCH  51  75
ATOM     75  C   UNL A   1      49.205  26.805  26.191  1.00  0.00     0.064 A 
ATOM     76  C   UNL A   1      49.579  27.012  24.855  1.00  0.00     0.173 A 
ATOM     77  C   UNL A   1      50.180  26.307  27.069  1.00  0.00     0.173 A 
ATOM     78  F   UNL A   1      48.679  27.468  23.972  1.00  0.00    -0.203 F 
ATOM     79  C   UNL A   1      50.863  26.703  24.407  1.00  0.00     0.198 A 
ATOM     80  C   UNL A   1      51.474  26.031  26.628  1.00  0.00     0.198 A 
ATOM     81  F   UNL A   1      49.880  26.097  28.358  1.00  0.00    -0.203 F 
ATOM     82  F   UNL A   1      51.173  26.853  23.113  1.00  0.00    -0.200 F 
ATOM     83  C   UNL A   1      51.810  26.216  25.295  1.00  0.00     0.200 A 
ATOM     84  F   UNL A   1      52.391  25.578  27.493  1.00  0.00    -0.200 F 
ATOM     85  F   UNL A   1      53.043  25.917  24.865  1.00  0.00    -0.200 F 
ENDBRANCH  51  75
BRANCH  63  86
ATOM     86  C   UNL A   1      46.016  32.484  28.665  1.00  0.00     0.064 A 
ATOM     87  C   UNL A   1      46.569  32.816  29.910  1.00  0.00     0.173 A 
ATOM     88  C   UNL A   1      45.970  33.484  27.680  1.00  0.00     0.173 A 
ATOM     89  F   UNL A   1      46.624  31.900  30.889  1.00  0.00    -0.203 F 
ATOM     90  C   UNL A   1      47.029  34.105  30.169  1.00  0.00     0.198 A 
ATOM     91  C   UNL A   1      46.464  34.761  27.931  1.00  0.00     0.198 A 
ATOM     92  F   UNL A   1      45.459  33.218  26.469  1.00  0.00    -0.203 F 
ATOM     93  F   UNL A   1      47.503  34.412  31.384  1.00  0.00    -0.200 F 
ATOM     94  C   UNL A   1      46.984  35.072  29.177  1.00  0.00     0.200 A 
ATOM     95  F   UNL A   1      46.437  35.690  26.965  1.00  0.00    -0.200 F 
ATOM     96  F   UNL A   1      47.437  36.309  29.426  1.00  0.00    -0.200 F 
ENDBRANCH  63  86
ENDBRANCH  37  38
ENDBRANCH  29  32
ENDBRANCH  27  28
ENDBRANCH  26  27
ENDBRANCH   1  26
TORSDOF 14
ENDMDL
