MODEL 1
REMARK VINA RESULT:     -12.6      0.000      0.000
REMARK SMILES O=C(/C=C/C(=O)Nc1ccc2[nH]ncc2c1)NCCCCNC(=O)c1ccc(-c2c3nc(c(-c4c(F)c(F)c(F)c(F)c4F)c4ccc([nH]4)c(-c4c(F)c(F)c(F)c(F)c4F)c4nc(c(-c5c(F)c(F)c(F)c(F)c5F)c5ccc2[nH]5)C=C4)C=C3)cc1
REMARK SMILES IDX 19 1 18 2 17 3 1 4 2 5 3 7 4 8 5 9 6 10 7 11 8 13 9 14 16 15
REMARK SMILES IDX 10 16 15 17 11 18 14 19 12 20 13 21 20 23 21 24 22 25 23 26
REMARK SMILES IDX 24 28 25 29 26 30 87 31 27 32 86 33 28 34 29 35 30 36 80 37
REMARK SMILES IDX 31 38 85 39 79 40 81 41 32 42 84 43 78 44 77 45 33 47 65 48
REMARK SMILES IDX 45 49 64 50 46 51 49 52 63 53 82 54 47 55 48 56 62 58 83 59
REMARK SMILES IDX 50 60 34 61 35 62 43 63 36 64 37 65 41 66 44 67 38 68 39 69
REMARK SMILES IDX 42 70 40 71 66 72 67 73 75 74 68 75 69 76 73 77 76 78 70 79
REMARK SMILES IDX 71 80 74 81 72 82 51 83 52 84 60 85 53 86 54 87 58 88 61 89
REMARK SMILES IDX 55 90 56 91 59 92 57 93
REMARK H PARENT 17 6 7 12 12 22 22 27 81 46 49 57
REMARK Flexibility Score: inf
ROOT
ATOM      1  C   UNL A   1      37.441  21.101  24.615  1.00  0.00     0.023 C 
ENDROOT
BRANCH   1   2
ATOM      2  C   UNL A   1      37.208  22.084  25.762  1.00  0.00     0.116 C 
BRANCH   2   3
ATOM      3  N   UNL A   1      35.795  22.230  26.045  1.00  0.00    -0.353 N 
ATOM      4  O   UNL A   1      35.606  24.288  25.052  1.00  0.00    -0.270 OA
ATOM      5  C   UNL A   1      35.122  23.366  25.697  1.00  0.00     0.244 C 
ATOM      6  H   UNL A   1      35.313  21.498  26.493  1.00  0.00     0.163 HD
BRANCH   5   7
ATOM      7  C   UNL A   1      33.741  23.483  26.206  1.00  0.00     0.077 C 
ATOM      8  C   UNL A   1      32.935  24.540  26.026  1.00  0.00     0.077 C 
BRANCH   8   9
ATOM      9  C   UNL A   1      31.630  24.626  26.730  1.00  0.00     0.248 C 
ATOM     10  O   UNL A   1      31.270  23.678  27.423  1.00  0.00    -0.270 OA
ATOM     11  N   UNL A   1      30.876  25.771  26.649  1.00  0.00    -0.322 N 
ATOM     12  H   UNL A   1      30.116  25.824  27.272  1.00  0.00     0.170 HD
BRANCH  11  13
ATOM     13  C   UNL A   1      31.041  26.878  25.795  1.00  0.00     0.042 A 
ATOM     14  C   UNL A   1      31.691  28.046  26.211  1.00  0.00     0.028 A 
ATOM     15  C   UNL A   1      30.434  26.813  24.535  1.00  0.00     0.038 A 
ATOM     16  C   UNL A   1      31.612  29.229  25.469  1.00  0.00     0.030 A 
ATOM     17  C   UNL A   1      30.312  28.003  23.795  1.00  0.00     0.022 A 
ATOM     18  C   UNL A   1      30.875  29.176  24.287  1.00  0.00     0.065 A 
ATOM     19  C   UNL A   1      29.681  28.396  22.593  1.00  0.00     0.143 A 
ATOM     20  N   UNL A   1      30.515  30.153  23.397  1.00  0.00    -0.278 N 
ATOM     21  N   UNL A   1      29.807  29.702  22.346  1.00  0.00    -0.183 NA
ATOM     22  H   UNL A   1      30.752  31.101  23.516  1.00  0.00     0.190 HD
ENDBRANCH  11  13
ENDBRANCH   8   9
ENDBRANCH   5   7
ENDBRANCH   2   3
ENDBRANCH   1   2
BRANCH   1  23
ATOM     23  C   UNL A   1      38.236  19.853  25.010  1.00  0.00     0.023 C 
BRANCH  23  24
ATOM     24  C   UNL A   1      39.338  20.092  26.035  1.00  0.00     0.116 C 
BRANCH  24  25
ATOM     25  N   UNL A   1      40.365  19.063  26.004  1.00  0.00    -0.352 N 
ATOM     26  C   UNL A   1      41.728  19.198  26.088  1.00  0.00     0.251 C 
ATOM     27  H   UNL A   1      40.035  18.140  25.910  1.00  0.00     0.163 HD
ATOM     28  O   UNL A   1      42.459  18.232  25.882  1.00  0.00    -0.269 OA
BRANCH  26  29
ATOM     29  C   UNL A   1      42.321  20.517  26.397  1.00  0.00     0.039 A 
ATOM     30  C   UNL A   1      42.758  21.322  25.342  1.00  0.00     0.014 A 
ATOM     31  C   UNL A   1      42.437  20.964  27.716  1.00  0.00     0.014 A 
ATOM     32  C   UNL A   1      43.252  22.601  25.607  1.00  0.00     0.010 A 
ATOM     33  C   UNL A   1      42.854  22.267  27.972  1.00  0.00     0.010 A 
ATOM     34  C   UNL A   1      43.268  23.100  26.921  1.00  0.00    -0.014 A 
BRANCH  34  35
ATOM     35  C   UNL A   1      43.704  24.490  27.210  1.00  0.00     0.031 A 
ATOM     36  C   UNL A   1      42.717  25.508  27.712  1.00  0.00     0.074 A 
ATOM     37  C   UNL A   1      44.978  24.854  26.965  1.00  0.00     0.049 A 
ATOM     38  N   UNL A   1      42.894  26.780  27.965  1.00  0.00    -0.248 NA
ATOM     39  C   UNL A   1      41.340  25.038  27.936  1.00  0.00     0.031 C 
ATOM     40  C   UNL A   1      46.021  23.974  26.435  1.00  0.00     0.029 A 
ATOM     41  N   UNL A   1      45.611  26.063  27.117  1.00  0.00    -0.354 N 
ATOM     42  C   UNL A   1      41.654  27.263  28.363  1.00  0.00     0.074 A 
ATOM     43  C   UNL A   1      40.721  26.162  28.263  1.00  0.00     0.031 C 
ATOM     44  C   UNL A   1      47.168  24.663  26.333  1.00  0.00     0.029 A 
ATOM     45  C   UNL A   1      46.934  26.044  26.744  1.00  0.00     0.049 A 
ATOM     46  H   UNL A   1      45.160  26.867  27.462  1.00  0.00     0.167 HD
ATOM     47  C   UNL A   1      41.329  28.505  28.795  1.00  0.00     0.037 A 
ATOM     48  C   UNL A   1      47.851  27.030  26.727  1.00  0.00     0.037 A 
ATOM     49  C   UNL A   1      42.265  29.593  28.909  1.00  0.00     0.049 A 
ATOM     50  C   UNL A   1      47.457  28.407  27.189  1.00  0.00     0.074 A 
ATOM     51  C   UNL A   1      42.046  30.873  29.391  1.00  0.00     0.029 A 
ATOM     52  N   UNL A   1      43.596  29.535  28.525  1.00  0.00    -0.354 N 
ATOM     53  N   UNL A   1      46.300  28.833  27.634  1.00  0.00    -0.248 NA
ATOM     54  C   UNL A   1      48.501  29.440  27.152  1.00  0.00     0.031 C 
ATOM     55  C   UNL A   1      43.228  31.605  29.242  1.00  0.00     0.029 A 
ATOM     56  C   UNL A   1      44.204  30.764  28.731  1.00  0.00     0.049 A 
ATOM     57  H   UNL A   1      44.045  28.737  28.160  1.00  0.00     0.167 HD
ATOM     58  C   UNL A   1      46.484  30.171  27.959  1.00  0.00     0.074 A 
ATOM     59  C   UNL A   1      47.869  30.482  27.675  1.00  0.00     0.031 C 
ATOM     60  C   UNL A   1      45.586  31.060  28.451  1.00  0.00     0.037 A 
BRANCH  47  61
ATOM     61  C   UNL A   1      39.896  28.757  29.174  1.00  0.00     0.064 A 
ATOM     62  C   UNL A   1      38.954  29.214  28.240  1.00  0.00     0.173 A 
ATOM     63  C   UNL A   1      39.452  28.506  30.482  1.00  0.00     0.173 A 
ATOM     64  F   UNL A   1      39.326  29.480  26.979  1.00  0.00    -0.203 F 
ATOM     65  C   UNL A   1      37.630  29.442  28.609  1.00  0.00     0.198 A 
ATOM     66  C   UNL A   1      38.120  28.702  30.838  1.00  0.00     0.198 A 
ATOM     67  F   UNL A   1      40.308  28.062  31.415  1.00  0.00    -0.203 F 
ATOM     68  F   UNL A   1      36.762  29.932  27.713  1.00  0.00    -0.200 F 
ATOM     69  C   UNL A   1      37.212  29.178  29.904  1.00  0.00     0.200 A 
ATOM     70  F   UNL A   1      37.715  28.430  32.087  1.00  0.00    -0.200 F 
ATOM     71  F   UNL A   1      35.937  29.391  30.255  1.00  0.00    -0.200 F 
ENDBRANCH  47  61
BRANCH  48  72
ATOM     72  C   UNL A   1      49.239  26.747  26.274  1.00  0.00     0.064 A 
ATOM     73  C   UNL A   1      50.203  26.260  27.167  1.00  0.00     0.173 A 
ATOM     74  C   UNL A   1      49.632  26.963  24.945  1.00  0.00     0.173 A 
ATOM     75  F   UNL A   1      49.882  26.056  28.453  1.00  0.00    -0.203 F 
ATOM     76  C   UNL A   1      51.513  26.023  26.755  1.00  0.00     0.198 A 
ATOM     77  C   UNL A   1      50.935  26.695  24.527  1.00  0.00     0.198 A 
ATOM     78  F   UNL A   1      48.748  27.424  24.048  1.00  0.00    -0.203 F 
ATOM     79  F   UNL A   1      52.427  25.608  27.643  1.00  0.00    -0.200 F 
ATOM     80  C   UNL A   1      51.876  26.235  25.435  1.00  0.00     0.200 A 
ATOM     81  F   UNL A   1      51.277  26.886  23.245  1.00  0.00    -0.200 F 
ATOM     82  F   UNL A   1      53.135  26.004  25.037  1.00  0.00    -0.200 F 
ENDBRANCH  48  72
BRANCH  60  83
ATOM     83  C   UNL A   1      46.081  32.446  28.753  1.00  0.00     0.064 A 
ATOM     84  C   UNL A   1      46.018  33.479  27.806  1.00  0.00     0.173 A 
ATOM     85  C   UNL A   1      46.590  32.754  30.024  1.00  0.00     0.173 A 
ATOM     86  F   UNL A   1      45.553  33.236  26.571  1.00  0.00    -0.203 F 
ATOM     87  C   UNL A   1      46.473  34.760  28.111  1.00  0.00     0.198 A 
ATOM     88  C   UNL A   1      47.011  34.043  30.337  1.00  0.00     0.198 A 
ATOM     89  F   UNL A   1      46.666  31.806  30.970  1.00  0.00    -0.203 F 
ATOM     90  F   UNL A   1      46.453  35.716  27.173  1.00  0.00    -0.200 F 
ATOM     91  C   UNL A   1      46.961  35.044  29.377  1.00  0.00     0.200 A 
ATOM     92  F   UNL A   1      47.466  34.319  31.567  1.00  0.00    -0.200 F 
ATOM     93  F   UNL A   1      47.390  36.278  29.672  1.00  0.00    -0.200 F 
ENDBRANCH  60  83
ENDBRANCH  34  35
ENDBRANCH  26  29
ENDBRANCH  24  25
ENDBRANCH  23  24
ENDBRANCH   1  23
TORSDOF 13
ENDMDL
MODEL 2
REMARK VINA RESULT:     -12.5      0.318      1.642
REMARK SMILES O=C(/C=C/C(=O)Nc1ccc2[nH]ncc2c1)NCCCCNC(=O)c1ccc(-c2c3nc(c(-c4c(F)c(F)c(F)c(F)c4F)c4ccc([nH]4)c(-c4c(F)c(F)c(F)c(F)c4F)c4nc(c(-c5c(F)c(F)c(F)c(F)c5F)c5ccc2[nH]5)C=C4)C=C3)cc1
REMARK SMILES IDX 19 1 18 2 17 3 1 4 2 5 3 7 4 8 5 9 6 10 7 11 8 13 9 14 16 15
REMARK SMILES IDX 10 16 15 17 11 18 14 19 12 20 13 21 20 23 21 24 22 25 23 26
REMARK SMILES IDX 24 28 25 29 26 30 87 31 27 32 86 33 28 34 29 35 30 36 80 37
REMARK SMILES IDX 31 38 85 39 79 40 81 41 32 42 84 43 78 44 77 45 33 47 65 48
REMARK SMILES IDX 45 49 64 50 46 51 49 52 63 53 82 54 47 55 48 56 62 58 83 59
REMARK SMILES IDX 50 60 34 61 35 62 43 63 36 64 37 65 41 66 44 67 38 68 39 69
REMARK SMILES IDX 42 70 40 71 66 72 67 73 75 74 68 75 69 76 73 77 76 78 70 79
REMARK SMILES IDX 71 80 74 81 72 82 51 83 52 84 60 85 53 86 54 87 58 88 61 89
REMARK SMILES IDX 55 90 56 91 59 92 57 93
REMARK H PARENT 17 6 7 12 12 22 22 27 81 46 49 57
REMARK Flexibility Score: inf
ROOT
ATOM      1  C   UNL A   1      37.258  20.991  24.616  1.00  0.00     0.023 C 
ENDROOT
BRANCH   1   2
ATOM      2  C   UNL A   1      37.241  22.120  25.645  1.00  0.00     0.116 C 
BRANCH   2   3
ATOM      3  N   UNL A   1      35.908  22.321  26.176  1.00  0.00    -0.353 N 
ATOM      4  O   UNL A   1      35.507  24.239  24.985  1.00  0.00    -0.270 OA
ATOM      5  C   UNL A   1      35.168  23.413  25.824  1.00  0.00     0.244 C 
ATOM      6  H   UNL A   1      35.530  21.659  26.799  1.00  0.00     0.163 HD
BRANCH   5   7
ATOM      7  C   UNL A   1      33.911  23.613  26.573  1.00  0.00     0.077 C 
ATOM      8  C   UNL A   1      32.686  23.672  26.029  1.00  0.00     0.077 C 
BRANCH   8   9
ATOM      9  C   UNL A   1      31.509  24.052  26.853  1.00  0.00     0.248 C 
ATOM     10  O   UNL A   1      31.038  23.222  27.626  1.00  0.00    -0.270 OA
ATOM     11  N   UNL A   1      31.004  25.328  26.788  1.00  0.00    -0.322 N 
ATOM     12  H   UNL A   1      30.342  25.558  27.479  1.00  0.00     0.170 HD
BRANCH  11  13
ATOM     13  C   UNL A   1      31.302  26.349  25.866  1.00  0.00     0.042 A 
ATOM     14  C   UNL A   1      32.258  27.336  26.134  1.00  0.00     0.028 A 
ATOM     15  C   UNL A   1      30.527  26.408  24.701  1.00  0.00     0.038 A 
ATOM     16  C   UNL A   1      32.354  28.491  25.352  1.00  0.00     0.030 A 
ATOM     17  C   UNL A   1      30.584  27.581  23.926  1.00  0.00     0.022 A 
ATOM     18  C   UNL A   1      31.467  28.594  24.281  1.00  0.00     0.065 A 
ATOM     19  C   UNL A   1      29.901  28.091  22.799  1.00  0.00     0.143 A 
ATOM     20  N   UNL A   1      31.224  29.613  23.399  1.00  0.00    -0.278 N 
ATOM     21  N   UNL A   1      30.292  29.326  22.473  1.00  0.00    -0.183 NA
ATOM     22  H   UNL A   1      31.690  30.480  23.438  1.00  0.00     0.190 HD
ENDBRANCH  11  13
ENDBRANCH   8   9
ENDBRANCH   5   7
ENDBRANCH   2   3
ENDBRANCH   1   2
BRANCH   1  23
ATOM     23  C   UNL A   1      38.137  19.799  25.008  1.00  0.00     0.023 C 
BRANCH  23  24
ATOM     24  C   UNL A   1      39.280  20.130  25.960  1.00  0.00     0.116 C 
BRANCH  24  25
ATOM     25  N   UNL A   1      40.297  19.092  25.996  1.00  0.00    -0.352 N 
ATOM     26  C   UNL A   1      41.658  19.219  26.126  1.00  0.00     0.251 C 
ATOM     27  H   UNL A   1      39.963  18.170  25.918  1.00  0.00     0.163 HD
ATOM     28  O   UNL A   1      42.386  18.241  25.975  1.00  0.00    -0.269 OA
BRANCH  26  29
ATOM     29  C   UNL A   1      42.251  20.541  26.418  1.00  0.00     0.039 A 
ATOM     30  C   UNL A   1      42.714  21.321  25.355  1.00  0.00     0.014 A 
ATOM     31  C   UNL A   1      42.343  21.016  27.729  1.00  0.00     0.014 A 
ATOM     32  C   UNL A   1      43.209  22.603  25.602  1.00  0.00     0.010 A 
ATOM     33  C   UNL A   1      42.762  22.323  27.966  1.00  0.00     0.010 A 
ATOM     34  C   UNL A   1      43.201  23.131  26.905  1.00  0.00    -0.014 A 
BRANCH  34  35
ATOM     35  C   UNL A   1      43.638  24.525  27.172  1.00  0.00     0.031 A 
ATOM     36  C   UNL A   1      42.655  25.547  27.674  1.00  0.00     0.074 A 
ATOM     37  C   UNL A   1      44.909  24.888  26.907  1.00  0.00     0.049 A 
ATOM     38  N   UNL A   1      42.834  26.822  27.909  1.00  0.00    -0.248 NA
ATOM     39  C   UNL A   1      41.283  25.078  27.919  1.00  0.00     0.031 C 
ATOM     40  C   UNL A   1      45.946  24.002  26.376  1.00  0.00     0.029 A 
ATOM     41  N   UNL A   1      45.542  26.099  27.038  1.00  0.00    -0.354 N 
ATOM     42  C   UNL A   1      41.598  27.308  28.316  1.00  0.00     0.074 A 
ATOM     43  C   UNL A   1      40.666  26.205  28.240  1.00  0.00     0.031 C 
ATOM     44  C   UNL A   1      47.091  24.691  26.252  1.00  0.00     0.029 A 
ATOM     45  C   UNL A   1      46.860  26.077  26.650  1.00  0.00     0.049 A 
ATOM     46  H   UNL A   1      45.094  26.907  27.378  1.00  0.00     0.167 HD
ATOM     47  C   UNL A   1      41.276  28.555  28.737  1.00  0.00     0.037 A 
ATOM     48  C   UNL A   1      47.776  27.064  26.610  1.00  0.00     0.037 A 
ATOM     49  C   UNL A   1      42.212  29.646  28.827  1.00  0.00     0.049 A 
ATOM     50  C   UNL A   1      47.385  28.446  27.060  1.00  0.00     0.074 A 
ATOM     51  C   UNL A   1      41.997  30.930  29.297  1.00  0.00     0.029 A 
ATOM     52  N   UNL A   1      43.539  29.585  28.428  1.00  0.00    -0.354 N 
ATOM     53  N   UNL A   1      46.233  28.876  27.514  1.00  0.00    -0.248 NA
ATOM     54  C   UNL A   1      48.427  29.480  26.998  1.00  0.00     0.031 C 
ATOM     55  C   UNL A   1      43.176  31.663  29.125  1.00  0.00     0.029 A 
ATOM     56  C   UNL A   1      44.146  30.817  28.612  1.00  0.00     0.049 A 
ATOM     57  H   UNL A   1      43.985  28.784  28.067  1.00  0.00     0.167 HD
ATOM     58  C   UNL A   1      46.419  30.217  27.821  1.00  0.00     0.074 A 
ATOM     59  C   UNL A   1      47.800  30.527  27.516  1.00  0.00     0.031 C 
ATOM     60  C   UNL A   1      45.525  31.112  28.312  1.00  0.00     0.037 A 
BRANCH  47  61
ATOM     61  C   UNL A   1      39.847  28.810  29.131  1.00  0.00     0.064 A 
ATOM     62  C   UNL A   1      39.406  28.653  30.453  1.00  0.00     0.173 A 
ATOM     63  C   UNL A   1      38.916  29.250  28.177  1.00  0.00     0.173 A 
ATOM     64  F   UNL A   1      40.251  28.225  31.402  1.00  0.00    -0.203 F 
ATOM     65  C   UNL A   1      38.078  28.893  30.799  1.00  0.00     0.198 A 
ATOM     66  C   UNL A   1      37.598  29.523  28.535  1.00  0.00     0.198 A 
ATOM     67  F   UNL A   1      39.284  29.423  26.899  1.00  0.00    -0.203 F 
ATOM     68  F   UNL A   1      37.667  28.682  32.058  1.00  0.00    -0.200 F 
ATOM     69  C   UNL A   1      37.178  29.335  29.843  1.00  0.00     0.200 A 
ATOM     70  F   UNL A   1      36.733  29.966  27.611  1.00  0.00    -0.200 F 
ATOM     71  F   UNL A   1      35.903  29.574  30.179  1.00  0.00    -0.200 F 
ENDBRANCH  47  61
BRANCH  48  72
ATOM     72  C   UNL A   1      49.158  26.777  26.144  1.00  0.00     0.064 A 
ATOM     73  C   UNL A   1      50.136  26.310  27.032  1.00  0.00     0.173 A 
ATOM     74  C   UNL A   1      49.533  26.972  24.806  1.00  0.00     0.173 A 
ATOM     75  F   UNL A   1      49.832  26.127  28.326  1.00  0.00    -0.203 F 
ATOM     76  C   UNL A   1      51.441  26.070  26.608  1.00  0.00     0.198 A 
ATOM     77  C   UNL A   1      50.831  26.701  24.376  1.00  0.00     0.198 A 
ATOM     78  F   UNL A   1      48.636  27.413  23.913  1.00  0.00    -0.203 F 
ATOM     79  F   UNL A   1      52.368  25.673  27.491  1.00  0.00    -0.200 F 
ATOM     80  C   UNL A   1      51.786  26.260  25.279  1.00  0.00     0.200 A 
ATOM     81  F   UNL A   1      51.156  26.870  23.086  1.00  0.00    -0.200 F 
ATOM     82  F   UNL A   1      53.041  26.026  24.869  1.00  0.00    -0.200 F 
ENDBRANCH  48  72
BRANCH  60  83
ATOM     83  C   UNL A   1      46.021  32.502  28.592  1.00  0.00     0.064 A 
ATOM     84  C   UNL A   1      46.592  32.850  29.826  1.00  0.00     0.173 A 
ATOM     85  C   UNL A   1      45.960  33.490  27.597  1.00  0.00     0.173 A 
ATOM     86  F   UNL A   1      46.663  31.948  30.817  1.00  0.00    -0.203 F 
ATOM     87  C   UNL A   1      47.055  34.143  30.062  1.00  0.00     0.198 A 
ATOM     88  C   UNL A   1      46.456  34.770  27.824  1.00  0.00     0.198 A 
ATOM     89  F   UNL A   1      45.431  33.209  26.397  1.00  0.00    -0.203 F 
ATOM     90  F   UNL A   1      47.547  34.466  31.265  1.00  0.00    -0.200 F 
ATOM     91  C   UNL A   1      46.995  35.099  29.059  1.00  0.00     0.200 A 
ATOM     92  F   UNL A   1      46.412  35.687  26.847  1.00  0.00    -0.200 F 
ATOM     93  F   UNL A   1      47.450  36.338  29.284  1.00  0.00    -0.200 F 
ENDBRANCH  60  83
ENDBRANCH  34  35
ENDBRANCH  26  29
ENDBRANCH  24  25
ENDBRANCH  23  24
ENDBRANCH   1  23
TORSDOF 13
ENDMDL
MODEL 3
REMARK VINA RESULT:     -12.5      0.256      1.631
REMARK SMILES O=C(/C=C/C(=O)Nc1ccc2[nH]ncc2c1)NCCCCNC(=O)c1ccc(-c2c3nc(c(-c4c(F)c(F)c(F)c(F)c4F)c4ccc([nH]4)c(-c4c(F)c(F)c(F)c(F)c4F)c4nc(c(-c5c(F)c(F)c(F)c(F)c5F)c5ccc2[nH]5)C=C4)C=C3)cc1
REMARK SMILES IDX 19 1 18 2 17 3 1 4 2 5 3 7 4 8 5 9 6 10 7 11 8 13 9 14 16 15
REMARK SMILES IDX 10 16 15 17 11 18 14 19 12 20 13 21 20 23 21 24 22 25 23 26
REMARK SMILES IDX 24 28 25 29 26 30 87 31 27 32 86 33 28 34 29 35 30 36 80 37
REMARK SMILES IDX 31 38 85 39 79 40 81 41 32 42 84 43 78 44 77 45 33 47 65 48
REMARK SMILES IDX 45 49 64 50 46 51 49 52 63 53 82 54 47 55 48 56 62 58 83 59
REMARK SMILES IDX 50 60 34 61 35 62 43 63 36 64 37 65 41 66 44 67 38 68 39 69
REMARK SMILES IDX 42 70 40 71 66 72 67 73 75 74 68 75 69 76 73 77 76 78 70 79
REMARK SMILES IDX 71 80 74 81 72 82 51 83 52 84 60 85 53 86 54 87 58 88 61 89
REMARK SMILES IDX 55 90 56 91 59 92 57 93
REMARK H PARENT 17 6 7 12 12 22 22 27 81 46 49 57
REMARK Flexibility Score: inf
ROOT
ATOM      1  C   UNL A   1      37.072  20.880  24.675  1.00  0.00     0.023 C 
ENDROOT
BRANCH   1   2
ATOM      2  C   UNL A   1      36.963  21.947  25.764  1.00  0.00     0.116 C 
BRANCH   2   3
ATOM      3  N   UNL A   1      35.586  22.143  26.166  1.00  0.00    -0.353 N 
ATOM      4  O   UNL A   1      35.484  24.325  25.468  1.00  0.00    -0.270 OA
ATOM      5  C   UNL A   1      34.976  23.356  26.021  1.00  0.00     0.244 C 
ATOM      6  H   UNL A   1      35.081  21.390  26.549  1.00  0.00     0.163 HD
BRANCH   5   7
ATOM      7  C   UNL A   1      33.643  23.491  26.640  1.00  0.00     0.077 C 
ATOM      8  C   UNL A   1      32.525  23.867  26.001  1.00  0.00     0.077 C 
BRANCH   8   9
ATOM      9  C   UNL A   1      31.276  24.140  26.756  1.00  0.00     0.248 C 
ATOM     10  O   UNL A   1      30.805  23.248  27.459  1.00  0.00    -0.270 OA
ATOM     11  N   UNL A   1      30.699  25.385  26.711  1.00  0.00    -0.322 N 
ATOM     12  H   UNL A   1      29.980  25.545  27.364  1.00  0.00     0.170 HD
BRANCH  11  13
ATOM     13  C   UNL A   1      30.995  26.464  25.856  1.00  0.00     0.042 A 
ATOM     14  C   UNL A   1      31.847  27.506  26.242  1.00  0.00     0.028 A 
ATOM     15  C   UNL A   1      30.318  26.516  24.631  1.00  0.00     0.038 A 
ATOM     16  C   UNL A   1      31.920  28.696  25.513  1.00  0.00     0.030 A 
ATOM     17  C   UNL A   1      30.351  27.721  23.906  1.00  0.00     0.022 A 
ATOM     18  C   UNL A   1      31.121  28.781  24.373  1.00  0.00     0.065 A 
ATOM     19  C   UNL A   1      29.728  28.229  22.744  1.00  0.00     0.143 A 
ATOM     20  N   UNL A   1      30.876  29.816  23.511  1.00  0.00    -0.278 N 
ATOM     21  N   UNL A   1      30.050  29.501  22.498  1.00  0.00    -0.183 NA
ATOM     22  H   UNL A   1      31.270  30.711  23.622  1.00  0.00     0.190 HD
ENDBRANCH  11  13
ENDBRANCH   8   9
ENDBRANCH   5   7
ENDBRANCH   2   3
ENDBRANCH   1   2
BRANCH   1  23
ATOM     23  C   UNL A   1      38.041  19.741  25.008  1.00  0.00     0.023 C 
BRANCH  23  24
ATOM     24  C   UNL A   1      39.267  20.156  25.812  1.00  0.00     0.116 C 
BRANCH  24  25
ATOM     25  N   UNL A   1      40.268  19.105  25.891  1.00  0.00    -0.352 N 
ATOM     26  C   UNL A   1      41.622  19.212  26.085  1.00  0.00     0.251 C 
ATOM     27  H   UNL A   1      39.925  18.187  25.791  1.00  0.00     0.163 HD
ATOM     28  O   UNL A   1      42.344  18.226  25.964  1.00  0.00    -0.269 OA
BRANCH  26  29
ATOM     29  C   UNL A   1      42.218  20.525  26.413  1.00  0.00     0.039 A 
ATOM     30  C   UNL A   1      42.686  21.330  25.371  1.00  0.00     0.014 A 
ATOM     31  C   UNL A   1      42.307  20.967  27.736  1.00  0.00     0.014 A 
ATOM     32  C   UNL A   1      43.184  22.605  25.652  1.00  0.00     0.010 A 
ATOM     33  C   UNL A   1      42.728  22.266  28.006  1.00  0.00     0.010 A 
ATOM     34  C   UNL A   1      43.173  23.099  26.967  1.00  0.00    -0.014 A 
BRANCH  34  35
ATOM     35  C   UNL A   1      43.614  24.485  27.272  1.00  0.00     0.031 A 
ATOM     36  C   UNL A   1      42.632  25.496  27.796  1.00  0.00     0.074 A 
ATOM     37  C   UNL A   1      44.886  24.851  27.019  1.00  0.00     0.049 A 
ATOM     38  N   UNL A   1      42.813  26.765  28.065  1.00  0.00    -0.248 NA
ATOM     39  C   UNL A   1      41.258  25.025  28.027  1.00  0.00     0.031 C 
ATOM     40  C   UNL A   1      45.923  23.976  26.469  1.00  0.00     0.029 A 
ATOM     41  N   UNL A   1      45.521  26.057  27.182  1.00  0.00    -0.354 N 
ATOM     42  C   UNL A   1      41.578  27.244  28.481  1.00  0.00     0.074 A 
ATOM     43  C   UNL A   1      40.643  26.145  28.374  1.00  0.00     0.031 C 
ATOM     44  C   UNL A   1      47.070  24.666  26.365  1.00  0.00     0.029 A 
ATOM     45  C   UNL A   1      46.841  26.041  26.797  1.00  0.00     0.049 A 
ATOM     46  H   UNL A   1      45.075  26.857  27.542  1.00  0.00     0.167 HD
ATOM     47  C   UNL A   1      41.258  28.481  28.933  1.00  0.00     0.037 A 
ATOM     48  C   UNL A   1      47.759  27.026  26.785  1.00  0.00     0.037 A 
ATOM     49  C   UNL A   1      42.196  29.566  29.052  1.00  0.00     0.049 A 
ATOM     50  C   UNL A   1      47.371  28.397  27.269  1.00  0.00     0.074 A 
ATOM     51  C   UNL A   1      41.984  30.839  29.554  1.00  0.00     0.029 A 
ATOM     52  N   UNL A   1      43.524  29.511  28.655  1.00  0.00    -0.354 N 
ATOM     53  N   UNL A   1      46.219  28.818  27.731  1.00  0.00    -0.248 NA
ATOM     54  C   UNL A   1      48.416  29.430  27.236  1.00  0.00     0.031 C 
ATOM     55  C   UNL A   1      43.165  31.572  29.405  1.00  0.00     0.029 A 
ATOM     56  C   UNL A   1      44.135  30.737  28.873  1.00  0.00     0.049 A 
ATOM     57  H   UNL A   1      43.969  28.718  28.276  1.00  0.00     0.167 HD
ATOM     58  C   UNL A   1      46.407  30.152  28.072  1.00  0.00     0.074 A 
ATOM     59  C   UNL A   1      47.790  30.465  27.779  1.00  0.00     0.031 C 
ATOM     60  C   UNL A   1      45.515  31.035  28.584  1.00  0.00     0.037 A 
BRANCH  47  61
ATOM     61  C   UNL A   1      39.829  28.729  29.329  1.00  0.00     0.064 A 
ATOM     62  C   UNL A   1      39.375  28.504  30.637  1.00  0.00     0.173 A 
ATOM     63  C   UNL A   1      38.910  29.231  28.394  1.00  0.00     0.173 A 
ATOM     64  F   UNL A   1      40.208  28.016  31.567  1.00  0.00    -0.203 F 
ATOM     65  C   UNL A   1      38.047  28.740  30.986  1.00  0.00     0.198 A 
ATOM     66  C   UNL A   1      37.592  29.498  28.756  1.00  0.00     0.198 A 
ATOM     67  F   UNL A   1      39.290  29.470  27.130  1.00  0.00    -0.203 F 
ATOM     68  F   UNL A   1      37.624  28.464  32.228  1.00  0.00    -0.200 F 
ATOM     69  C   UNL A   1      37.159  29.244  30.049  1.00  0.00     0.200 A 
ATOM     70  F   UNL A   1      36.739  30.001  27.852  1.00  0.00    -0.200 F 
ATOM     71  F   UNL A   1      35.884  29.478  30.388  1.00  0.00    -0.200 F 
ENDBRANCH  47  61
BRANCH  48  72
ATOM     72  C   UNL A   1      49.143  26.748  26.315  1.00  0.00     0.064 A 
ATOM     73  C   UNL A   1      49.513  26.984  24.985  1.00  0.00     0.173 A 
ATOM     74  C   UNL A   1      50.118  26.234  27.182  1.00  0.00     0.173 A 
ATOM     75  F   UNL A   1      48.610  27.456  24.112  1.00  0.00    -0.203 F 
ATOM     76  C   UNL A   1      50.799  26.695  24.532  1.00  0.00     0.198 A 
ATOM     77  C   UNL A   1      51.413  25.976  26.736  1.00  0.00     0.198 A 
ATOM     78  F   UNL A   1      49.819  25.994  28.467  1.00  0.00    -0.203 F 
ATOM     79  F   UNL A   1      51.110  26.881  23.242  1.00  0.00    -0.200 F 
ATOM     80  C   UNL A   1      51.749  26.197  25.409  1.00  0.00     0.200 A 
ATOM     81  F   UNL A   1      52.334  25.509  27.591  1.00  0.00    -0.200 F 
ATOM     82  F   UNL A   1      52.987  25.922  24.975  1.00  0.00    -0.200 F 
ENDBRANCH  48  72
BRANCH  60  83
ATOM     83  C   UNL A   1      46.014  32.417  28.901  1.00  0.00     0.064 A 
ATOM     84  C   UNL A   1      45.943  33.463  27.968  1.00  0.00     0.173 A 
ATOM     85  C   UNL A   1      46.536  32.706  30.171  1.00  0.00     0.173 A 
ATOM     86  F   UNL A   1      45.465  33.237  26.734  1.00  0.00    -0.203 F 
ATOM     87  C   UNL A   1      46.402  34.739  28.286  1.00  0.00     0.198 A 
ATOM     88  C   UNL A   1      46.962  33.991  30.497  1.00  0.00     0.198 A 
ATOM     89  F   UNL A   1      46.621  31.745  31.103  1.00  0.00    -0.203 F 
ATOM     90  F   UNL A   1      46.374  35.708  27.362  1.00  0.00    -0.200 F 
ATOM     91  C   UNL A   1      46.903  35.004  29.552  1.00  0.00     0.200 A 
ATOM     92  F   UNL A   1      47.429  34.249  31.726  1.00  0.00    -0.200 F 
ATOM     93  F   UNL A   1      47.336  36.234  29.859  1.00  0.00    -0.200 F 
ENDBRANCH  60  83
ENDBRANCH  34  35
ENDBRANCH  26  29
ENDBRANCH  24  25
ENDBRANCH  23  24
ENDBRANCH   1  23
TORSDOF 13
ENDMDL
