MODEL 1
REMARK VINA RESULT:     -12.4      0.000      0.000
REMARK SMILES [NH3+][C@@]1(C(=O)NCCCCNC(=O)c2ccc(-c3c4nc(c(-c5c(F)c(F)c(F)c(F)c5F)c5ccc([nH]5)c(-c5c(F)c(F)c(F)c(F)c5F)c5nc(c(-c6c(F)c(F)c(F)c(F)c6F)c6ccc3[nH]6)C=C5)C=C4)cc2)CCC[C@@H](Oc2ccccc2[N+](=O)[O-])C1
REMARK SMILES IDX 7 1 6 2 5 3 3 4 4 5 2 7 76 8 90 9 77 10 79 11 78 12 1 13
REMARK SMILES IDX 80 17 81 18 82 19 86 20 83 21 85 22 84 23 87 24 88 25 89 26
REMARK SMILES IDX 8 27 9 28 10 29 11 30 12 32 13 33 14 34 75 35 15 36 74 37
REMARK SMILES IDX 16 38 17 39 18 40 68 41 19 42 73 43 67 44 69 45 20 46 72 47
REMARK SMILES IDX 66 48 65 49 21 51 53 52 33 53 52 54 34 55 37 56 51 57 70 58
REMARK SMILES IDX 35 59 36 60 50 62 71 63 38 64 22 65 23 66 31 67 24 68 25 69
REMARK SMILES IDX 29 70 32 71 26 72 27 73 30 74 28 75 54 76 55 77 63 78 56 79
REMARK SMILES IDX 57 80 61 81 64 82 58 83 59 84 62 85 60 86 39 87 40 88 48 89
REMARK SMILES IDX 41 90 42 91 46 92 49 93 43 94 44 95 47 96 45 97
REMARK H PARENT 5 6 1 14 1 15 1 16 10 31 69 50 37 61
REMARK Flexibility Score: inf
ROOT
ATOM      1  C   UNL A   1      32.189  30.066  26.919  1.00  0.00     0.023 C 
ENDROOT
BRANCH   1   2
ATOM      2  C   UNL A   1      33.408  29.495  26.183  1.00  0.00     0.116 C 
BRANCH   2   3
ATOM      3  N   UNL A   1      33.276  29.571  24.740  1.00  0.00    -0.351 N 
ATOM      4  C   UNL A   1      32.819  28.669  23.821  1.00  0.00     0.281 C 
ATOM      5  O   UNL A   1      32.811  29.056  22.646  1.00  0.00    -0.268 OA
ATOM      6  H   UNL A   1      33.570  30.427  24.353  1.00  0.00     0.163 HD
BRANCH   4   7
ATOM      7  C   UNL A   1      32.221  27.264  24.211  1.00  0.00     0.177 C 
ATOM      8  C   UNL A   1      30.990  27.490  25.117  1.00  0.00     0.079 C 
ATOM      9  C   UNL A   1      33.297  26.494  25.009  1.00  0.00     0.124 C 
ATOM     10  C   UNL A   1      30.402  26.193  25.669  1.00  0.00     0.011 C 
ATOM     11  C   UNL A   1      32.825  25.283  25.842  1.00  0.00     0.180 C 
ATOM     12  C   UNL A   1      31.424  25.389  26.465  1.00  0.00     0.046 C 
BRANCH   7  13
ATOM     13  N   UNL A   1      31.755  26.558  23.005  1.00  0.00    -0.345 N 
ATOM     14  H   UNL A   1      31.839  27.175  22.197  1.00  0.00     0.345 HD
ATOM     15  H   UNL A   1      30.779  26.286  23.125  1.00  0.00     0.345 HD
ATOM     16  H   UNL A   1      32.325  25.725  22.858  1.00  0.00     0.345 HD
ENDBRANCH   7  13
BRANCH  11  17
ATOM     17  O   UNL A   1      33.131  23.970  25.320  1.00  0.00    -0.483 OA
BRANCH  17  18
ATOM     18  C   UNL A   1      34.416  23.701  24.971  1.00  0.00     0.197 A 
ATOM     19  C   UNL A   1      35.401  23.700  25.960  1.00  0.00     0.054 A 
ATOM     20  C   UNL A   1      34.802  23.514  23.639  1.00  0.00     0.310 A 
ATOM     21  C   UNL A   1      36.723  23.379  25.637  1.00  0.00     0.004 A 
ATOM     22  C   UNL A   1      36.121  23.170  23.308  1.00  0.00     0.090 A 
ATOM     23  C   UNL A   1      37.077  23.087  24.319  1.00  0.00     0.007 A 
BRANCH  20  24
ATOM     24  N   UNL A   1      33.837  23.623  22.556  1.00  0.00     0.066 N 
ATOM     25  O   UNL A   1      33.158  22.612  22.316  1.00  0.00    -0.258 OA
ATOM     26  O   UNL A   1      33.764  24.692  21.940  1.00  0.00    -0.258 OA
ENDBRANCH  20  24
ENDBRANCH  17  18
ENDBRANCH  11  17
ENDBRANCH   4   7
ENDBRANCH   2   3
ENDBRANCH   1   2
BRANCH   1  27
ATOM     27  C   UNL A   1      31.964  31.565  26.720  1.00  0.00     0.023 C 
BRANCH  27  28
ATOM     28  C   UNL A   1      32.959  32.465  27.444  1.00  0.00     0.116 C 
BRANCH  28  29
ATOM     29  N   UNL A   1      32.497  33.833  27.634  1.00  0.00    -0.352 N 
ATOM     30  C   UNL A   1      33.018  34.789  28.479  1.00  0.00     0.251 C 
ATOM     31  H   UNL A   1      31.722  34.108  27.095  1.00  0.00     0.163 HD
ATOM     32  O   UNL A   1      32.486  35.889  28.590  1.00  0.00    -0.269 OA
BRANCH  30  33
ATOM     33  C   UNL A   1      34.197  34.444  29.303  1.00  0.00     0.039 A 
ATOM     34  C   UNL A   1      33.998  33.888  30.569  1.00  0.00     0.014 A 
ATOM     35  C   UNL A   1      35.486  34.581  28.784  1.00  0.00     0.014 A 
ATOM     36  C   UNL A   1      35.090  33.374  31.274  1.00  0.00     0.010 A 
ATOM     37  C   UNL A   1      36.561  34.002  29.453  1.00  0.00     0.010 A 
ATOM     38  C   UNL A   1      36.372  33.380  30.697  1.00  0.00    -0.014 A 
BRANCH  38  39
ATOM     39  C   UNL A   1      37.522  32.713  31.360  1.00  0.00     0.031 A 
ATOM     40  C   UNL A   1      38.203  31.549  30.698  1.00  0.00     0.074 A 
ATOM     41  C   UNL A   1      37.895  33.096  32.597  1.00  0.00     0.049 A 
ATOM     42  N   UNL A   1      39.155  30.776  31.157  1.00  0.00    -0.248 NA
ATOM     43  C   UNL A   1      37.728  31.184  29.354  1.00  0.00     0.031 C 
ATOM     44  C   UNL A   1      37.277  34.173  33.373  1.00  0.00     0.029 A 
ATOM     45  N   UNL A   1      38.876  32.613  33.427  1.00  0.00    -0.354 N 
ATOM     46  C   UNL A   1      39.377  29.826  30.170  1.00  0.00     0.074 A 
ATOM     47  C   UNL A   1      38.427  30.086  29.109  1.00  0.00     0.031 C 
ATOM     48  C   UNL A   1      37.905  34.281  34.555  1.00  0.00     0.029 A 
ATOM     49  C   UNL A   1      38.946  33.261  34.636  1.00  0.00     0.049 A 
ATOM     50  H   UNL A   1      39.474  31.871  33.179  1.00  0.00     0.167 HD
ATOM     51  C   UNL A   1      40.304  28.839  30.140  1.00  0.00     0.037 A 
ATOM     52  C   UNL A   1      39.754  33.054  35.693  1.00  0.00     0.037 A 
ATOM     53  C   UNL A   1      41.271  28.602  31.178  1.00  0.00     0.049 A 
ATOM     54  C   UNL A   1      40.786  31.960  35.628  1.00  0.00     0.074 A 
ATOM     55  C   UNL A   1      42.297  27.672  31.207  1.00  0.00     0.029 A 
ATOM     56  N   UNL A   1      41.332  29.302  32.374  1.00  0.00    -0.354 N 
ATOM     57  N   UNL A   1      41.034  31.114  34.658  1.00  0.00    -0.248 NA
ATOM     58  C   UNL A   1      41.653  31.796  36.804  1.00  0.00     0.031 C 
ATOM     59  C   UNL A   1      42.956  27.787  32.435  1.00  0.00     0.029 A 
ATOM     60  C   UNL A   1      42.368  28.815  33.154  1.00  0.00     0.049 A 
ATOM     61  H   UNL A   1      40.730  30.038  32.630  1.00  0.00     0.167 HD
ATOM     62  C   UNL A   1      42.099  30.337  35.093  1.00  0.00     0.074 A 
ATOM     63  C   UNL A   1      42.460  30.820  36.410  1.00  0.00     0.031 C 
ATOM     64  C   UNL A   1      42.722  29.314  34.458  1.00  0.00     0.037 A 
BRANCH  51  65
ATOM     65  C   UNL A   1      40.322  27.945  28.934  1.00  0.00     0.064 A 
ATOM     66  C   UNL A   1      41.062  28.275  27.789  1.00  0.00     0.173 A 
ATOM     67  C   UNL A   1      39.618  26.732  28.936  1.00  0.00     0.173 A 
ATOM     68  F   UNL A   1      41.743  29.428  27.734  1.00  0.00    -0.203 F 
ATOM     69  C   UNL A   1      41.071  27.437  26.677  1.00  0.00     0.198 A 
ATOM     70  C   UNL A   1      39.653  25.883  27.833  1.00  0.00     0.198 A 
ATOM     71  F   UNL A   1      38.900  26.367  30.008  1.00  0.00    -0.203 F 
ATOM     72  F   UNL A   1      41.745  27.797  25.575  1.00  0.00    -0.200 F 
ATOM     73  C   UNL A   1      40.372  26.239  26.702  1.00  0.00     0.200 A 
ATOM     74  F   UNL A   1      38.986  24.721  27.862  1.00  0.00    -0.200 F 
ATOM     75  F   UNL A   1      40.386  25.433  25.632  1.00  0.00    -0.200 F 
ENDBRANCH  51  65
BRANCH  52  76
ATOM     76  C   UNL A   1      39.643  33.919  36.896  1.00  0.00     0.064 A 
ATOM     77  C   UNL A   1      38.856  33.529  37.989  1.00  0.00     0.173 A 
ATOM     78  C   UNL A   1      40.311  35.149  36.977  1.00  0.00     0.173 A 
ATOM     79  F   UNL A   1      38.181  32.371  37.947  1.00  0.00    -0.203 F 
ATOM     80  C   UNL A   1      38.725  34.346  39.109  1.00  0.00     0.198 A 
ATOM     81  C   UNL A   1      40.200  35.953  38.110  1.00  0.00     0.198 A 
ATOM     82  F   UNL A   1      41.079  35.565  35.960  1.00  0.00    -0.203 F 
ATOM     83  F   UNL A   1      37.932  33.969  40.121  1.00  0.00    -0.200 F 
ATOM     84  C   UNL A   1      39.401  35.555  39.171  1.00  0.00     0.200 A 
ATOM     85  F   UNL A   1      40.864  37.116  38.172  1.00  0.00    -0.200 F 
ATOM     86  F   UNL A   1      39.277  36.340  40.251  1.00  0.00    -0.200 F 
ENDBRANCH  52  76
BRANCH  64  87
ATOM     87  C   UNL A   1      43.879  28.670  35.161  1.00  0.00     0.064 A 
ATOM     88  C   UNL A   1      45.191  29.136  34.994  1.00  0.00     0.173 A 
ATOM     89  C   UNL A   1      43.665  27.605  36.049  1.00  0.00     0.173 A 
ATOM     90  F   UNL A   1      45.447  30.141  34.144  1.00  0.00    -0.203 F 
ATOM     91  C   UNL A   1      46.251  28.544  35.676  1.00  0.00     0.198 A 
ATOM     92  C   UNL A   1      44.724  27.033  36.750  1.00  0.00     0.198 A 
ATOM     93  F   UNL A   1      42.428  27.128  36.247  1.00  0.00    -0.203 F 
ATOM     94  F   UNL A   1      47.503  28.977  35.471  1.00  0.00    -0.200 F 
ATOM     95  C   UNL A   1      46.015  27.499  36.559  1.00  0.00     0.200 A 
ATOM     96  F   UNL A   1      44.494  26.032  37.610  1.00  0.00    -0.200 F 
ATOM     97  F   UNL A   1      47.036  26.937  37.221  1.00  0.00    -0.200 F 
ENDBRANCH  64  87
ENDBRANCH  38  39
ENDBRANCH  30  33
ENDBRANCH  28  29
ENDBRANCH  27  28
ENDBRANCH   1  27
TORSDOF 15
ENDMDL
MODEL 2
REMARK VINA RESULT:     -12.4      5.527     11.011
REMARK SMILES [NH3+][C@@]1(C(=O)NCCCCNC(=O)c2ccc(-c3c4nc(c(-c5c(F)c(F)c(F)c(F)c5F)c5ccc([nH]5)c(-c5c(F)c(F)c(F)c(F)c5F)c5nc(c(-c6c(F)c(F)c(F)c(F)c6F)c6ccc3[nH]6)C=C5)C=C4)cc2)CCC[C@@H](Oc2ccccc2[N+](=O)[O-])C1
REMARK SMILES IDX 7 1 6 2 5 3 3 4 4 5 2 7 76 8 90 9 77 10 79 11 78 12 1 13
REMARK SMILES IDX 80 17 81 18 82 19 86 20 83 21 85 22 84 23 87 24 88 25 89 26
REMARK SMILES IDX 8 27 9 28 10 29 11 30 12 32 13 33 14 34 75 35 15 36 74 37
REMARK SMILES IDX 16 38 17 39 18 40 68 41 19 42 73 43 67 44 69 45 20 46 72 47
REMARK SMILES IDX 66 48 65 49 21 51 53 52 33 53 52 54 34 55 37 56 51 57 70 58
REMARK SMILES IDX 35 59 36 60 50 62 71 63 38 64 22 65 23 66 31 67 24 68 25 69
REMARK SMILES IDX 29 70 32 71 26 72 27 73 30 74 28 75 54 76 55 77 63 78 56 79
REMARK SMILES IDX 57 80 61 81 64 82 58 83 59 84 62 85 60 86 39 87 40 88 48 89
REMARK SMILES IDX 41 90 42 91 46 92 49 93 43 94 44 95 47 96 45 97
REMARK H PARENT 5 6 1 14 1 15 1 16 10 31 69 50 37 61
REMARK Flexibility Score: inf
ROOT
ATOM      1  C   UNL A   1      37.412  21.902  24.542  1.00  0.00     0.023 C 
ENDROOT
BRANCH   1   2
ATOM      2  C   UNL A   1      36.855  22.835  25.625  1.00  0.00     0.116 C 
BRANCH   2   3
ATOM      3  N   UNL A   1      35.910  22.172  26.503  1.00  0.00    -0.351 N 
ATOM      4  C   UNL A   1      34.544  22.125  26.498  1.00  0.00     0.281 C 
ATOM      5  O   UNL A   1      34.027  21.438  27.386  1.00  0.00    -0.268 OA
ATOM      6  H   UNL A   1      36.328  21.665  27.236  1.00  0.00     0.163 HD
BRANCH   4   7
ATOM      7  C   UNL A   1      33.661  22.792  25.376  1.00  0.00     0.177 C 
ATOM      8  C   UNL A   1      33.941  22.073  24.038  1.00  0.00     0.079 C 
ATOM      9  C   UNL A   1      34.088  24.272  25.250  1.00  0.00     0.124 C 
ATOM     10  C   UNL A   1      33.239  22.721  22.847  1.00  0.00     0.011 C 
ATOM     11  C   UNL A   1      33.670  25.020  23.967  1.00  0.00     0.180 C 
ATOM     12  C   UNL A   1      33.623  24.187  22.677  1.00  0.00     0.046 C 
BRANCH   7  13
ATOM     13  N   UNL A   1      32.231  22.609  25.681  1.00  0.00    -0.345 N 
ATOM     14  H   UNL A   1      31.673  23.178  25.046  1.00  0.00     0.345 HD
ATOM     15  H   UNL A   1      32.048  22.896  26.644  1.00  0.00     0.345 HD
ATOM     16  H   UNL A   1      31.982  21.626  25.566  1.00  0.00     0.345 HD
ENDBRANCH   7  13
BRANCH  11  17
ATOM     17  O   UNL A   1      32.584  25.968  24.086  1.00  0.00    -0.483 OA
BRANCH  17  18
ATOM     18  C   UNL A   1      32.597  26.829  25.136  1.00  0.00     0.197 A 
ATOM     19  C   UNL A   1      33.656  27.729  25.264  1.00  0.00     0.054 A 
ATOM     20  C   UNL A   1      31.630  26.785  26.147  1.00  0.00     0.310 A 
ATOM     21  C   UNL A   1      33.670  28.660  26.308  1.00  0.00     0.004 A 
ATOM     22  C   UNL A   1      31.623  27.727  27.186  1.00  0.00     0.090 A 
ATOM     23  C   UNL A   1      32.641  28.677  27.250  1.00  0.00     0.007 A 
BRANCH  20  24
ATOM     24  N   UNL A   1      30.570  25.788  26.127  1.00  0.00     0.066 N 
ATOM     25  O   UNL A   1      30.717  24.809  26.876  1.00  0.00    -0.258 OA
ATOM     26  O   UNL A   1      29.613  25.964  25.366  1.00  0.00    -0.258 OA
ENDBRANCH  20  24
ENDBRANCH  17  18
ENDBRANCH  11  17
ENDBRANCH   4   7
ENDBRANCH   2   3
ENDBRANCH   1   2
BRANCH   1  27
ATOM     27  C   UNL A   1      37.944  20.565  25.059  1.00  0.00     0.023 C 
BRANCH  27  28
ATOM     28  C   UNL A   1      39.211  20.661  25.903  1.00  0.00     0.116 C 
BRANCH  28  29
ATOM     29  N   UNL A   1      40.021  19.451  25.902  1.00  0.00    -0.352 N 
ATOM     30  C   UNL A   1      41.376  19.343  26.128  1.00  0.00     0.251 C 
ATOM     31  H   UNL A   1      39.545  18.610  25.718  1.00  0.00     0.163 HD
ATOM     32  O   UNL A   1      41.947  18.262  26.031  1.00  0.00    -0.269 OA
BRANCH  30  33
ATOM     33  C   UNL A   1      42.146  20.570  26.429  1.00  0.00     0.039 A 
ATOM     34  C   UNL A   1      42.659  21.323  25.370  1.00  0.00     0.014 A 
ATOM     35  C   UNL A   1      42.274  21.020  27.745  1.00  0.00     0.014 A 
ATOM     36  C   UNL A   1      43.212  22.581  25.625  1.00  0.00     0.010 A 
ATOM     37  C   UNL A   1      42.756  22.303  27.988  1.00  0.00     0.010 A 
ATOM     38  C   UNL A   1      43.216  23.102  26.930  1.00  0.00    -0.014 A 
BRANCH  38  39
ATOM     39  C   UNL A   1      43.664  24.491  27.209  1.00  0.00     0.031 A 
ATOM     40  C   UNL A   1      42.681  25.518  27.692  1.00  0.00     0.074 A 
ATOM     41  C   UNL A   1      44.935  24.850  26.939  1.00  0.00     0.049 A 
ATOM     42  N   UNL A   1      42.855  26.800  27.896  1.00  0.00    -0.248 NA
ATOM     43  C   UNL A   1      41.311  25.050  27.949  1.00  0.00     0.031 C 
ATOM     44  C   UNL A   1      45.972  23.962  26.409  1.00  0.00     0.029 A 
ATOM     45  N   UNL A   1      45.568  26.061  27.059  1.00  0.00    -0.354 N 
ATOM     46  C   UNL A   1      41.617  27.291  28.285  1.00  0.00     0.074 A 
ATOM     47  C   UNL A   1      40.688  26.182  28.239  1.00  0.00     0.031 C 
ATOM     48  C   UNL A   1      47.115  24.653  26.270  1.00  0.00     0.029 A 
ATOM     49  C   UNL A   1      46.884  26.039  26.665  1.00  0.00     0.049 A 
ATOM     50  H   UNL A   1      45.121  26.872  27.395  1.00  0.00     0.167 HD
ATOM     51  C   UNL A   1      41.288  28.548  28.667  1.00  0.00     0.037 A 
ATOM     52  C   UNL A   1      47.801  27.025  26.623  1.00  0.00     0.037 A 
ATOM     53  C   UNL A   1      42.219  29.642  28.746  1.00  0.00     0.049 A 
ATOM     54  C   UNL A   1      47.413  28.410  27.068  1.00  0.00     0.074 A 
ATOM     55  C   UNL A   1      41.997  30.935  29.189  1.00  0.00     0.029 A 
ATOM     56  N   UNL A   1      43.553  29.572  28.371  1.00  0.00    -0.354 N 
ATOM     57  N   UNL A   1      46.257  28.845  27.502  1.00  0.00    -0.248 NA
ATOM     58  C   UNL A   1      48.462  29.439  27.019  1.00  0.00     0.031 C 
ATOM     59  C   UNL A   1      43.188  31.655  29.050  1.00  0.00     0.029 A 
ATOM     60  C   UNL A   1      44.162  30.802  28.559  1.00  0.00     0.049 A 
ATOM     61  H   UNL A   1      44.001  28.766  28.024  1.00  0.00     0.167 HD
ATOM     62  C   UNL A   1      46.443  30.187  27.804  1.00  0.00     0.074 A 
ATOM     63  C   UNL A   1      47.829  30.493  27.515  1.00  0.00     0.031 C 
ATOM     64  C   UNL A   1      45.546  31.086  28.277  1.00  0.00     0.037 A 
BRANCH  51  65
ATOM     65  C   UNL A   1      39.858  28.804  29.041  1.00  0.00     0.064 A 
ATOM     66  C   UNL A   1      39.408  28.658  30.362  1.00  0.00     0.173 A 
ATOM     67  C   UNL A   1      38.934  29.231  28.075  1.00  0.00     0.173 A 
ATOM     68  F   UNL A   1      40.250  28.242  31.319  1.00  0.00    -0.203 F 
ATOM     69  C   UNL A   1      38.079  28.899  30.696  1.00  0.00     0.198 A 
ATOM     70  C   UNL A   1      37.612  29.498  28.420  1.00  0.00     0.198 A 
ATOM     71  F   UNL A   1      39.314  29.392  26.799  1.00  0.00    -0.203 F 
ATOM     72  F   UNL A   1      37.660  28.704  31.955  1.00  0.00    -0.200 F 
ATOM     73  C   UNL A   1      37.183  29.325  29.727  1.00  0.00     0.200 A 
ATOM     74  F   UNL A   1      36.750  29.921  27.484  1.00  0.00    -0.200 F 
ATOM     75  F   UNL A   1      35.904  29.560  30.052  1.00  0.00    -0.200 F 
ENDBRANCH  51  65
BRANCH  52  76
ATOM     76  C   UNL A   1      49.185  26.735  26.171  1.00  0.00     0.064 A 
ATOM     77  C   UNL A   1      50.147  26.251  27.070  1.00  0.00     0.173 A 
ATOM     78  C   UNL A   1      49.580  26.939  24.841  1.00  0.00     0.173 A 
ATOM     79  F   UNL A   1      49.822  26.061  28.357  1.00  0.00    -0.203 F 
ATOM     80  C   UNL A   1      51.454  26.001  26.660  1.00  0.00     0.198 A 
ATOM     81  C   UNL A   1      50.882  26.664  24.426  1.00  0.00     0.198 A 
ATOM     82  F   UNL A   1      48.696  27.397  23.941  1.00  0.00    -0.203 F 
ATOM     83  F   UNL A   1      52.364  25.581  27.550  1.00  0.00    -0.200 F 
ATOM     84  C   UNL A   1      51.820  26.203  25.338  1.00  0.00     0.200 A 
ATOM     85  F   UNL A   1      51.228  26.849  23.145  1.00  0.00    -0.200 F 
ATOM     86  F   UNL A   1      53.077  25.960  24.944  1.00  0.00    -0.200 F 
ENDBRANCH  52  76
BRANCH  64  87
ATOM     87  C   UNL A   1      46.040  32.476  28.546  1.00  0.00     0.064 A 
ATOM     88  C   UNL A   1      45.973  33.482  27.571  1.00  0.00     0.173 A 
ATOM     89  C   UNL A   1      46.543  32.817  29.811  1.00  0.00     0.173 A 
ATOM     90  F   UNL A   1      45.515  33.199  26.343  1.00  0.00    -0.203 F 
ATOM     91  C   UNL A   1      46.410  34.774  27.847  1.00  0.00     0.198 A 
ATOM     92  C   UNL A   1      46.955  34.117  30.091  1.00  0.00     0.198 A 
ATOM     93  F   UNL A   1      46.623  31.892  30.779  1.00  0.00    -0.203 F 
ATOM     94  F   UNL A   1      46.375  35.710  26.888  1.00  0.00    -0.200 F 
ATOM     95  C   UNL A   1      46.893  35.092  29.108  1.00  0.00     0.200 A 
ATOM     96  F   UNL A   1      47.411  34.426  31.313  1.00  0.00    -0.200 F 
ATOM     97  F   UNL A   1      47.306  36.340  29.373  1.00  0.00    -0.200 F 
ENDBRANCH  64  87
ENDBRANCH  38  39
ENDBRANCH  30  33
ENDBRANCH  28  29
ENDBRANCH  27  28
ENDBRANCH   1  27
TORSDOF 15
ENDMDL
MODEL 3
REMARK VINA RESULT:     -12.3      0.529      7.368
REMARK SMILES [NH3+][C@@]1(C(=O)NCCCCNC(=O)c2ccc(-c3c4nc(c(-c5c(F)c(F)c(F)c(F)c5F)c5ccc([nH]5)c(-c5c(F)c(F)c(F)c(F)c5F)c5nc(c(-c6c(F)c(F)c(F)c(F)c6F)c6ccc3[nH]6)C=C5)C=C4)cc2)CCC[C@@H](Oc2ccccc2[N+](=O)[O-])C1
REMARK SMILES IDX 7 1 6 2 5 3 3 4 4 5 2 7 76 8 90 9 77 10 79 11 78 12 1 13
REMARK SMILES IDX 80 17 81 18 82 19 86 20 83 21 85 22 84 23 87 24 88 25 89 26
REMARK SMILES IDX 8 27 9 28 10 29 11 30 12 32 13 33 14 34 75 35 15 36 74 37
REMARK SMILES IDX 16 38 17 39 18 40 68 41 19 42 73 43 67 44 69 45 20 46 72 47
REMARK SMILES IDX 66 48 65 49 21 51 53 52 33 53 52 54 34 55 37 56 51 57 70 58
REMARK SMILES IDX 35 59 36 60 50 62 71 63 38 64 22 65 23 66 31 67 24 68 25 69
REMARK SMILES IDX 29 70 32 71 26 72 27 73 30 74 28 75 54 76 55 77 63 78 56 79
REMARK SMILES IDX 57 80 61 81 64 82 58 83 59 84 62 85 60 86 39 87 40 88 48 89
REMARK SMILES IDX 41 90 42 91 46 92 49 93 43 94 44 95 47 96 45 97
REMARK H PARENT 5 6 1 14 1 15 1 16 10 31 69 50 37 61
REMARK Flexibility Score: inf
ROOT
ATOM      1  C   UNL A   1      31.857  30.351  26.679  1.00  0.00     0.023 C 
ENDROOT
BRANCH   1   2
ATOM      2  C   UNL A   1      33.142  29.721  26.126  1.00  0.00     0.116 C 
BRANCH   2   3
ATOM      3  N   UNL A   1      33.173  29.693  24.677  1.00  0.00    -0.351 N 
ATOM      4  C   UNL A   1      32.838  28.717  23.780  1.00  0.00     0.281 C 
ATOM      5  O   UNL A   1      32.956  29.022  22.587  1.00  0.00    -0.268 OA
ATOM      6  H   UNL A   1      33.493  30.528  24.264  1.00  0.00     0.163 HD
BRANCH   4   7
ATOM      7  C   UNL A   1      32.226  27.329  24.201  1.00  0.00     0.177 C 
ATOM      8  C   UNL A   1      30.962  27.588  25.052  1.00  0.00     0.079 C 
ATOM      9  C   UNL A   1      33.271  26.590  25.067  1.00  0.00     0.124 C 
ATOM     10  C   UNL A   1      30.354  26.313  25.632  1.00  0.00     0.011 C 
ATOM     11  C   UNL A   1      32.768  25.412  25.928  1.00  0.00     0.180 C 
ATOM     12  C   UNL A   1      31.346  25.540  26.495  1.00  0.00     0.046 C 
BRANCH   7  13
ATOM     13  N   UNL A   1      31.804  26.577  23.006  1.00  0.00    -0.345 N 
ATOM     14  H   UNL A   1      32.620  26.156  22.564  1.00  0.00     0.345 HD
ATOM     15  H   UNL A   1      31.349  27.210  22.348  1.00  0.00     0.345 HD
ATOM     16  H   UNL A   1      31.149  25.843  23.280  1.00  0.00     0.345 HD
ENDBRANCH   7  13
BRANCH  11  17
ATOM     17  O   UNL A   1      33.092  24.080  25.468  1.00  0.00    -0.483 OA
BRANCH  17  18
ATOM     18  C   UNL A   1      34.380  23.813  25.129  1.00  0.00     0.197 A 
ATOM     19  C   UNL A   1      35.370  23.890  26.111  1.00  0.00     0.054 A 
ATOM     20  C   UNL A   1      34.765  23.553  23.809  1.00  0.00     0.310 A 
ATOM     21  C   UNL A   1      36.696  23.573  25.801  1.00  0.00     0.004 A 
ATOM     22  C   UNL A   1      36.088  23.213  23.492  1.00  0.00     0.090 A 
ATOM     23  C   UNL A   1      37.050  23.208  24.501  1.00  0.00     0.007 A 
BRANCH  20  24
ATOM     24  N   UNL A   1      33.792  23.579  22.726  1.00  0.00     0.066 N 
ATOM     25  O   UNL A   1      33.765  24.607  22.032  1.00  0.00    -0.258 OA
ATOM     26  O   UNL A   1      33.053  22.600  22.578  1.00  0.00    -0.258 OA
ENDBRANCH  20  24
ENDBRANCH  17  18
ENDBRANCH  11  17
ENDBRANCH   4   7
ENDBRANCH   2   3
ENDBRANCH   1   2
BRANCH   1  27
ATOM     27  C   UNL A   1      31.773  31.870  26.532  1.00  0.00     0.023 C 
BRANCH  27  28
ATOM     28  C   UNL A   1      32.814  32.651  27.327  1.00  0.00     0.116 C 
BRANCH  28  29
ATOM     29  N   UNL A   1      32.429  34.023  27.627  1.00  0.00    -0.352 N 
ATOM     30  C   UNL A   1      32.997  34.876  28.549  1.00  0.00     0.251 C 
ATOM     31  H   UNL A   1      31.674  34.385  27.111  1.00  0.00     0.163 HD
ATOM     32  O   UNL A   1      32.528  35.992  28.748  1.00  0.00    -0.269 OA
BRANCH  30  33
ATOM     33  C   UNL A   1      34.150  34.398  29.344  1.00  0.00     0.039 A 
ATOM     34  C   UNL A   1      33.910  33.721  30.543  1.00  0.00     0.014 A 
ATOM     35  C   UNL A   1      35.451  34.534  28.856  1.00  0.00     0.014 A 
ATOM     36  C   UNL A   1      34.970  33.092  31.201  1.00  0.00     0.010 A 
ATOM     37  C   UNL A   1      36.491  33.844  29.472  1.00  0.00     0.010 A 
ATOM     38  C   UNL A   1      36.259  33.104  30.641  1.00  0.00    -0.014 A 
BRANCH  38  39
ATOM     39  C   UNL A   1      37.371  32.324  31.242  1.00  0.00     0.031 A 
ATOM     40  C   UNL A   1      37.865  32.654  32.622  1.00  0.00     0.074 A 
ATOM     41  C   UNL A   1      37.998  31.381  30.510  1.00  0.00     0.049 A 
ATOM     42  N   UNL A   1      38.884  32.157  33.278  1.00  0.00    -0.248 NA
ATOM     43  C   UNL A   1      37.136  33.705  33.349  1.00  0.00     0.031 C 
ATOM     44  C   UNL A   1      37.655  31.008  29.137  1.00  0.00     0.029 A 
ATOM     45  N   UNL A   1      39.066  30.575  30.815  1.00  0.00    -0.354 N 
ATOM     46  C   UNL A   1      38.928  32.847  34.482  1.00  0.00     0.074 A 
ATOM     47  C   UNL A   1      37.868  33.832  34.446  1.00  0.00     0.031 C 
ATOM     48  C   UNL A   1      38.482  30.032  28.726  1.00  0.00     0.029 A 
ATOM     49  C   UNL A   1      39.435  29.737  29.791  1.00  0.00     0.049 A 
ATOM     50  H   UNL A   1      39.526  30.595  31.686  1.00  0.00     0.167 HD
ATOM     51  C   UNL A   1      39.764  32.662  35.531  1.00  0.00     0.037 A 
ATOM     52  C   UNL A   1      40.433  28.834  29.717  1.00  0.00     0.037 A 
ATOM     53  C   UNL A   1      40.795  31.661  35.581  1.00  0.00     0.049 A 
ATOM     54  C   UNL A   1      41.338  28.638  30.903  1.00  0.00     0.074 A 
ATOM     55  C   UNL A   1      41.646  31.348  36.628  1.00  0.00     0.029 A 
ATOM     56  N   UNL A   1      41.116  30.807  34.536  1.00  0.00    -0.354 N 
ATOM     57  N   UNL A   1      41.324  29.247  32.063  1.00  0.00    -0.248 NA
ATOM     58  C   UNL A   1      42.394  27.624  30.769  1.00  0.00     0.031 C 
ATOM     59  C   UNL A   1      42.505  30.329  36.204  1.00  0.00     0.029 A 
ATOM     60  C   UNL A   1      42.163  29.978  34.908  1.00  0.00     0.049 A 
ATOM     61  H   UNL A   1      40.667  30.791  33.660  1.00  0.00     0.167 HD
ATOM     62  C   UNL A   1      42.347  28.675  32.806  1.00  0.00     0.074 A 
ATOM     63  C   UNL A   1      42.955  27.660  31.971  1.00  0.00     0.031 C 
ATOM     64  C   UNL A   1      42.749  28.964  34.068  1.00  0.00     0.037 A 
BRANCH  51  65
ATOM     65  C   UNL A   1      39.587  33.560  36.721  1.00  0.00     0.064 A 
ATOM     66  C   UNL A   1      38.752  33.203  37.790  1.00  0.00     0.173 A 
ATOM     67  C   UNL A   1      40.284  34.774  36.807  1.00  0.00     0.173 A 
ATOM     68  F   UNL A   1      38.056  32.058  37.750  1.00  0.00    -0.203 F 
ATOM     69  C   UNL A   1      38.597  34.044  38.888  1.00  0.00     0.198 A 
ATOM     70  C   UNL A   1      40.148  35.598  37.921  1.00  0.00     0.198 A 
ATOM     71  F   UNL A   1      41.100  35.159  35.815  1.00  0.00    -0.203 F 
ATOM     72  F   UNL A   1      37.754  33.706  39.875  1.00  0.00    -0.200 F 
ATOM     73  C   UNL A   1      39.299  35.238  38.957  1.00  0.00     0.200 A 
ATOM     74  F   UNL A   1      40.837  36.747  37.990  1.00  0.00    -0.200 F 
ATOM     75  F   UNL A   1      39.151  36.044  40.016  1.00  0.00    -0.200 F 
ENDBRANCH  51  65
BRANCH  52  76
ATOM     76  C   UNL A   1      40.613  28.024  28.485  1.00  0.00     0.064 A 
ATOM     77  C   UNL A   1      41.401  28.496  27.425  1.00  0.00     0.173 A 
ATOM     78  C   UNL A   1      40.001  26.772  28.336  1.00  0.00     0.173 A 
ATOM     79  F   UNL A   1      41.989  29.699  27.513  1.00  0.00    -0.203 F 
ATOM     80  C   UNL A   1      41.555  27.755  26.257  1.00  0.00     0.198 A 
ATOM     81  C   UNL A   1      40.176  26.020  27.175  1.00  0.00     0.198 A 
ATOM     82  F   UNL A   1      39.241  26.274  29.322  1.00  0.00    -0.203 F 
ATOM     83  F   UNL A   1      42.277  28.250  25.242  1.00  0.00    -0.200 F 
ATOM     84  C   UNL A   1      40.946  26.515  26.134  1.00  0.00     0.200 A 
ATOM     85  F   UNL A   1      39.596  24.816  27.065  1.00  0.00    -0.200 F 
ATOM     86  F   UNL A   1      41.095  25.802  25.009  1.00  0.00    -0.200 F 
ENDBRANCH  52  76
BRANCH  64  87
ATOM     87  C   UNL A   1      43.874  28.153  34.637  1.00  0.00     0.064 A 
ATOM     88  C   UNL A   1      45.206  28.586  34.555  1.00  0.00     0.173 A 
ATOM     89  C   UNL A   1      43.611  26.952  35.313  1.00  0.00     0.173 A 
ATOM     90  F   UNL A   1      45.508  29.718  33.904  1.00  0.00    -0.203 F 
ATOM     91  C   UNL A   1      46.236  27.833  35.113  1.00  0.00     0.198 A 
ATOM     92  C   UNL A   1      44.641  26.216  35.893  1.00  0.00     0.198 A 
ATOM     93  F   UNL A   1      42.353  26.499  35.423  1.00  0.00    -0.203 F 
ATOM     94  F   UNL A   1      47.506  28.243  34.988  1.00  0.00    -0.200 F 
ATOM     95  C   UNL A   1      45.952  26.655  35.788  1.00  0.00     0.200 A 
ATOM     96  F   UNL A   1      44.364  25.084  36.554  1.00  0.00    -0.200 F 
ATOM     97  F   UNL A   1      46.945  25.937  36.332  1.00  0.00    -0.200 F 
ENDBRANCH  64  87
ENDBRANCH  38  39
ENDBRANCH  30  33
ENDBRANCH  28  29
ENDBRANCH  27  28
ENDBRANCH   1  27
TORSDOF 15
ENDMDL
