MODEL 1
REMARK VINA RESULT:     -13.7      0.000      0.000
REMARK SMILES O=C(NCCCCNC(=O)[C@H]1CC2=c3ccccc3=N[C@H]2[C@@H](c2ccccc2)[NH2+]1)c1ccc(-c2c3nc(c(-c4c(F)c(F)c(F)c(F)c4F)c4ccc([nH]4)c(-c4c(F)c(F)c(F)c(F)c4F)c4nc(c(-c5c(F)c(F)c(F)c(F)c5F)c5ccc2[nH]5)C=C4)C=C3)cc1
REMARK SMILES IDX 5 1 4 2 3 3 1 4 2 5 30 7 31 8 92 9 32 10 91 11 33 12 34 13
REMARK SMILES IDX 35 14 85 15 36 16 90 17 84 18 86 19 37 20 89 21 83 22 82 23
REMARK SMILES IDX 38 25 70 26 50 27 69 28 51 29 54 30 68 31 87 32 52 33 53 34
REMARK SMILES IDX 67 36 88 37 55 38 39 39 40 40 48 41 41 42 42 43 46 44 49 45
REMARK SMILES IDX 43 46 44 47 47 48 45 49 71 50 72 51 80 52 73 53 74 54 78 55
REMARK SMILES IDX 81 56 75 57 76 58 79 59 77 60 56 61 57 62 65 63 58 64 59 65
REMARK SMILES IDX 63 66 66 67 60 68 61 69 64 70 62 71 6 72 7 73 8 74 9 75
REMARK SMILES IDX 10 77 11 78 12 79 29 80 13 81 22 82 14 85 21 86 15 87 19 88
REMARK SMILES IDX 20 89 16 90 18 91 17 92 23 93 24 94 28 95 25 96 27 97 26 98
REMARK H PARENT 3 6 86 24 54 35 8 76 29 83 29 84
REMARK Flexibility Score: inf
ROOT
ATOM      1  C   UNL A   1      38.066  19.940  24.995  1.00  0.00     0.023 C 
ENDROOT
BRANCH   1   2
ATOM      2  C   UNL A   1      39.193  20.266  25.970  1.00  0.00     0.116 C 
BRANCH   2   3
ATOM      3  N   UNL A   1      40.258  19.272  25.928  1.00  0.00    -0.352 N 
ATOM      4  O   UNL A   1      42.372  18.501  25.877  1.00  0.00    -0.269 OA
ATOM      5  C   UNL A   1      41.603  19.438  26.074  1.00  0.00     0.251 C 
ATOM      6  H   UNL A   1      39.961  18.346  25.771  1.00  0.00     0.163 HD
BRANCH   5   7
ATOM      7  C   UNL A   1      42.119  20.757  26.455  1.00  0.00     0.039 A 
ATOM      8  C   UNL A   1      42.219  21.068  27.811  1.00  0.00     0.014 A 
ATOM      9  C   UNL A   1      42.498  21.674  25.471  1.00  0.00     0.014 A 
ATOM     10  C   UNL A   1      42.720  22.311  28.187  1.00  0.00     0.010 A 
ATOM     11  C   UNL A   1      43.061  22.883  25.848  1.00  0.00     0.010 A 
ATOM     12  C   UNL A   1      43.152  23.219  27.208  1.00  0.00    -0.014 A 
BRANCH  12  13
ATOM     13  C   UNL A   1      43.625  24.570  27.574  1.00  0.00     0.031 A 
ATOM     14  C   UNL A   1      42.613  25.630  27.902  1.00  0.00     0.074 A 
ATOM     15  C   UNL A   1      44.943  24.841  27.582  1.00  0.00     0.049 A 
ATOM     16  N   UNL A   1      42.793  26.905  28.124  1.00  0.00    -0.248 NA
ATOM     17  C   UNL A   1      41.203  25.202  27.968  1.00  0.00     0.031 C 
ATOM     18  C   UNL A   1      46.008  23.880  27.292  1.00  0.00     0.029 A 
ATOM     19  N   UNL A   1      45.609  26.010  27.840  1.00  0.00    -0.354 N 
ATOM     20  C   UNL A   1      41.528  27.428  28.354  1.00  0.00     0.074 A 
ATOM     21  C   UNL A   1      40.580  26.351  28.185  1.00  0.00     0.031 C 
ATOM     22  C   UNL A   1      47.197  24.494  27.416  1.00  0.00     0.029 A 
ATOM     23  C   UNL A   1      46.974  25.899  27.739  1.00  0.00     0.049 A 
ATOM     24  H   UNL A   1      45.153  26.850  28.075  1.00  0.00     0.167 HD
ATOM     25  C   UNL A   1      41.194  28.689  28.706  1.00  0.00     0.037 A 
ATOM     26  C   UNL A   1      47.929  26.837  27.881  1.00  0.00     0.037 A 
ATOM     27  C   UNL A   1      42.148  29.749  28.893  1.00  0.00     0.049 A 
ATOM     28  C   UNL A   1      47.517  28.249  28.204  1.00  0.00     0.074 A 
ATOM     29  C   UNL A   1      41.915  31.069  29.235  1.00  0.00     0.029 A 
ATOM     30  N   UNL A   1      43.522  29.602  28.767  1.00  0.00    -0.354 N 
ATOM     31  N   UNL A   1      46.318  28.736  28.415  1.00  0.00    -0.248 NA
ATOM     32  C   UNL A   1      48.594  29.242  28.312  1.00  0.00     0.031 C 
ATOM     33  C   UNL A   1      43.144  31.729  29.285  1.00  0.00     0.029 A 
ATOM     34  C   UNL A   1      44.148  30.808  29.029  1.00  0.00     0.049 A 
ATOM     35  H   UNL A   1      43.982  28.765  28.528  1.00  0.00     0.167 HD
ATOM     36  C   UNL A   1      46.500  30.076  28.731  1.00  0.00     0.074 A 
ATOM     37  C   UNL A   1      47.927  30.322  28.691  1.00  0.00     0.031 C 
ATOM     38  C   UNL A   1      45.572  31.019  29.026  1.00  0.00     0.037 A 
BRANCH  25  39
ATOM     39  C   UNL A   1      39.748  28.996  28.950  1.00  0.00     0.064 A 
ATOM     40  C   UNL A   1      38.898  29.370  27.899  1.00  0.00     0.173 A 
ATOM     41  C   UNL A   1      39.181  28.816  30.221  1.00  0.00     0.173 A 
ATOM     42  F   UNL A   1      39.394  29.574  26.669  1.00  0.00    -0.203 F 
ATOM     43  C   UNL A   1      37.533  29.545  28.108  1.00  0.00     0.198 A 
ATOM     44  C   UNL A   1      37.812  28.964  30.422  1.00  0.00     0.198 A 
ATOM     45  F   UNL A   1      39.953  28.461  31.260  1.00  0.00    -0.203 F 
ATOM     46  F   UNL A   1      36.744  29.918  27.093  1.00  0.00    -0.200 F 
ATOM     47  C   UNL A   1      36.989  29.326  29.365  1.00  0.00     0.200 A 
ATOM     48  F   UNL A   1      37.286  28.738  31.633  1.00  0.00    -0.200 F 
ATOM     49  F   UNL A   1      35.670  29.462  29.558  1.00  0.00    -0.200 F 
ENDBRANCH  25  39
BRANCH  26  50
ATOM     50  C   UNL A   1      49.366  26.478  27.747  1.00  0.00     0.064 A 
ATOM     51  C   UNL A   1      50.171  26.315  28.884  1.00  0.00     0.173 A 
ATOM     52  C   UNL A   1      49.974  26.321  26.493  1.00  0.00     0.173 A 
ATOM     53  F   UNL A   1      49.642  26.473  30.106  1.00  0.00    -0.203 F 
ATOM     54  C   UNL A   1      51.533  26.044  28.772  1.00  0.00     0.198 A 
ATOM     55  C   UNL A   1      51.329  26.016  26.382  1.00  0.00     0.198 A 
ATOM     56  F   UNL A   1      49.251  26.461  25.372  1.00  0.00    -0.203 F 
ATOM     57  F   UNL A   1      52.289  25.955  29.875  1.00  0.00    -0.200 F 
ATOM     58  C   UNL A   1      52.110  25.890  27.521  1.00  0.00     0.200 A 
ATOM     59  F   UNL A   1      51.880  25.852  25.171  1.00  0.00    -0.200 F 
ATOM     60  F   UNL A   1      53.421  25.633  27.413  1.00  0.00    -0.200 F 
ENDBRANCH  26  50
BRANCH  38  61
ATOM     61  C   UNL A   1      46.068  32.384  29.408  1.00  0.00     0.064 A 
ATOM     62  C   UNL A   1      46.280  33.390  28.456  1.00  0.00     0.173 A 
ATOM     63  C   UNL A   1      46.278  32.701  30.759  1.00  0.00     0.173 A 
ATOM     64  F   UNL A   1      46.101  33.133  27.151  1.00  0.00    -0.203 F 
ATOM     65  C   UNL A   1      46.717  34.654  28.839  1.00  0.00     0.198 A 
ATOM     66  C   UNL A   1      46.679  33.977  31.142  1.00  0.00     0.198 A 
ATOM     67  F   UNL A   1      46.075  31.778  31.712  1.00  0.00    -0.203 F 
ATOM     68  F   UNL A   1      46.966  35.584  27.907  1.00  0.00    -0.200 F 
ATOM     69  C   UNL A   1      46.907  34.950  30.181  1.00  0.00     0.200 A 
ATOM     70  F   UNL A   1      46.841  34.266  32.441  1.00  0.00    -0.200 F 
ATOM     71  F   UNL A   1      47.316  36.172  30.548  1.00  0.00    -0.200 F 
ENDBRANCH  38  61
ENDBRANCH  12  13
ENDBRANCH   5   7
ENDBRANCH   2   3
ENDBRANCH   1   2
BRANCH   1  72
ATOM     72  C   UNL A   1      37.171  21.134  24.632  1.00  0.00     0.023 C 
BRANCH  72  73
ATOM     73  C   UNL A   1      36.130  21.487  25.694  1.00  0.00     0.116 C 
BRANCH  73  74
ATOM     74  N   UNL A   1      34.923  20.749  25.456  1.00  0.00    -0.351 N 
ATOM     75  C   UNL A   1      33.639  21.048  25.723  1.00  0.00     0.278 C 
ATOM     76  H   UNL A   1      35.057  19.876  25.022  1.00  0.00     0.163 HD
ATOM     77  O   UNL A   1      32.889  20.060  25.770  1.00  0.00    -0.268 OA
BRANCH  75  78
ATOM     78  C   UNL A   1      33.043  22.474  25.872  1.00  0.00     0.277 C 
ATOM     79  C   UNL A   1      33.840  23.815  25.773  1.00  0.00     0.109 C 
ATOM     80  N   UNL A   1      31.793  22.475  25.046  1.00  0.00    -0.327 N 
ATOM     81  C   UNL A   1      32.918  24.957  26.153  1.00  0.00    -0.024 C 
ATOM     82  C   UNL A   1      31.164  23.805  24.817  1.00  0.00     0.243 C 
ATOM     83  H   UNL A   1      31.109  21.881  25.514  1.00  0.00     0.347 HD
ATOM     84  H   UNL A   1      32.073  22.141  24.123  1.00  0.00     0.347 HD
ATOM     85  C   UNL A   1      33.031  26.273  26.325  1.00  0.00     0.002 A 
ATOM     86  C   UNL A   1      31.454  24.584  26.145  1.00  0.00     0.196 C 
ATOM     87  C   UNL A   1      34.023  27.283  26.135  1.00  0.00     0.010 A 
ATOM     88  C   UNL A   1      31.635  26.670  26.643  1.00  0.00     0.066 A 
ATOM     89  N   UNL A   1      30.684  25.817  26.413  1.00  0.00    -0.270 NA
ATOM     90  C   UNL A   1      33.715  28.555  26.460  1.00  0.00     0.001 A 
ATOM     91  C   UNL A   1      31.438  28.024  27.189  1.00  0.00     0.028 A 
ATOM     92  C   UNL A   1      32.458  28.891  27.112  1.00  0.00     0.002 A 
BRANCH  82  93
ATOM     93  C   UNL A   1      31.616  24.429  23.468  1.00  0.00     0.012 A 
ATOM     94  C   UNL A   1      32.489  23.754  22.588  1.00  0.00     0.010 A 
ATOM     95  C   UNL A   1      31.151  25.682  23.033  1.00  0.00     0.010 A 
ATOM     96  C   UNL A   1      32.965  24.353  21.413  1.00  0.00     0.001 A 
ATOM     97  C   UNL A   1      31.635  26.292  21.867  1.00  0.00     0.001 A 
ATOM     98  C   UNL A   1      32.558  25.634  21.066  1.00  0.00     0.000 A 
ENDBRANCH  82  93
ENDBRANCH  75  78
ENDBRANCH  73  74
ENDBRANCH  72  73
ENDBRANCH   1  72
TORSDOF 12
ENDMDL
MODEL 2
REMARK VINA RESULT:     -13.6      5.671     10.629
REMARK SMILES O=C(NCCCCNC(=O)[C@H]1CC2=c3ccccc3=N[C@H]2[C@@H](c2ccccc2)[NH2+]1)c1ccc(-c2c3nc(c(-c4c(F)c(F)c(F)c(F)c4F)c4ccc([nH]4)c(-c4c(F)c(F)c(F)c(F)c4F)c4nc(c(-c5c(F)c(F)c(F)c(F)c5F)c5ccc2[nH]5)C=C4)C=C3)cc1
REMARK SMILES IDX 5 1 4 2 3 3 1 4 2 5 30 7 31 8 92 9 32 10 91 11 33 12 34 13
REMARK SMILES IDX 35 14 85 15 36 16 90 17 84 18 86 19 37 20 89 21 83 22 82 23
REMARK SMILES IDX 38 25 70 26 50 27 69 28 51 29 54 30 68 31 87 32 52 33 53 34
REMARK SMILES IDX 67 36 88 37 55 38 39 39 40 40 48 41 41 42 42 43 46 44 49 45
REMARK SMILES IDX 43 46 44 47 47 48 45 49 71 50 72 51 80 52 73 53 74 54 78 55
REMARK SMILES IDX 81 56 75 57 76 58 79 59 77 60 56 61 57 62 65 63 58 64 59 65
REMARK SMILES IDX 63 66 66 67 60 68 61 69 64 70 62 71 6 72 7 73 8 74 9 75
REMARK SMILES IDX 10 77 11 78 12 79 29 80 13 81 22 82 14 85 21 86 15 87 19 88
REMARK SMILES IDX 20 89 16 90 18 91 17 92 23 93 24 94 28 95 25 96 27 97 26 98
REMARK H PARENT 3 6 86 24 54 35 8 76 29 83 29 84
REMARK Flexibility Score: inf
ROOT
ATOM      1  C   UNL A   1      31.550  31.914  26.864  1.00  0.00     0.023 C 
ENDROOT
BRANCH   1   2
ATOM      2  C   UNL A   1      32.824  32.691  27.178  1.00  0.00     0.116 C 
BRANCH   2   3
ATOM      3  N   UNL A   1      32.542  34.049  27.626  1.00  0.00    -0.352 N 
ATOM      4  O   UNL A   1      32.645  35.852  28.970  1.00  0.00    -0.269 OA
ATOM      5  C   UNL A   1      33.100  34.757  28.648  1.00  0.00     0.251 C 
ATOM      6  H   UNL A   1      31.847  34.524  27.114  1.00  0.00     0.163 HD
BRANCH   5   7
ATOM      7  C   UNL A   1      34.242  34.184  29.369  1.00  0.00     0.039 A 
ATOM      8  C   UNL A   1      35.527  34.430  28.888  1.00  0.00     0.014 A 
ATOM      9  C   UNL A   1      34.032  33.409  30.513  1.00  0.00     0.014 A 
ATOM     10  C   UNL A   1      36.619  33.904  29.570  1.00  0.00     0.010 A 
ATOM     11  C   UNL A   1      35.124  32.945  31.230  1.00  0.00     0.010 A 
ATOM     12  C   UNL A   1      36.423  33.168  30.748  1.00  0.00    -0.014 A 
BRANCH  12  13
ATOM     13  C   UNL A   1      37.559  32.542  31.457  1.00  0.00     0.031 A 
ATOM     14  C   UNL A   1      38.291  31.408  30.796  1.00  0.00     0.074 A 
ATOM     15  C   UNL A   1      37.904  32.970  32.684  1.00  0.00     0.049 A 
ATOM     16  N   UNL A   1      39.226  30.634  31.280  1.00  0.00    -0.248 NA
ATOM     17  C   UNL A   1      37.903  31.088  29.410  1.00  0.00     0.031 C 
ATOM     18  C   UNL A   1      37.267  34.071  33.409  1.00  0.00     0.029 A 
ATOM     19  N   UNL A   1      38.875  32.523  33.542  1.00  0.00    -0.354 N 
ATOM     20  C   UNL A   1      39.535  29.741  30.263  1.00  0.00     0.074 A 
ATOM     21  C   UNL A   1      38.650  30.023  29.157  1.00  0.00     0.031 C 
ATOM     22  C   UNL A   1      37.884  34.232  34.591  1.00  0.00     0.029 A 
ATOM     23  C   UNL A   1      38.919  33.213  34.729  1.00  0.00     0.049 A 
ATOM     24  H   UNL A   1      39.483  31.779  33.328  1.00  0.00     0.167 HD
ATOM     25  C   UNL A   1      40.497  28.791  30.247  1.00  0.00     0.037 A 
ATOM     26  C   UNL A   1      39.704  33.026  35.806  1.00  0.00     0.037 A 
ATOM     27  C   UNL A   1      41.387  28.532  31.347  1.00  0.00     0.049 A 
ATOM     28  C   UNL A   1      40.717  31.912  35.782  1.00  0.00     0.074 A 
ATOM     29  C   UNL A   1      42.387  27.581  31.440  1.00  0.00     0.029 A 
ATOM     30  N   UNL A   1      41.392  29.241  32.538  1.00  0.00    -0.354 N 
ATOM     31  N   UNL A   1      41.000  31.068  34.819  1.00  0.00    -0.248 NA
ATOM     32  C   UNL A   1      41.523  31.726  36.996  1.00  0.00     0.031 C 
ATOM     33  C   UNL A   1      42.976  27.693  32.701  1.00  0.00     0.029 A 
ATOM     34  C   UNL A   1      42.381  28.750  33.372  1.00  0.00     0.049 A 
ATOM     35  H   UNL A   1      40.783  29.984  32.758  1.00  0.00     0.167 HD
ATOM     36  C   UNL A   1      42.048  30.289  35.290  1.00  0.00     0.074 A 
ATOM     37  C   UNL A   1      42.355  30.766  36.622  1.00  0.00     0.031 C 
ATOM     38  C   UNL A   1      42.698  29.269  34.677  1.00  0.00     0.037 A 
BRANCH  25  39
ATOM     39  C   UNL A   1      40.669  27.980  28.999  1.00  0.00     0.064 A 
ATOM     40  C   UNL A   1      39.923  26.811  28.785  1.00  0.00     0.173 A 
ATOM     41  C   UNL A   1      41.504  28.426  27.964  1.00  0.00     0.173 A 
ATOM     42  F   UNL A   1      39.125  26.332  29.751  1.00  0.00    -0.203 F 
ATOM     43  C   UNL A   1      40.003  26.122  27.578  1.00  0.00     0.198 A 
ATOM     44  C   UNL A   1      41.560  27.751  26.748  1.00  0.00     0.198 A 
ATOM     45  F   UNL A   1      42.239  29.538  28.121  1.00  0.00    -0.203 F 
ATOM     46  F   UNL A   1      39.295  24.999  27.402  1.00  0.00    -0.200 F 
ATOM     47  C   UNL A   1      40.808  26.601  26.555  1.00  0.00     0.200 A 
ATOM     48  F   UNL A   1      42.326  28.223  25.756  1.00  0.00    -0.200 F 
ATOM     49  F   UNL A   1      40.857  25.956  25.381  1.00  0.00    -0.200 F 
ENDBRANCH  25  39
BRANCH  26  50
ATOM     50  C   UNL A   1      39.589  33.922  36.988  1.00  0.00     0.064 A 
ATOM     51  C   UNL A   1      38.813  33.548  38.095  1.00  0.00     0.173 A 
ATOM     52  C   UNL A   1      40.219  35.174  37.029  1.00  0.00     0.173 A 
ATOM     53  F   UNL A   1      38.176  32.368  38.097  1.00  0.00    -0.203 F 
ATOM     54  C   UNL A   1      38.643  34.405  39.180  1.00  0.00     0.198 A 
ATOM     55  C   UNL A   1      40.076  36.017  38.130  1.00  0.00     0.198 A 
ATOM     56  F   UNL A   1      40.976  35.581  36.000  1.00  0.00    -0.203 F 
ATOM     57  F   UNL A   1      37.846  34.046  40.196  1.00  0.00    -0.200 F 
ATOM     58  C   UNL A   1      39.278  35.636  39.199  1.00  0.00     0.200 A 
ATOM     59  F   UNL A   1      40.705  37.200  38.152  1.00  0.00    -0.200 F 
ATOM     60  F   UNL A   1      39.112  36.462  40.241  1.00  0.00    -0.200 F 
ENDBRANCH  26  50
BRANCH  38  61
ATOM     61  C   UNL A   1      43.858  28.650  35.402  1.00  0.00     0.064 A 
ATOM     62  C   UNL A   1      45.172  29.098  35.218  1.00  0.00     0.173 A 
ATOM     63  C   UNL A   1      43.635  27.629  36.339  1.00  0.00     0.173 A 
ATOM     64  F   UNL A   1      45.438  30.066  34.327  1.00  0.00    -0.203 F 
ATOM     65  C   UNL A   1      46.228  28.524  35.920  1.00  0.00     0.198 A 
ATOM     66  C   UNL A   1      44.687  27.083  37.067  1.00  0.00     0.198 A 
ATOM     67  F   UNL A   1      42.394  27.174  36.564  1.00  0.00    -0.203 F 
ATOM     68  F   UNL A   1      47.483  28.930  35.688  1.00  0.00    -0.200 F 
ATOM     69  C   UNL A   1      45.984  27.524  36.850  1.00  0.00     0.200 A 
ATOM     70  F   UNL A   1      44.446  26.132  37.981  1.00  0.00    -0.200 F 
ATOM     71  F   UNL A   1      47.000  26.981  37.534  1.00  0.00    -0.200 F 
ENDBRANCH  38  61
ENDBRANCH  12  13
ENDBRANCH   5   7
ENDBRANCH   2   3
ENDBRANCH   1   2
BRANCH   1  72
ATOM     72  C   UNL A   1      31.742  30.397  26.740  1.00  0.00     0.023 C 
BRANCH  72  73
ATOM     73  C   UNL A   1      32.421  29.952  25.445  1.00  0.00     0.116 C 
BRANCH  73  74
ATOM     74  N   UNL A   1      31.434  29.734  24.427  1.00  0.00    -0.351 N 
ATOM     75  C   UNL A   1      31.402  28.868  23.398  1.00  0.00     0.278 C 
ATOM     76  H   UNL A   1      30.644  30.318  24.493  1.00  0.00     0.163 HD
ATOM     77  O   UNL A   1      30.629  29.196  22.485  1.00  0.00    -0.268 OA
BRANCH  75  78
ATOM     78  C   UNL A   1      32.153  27.512  23.321  1.00  0.00     0.277 C 
ATOM     79  C   UNL A   1      33.126  26.940  24.403  1.00  0.00     0.109 C 
ATOM     80  N   UNL A   1      31.131  26.514  22.869  1.00  0.00    -0.327 N 
ATOM     81  C   UNL A   1      33.775  25.682  23.857  1.00  0.00    -0.024 C 
ATOM     82  C   UNL A   1      31.535  25.083  22.956  1.00  0.00     0.243 C 
ATOM     83  H   UNL A   1      30.907  26.716  21.895  1.00  0.00     0.347 HD
ATOM     84  H   UNL A   1      30.344  26.616  23.508  1.00  0.00     0.347 HD
ATOM     85  C   UNL A   1      34.710  24.824  24.261  1.00  0.00     0.002 A 
ATOM     86  C   UNL A   1      33.071  25.112  22.648  1.00  0.00     0.196 C 
ATOM     87  C   UNL A   1      35.486  24.582  25.436  1.00  0.00     0.010 A 
ATOM     88  C   UNL A   1      34.721  23.828  23.159  1.00  0.00     0.066 A 
ATOM     89  N   UNL A   1      33.739  23.838  22.310  1.00  0.00    -0.270 NA
ATOM     90  C   UNL A   1      36.370  23.565  25.423  1.00  0.00     0.001 A 
ATOM     91  C   UNL A   1      35.855  22.888  23.126  1.00  0.00     0.028 A 
ATOM     92  C   UNL A   1      36.639  22.806  24.210  1.00  0.00     0.002 A 
BRANCH  82  93
ATOM     93  C   UNL A   1      31.048  24.429  24.279  1.00  0.00     0.012 A 
ATOM     94  C   UNL A   1      30.278  25.140  25.224  1.00  0.00     0.010 A 
ATOM     95  C   UNL A   1      31.314  23.084  24.588  1.00  0.00     0.010 A 
ATOM     96  C   UNL A   1      29.914  24.578  26.456  1.00  0.00     0.001 A 
ATOM     97  C   UNL A   1      30.966  22.522  25.824  1.00  0.00     0.001 A 
ATOM     98  C   UNL A   1      30.280  23.276  26.766  1.00  0.00     0.000 A 
ENDBRANCH  82  93
ENDBRANCH  75  78
ENDBRANCH  73  74
ENDBRANCH  72  73
ENDBRANCH   1  72
TORSDOF 12
ENDMDL
MODEL 3
REMARK VINA RESULT:     -13.6      5.605     10.615
REMARK SMILES O=C(NCCCCNC(=O)[C@H]1CC2=c3ccccc3=N[C@H]2[C@@H](c2ccccc2)[NH2+]1)c1ccc(-c2c3nc(c(-c4c(F)c(F)c(F)c(F)c4F)c4ccc([nH]4)c(-c4c(F)c(F)c(F)c(F)c4F)c4nc(c(-c5c(F)c(F)c(F)c(F)c5F)c5ccc2[nH]5)C=C4)C=C3)cc1
REMARK SMILES IDX 5 1 4 2 3 3 1 4 2 5 30 7 31 8 92 9 32 10 91 11 33 12 34 13
REMARK SMILES IDX 35 14 85 15 36 16 90 17 84 18 86 19 37 20 89 21 83 22 82 23
REMARK SMILES IDX 38 25 70 26 50 27 69 28 51 29 54 30 68 31 87 32 52 33 53 34
REMARK SMILES IDX 67 36 88 37 55 38 39 39 40 40 48 41 41 42 42 43 46 44 49 45
REMARK SMILES IDX 43 46 44 47 47 48 45 49 71 50 72 51 80 52 73 53 74 54 78 55
REMARK SMILES IDX 81 56 75 57 76 58 79 59 77 60 56 61 57 62 65 63 58 64 59 65
REMARK SMILES IDX 63 66 66 67 60 68 61 69 64 70 62 71 6 72 7 73 8 74 9 75
REMARK SMILES IDX 10 77 11 78 12 79 29 80 13 81 22 82 14 85 21 86 15 87 19 88
REMARK SMILES IDX 20 89 16 90 18 91 17 92 23 93 24 94 28 95 25 96 27 97 26 98
REMARK H PARENT 3 6 86 24 54 35 8 76 29 83 29 84
REMARK Flexibility Score: inf
ROOT
ATOM      1  C   UNL A   1      31.567  31.916  26.751  1.00  0.00     0.023 C 
ENDROOT
BRANCH   1   2
ATOM      2  C   UNL A   1      32.830  32.673  27.149  1.00  0.00     0.116 C 
BRANCH   2   3
ATOM      3  N   UNL A   1      32.538  34.030  27.592  1.00  0.00    -0.352 N 
ATOM      4  O   UNL A   1      32.634  35.840  28.928  1.00  0.00    -0.269 OA
ATOM      5  C   UNL A   1      33.097  34.748  28.607  1.00  0.00     0.251 C 
ATOM      6  H   UNL A   1      31.835  34.496  27.084  1.00  0.00     0.163 HD
BRANCH   5   7
ATOM      7  C   UNL A   1      34.250  34.190  29.322  1.00  0.00     0.039 A 
ATOM      8  C   UNL A   1      35.530  34.462  28.840  1.00  0.00     0.014 A 
ATOM      9  C   UNL A   1      34.057  33.403  30.460  1.00  0.00     0.014 A 
ATOM     10  C   UNL A   1      36.633  33.950  29.515  1.00  0.00     0.010 A 
ATOM     11  C   UNL A   1      35.158  32.953  31.171  1.00  0.00     0.010 A 
ATOM     12  C   UNL A   1      36.452  33.202  30.688  1.00  0.00    -0.014 A 
BRANCH  12  13
ATOM     13  C   UNL A   1      37.601  32.591  31.390  1.00  0.00     0.031 A 
ATOM     14  C   UNL A   1      38.328  31.450  30.735  1.00  0.00     0.074 A 
ATOM     15  C   UNL A   1      37.960  33.037  32.607  1.00  0.00     0.049 A 
ATOM     16  N   UNL A   1      39.273  30.687  31.217  1.00  0.00    -0.248 NA
ATOM     17  C   UNL A   1      37.922  31.110  29.359  1.00  0.00     0.031 C 
ATOM     18  C   UNL A   1      37.329  34.146  33.324  1.00  0.00     0.029 A 
ATOM     19  N   UNL A   1      38.945  32.607  33.457  1.00  0.00    -0.354 N 
ATOM     20  C   UNL A   1      39.572  29.781  30.208  1.00  0.00     0.074 A 
ATOM     21  C   UNL A   1      38.670  30.044  29.111  1.00  0.00     0.031 C 
ATOM     22  C   UNL A   1      37.961  34.326  34.496  1.00  0.00     0.029 A 
ATOM     23  C   UNL A   1      39.003  33.313  34.633  1.00  0.00     0.049 A 
ATOM     24  H   UNL A   1      39.553  31.862  33.245  1.00  0.00     0.167 HD
ATOM     25  C   UNL A   1      40.536  28.834  30.193  1.00  0.00     0.037 A 
ATOM     26  C   UNL A   1      39.803  33.145  35.702  1.00  0.00     0.037 A 
ATOM     27  C   UNL A   1      41.443  28.595  31.283  1.00  0.00     0.049 A 
ATOM     28  C   UNL A   1      40.821  32.034  35.679  1.00  0.00     0.074 A 
ATOM     29  C   UNL A   1      42.448  27.649  31.376  1.00  0.00     0.029 A 
ATOM     30  N   UNL A   1      41.462  29.321  32.464  1.00  0.00    -0.354 N 
ATOM     31  N   UNL A   1      41.093  31.178  34.724  1.00  0.00    -0.248 NA
ATOM     32  C   UNL A   1      41.644  31.869  36.884  1.00  0.00     0.031 C 
ATOM     33  C   UNL A   1      43.054  27.781  32.627  1.00  0.00     0.029 A 
ATOM     34  C   UNL A   1      42.464  28.845  33.291  1.00  0.00     0.049 A 
ATOM     35  H   UNL A   1      40.853  30.064  32.683  1.00  0.00     0.167 HD
ATOM     36  C   UNL A   1      42.151  30.410  35.192  1.00  0.00     0.074 A 
ATOM     37  C   UNL A   1      42.475  30.906  36.513  1.00  0.00     0.031 C 
ATOM     38  C   UNL A   1      42.797  29.384  34.585  1.00  0.00     0.037 A 
BRANCH  25  39
ATOM     39  C   UNL A   1      40.695  28.006  28.954  1.00  0.00     0.064 A 
ATOM     40  C   UNL A   1      39.944  26.837  28.762  1.00  0.00     0.173 A 
ATOM     41  C   UNL A   1      41.521  28.436  27.905  1.00  0.00     0.173 A 
ATOM     42  F   UNL A   1      39.153  26.373  29.742  1.00  0.00    -0.203 F 
ATOM     43  C   UNL A   1      40.010  26.132  27.564  1.00  0.00     0.198 A 
ATOM     44  C   UNL A   1      41.564  27.746  26.698  1.00  0.00     0.198 A 
ATOM     45  F   UNL A   1      42.261  29.548  28.041  1.00  0.00    -0.203 F 
ATOM     46  F   UNL A   1      39.297  25.009  27.409  1.00  0.00    -0.200 F 
ATOM     47  C   UNL A   1      40.807  26.595  26.527  1.00  0.00     0.200 A 
ATOM     48  F   UNL A   1      42.323  28.202  25.693  1.00  0.00    -0.200 F 
ATOM     49  F   UNL A   1      40.844  25.934  25.362  1.00  0.00    -0.200 F 
ENDBRANCH  25  39
BRANCH  26  50
ATOM     50  C   UNL A   1      39.701  34.056  36.873  1.00  0.00     0.064 A 
ATOM     51  C   UNL A   1      40.424  35.257  36.908  1.00  0.00     0.173 A 
ATOM     52  C   UNL A   1      38.913  33.740  37.989  1.00  0.00     0.173 A 
ATOM     53  F   UNL A   1      41.208  35.597  35.874  1.00  0.00    -0.203 F 
ATOM     54  C   UNL A   1      40.390  36.089  38.026  1.00  0.00     0.198 A 
ATOM     55  C   UNL A   1      38.852  34.588  39.092  1.00  0.00     0.198 A 
ATOM     56  F   UNL A   1      38.197  32.606  38.007  1.00  0.00    -0.203 F 
ATOM     57  F   UNL A   1      41.140  37.199  38.055  1.00  0.00    -0.200 F 
ATOM     58  C   UNL A   1      39.601  35.756  39.115  1.00  0.00     0.200 A 
ATOM     59  F   UNL A   1      38.075  34.272  40.136  1.00  0.00    -0.200 F 
ATOM     60  F   UNL A   1      39.570  36.554  40.191  1.00  0.00    -0.200 F 
ENDBRANCH  26  50
BRANCH  38  61
ATOM     61  C   UNL A   1      43.969  28.780  35.302  1.00  0.00     0.064 A 
ATOM     62  C   UNL A   1      43.818  27.727  36.215  1.00  0.00     0.173 A 
ATOM     63  C   UNL A   1      45.269  29.230  35.025  1.00  0.00     0.173 A 
ATOM     64  F   UNL A   1      42.594  27.267  36.519  1.00  0.00    -0.203 F 
ATOM     65  C   UNL A   1      44.923  27.168  36.849  1.00  0.00     0.198 A 
ATOM     66  C   UNL A   1      46.375  28.645  35.634  1.00  0.00     0.198 A 
ATOM     67  F   UNL A   1      45.470  30.226  34.149  1.00  0.00    -0.203 F 
ATOM     68  F   UNL A   1      44.751  26.200  37.759  1.00  0.00    -0.200 F 
ATOM     69  C   UNL A   1      46.200  27.620  36.552  1.00  0.00     0.200 A 
ATOM     70  F   UNL A   1      47.609  29.069  35.328  1.00  0.00    -0.200 F 
ATOM     71  F   UNL A   1      47.264  27.073  37.156  1.00  0.00    -0.200 F 
ENDBRANCH  38  61
ENDBRANCH  12  13
ENDBRANCH   5   7
ENDBRANCH   2   3
ENDBRANCH   1   2
BRANCH   1  72
ATOM     72  C   UNL A   1      31.712  30.388  26.754  1.00  0.00     0.023 C 
BRANCH  72  73
ATOM     73  C   UNL A   1      32.483  29.826  25.560  1.00  0.00     0.116 C 
BRANCH  73  74
ATOM     74  N   UNL A   1      31.596  29.654  24.446  1.00  0.00    -0.351 N 
ATOM     75  C   UNL A   1      31.650  28.814  23.396  1.00  0.00     0.278 C 
ATOM     76  H   UNL A   1      30.814  30.251  24.451  1.00  0.00     0.163 HD
ATOM     77  O   UNL A   1      30.975  29.180  22.421  1.00  0.00    -0.268 OA
BRANCH  75  78
ATOM     78  C   UNL A   1      32.380  27.445  23.356  1.00  0.00     0.277 C 
ATOM     79  C   UNL A   1      33.296  26.862  24.480  1.00  0.00     0.109 C 
ATOM     80  N   UNL A   1      31.362  26.462  22.864  1.00  0.00    -0.327 N 
ATOM     81  C   UNL A   1      33.947  25.592  23.967  1.00  0.00    -0.024 C 
ATOM     82  C   UNL A   1      31.738  25.025  22.973  1.00  0.00     0.243 C 
ATOM     83  H   UNL A   1      31.183  26.664  21.880  1.00  0.00     0.347 HD
ATOM     84  H   UNL A   1      30.550  26.580  23.469  1.00  0.00     0.347 HD
ATOM     85  C   UNL A   1      34.850  24.720  24.414  1.00  0.00     0.002 A 
ATOM     86  C   UNL A   1      33.286  25.028  22.731  1.00  0.00     0.196 C 
ATOM     87  C   UNL A   1      35.571  24.471  25.622  1.00  0.00     0.010 A 
ATOM     88  C   UNL A   1      34.891  23.719  23.317  1.00  0.00     0.066 A 
ATOM     89  N   UNL A   1      33.947  23.741  22.427  1.00  0.00    -0.270 NA
ATOM     90  C   UNL A   1      36.438  23.440  25.650  1.00  0.00     0.001 A 
ATOM     91  C   UNL A   1      36.010  22.761  23.336  1.00  0.00     0.028 A 
ATOM     92  C   UNL A   1      36.746  22.670  24.453  1.00  0.00     0.002 A 
BRANCH  82  93
ATOM     93  C   UNL A   1      31.185  24.385  24.277  1.00  0.00     0.012 A 
ATOM     94  C   UNL A   1      30.369  25.106  25.175  1.00  0.00     0.010 A 
ATOM     95  C   UNL A   1      31.434  23.043  24.613  1.00  0.00     0.010 A 
ATOM     96  C   UNL A   1      29.942  24.556  26.392  1.00  0.00     0.001 A 
ATOM     97  C   UNL A   1      31.024  22.494  25.836  1.00  0.00     0.001 A 
ATOM     98  C   UNL A   1      30.291  23.258  26.735  1.00  0.00     0.000 A 
ENDBRANCH  82  93
ENDBRANCH  75  78
ENDBRANCH  73  74
ENDBRANCH  72  73
ENDBRANCH   1  72
TORSDOF 12
ENDMDL
