MODEL 1
REMARK VINA RESULT:     -11.6      0.000      0.000
REMARK SMILES CC(C)([NH2+]C[C@@H]1CCCO1)C(=O)NCCCCNC(=O)c1ccc(-c2c3nc(c(-c4c(F)c(F)c(F)c(F)c4F)c4ccc([nH]4)c(-c4c(F)c(F)c(F)c(F)c4F)c4nc(c(-c5c(F)c(F)c(F)c(F)c5F)c5ccc2[nH]5)C=C4)C=C3)cc1
REMARK SMILES IDX 15 1 14 2 13 3 11 4 12 5 2 7 1 8 3 9 4 10 5 13 6 14 7 15
REMARK SMILES IDX 10 16 8 17 9 18 16 19 17 20 18 21 19 22 20 24 21 25 22 26
REMARK SMILES IDX 83 27 23 28 82 29 24 30 25 31 26 32 76 33 27 34 81 35 75 36
REMARK SMILES IDX 77 37 28 38 80 39 74 40 73 41 29 43 61 44 41 45 60 46 42 47
REMARK SMILES IDX 45 48 59 49 78 50 43 51 44 52 58 54 79 55 46 56 30 57 31 58
REMARK SMILES IDX 39 59 32 60 33 61 37 62 40 63 34 64 35 65 38 66 36 67 62 68
REMARK SMILES IDX 63 69 71 70 64 71 65 72 69 73 72 74 66 75 67 76 70 77 68 78
REMARK SMILES IDX 47 79 48 80 56 81 49 82 50 83 54 84 57 85 51 86 52 87 55 88
REMARK SMILES IDX 53 89
REMARK H PARENT 13 6 4 11 4 12 18 23 77 42 45 53
REMARK Flexibility Score: inf
ROOT
ATOM      1  C   UNL A   1      31.968  30.482  26.718  1.00  0.00     0.023 C 
ENDROOT
BRANCH   1   2
ATOM      2  C   UNL A   1      31.815  29.905  25.308  1.00  0.00     0.116 C 
BRANCH   2   3
ATOM      3  N   UNL A   1      31.784  28.461  25.344  1.00  0.00    -0.351 N 
ATOM      4  C   UNL A   1      31.905  27.501  24.387  1.00  0.00     0.280 C 
ATOM      5  O   UNL A   1      31.666  26.357  24.802  1.00  0.00    -0.268 OA
ATOM      6  H   UNL A   1      31.649  28.097  26.248  1.00  0.00     0.163 HD
BRANCH   4   7
ATOM      7  C   UNL A   1      32.366  27.755  22.906  1.00  0.00     0.169 C 
ATOM      8  C   UNL A   1      32.676  26.342  22.321  1.00  0.00     0.090 C 
ATOM      9  C   UNL A   1      33.692  28.524  22.815  1.00  0.00     0.090 C 
BRANCH   7  10
ATOM     10  N   UNL A   1      31.287  28.227  22.001  1.00  0.00    -0.332 N 
ATOM     11  H   UNL A   1      31.150  27.486  21.314  1.00  0.00     0.347 HD
ATOM     12  H   UNL A   1      31.651  29.132  21.701  1.00  0.00     0.347 HD
BRANCH  10  13
ATOM     13  C   UNL A   1      29.958  28.585  22.480  1.00  0.00     0.293 C 
BRANCH  13  14
ATOM     14  C   UNL A   1      29.572  30.069  22.400  1.00  0.00     0.173 C 
ATOM     15  C   UNL A   1      28.542  30.484  23.439  1.00  0.00     0.040 C 
ATOM     16  O   UNL A   1      28.979  30.391  21.130  1.00  0.00    -0.372 OA
ATOM     17  C   UNL A   1      28.031  31.767  22.831  1.00  0.00     0.031 C 
ATOM     18  C   UNL A   1      28.027  31.448  21.348  1.00  0.00     0.161 C 
ENDBRANCH  13  14
ENDBRANCH  10  13
ENDBRANCH   7  10
ENDBRANCH   4   7
ENDBRANCH   2   3
ENDBRANCH   1   2
BRANCH   1  19
ATOM     19  C   UNL A   1      31.643  31.965  26.844  1.00  0.00     0.023 C 
BRANCH  19  20
ATOM     20  C   UNL A   1      32.811  32.842  27.272  1.00  0.00     0.116 C 
BRANCH  20  21
ATOM     21  N   UNL A   1      32.433  34.204  27.627  1.00  0.00    -0.352 N 
ATOM     22  C   UNL A   1      32.992  35.020  28.584  1.00  0.00     0.251 C 
ATOM     23  H   UNL A   1      31.682  34.588  27.119  1.00  0.00     0.163 HD
ATOM     24  O   UNL A   1      32.527  36.126  28.819  1.00  0.00    -0.269 OA
BRANCH  22  25
ATOM     25  C   UNL A   1      34.139  34.508  29.360  1.00  0.00     0.039 A 
ATOM     26  C   UNL A   1      33.897  33.864  30.576  1.00  0.00     0.014 A 
ATOM     27  C   UNL A   1      35.430  34.574  28.832  1.00  0.00     0.014 A 
ATOM     28  C   UNL A   1      34.943  33.201  31.218  1.00  0.00     0.010 A 
ATOM     29  C   UNL A   1      36.449  33.843  29.430  1.00  0.00     0.010 A 
ATOM     30  C   UNL A   1      36.214  33.144  30.623  1.00  0.00    -0.014 A 
BRANCH  30  31
ATOM     31  C   UNL A   1      37.317  32.355  31.224  1.00  0.00     0.031 A 
ATOM     32  C   UNL A   1      37.808  32.692  32.603  1.00  0.00     0.074 A 
ATOM     33  C   UNL A   1      37.932  31.402  30.498  1.00  0.00     0.049 A 
ATOM     34  N   UNL A   1      38.828  32.203  33.262  1.00  0.00    -0.248 NA
ATOM     35  C   UNL A   1      37.077  33.748  33.323  1.00  0.00     0.031 C 
ATOM     36  C   UNL A   1      37.589  31.025  29.125  1.00  0.00     0.029 A 
ATOM     37  N   UNL A   1      38.988  30.582  30.812  1.00  0.00    -0.354 N 
ATOM     38  C   UNL A   1      38.876  32.910  34.455  1.00  0.00     0.074 A 
ATOM     39  C   UNL A   1      37.817  33.894  34.411  1.00  0.00     0.031 C 
ATOM     40  C   UNL A   1      38.402  30.034  28.724  1.00  0.00     0.029 A 
ATOM     41  C   UNL A   1      39.343  29.727  29.797  1.00  0.00     0.049 A 
ATOM     42  H   UNL A   1      39.448  30.606  31.681  1.00  0.00     0.167 HD
ATOM     43  C   UNL A   1      39.713  32.736  35.506  1.00  0.00     0.037 A 
ATOM     44  C   UNL A   1      40.320  28.803  29.741  1.00  0.00     0.037 A 
ATOM     45  C   UNL A   1      40.732  31.724  35.568  1.00  0.00     0.049 A 
ATOM     46  C   UNL A   1      41.209  28.603  30.938  1.00  0.00     0.074 A 
ATOM     47  C   UNL A   1      41.584  31.420  36.614  1.00  0.00     0.029 A 
ATOM     48  N   UNL A   1      41.028  30.843  34.539  1.00  0.00    -0.354 N 
ATOM     49  N   UNL A   1      41.206  29.234  32.085  1.00  0.00    -0.248 NA
ATOM     50  C   UNL A   1      42.237  27.556  30.832  1.00  0.00     0.031 C 
ATOM     51  C   UNL A   1      42.413  30.369  36.209  1.00  0.00     0.029 A 
ATOM     52  C   UNL A   1      42.056  29.998  34.923  1.00  0.00     0.049 A 
ATOM     53  H   UNL A   1      40.575  30.821  33.665  1.00  0.00     0.167 HD
ATOM     54  C   UNL A   1      42.208  28.648  32.846  1.00  0.00     0.074 A 
ATOM     55  C   UNL A   1      42.791  27.600  32.035  1.00  0.00     0.031 C 
ATOM     56  C   UNL A   1      42.611  28.953  34.104  1.00  0.00     0.037 A 
BRANCH  43  57
ATOM     57  C   UNL A   1      39.545  33.653  36.679  1.00  0.00     0.064 A 
ATOM     58  C   UNL A   1      38.745  33.299  37.777  1.00  0.00     0.173 A 
ATOM     59  C   UNL A   1      40.205  34.890  36.719  1.00  0.00     0.173 A 
ATOM     60  F   UNL A   1      38.080  32.135  37.779  1.00  0.00    -0.203 F 
ATOM     61  C   UNL A   1      38.591  34.162  38.858  1.00  0.00     0.198 A 
ATOM     62  C   UNL A   1      40.071  35.739  37.814  1.00  0.00     0.198 A 
ATOM     63  F   UNL A   1      40.982  35.275  35.695  1.00  0.00    -0.203 F 
ATOM     64  F   UNL A   1      37.782  33.825  39.872  1.00  0.00    -0.200 F 
ATOM     65  C   UNL A   1      39.258  35.378  38.878  1.00  0.00     0.200 A 
ATOM     66  F   UNL A   1      40.722  36.910  37.837  1.00  0.00    -0.200 F 
ATOM     67  F   UNL A   1      39.110  36.206  39.922  1.00  0.00    -0.200 F 
ENDBRANCH  43  57
BRANCH  44  68
ATOM     68  C   UNL A   1      40.486  27.967  28.525  1.00  0.00     0.064 A 
ATOM     69  C   UNL A   1      39.866  26.713  28.429  1.00  0.00     0.173 A 
ATOM     70  C   UNL A   1      41.269  28.394  27.443  1.00  0.00     0.173 A 
ATOM     71  F   UNL A   1      39.124  26.255  29.448  1.00  0.00    -0.203 F 
ATOM     72  C   UNL A   1      40.039  25.908  27.305  1.00  0.00     0.198 A 
ATOM     73  C   UNL A   1      41.422  27.597  26.310  1.00  0.00     0.198 A 
ATOM     74  F   UNL A   1      41.878  29.588  27.485  1.00  0.00    -0.203 F 
ATOM     75  F   UNL A   1      39.470  24.696  27.258  1.00  0.00    -0.200 F 
ATOM     76  C   UNL A   1      40.814  26.353  26.245  1.00  0.00     0.200 A 
ATOM     77  F   UNL A   1      42.162  28.035  25.281  1.00  0.00    -0.200 F 
ATOM     78  F   UNL A   1      40.981  25.578  25.165  1.00  0.00    -0.200 F 
ENDBRANCH  44  68
BRANCH  56  79
ATOM     79  C   UNL A   1      43.710  28.120  34.690  1.00  0.00     0.064 A 
ATOM     80  C   UNL A   1      45.054  28.508  34.592  1.00  0.00     0.173 A 
ATOM     81  C   UNL A   1      43.410  26.946  35.398  1.00  0.00     0.173 A 
ATOM     82  F   UNL A   1      45.388  29.615  33.912  1.00  0.00    -0.203 F 
ATOM     83  C   UNL A   1      46.062  27.739  35.167  1.00  0.00     0.198 A 
ATOM     84  C   UNL A   1      44.419  26.193  35.991  1.00  0.00     0.198 A 
ATOM     85  F   UNL A   1      42.139  26.537  35.522  1.00  0.00    -0.203 F 
ATOM     86  F   UNL A   1      47.343  28.107  35.030  1.00  0.00    -0.200 F 
ATOM     87  C   UNL A   1      45.743  26.587  35.870  1.00  0.00     0.200 A 
ATOM     88  F   UNL A   1      44.109  25.085  36.678  1.00  0.00    -0.200 F 
ATOM     89  F   UNL A   1      46.715  25.852  36.428  1.00  0.00    -0.200 F 
ENDBRANCH  56  79
ENDBRANCH  30  31
ENDBRANCH  22  25
ENDBRANCH  20  21
ENDBRANCH  19  20
ENDBRANCH   1  19
TORSDOF 14
ENDMDL
MODEL 2
REMARK VINA RESULT:     -11.6      0.179      1.658
REMARK SMILES CC(C)([NH2+]C[C@@H]1CCCO1)C(=O)NCCCCNC(=O)c1ccc(-c2c3nc(c(-c4c(F)c(F)c(F)c(F)c4F)c4ccc([nH]4)c(-c4c(F)c(F)c(F)c(F)c4F)c4nc(c(-c5c(F)c(F)c(F)c(F)c5F)c5ccc2[nH]5)C=C4)C=C3)cc1
REMARK SMILES IDX 15 1 14 2 13 3 11 4 12 5 2 7 1 8 3 9 4 10 5 13 6 14 7 15
REMARK SMILES IDX 10 16 8 17 9 18 16 19 17 20 18 21 19 22 20 24 21 25 22 26
REMARK SMILES IDX 83 27 23 28 82 29 24 30 25 31 26 32 76 33 27 34 81 35 75 36
REMARK SMILES IDX 77 37 28 38 80 39 74 40 73 41 29 43 61 44 41 45 60 46 42 47
REMARK SMILES IDX 45 48 59 49 78 50 43 51 44 52 58 54 79 55 46 56 30 57 31 58
REMARK SMILES IDX 39 59 32 60 33 61 37 62 40 63 34 64 35 65 38 66 36 67 62 68
REMARK SMILES IDX 63 69 71 70 64 71 65 72 69 73 72 74 66 75 67 76 70 77 68 78
REMARK SMILES IDX 47 79 48 80 56 81 49 82 50 83 54 84 57 85 51 86 52 87 55 88
REMARK SMILES IDX 53 89
REMARK H PARENT 13 6 4 11 4 12 18 23 77 42 45 53
REMARK Flexibility Score: inf
ROOT
ATOM      1  C   UNL A   1      32.065  30.377  26.746  1.00  0.00     0.023 C 
ENDROOT
BRANCH   1   2
ATOM      2  C   UNL A   1      31.855  29.774  25.355  1.00  0.00     0.116 C 
BRANCH   2   3
ATOM      3  N   UNL A   1      32.019  28.339  25.386  1.00  0.00    -0.351 N 
ATOM      4  C   UNL A   1      32.120  27.389  24.417  1.00  0.00     0.280 C 
ATOM      5  O   UNL A   1      32.098  26.230  24.856  1.00  0.00    -0.268 OA
ATOM      6  H   UNL A   1      32.068  27.973  26.298  1.00  0.00     0.163 HD
BRANCH   4   7
ATOM      7  C   UNL A   1      32.319  27.681  22.885  1.00  0.00     0.169 C 
ATOM      8  C   UNL A   1      32.842  26.343  22.274  1.00  0.00     0.090 C 
ATOM      9  C   UNL A   1      33.428  28.706  22.609  1.00  0.00     0.090 C 
BRANCH   7  10
ATOM     10  N   UNL A   1      31.056  27.884  22.131  1.00  0.00    -0.332 N 
ATOM     11  H   UNL A   1      30.792  26.967  21.770  1.00  0.00     0.347 HD
ATOM     12  H   UNL A   1      31.320  28.626  21.482  1.00  0.00     0.347 HD
BRANCH  10  13
ATOM     13  C   UNL A   1      29.855  28.439  22.743  1.00  0.00     0.293 C 
BRANCH  13  14
ATOM     14  C   UNL A   1      29.551  29.915  22.453  1.00  0.00     0.173 C 
ATOM     15  C   UNL A   1      28.609  30.550  23.463  1.00  0.00     0.040 C 
ATOM     16  O   UNL A   1      28.904  30.079  21.179  1.00  0.00    -0.372 OA
ATOM     17  C   UNL A   1      28.137  31.757  22.689  1.00  0.00     0.031 C 
ATOM     18  C   UNL A   1      28.029  31.217  21.275  1.00  0.00     0.161 C 
ENDBRANCH  13  14
ENDBRANCH  10  13
ENDBRANCH   7  10
ENDBRANCH   4   7
ENDBRANCH   2   3
ENDBRANCH   1   2
BRANCH   1  19
ATOM     19  C   UNL A   1      31.715  31.855  26.864  1.00  0.00     0.023 C 
BRANCH  19  20
ATOM     20  C   UNL A   1      32.875  32.758  27.258  1.00  0.00     0.116 C 
BRANCH  20  21
ATOM     21  N   UNL A   1      32.477  34.112  27.621  1.00  0.00    -0.352 N 
ATOM     22  C   UNL A   1      33.020  34.927  28.590  1.00  0.00     0.251 C 
ATOM     23  H   UNL A   1      31.725  34.491  27.111  1.00  0.00     0.163 HD
ATOM     24  O   UNL A   1      32.539  36.025  28.830  1.00  0.00    -0.269 OA
BRANCH  22  25
ATOM     25  C   UNL A   1      34.167  34.423  29.370  1.00  0.00     0.039 A 
ATOM     26  C   UNL A   1      33.921  33.699  30.539  1.00  0.00     0.014 A 
ATOM     27  C   UNL A   1      35.468  34.576  28.886  1.00  0.00     0.014 A 
ATOM     28  C   UNL A   1      34.978  33.047  31.175  1.00  0.00     0.010 A 
ATOM     29  C   UNL A   1      36.502  33.858  29.472  1.00  0.00     0.010 A 
ATOM     30  C   UNL A   1      36.266  33.081  30.617  1.00  0.00    -0.014 A 
BRANCH  30  31
ATOM     31  C   UNL A   1      37.387  32.309  31.205  1.00  0.00     0.031 A 
ATOM     32  C   UNL A   1      37.884  32.647  32.582  1.00  0.00     0.074 A 
ATOM     33  C   UNL A   1      38.013  31.369  30.470  1.00  0.00     0.049 A 
ATOM     34  N   UNL A   1      38.917  32.173  33.231  1.00  0.00    -0.248 NA
ATOM     35  C   UNL A   1      37.140  33.687  33.312  1.00  0.00     0.031 C 
ATOM     36  C   UNL A   1      37.666  30.993  29.098  1.00  0.00     0.029 A 
ATOM     37  N   UNL A   1      39.086  30.567  30.772  1.00  0.00    -0.354 N 
ATOM     38  C   UNL A   1      38.961  32.875  34.427  1.00  0.00     0.074 A 
ATOM     39  C   UNL A   1      37.886  33.842  34.396  1.00  0.00     0.031 C 
ATOM     40  C   UNL A   1      38.493  30.018  28.686  1.00  0.00     0.029 A 
ATOM     41  C   UNL A   1      39.447  29.722  29.750  1.00  0.00     0.049 A 
ATOM     42  H   UNL A   1      39.552  30.594  31.638  1.00  0.00     0.167 HD
ATOM     43  C   UNL A   1      39.810  32.711  35.470  1.00  0.00     0.037 A 
ATOM     44  C   UNL A   1      40.440  28.815  29.682  1.00  0.00     0.037 A 
ATOM     45  C   UNL A   1      40.847  31.717  35.519  1.00  0.00     0.049 A 
ATOM     46  C   UNL A   1      41.342  28.625  30.871  1.00  0.00     0.074 A 
ATOM     47  C   UNL A   1      41.712  31.422  36.558  1.00  0.00     0.029 A 
ATOM     48  N   UNL A   1      41.149  30.846  34.484  1.00  0.00    -0.354 N 
ATOM     49  N   UNL A   1      41.336  29.252  32.022  1.00  0.00    -0.248 NA
ATOM     50  C   UNL A   1      42.386  27.597  30.752  1.00  0.00     0.031 C 
ATOM     51  C   UNL A   1      42.556  30.388  36.141  1.00  0.00     0.029 A 
ATOM     52  C   UNL A   1      42.195  30.017  34.856  1.00  0.00     0.049 A 
ATOM     53  H   UNL A   1      40.691  30.820  33.613  1.00  0.00     0.167 HD
ATOM     54  C   UNL A   1      42.354  28.679  32.772  1.00  0.00     0.074 A 
ATOM     55  C   UNL A   1      42.949  27.645  31.951  1.00  0.00     0.031 C 
ATOM     56  C   UNL A   1      42.761  28.985  34.028  1.00  0.00     0.037 A 
BRANCH  43  57
ATOM     57  C   UNL A   1      39.635  33.620  36.649  1.00  0.00     0.064 A 
ATOM     58  C   UNL A   1      40.287  34.860  36.721  1.00  0.00     0.173 A 
ATOM     59  C   UNL A   1      38.791  33.258  37.710  1.00  0.00     0.173 A 
ATOM     60  F   UNL A   1      41.117  35.243  35.741  1.00  0.00    -0.203 F 
ATOM     61  C   UNL A   1      40.123  35.692  37.824  1.00  0.00     0.198 A 
ATOM     62  C   UNL A   1      38.607  34.105  38.799  1.00  0.00     0.198 A 
ATOM     63  F   UNL A   1      38.143  32.084  37.689  1.00  0.00    -0.203 F 
ATOM     64  F   UNL A   1      40.795  36.850  37.895  1.00  0.00    -0.200 F 
ATOM     65  C   UNL A   1      39.278  35.317  38.859  1.00  0.00     0.200 A 
ATOM     66  F   UNL A   1      37.785  33.746  39.795  1.00  0.00    -0.200 F 
ATOM     67  F   UNL A   1      39.119  36.122  39.920  1.00  0.00    -0.200 F 
ENDBRANCH  43  57
BRANCH  44  68
ATOM     68  C   UNL A   1      40.610  27.989  28.460  1.00  0.00     0.064 A 
ATOM     69  C   UNL A   1      41.396  28.445  27.393  1.00  0.00     0.173 A 
ATOM     70  C   UNL A   1      39.989  26.739  28.328  1.00  0.00     0.173 A 
ATOM     71  F   UNL A   1      41.993  29.644  27.466  1.00  0.00    -0.203 F 
ATOM     72  C   UNL A   1      41.538  27.691  26.230  1.00  0.00     0.198 A 
ATOM     73  C   UNL A   1      40.151  25.976  27.173  1.00  0.00     0.198 A 
ATOM     74  F   UNL A   1      39.231  26.257  29.324  1.00  0.00    -0.203 F 
ATOM     75  F   UNL A   1      42.260  28.170  25.208  1.00  0.00    -0.200 F 
ATOM     76  C   UNL A   1      40.919  26.455  26.123  1.00  0.00     0.200 A 
ATOM     77  F   UNL A   1      39.561  24.776  27.077  1.00  0.00    -0.200 F 
ATOM     78  F   UNL A   1      41.055  25.731  25.004  1.00  0.00    -0.200 F 
ENDBRANCH  44  68
BRANCH  56  79
ATOM     79  C   UNL A   1      43.880  28.169  34.602  1.00  0.00     0.064 A 
ATOM     80  C   UNL A   1      45.216  28.581  34.496  1.00  0.00     0.173 A 
ATOM     81  C   UNL A   1      43.606  26.986  35.305  1.00  0.00     0.173 A 
ATOM     82  F   UNL A   1      45.525  29.697  33.820  1.00  0.00    -0.203 F 
ATOM     83  C   UNL A   1      46.241  27.827  35.059  1.00  0.00     0.198 A 
ATOM     84  C   UNL A   1      44.632  26.247  35.886  1.00  0.00     0.198 A 
ATOM     85  F   UNL A   1      42.342  26.554  35.436  1.00  0.00    -0.203 F 
ATOM     86  F   UNL A   1      47.514  28.218  34.915  1.00  0.00    -0.200 F 
ATOM     87  C   UNL A   1      45.948  26.665  35.759  1.00  0.00     0.200 A 
ATOM     88  F   UNL A   1      44.346  25.130  36.570  1.00  0.00    -0.200 F 
ATOM     89  F   UNL A   1      46.936  25.944  36.305  1.00  0.00    -0.200 F 
ENDBRANCH  56  79
ENDBRANCH  30  31
ENDBRANCH  22  25
ENDBRANCH  20  21
ENDBRANCH  19  20
ENDBRANCH   1  19
TORSDOF 14
ENDMDL
MODEL 3
REMARK VINA RESULT:     -11.5      0.879      7.710
REMARK SMILES CC(C)([NH2+]C[C@@H]1CCCO1)C(=O)NCCCCNC(=O)c1ccc(-c2c3nc(c(-c4c(F)c(F)c(F)c(F)c4F)c4ccc([nH]4)c(-c4c(F)c(F)c(F)c(F)c4F)c4nc(c(-c5c(F)c(F)c(F)c(F)c5F)c5ccc2[nH]5)C=C4)C=C3)cc1
REMARK SMILES IDX 15 1 14 2 13 3 11 4 12 5 2 7 1 8 3 9 4 10 5 13 6 14 7 15
REMARK SMILES IDX 10 16 8 17 9 18 16 19 17 20 18 21 19 22 20 24 21 25 22 26
REMARK SMILES IDX 83 27 23 28 82 29 24 30 25 31 26 32 76 33 27 34 81 35 75 36
REMARK SMILES IDX 77 37 28 38 80 39 74 40 73 41 29 43 61 44 41 45 60 46 42 47
REMARK SMILES IDX 45 48 59 49 78 50 43 51 44 52 58 54 79 55 46 56 30 57 31 58
REMARK SMILES IDX 39 59 32 60 33 61 37 62 40 63 34 64 35 65 38 66 36 67 62 68
REMARK SMILES IDX 63 69 71 70 64 71 65 72 69 73 72 74 66 75 67 76 70 77 68 78
REMARK SMILES IDX 47 79 48 80 56 81 49 82 50 83 54 84 57 85 51 86 52 87 55 88
REMARK SMILES IDX 53 89
REMARK H PARENT 13 6 4 11 4 12 18 23 77 42 45 53
REMARK Flexibility Score: inf
ROOT
ATOM      1  C   UNL A   1      32.249  30.093  26.878  1.00  0.00     0.023 C 
ENDROOT
BRANCH   1   2
ATOM      2  C   UNL A   1      33.610  29.730  26.278  1.00  0.00     0.116 C 
BRANCH   2   3
ATOM      3  N   UNL A   1      33.839  28.305  26.349  1.00  0.00    -0.351 N 
ATOM      4  C   UNL A   1      33.603  27.277  25.487  1.00  0.00     0.280 C 
ATOM      5  O   UNL A   1      33.803  26.160  25.985  1.00  0.00    -0.268 OA
ATOM      6  H   UNL A   1      34.251  28.018  27.195  1.00  0.00     0.163 HD
BRANCH   4   7
ATOM      7  C   UNL A   1      33.185  27.441  23.981  1.00  0.00     0.169 C 
ATOM      8  C   UNL A   1      33.496  26.065  23.314  1.00  0.00     0.090 C 
ATOM      9  C   UNL A   1      34.053  28.456  23.225  1.00  0.00     0.090 C 
BRANCH   7  10
ATOM     10  N   UNL A   1      31.721  27.558  23.761  1.00  0.00    -0.332 N 
ATOM     11  H   UNL A   1      31.385  28.232  24.450  1.00  0.00     0.347 HD
ATOM     12  H   UNL A   1      31.424  26.584  23.820  1.00  0.00     0.347 HD
BRANCH  10  13
ATOM     13  C   UNL A   1      31.147  27.966  22.485  1.00  0.00     0.293 C 
BRANCH  13  14
ATOM     14  C   UNL A   1      30.486  29.351  22.436  1.00  0.00     0.173 C 
ATOM     15  C   UNL A   1      29.989  29.834  23.789  1.00  0.00     0.040 C 
ATOM     16  O   UNL A   1      29.326  29.350  21.585  1.00  0.00    -0.372 OA
ATOM     17  C   UNL A   1      29.016  30.906  23.365  1.00  0.00     0.031 C 
ATOM     18  C   UNL A   1      28.394  30.310  22.116  1.00  0.00     0.161 C 
ENDBRANCH  13  14
ENDBRANCH  10  13
ENDBRANCH   7  10
ENDBRANCH   4   7
ENDBRANCH   2   3
ENDBRANCH   1   2
BRANCH   1  19
ATOM     19  C   UNL A   1      31.898  31.574  26.821  1.00  0.00     0.023 C 
BRANCH  19  20
ATOM     20  C   UNL A   1      32.932  32.502  27.441  1.00  0.00     0.116 C 
BRANCH  20  21
ATOM     21  N   UNL A   1      32.458  33.864  27.651  1.00  0.00    -0.352 N 
ATOM     22  C   UNL A   1      32.952  34.813  28.518  1.00  0.00     0.251 C 
ATOM     23  H   UNL A   1      31.687  34.141  27.104  1.00  0.00     0.163 HD
ATOM     24  O   UNL A   1      32.411  35.902  28.636  1.00  0.00    -0.269 OA
BRANCH  22  25
ATOM     25  C   UNL A   1      34.124  34.465  29.346  1.00  0.00     0.039 A 
ATOM     26  C   UNL A   1      33.916  33.915  30.613  1.00  0.00     0.014 A 
ATOM     27  C   UNL A   1      35.414  34.585  28.823  1.00  0.00     0.014 A 
ATOM     28  C   UNL A   1      35.001  33.397  31.320  1.00  0.00     0.010 A 
ATOM     29  C   UNL A   1      36.478  33.994  29.492  1.00  0.00     0.010 A 
ATOM     30  C   UNL A   1      36.281  33.388  30.742  1.00  0.00    -0.014 A 
BRANCH  30  31
ATOM     31  C   UNL A   1      37.434  32.746  31.420  1.00  0.00     0.031 A 
ATOM     32  C   UNL A   1      38.149  31.606  30.753  1.00  0.00     0.074 A 
ATOM     33  C   UNL A   1      37.776  33.127  32.665  1.00  0.00     0.049 A 
ATOM     34  N   UNL A   1      39.102  30.839  31.220  1.00  0.00    -0.248 NA
ATOM     35  C   UNL A   1      37.707  31.256  29.393  1.00  0.00     0.031 C 
ATOM     36  C   UNL A   1      37.118  34.179  33.444  1.00  0.00     0.029 A 
ATOM     37  N   UNL A   1      38.760  32.662  33.503  1.00  0.00    -0.354 N 
ATOM     38  C   UNL A   1      39.350  29.904  30.224  1.00  0.00     0.074 A 
ATOM     39  C   UNL A   1      38.417  30.165  29.151  1.00  0.00     0.031 C 
ATOM     40  C   UNL A   1      37.730  34.294  34.634  1.00  0.00     0.029 A 
ATOM     41  C   UNL A   1      38.801  33.306  34.716  1.00  0.00     0.049 A 
ATOM     42  H   UNL A   1      39.376  31.935  33.259  1.00  0.00     0.167 HD
ATOM     43  C   UNL A   1      40.290  28.930  30.198  1.00  0.00     0.037 A 
ATOM     44  C   UNL A   1      39.612  33.115  35.774  1.00  0.00     0.037 A 
ATOM     45  C   UNL A   1      41.249  28.703  31.245  1.00  0.00     0.049 A 
ATOM     46  C   UNL A   1      40.674  32.053  35.702  1.00  0.00     0.074 A 
ATOM     47  C   UNL A   1      42.287  27.790  31.283  1.00  0.00     0.029 A 
ATOM     48  N   UNL A   1      41.292  29.411  32.437  1.00  0.00    -0.354 N 
ATOM     49  N   UNL A   1      40.941  31.215  34.731  1.00  0.00    -0.248 NA
ATOM     50  C   UNL A   1      41.552  31.914  36.873  1.00  0.00     0.031 C 
ATOM     51  C   UNL A   1      42.944  27.927  32.510  1.00  0.00     0.029 A 
ATOM     52  C   UNL A   1      42.334  28.948  33.222  1.00  0.00     0.049 A 
ATOM     53  H   UNL A   1      40.673  30.133  32.689  1.00  0.00     0.167 HD
ATOM     54  C   UNL A   1      42.030  30.469  35.160  1.00  0.00     0.074 A 
ATOM     55  C   UNL A   1      42.383  30.961  36.475  1.00  0.00     0.031 C 
ATOM     56  C   UNL A   1      42.677  29.463  34.522  1.00  0.00     0.037 A 
BRANCH  43  57
ATOM     57  C   UNL A   1      40.335  28.048  28.987  1.00  0.00     0.064 A 
ATOM     58  C   UNL A   1      41.084  28.397  27.854  1.00  0.00     0.173 A 
ATOM     59  C   UNL A   1      39.637  26.831  28.965  1.00  0.00     0.173 A 
ATOM     60  F   UNL A   1      41.755  29.558  27.820  1.00  0.00    -0.203 F 
ATOM     61  C   UNL A   1      41.112  27.573  26.732  1.00  0.00     0.198 A 
ATOM     62  C   UNL A   1      39.689  25.996  27.852  1.00  0.00     0.198 A 
ATOM     63  F   UNL A   1      38.906  26.450  30.023  1.00  0.00    -0.203 F 
ATOM     64  F   UNL A   1      41.795  27.951  25.642  1.00  0.00    -0.200 F 
ATOM     65  C   UNL A   1      40.420  26.371  26.735  1.00  0.00     0.200 A 
ATOM     66  F   UNL A   1      39.027  24.831  27.857  1.00  0.00    -0.200 F 
ATOM     67  F   UNL A   1      40.451  25.578  25.654  1.00  0.00    -0.200 F 
ENDBRANCH  43  57
BRANCH  44  68
ATOM     68  C   UNL A   1      39.478  33.974  36.978  1.00  0.00     0.064 A 
ATOM     69  C   UNL A   1      40.089  35.235  37.028  1.00  0.00     0.173 A 
ATOM     70  C   UNL A   1      38.752  33.555  38.101  1.00  0.00     0.173 A 
ATOM     71  F   UNL A   1      40.812  35.670  35.984  1.00  0.00    -0.203 F 
ATOM     72  C   UNL A   1      39.996  36.037  38.163  1.00  0.00     0.198 A 
ATOM     73  C   UNL A   1      38.641  34.368  39.228  1.00  0.00     0.198 A 
ATOM     74  F   UNL A   1      38.146  32.359  38.101  1.00  0.00    -0.203 F 
ATOM     75  F   UNL A   1      40.626  37.219  38.200  1.00  0.00    -0.200 F 
ATOM     76  C   UNL A   1      39.269  35.604  39.261  1.00  0.00     0.200 A 
ATOM     77  F   UNL A   1      37.927  33.951  40.284  1.00  0.00    -0.200 F 
ATOM     78  F   UNL A   1      39.180  36.374  40.354  1.00  0.00    -0.200 F 
ENDBRANCH  44  68
BRANCH  56  79
ATOM     79  C   UNL A   1      43.852  28.853  35.224  1.00  0.00     0.064 A 
ATOM     80  C   UNL A   1      45.155  29.328  35.019  1.00  0.00     0.173 A 
ATOM     81  C   UNL A   1      43.665  27.811  36.146  1.00  0.00     0.173 A 
ATOM     82  F   UNL A   1      45.382  30.312  34.136  1.00  0.00    -0.203 F 
ATOM     83  C   UNL A   1      46.233  28.770  35.700  1.00  0.00     0.198 A 
ATOM     84  C   UNL A   1      44.743  27.272  36.841  1.00  0.00     0.198 A 
ATOM     85  F   UNL A   1      42.436  27.326  36.378  1.00  0.00    -0.203 F 
ATOM     86  F   UNL A   1      47.475  29.214  35.462  1.00  0.00    -0.200 F 
ATOM     87  C   UNL A   1      46.026  27.748  36.614  1.00  0.00     0.200 A 
ATOM     88  F   UNL A   1      44.541  26.291  37.732  1.00  0.00    -0.200 F 
ATOM     89  F   UNL A   1      47.065  27.217  37.272  1.00  0.00    -0.200 F 
ENDBRANCH  56  79
ENDBRANCH  30  31
ENDBRANCH  22  25
ENDBRANCH  20  21
ENDBRANCH  19  20
ENDBRANCH   1  19
TORSDOF 14
ENDMDL
