MODEL 1
REMARK VINA RESULT:     -13.3      0.000      0.000
REMARK SMILES CCOc1ccc(-c2cc(Cl)cc3c2O[C@H](C(F)(F)F)C(C(=O)NCCCCNC(=O)c2ccc(-c4c5nc(c(-c6c(F)c(F)c(F)c(F)c6F)c6ccc([nH]6)c(-c6c(F)c(F)c(F)c(F)c6F)c6nc(c(-c7c(F)c(F)c(F)c(F)c7F)c7ccc4[nH]7)C=C6)C=C5)cc2)=C3)cc1
REMARK SMILES IDX 26 1 25 2 24 3 22 4 23 5 21 7 8 8 9 9 14 10 10 11 13 12
REMARK SMILES IDX 15 13 11 14 12 15 95 16 16 17 7 18 4 19 5 20 97 21 6 22
REMARK SMILES IDX 96 23 3 24 2 25 1 26 17 27 18 28 19 29 20 30 27 31 28 32
REMARK SMILES IDX 29 33 30 34 31 36 32 37 33 38 94 39 34 40 93 41 35 42 36 43
REMARK SMILES IDX 37 44 87 45 38 46 92 47 86 48 88 49 39 50 91 51 85 52 84 53
REMARK SMILES IDX 40 55 72 56 52 57 71 58 53 59 56 60 70 61 89 62 54 63 55 64
REMARK SMILES IDX 69 66 90 67 57 68 41 69 42 70 50 71 43 72 44 73 48 74 51 75
REMARK SMILES IDX 45 76 46 77 49 78 47 79 73 80 74 81 82 82 75 83 76 84 80 85
REMARK SMILES IDX 83 86 77 87 78 88 81 89 79 90 58 91 59 92 67 93 60 94 61 95
REMARK SMILES IDX 65 96 68 97 62 98 63 99 66 100 64 101
REMARK H PARENT 24 6 29 35 88 54 56 65
REMARK Flexibility Score: inf
ROOT
ATOM      1  C   UNL A   1      36.649  20.744  25.157  1.00  0.00     0.023 C 
ENDROOT
BRANCH   1   2
ATOM      2  C   UNL A   1      36.767  22.096  25.877  1.00  0.00     0.116 C 
BRANCH   2   3
ATOM      3  N   UNL A   1      36.490  23.167  24.945  1.00  0.00    -0.352 N 
ATOM      4  C   UNL A   1      35.426  23.370  24.137  1.00  0.00     0.251 C 
ATOM      5  O   UNL A   1      35.609  24.018  23.111  1.00  0.00    -0.270 OA
ATOM      6  H   UNL A   1      37.189  23.858  24.890  1.00  0.00     0.163 HD
BRANCH   4   7
ATOM      7  C   UNL A   1      34.075  22.905  24.576  1.00  0.00     0.067 C 
ATOM      8  C   UNL A   1      31.991  26.364  23.991  1.00  0.00     0.026 A 
ATOM      9  C   UNL A   1      32.799  27.410  24.508  1.00  0.00     0.033 A 
ATOM     10  C   UNL A   1      32.376  25.054  24.335  1.00  0.00     0.135 A 
ATOM     11  C   UNL A   1      33.786  27.188  25.464  1.00  0.00     0.042 A 
ATOM     12  C   UNL A   1      33.294  24.861  25.396  1.00  0.00     0.019 A 
ATOM     13  O   UNL A   1      31.947  23.926  23.647  1.00  0.00    -0.475 OA
ATOM     14  Cl  UNL A   1      34.740  28.503  26.026  1.00  0.00    -0.084 Cl
ATOM     15  C   UNL A   1      33.982  25.922  25.978  1.00  0.00     0.032 A 
ATOM     16  C   UNL A   1      33.679  23.472  25.734  1.00  0.00     0.025 C 
ATOM     17  C   UNL A   1      33.012  22.886  23.479  1.00  0.00     0.314 C 
BRANCH   8  18
ATOM     18  C   UNL A   1      30.710  26.813  23.378  1.00  0.00    -0.014 A 
ATOM     19  C   UNL A   1      28.329  28.332  23.053  1.00  0.00     0.119 A 
ATOM     20  C   UNL A   1      29.489  28.693  22.373  1.00  0.00     0.047 A 
ATOM     21  C   UNL A   1      28.317  27.156  23.795  1.00  0.00     0.047 A 
ATOM     22  C   UNL A   1      30.663  27.937  22.524  1.00  0.00     0.013 A 
ATOM     23  C   UNL A   1      29.494  26.402  23.952  1.00  0.00     0.013 A 
BRANCH  19  24
ATOM     24  O   UNL A   1      27.216  29.104  22.866  1.00  0.00    -0.494 OA
BRANCH  24  25
ATOM     25  C   UNL A   1      27.466  30.464  22.482  1.00  0.00     0.226 C 
ATOM     26  C   UNL A   1      27.498  31.391  23.688  1.00  0.00     0.049 C 
ENDBRANCH  24  25
ENDBRANCH  19  24
ENDBRANCH   8  18
BRANCH  17  27
ATOM     27  C   UNL A   1      32.413  21.462  23.409  1.00  0.00     0.429 C 
ATOM     28  F   UNL A   1      33.354  20.494  23.474  1.00  0.00    -0.167 F 
ATOM     29  F   UNL A   1      31.531  21.249  24.414  1.00  0.00    -0.167 F 
ATOM     30  F   UNL A   1      31.723  21.249  22.254  1.00  0.00    -0.167 F 
ENDBRANCH  17  27
ENDBRANCH   4   7
ENDBRANCH   2   3
ENDBRANCH   1   2
BRANCH   1  31
ATOM     31  C   UNL A   1      37.982  20.051  24.835  1.00  0.00     0.023 C 
BRANCH  31  32
ATOM     32  C   UNL A   1      39.104  20.313  25.833  1.00  0.00     0.116 C 
BRANCH  32  33
ATOM     33  N   UNL A   1      40.044  19.205  25.896  1.00  0.00    -0.352 N 
ATOM     34  C   UNL A   1      41.407  19.224  26.059  1.00  0.00     0.251 C 
ATOM     35  H   UNL A   1      39.644  18.310  25.811  1.00  0.00     0.163 HD
ATOM     36  O   UNL A   1      42.062  18.198  25.886  1.00  0.00    -0.269 OA
BRANCH  34  37
ATOM     37  C   UNL A   1      42.096  20.484  26.408  1.00  0.00     0.039 A 
ATOM     38  C   UNL A   1      42.566  21.303  25.378  1.00  0.00     0.014 A 
ATOM     39  C   UNL A   1      42.269  20.866  27.741  1.00  0.00     0.014 A 
ATOM     40  C   UNL A   1      43.126  22.547  25.681  1.00  0.00     0.010 A 
ATOM     41  C   UNL A   1      42.764  22.135  28.040  1.00  0.00     0.010 A 
ATOM     42  C   UNL A   1      43.178  22.995  27.011  1.00  0.00    -0.014 A 
BRANCH  42  43
ATOM     43  C   UNL A   1      43.594  24.386  27.336  1.00  0.00     0.031 A 
ATOM     44  C   UNL A   1      42.594  25.395  27.820  1.00  0.00     0.074 A 
ATOM     45  C   UNL A   1      44.869  24.758  27.104  1.00  0.00     0.049 A 
ATOM     46  N   UNL A   1      42.761  26.670  28.068  1.00  0.00    -0.248 NA
ATOM     47  C   UNL A   1      41.218  24.918  28.034  1.00  0.00     0.031 C 
ATOM     48  C   UNL A   1      45.922  23.885  26.582  1.00  0.00     0.029 A 
ATOM     49  N   UNL A   1      45.495  25.972  27.258  1.00  0.00    -0.354 N 
ATOM     50  C   UNL A   1      41.515  27.149  28.452  1.00  0.00     0.074 A 
ATOM     51  C   UNL A   1      40.591  26.038  28.367  1.00  0.00     0.031 C 
ATOM     52  C   UNL A   1      47.061  24.585  26.466  1.00  0.00     0.029 A 
ATOM     53  C   UNL A   1      46.811  25.967  26.861  1.00  0.00     0.049 A 
ATOM     54  H   UNL A   1      45.044  26.768  27.618  1.00  0.00     0.167 HD
ATOM     55  C   UNL A   1      41.179  28.399  28.850  1.00  0.00     0.037 A 
ATOM     56  C   UNL A   1      47.710  26.968  26.796  1.00  0.00     0.037 A 
ATOM     57  C   UNL A   1      42.108  29.495  28.957  1.00  0.00     0.049 A 
ATOM     58  C   UNL A   1      47.302  28.350  27.231  1.00  0.00     0.074 A 
ATOM     59  C   UNL A   1      41.883  30.770  29.446  1.00  0.00     0.029 A 
ATOM     60  N   UNL A   1      43.435  29.450  28.555  1.00  0.00    -0.354 N 
ATOM     61  N   UNL A   1      46.146  28.765  27.688  1.00  0.00    -0.248 NA
ATOM     62  C   UNL A   1      48.323  29.404  27.139  1.00  0.00     0.031 C 
ATOM     63  C   UNL A   1      43.052  31.517  29.279  1.00  0.00     0.029 A 
ATOM     64  C   UNL A   1      44.026  30.691  28.741  1.00  0.00     0.049 A 
ATOM     65  H   UNL A   1      43.890  28.657  28.193  1.00  0.00     0.167 HD
ATOM     66  C   UNL A   1      46.304  30.119  27.951  1.00  0.00     0.074 A 
ATOM     67  C   UNL A   1      47.676  30.450  27.631  1.00  0.00     0.031 C 
ATOM     68  C   UNL A   1      45.391  31.009  28.411  1.00  0.00     0.037 A 
BRANCH  55  69
ATOM     69  C   UNL A   1      39.745  28.666  29.204  1.00  0.00     0.064 A 
ATOM     70  C   UNL A   1      39.248  28.437  30.496  1.00  0.00     0.173 A 
ATOM     71  C   UNL A   1      38.876  29.234  28.259  1.00  0.00     0.173 A 
ATOM     72  F   UNL A   1      40.035  27.891  31.435  1.00  0.00    -0.203 F 
ATOM     73  C   UNL A   1      37.932  28.752  30.824  1.00  0.00     0.198 A 
ATOM     74  C   UNL A   1      37.569  29.573  28.598  1.00  0.00     0.198 A 
ATOM     75  F   UNL A   1      39.302  29.481  27.011  1.00  0.00    -0.203 F 
ATOM     76  F   UNL A   1      37.470  28.494  32.055  1.00  0.00    -0.200 F 
ATOM     77  C   UNL A   1      37.097  29.329  29.877  1.00  0.00     0.200 A 
ATOM     78  F   UNL A   1      36.769  30.145  27.687  1.00  0.00    -0.200 F 
ATOM     79  F   UNL A   1      35.836  29.647  30.200  1.00  0.00    -0.200 F 
ENDBRANCH  55  69
BRANCH  56  80
ATOM     80  C   UNL A   1      49.080  26.708  26.281  1.00  0.00     0.064 A 
ATOM     81  C   UNL A   1      49.408  26.948  24.938  1.00  0.00     0.173 A 
ATOM     82  C   UNL A   1      50.086  26.192  27.112  1.00  0.00     0.173 A 
ATOM     83  F   UNL A   1      48.477  27.421  24.097  1.00  0.00    -0.203 F 
ATOM     84  C   UNL A   1      50.677  26.658  24.443  1.00  0.00     0.198 A 
ATOM     85  C   UNL A   1      51.364  25.933  26.624  1.00  0.00     0.198 A 
ATOM     86  F   UNL A   1      49.828  25.947  28.406  1.00  0.00    -0.203 F 
ATOM     87  F   UNL A   1      50.946  26.843  23.144  1.00  0.00    -0.200 F 
ATOM     88  C   UNL A   1      51.656  26.155  25.288  1.00  0.00     0.200 A 
ATOM     89  F   UNL A   1      52.311  25.464  27.448  1.00  0.00    -0.200 F 
ATOM     90  F   UNL A   1      52.877  25.875  24.811  1.00  0.00    -0.200 F 
ENDBRANCH  56  80
BRANCH  68  91
ATOM     91  C   UNL A   1      45.845  32.428  28.597  1.00  0.00     0.064 A 
ATOM     92  C   UNL A   1      45.720  33.377  27.571  1.00  0.00     0.173 A 
ATOM     93  C   UNL A   1      46.368  32.855  29.827  1.00  0.00     0.173 A 
ATOM     94  F   UNL A   1      45.242  33.015  26.371  1.00  0.00    -0.203 F 
ATOM     95  C   UNL A   1      46.121  34.697  27.764  1.00  0.00     0.198 A 
ATOM     96  C   UNL A   1      46.737  34.183  30.027  1.00  0.00     0.198 A 
ATOM     97  F   UNL A   1      46.504  31.989  30.842  1.00  0.00    -0.203 F 
ATOM     98  F   UNL A   1      46.034  35.575  26.755  1.00  0.00    -0.200 F 
ATOM     99  C   UNL A   1      46.619  35.100  28.994  1.00  0.00     0.200 A 
ATOM    100  F   UNL A   1      47.204  34.575  31.219  1.00  0.00    -0.200 F 
ATOM    101  F   UNL A   1      46.993  36.374  29.181  1.00  0.00    -0.200 F 
ENDBRANCH  68  91
ENDBRANCH  42  43
ENDBRANCH  34  37
ENDBRANCH  32  33
ENDBRANCH  31  32
ENDBRANCH   1  31
TORSDOF 15
ENDMDL
MODEL 2
REMARK VINA RESULT:     -12.8      1.866      2.605
REMARK SMILES CCOc1ccc(-c2cc(Cl)cc3c2O[C@H](C(F)(F)F)C(C(=O)NCCCCNC(=O)c2ccc(-c4c5nc(c(-c6c(F)c(F)c(F)c(F)c6F)c6ccc([nH]6)c(-c6c(F)c(F)c(F)c(F)c6F)c6nc(c(-c7c(F)c(F)c(F)c(F)c7F)c7ccc4[nH]7)C=C6)C=C5)cc2)=C3)cc1
REMARK SMILES IDX 26 1 25 2 24 3 22 4 23 5 21 7 8 8 9 9 14 10 10 11 13 12
REMARK SMILES IDX 15 13 11 14 12 15 95 16 16 17 7 18 4 19 5 20 97 21 6 22
REMARK SMILES IDX 96 23 3 24 2 25 1 26 17 27 18 28 19 29 20 30 27 31 28 32
REMARK SMILES IDX 29 33 30 34 31 36 32 37 33 38 94 39 34 40 93 41 35 42 36 43
REMARK SMILES IDX 37 44 87 45 38 46 92 47 86 48 88 49 39 50 91 51 85 52 84 53
REMARK SMILES IDX 40 55 72 56 52 57 71 58 53 59 56 60 70 61 89 62 54 63 55 64
REMARK SMILES IDX 69 66 90 67 57 68 41 69 42 70 50 71 43 72 44 73 48 74 51 75
REMARK SMILES IDX 45 76 46 77 49 78 47 79 73 80 74 81 82 82 75 83 76 84 80 85
REMARK SMILES IDX 83 86 77 87 78 88 81 89 79 90 58 91 59 92 67 93 60 94 61 95
REMARK SMILES IDX 65 96 68 97 62 98 63 99 66 100 64 101
REMARK H PARENT 24 6 29 35 88 54 56 65
REMARK Flexibility Score: inf
ROOT
ATOM      1  C   UNL A   1      36.774  20.617  25.115  1.00  0.00     0.023 C 
ENDROOT
BRANCH   1   2
ATOM      2  C   UNL A   1      35.546  19.710  24.946  1.00  0.00     0.116 C 
BRANCH   2   3
ATOM      3  N   UNL A   1      34.482  20.170  25.811  1.00  0.00    -0.352 N 
ATOM      4  C   UNL A   1      33.879  21.377  25.889  1.00  0.00     0.251 C 
ATOM      5  O   UNL A   1      33.392  21.698  26.969  1.00  0.00    -0.270 OA
ATOM      6  H   UNL A   1      34.143  19.497  26.444  1.00  0.00     0.163 HD
BRANCH   4   7
ATOM      7  C   UNL A   1      33.732  22.204  24.653  1.00  0.00     0.067 C 
ATOM      8  C   UNL A   1      31.163  25.034  26.081  1.00  0.00     0.026 A 
ATOM      9  C   UNL A   1      30.176  24.339  26.826  1.00  0.00     0.033 A 
ATOM     10  C   UNL A   1      31.993  24.245  25.261  1.00  0.00     0.135 A 
ATOM     11  C   UNL A   1      29.892  22.992  26.616  1.00  0.00     0.042 A 
ATOM     12  C   UNL A   1      31.610  22.913  24.970  1.00  0.00     0.019 A 
ATOM     13  O   UNL A   1      33.212  24.684  24.761  1.00  0.00    -0.475 OA
ATOM     14  Cl  UNL A   1      28.697  22.212  27.573  1.00  0.00    -0.084 Cl
ATOM     15  C   UNL A   1      30.550  22.292  25.625  1.00  0.00     0.032 A 
ATOM     16  C   UNL A   1      32.503  22.110  24.105  1.00  0.00     0.025 C 
ATOM     17  C   UNL A   1      34.274  23.628  24.761  1.00  0.00     0.314 C 
BRANCH   8  18
ATOM     18  C   UNL A   1      31.010  26.515  26.076  1.00  0.00    -0.014 A 
ATOM     19  C   UNL A   1      31.780  29.249  25.948  1.00  0.00     0.119 A 
ATOM     20  C   UNL A   1      31.350  28.588  24.801  1.00  0.00     0.047 A 
ATOM     21  C   UNL A   1      31.716  28.593  27.172  1.00  0.00     0.047 A 
ATOM     22  C   UNL A   1      30.957  27.241  24.865  1.00  0.00     0.013 A 
ATOM     23  C   UNL A   1      31.330  27.242  27.236  1.00  0.00     0.013 A 
BRANCH  19  24
ATOM     24  O   UNL A   1      32.148  30.560  25.826  1.00  0.00    -0.494 OA
BRANCH  24  25
ATOM     25  C   UNL A   1      32.309  31.273  27.062  1.00  0.00     0.226 C 
ATOM     26  C   UNL A   1      33.766  31.316  27.498  1.00  0.00     0.049 C 
ENDBRANCH  24  25
ENDBRANCH  19  24
ENDBRANCH   8  18
BRANCH  17  27
ATOM     27  C   UNL A   1      35.296  23.846  23.620  1.00  0.00     0.429 C 
ATOM     28  F   UNL A   1      36.534  24.139  24.075  1.00  0.00    -0.167 F 
ATOM     29  F   UNL A   1      35.394  22.749  22.832  1.00  0.00    -0.167 F 
ATOM     30  F   UNL A   1      34.938  24.868  22.795  1.00  0.00    -0.167 F 
ENDBRANCH  17  27
ENDBRANCH   4   7
ENDBRANCH   2   3
ENDBRANCH   1   2
BRANCH   1  31
ATOM     31  C   UNL A   1      38.126  19.961  24.793  1.00  0.00     0.023 C 
BRANCH  31  32
ATOM     32  C   UNL A   1      39.239  20.249  25.794  1.00  0.00     0.116 C 
BRANCH  32  33
ATOM     33  N   UNL A   1      40.186  19.150  25.886  1.00  0.00    -0.352 N 
ATOM     34  C   UNL A   1      41.543  19.181  26.090  1.00  0.00     0.251 C 
ATOM     35  H   UNL A   1      39.796  18.251  25.788  1.00  0.00     0.163 HD
ATOM     36  O   UNL A   1      42.212  18.161  25.937  1.00  0.00    -0.269 OA
BRANCH  34  37
ATOM     37  C   UNL A   1      42.210  20.447  26.460  1.00  0.00     0.039 A 
ATOM     38  C   UNL A   1      42.818  21.207  25.457  1.00  0.00     0.014 A 
ATOM     39  C   UNL A   1      42.228  20.892  27.785  1.00  0.00     0.014 A 
ATOM     40  C   UNL A   1      43.361  22.456  25.767  1.00  0.00     0.010 A 
ATOM     41  C   UNL A   1      42.709  22.166  28.081  1.00  0.00     0.010 A 
ATOM     42  C   UNL A   1      43.261  22.969  27.071  1.00  0.00    -0.014 A 
BRANCH  42  43
ATOM     43  C   UNL A   1      43.662  24.368  27.378  1.00  0.00     0.031 A 
ATOM     44  C   UNL A   1      42.648  25.379  27.827  1.00  0.00     0.074 A 
ATOM     45  C   UNL A   1      44.940  24.744  27.161  1.00  0.00     0.049 A 
ATOM     46  N   UNL A   1      42.803  26.659  28.054  1.00  0.00    -0.248 NA
ATOM     47  C   UNL A   1      41.272  24.896  28.025  1.00  0.00     0.031 C 
ATOM     48  C   UNL A   1      46.007  23.869  26.673  1.00  0.00     0.029 A 
ATOM     49  N   UNL A   1      45.555  25.965  27.303  1.00  0.00    -0.354 N 
ATOM     50  C   UNL A   1      41.548  27.137  28.408  1.00  0.00     0.074 A 
ATOM     51  C   UNL A   1      40.633  26.018  28.328  1.00  0.00     0.031 C 
ATOM     52  C   UNL A   1      47.143  24.574  26.563  1.00  0.00     0.029 A 
ATOM     53  C   UNL A   1      46.877  25.962  26.928  1.00  0.00     0.049 A 
ATOM     54  H   UNL A   1      45.093  26.765  27.641  1.00  0.00     0.167 HD
ATOM     55  C   UNL A   1      41.197  28.392  28.779  1.00  0.00     0.037 A 
ATOM     56  C   UNL A   1      47.771  26.968  26.861  1.00  0.00     0.037 A 
ATOM     57  C   UNL A   1      42.117  29.495  28.881  1.00  0.00     0.049 A 
ATOM     58  C   UNL A   1      47.347  28.354  27.264  1.00  0.00     0.074 A 
ATOM     59  C   UNL A   1      41.875  30.777  29.343  1.00  0.00     0.029 A 
ATOM     60  N   UNL A   1      43.451  29.452  28.503  1.00  0.00    -0.354 N 
ATOM     61  N   UNL A   1      46.181  28.769  27.694  1.00  0.00    -0.248 NA
ATOM     62  C   UNL A   1      48.362  29.413  27.170  1.00  0.00     0.031 C 
ATOM     63  C   UNL A   1      43.043  31.529  29.183  1.00  0.00     0.029 A 
ATOM     64  C   UNL A   1      44.031  30.700  28.677  1.00  0.00     0.049 A 
ATOM     65  H   UNL A   1      43.917  28.655  28.162  1.00  0.00     0.167 HD
ATOM     66  C   UNL A   1      46.325  30.129  27.936  1.00  0.00     0.074 A 
ATOM     67  C   UNL A   1      47.700  30.464  27.633  1.00  0.00     0.031 C 
ATOM     68  C   UNL A   1      45.399  31.021  28.363  1.00  0.00     0.037 A 
BRANCH  55  69
ATOM     69  C   UNL A   1      39.756  28.655  29.103  1.00  0.00     0.064 A 
ATOM     70  C   UNL A   1      39.241  28.458  30.394  1.00  0.00     0.173 A 
ATOM     71  C   UNL A   1      38.896  29.189  28.130  1.00  0.00     0.173 A 
ATOM     72  F   UNL A   1      40.018  27.945  31.359  1.00  0.00    -0.203 F 
ATOM     73  C   UNL A   1      37.917  28.769  30.693  1.00  0.00     0.198 A 
ATOM     74  C   UNL A   1      37.581  29.526  28.439  1.00  0.00     0.198 A 
ATOM     75  F   UNL A   1      39.339  29.405  26.882  1.00  0.00    -0.203 F 
ATOM     76  F   UNL A   1      37.438  28.541  31.924  1.00  0.00    -0.200 F 
ATOM     77  C   UNL A   1      37.092  29.312  29.718  1.00  0.00     0.200 A 
ATOM     78  F   UNL A   1      36.791  30.064  27.501  1.00  0.00    -0.200 F 
ATOM     79  F   UNL A   1      35.824  29.628  30.013  1.00  0.00    -0.200 F 
ENDBRANCH  55  69
BRANCH  56  80
ATOM     80  C   UNL A   1      49.152  26.707  26.374  1.00  0.00     0.064 A 
ATOM     81  C   UNL A   1      49.497  26.913  25.030  1.00  0.00     0.173 A 
ATOM     82  C   UNL A   1      50.149  26.225  27.234  1.00  0.00     0.173 A 
ATOM     83  F   UNL A   1      48.574  27.352  24.162  1.00  0.00    -0.203 F 
ATOM     84  C   UNL A   1      50.777  26.622  24.562  1.00  0.00     0.198 A 
ATOM     85  C   UNL A   1      51.438  25.966  26.773  1.00  0.00     0.198 A 
ATOM     86  F   UNL A   1      49.874  26.014  28.530  1.00  0.00    -0.203 F 
ATOM     87  F   UNL A   1      51.063  26.774  23.262  1.00  0.00    -0.200 F 
ATOM     88  C   UNL A   1      51.747  26.154  25.435  1.00  0.00     0.200 A 
ATOM     89  F   UNL A   1      52.377  25.531  27.623  1.00  0.00    -0.200 F 
ATOM     90  F   UNL A   1      52.978  25.874  24.985  1.00  0.00    -0.200 F 
ENDBRANCH  56  80
BRANCH  68  91
ATOM     91  C   UNL A   1      45.841  32.446  28.532  1.00  0.00     0.064 A 
ATOM     92  C   UNL A   1      46.415  32.898  29.730  1.00  0.00     0.173 A 
ATOM     93  C   UNL A   1      45.735  33.358  27.470  1.00  0.00     0.173 A 
ATOM     94  F   UNL A   1      46.523  32.070  30.781  1.00  0.00    -0.203 F 
ATOM     95  C   UNL A   1      46.846  34.215  29.866  1.00  0.00     0.198 A 
ATOM     96  C   UNL A   1      46.196  34.665  27.599  1.00  0.00     0.198 A 
ATOM     97  F   UNL A   1      45.199  32.975  26.302  1.00  0.00    -0.203 F 
ATOM     98  F   UNL A   1      47.349  34.635  31.035  1.00  0.00    -0.200 F 
ATOM     99  C   UNL A   1      46.745  35.094  28.798  1.00  0.00     0.200 A 
ATOM    100  F   UNL A   1      46.113  35.508  26.562  1.00  0.00    -0.200 F 
ATOM    101  F   UNL A   1      47.172  36.358  28.927  1.00  0.00    -0.200 F 
ENDBRANCH  68  91
ENDBRANCH  42  43
ENDBRANCH  34  37
ENDBRANCH  32  33
ENDBRANCH  31  32
ENDBRANCH   1  31
TORSDOF 15
ENDMDL
MODEL 3
REMARK VINA RESULT:     -12.3      2.059      7.417
REMARK SMILES CCOc1ccc(-c2cc(Cl)cc3c2O[C@H](C(F)(F)F)C(C(=O)NCCCCNC(=O)c2ccc(-c4c5nc(c(-c6c(F)c(F)c(F)c(F)c6F)c6ccc([nH]6)c(-c6c(F)c(F)c(F)c(F)c6F)c6nc(c(-c7c(F)c(F)c(F)c(F)c7F)c7ccc4[nH]7)C=C6)C=C5)cc2)=C3)cc1
REMARK SMILES IDX 26 1 25 2 24 3 22 4 23 5 21 7 8 8 9 9 14 10 10 11 13 12
REMARK SMILES IDX 15 13 11 14 12 15 95 16 16 17 7 18 4 19 5 20 97 21 6 22
REMARK SMILES IDX 96 23 3 24 2 25 1 26 17 27 18 28 19 29 20 30 27 31 28 32
REMARK SMILES IDX 29 33 30 34 31 36 32 37 33 38 94 39 34 40 93 41 35 42 36 43
REMARK SMILES IDX 37 44 87 45 38 46 92 47 86 48 88 49 39 50 91 51 85 52 84 53
REMARK SMILES IDX 40 55 72 56 52 57 71 58 53 59 56 60 70 61 89 62 54 63 55 64
REMARK SMILES IDX 69 66 90 67 57 68 41 69 42 70 50 71 43 72 44 73 48 74 51 75
REMARK SMILES IDX 45 76 46 77 49 78 47 79 73 80 74 81 82 82 75 83 76 84 80 85
REMARK SMILES IDX 83 86 77 87 78 88 81 89 79 90 58 91 59 92 67 93 60 94 61 95
REMARK SMILES IDX 65 96 68 97 62 98 63 99 66 100 64 101
REMARK H PARENT 24 6 29 35 88 54 56 65
REMARK Flexibility Score: inf
ROOT
ATOM      1  C   UNL A   1      36.872  20.652  25.201  1.00  0.00     0.023 C 
ENDROOT
BRANCH   1   2
ATOM      2  C   UNL A   1      35.674  19.732  24.919  1.00  0.00     0.116 C 
BRANCH   2   3
ATOM      3  N   UNL A   1      34.556  20.125  25.747  1.00  0.00    -0.352 N 
ATOM      4  C   UNL A   1      33.909  21.308  25.840  1.00  0.00     0.251 C 
ATOM      5  O   UNL A   1      33.361  21.573  26.906  1.00  0.00    -0.270 OA
ATOM      6  H   UNL A   1      34.210  19.418  26.338  1.00  0.00     0.163 HD
BRANCH   4   7
ATOM      7  C   UNL A   1      33.793  22.176  24.628  1.00  0.00     0.067 C 
ATOM      8  C   UNL A   1      31.300  25.036  26.131  1.00  0.00     0.026 A 
ATOM      9  C   UNL A   1      30.289  24.348  26.850  1.00  0.00     0.033 A 
ATOM     10  C   UNL A   1      32.111  24.248  25.291  1.00  0.00     0.135 A 
ATOM     11  C   UNL A   1      29.968  23.016  26.598  1.00  0.00     0.042 A 
ATOM     12  C   UNL A   1      31.691  22.938  24.958  1.00  0.00     0.019 A 
ATOM     13  O   UNL A   1      33.345  24.667  24.810  1.00  0.00    -0.475 OA
ATOM     14  Cl  UNL A   1      28.745  22.243  27.526  1.00  0.00    -0.084 Cl
ATOM     15  C   UNL A   1      30.610  22.328  25.588  1.00  0.00     0.032 A 
ATOM     16  C   UNL A   1      32.565  22.135  24.073  1.00  0.00     0.025 C 
ATOM     17  C   UNL A   1      34.376  23.580  24.782  1.00  0.00     0.314 C 
BRANCH   8  18
ATOM     18  C   UNL A   1      31.190  26.520  26.170  1.00  0.00    -0.014 A 
ATOM     19  C   UNL A   1      32.046  29.229  26.285  1.00  0.00     0.119 A 
ATOM     20  C   UNL A   1      31.777  28.631  25.058  1.00  0.00     0.047 A 
ATOM     21  C   UNL A   1      31.777  28.526  27.455  1.00  0.00     0.047 A 
ATOM     22  C   UNL A   1      31.343  27.296  25.000  1.00  0.00     0.013 A 
ATOM     23  C   UNL A   1      31.349  27.188  27.398  1.00  0.00     0.013 A 
BRANCH  19  24
ATOM     24  O   UNL A   1      32.463  30.531  26.281  1.00  0.00    -0.494 OA
BRANCH  24  25
ATOM     25  C   UNL A   1      33.643  30.804  27.053  1.00  0.00     0.226 C 
ATOM     26  C   UNL A   1      33.532  32.125  27.799  1.00  0.00     0.049 C 
ENDBRANCH  24  25
ENDBRANCH  19  24
ENDBRANCH   8  18
BRANCH  17  27
ATOM     27  C   UNL A   1      35.409  23.802  23.653  1.00  0.00     0.429 C 
ATOM     28  F   UNL A   1      35.072  24.816  22.826  1.00  0.00    -0.167 F 
ATOM     29  F   UNL A   1      36.637  24.071  24.156  1.00  0.00    -0.167 F 
ATOM     30  F   UNL A   1      35.560  22.701  22.867  1.00  0.00    -0.167 F 
ENDBRANCH  17  27
ENDBRANCH   4   7
ENDBRANCH   2   3
ENDBRANCH   1   2
BRANCH   1  31
ATOM     31  C   UNL A   1      38.252  20.045  24.905  1.00  0.00     0.023 C 
BRANCH  31  32
ATOM     32  C   UNL A   1      39.295  20.249  25.997  1.00  0.00     0.116 C 
BRANCH  32  33
ATOM     33  N   UNL A   1      40.312  19.208  25.979  1.00  0.00    -0.352 N 
ATOM     34  C   UNL A   1      41.677  19.319  26.081  1.00  0.00     0.251 C 
ATOM     35  H   UNL A   1      39.971  18.291  25.880  1.00  0.00     0.163 HD
ATOM     36  O   UNL A   1      42.392  18.348  25.843  1.00  0.00    -0.269 OA
BRANCH  34  37
ATOM     37  C   UNL A   1      42.292  20.613  26.444  1.00  0.00     0.039 A 
ATOM     38  C   UNL A   1      42.807  21.422  25.427  1.00  0.00     0.014 A 
ATOM     39  C   UNL A   1      42.352  21.035  27.774  1.00  0.00     0.014 A 
ATOM     40  C   UNL A   1      43.298  22.694  25.735  1.00  0.00     0.010 A 
ATOM     41  C   UNL A   1      42.778  22.329  28.072  1.00  0.00     0.010 A 
ATOM     42  C   UNL A   1      43.235  23.178  27.053  1.00  0.00    -0.014 A 
BRANCH  42  43
ATOM     43  C   UNL A   1      43.576  24.591  27.367  1.00  0.00     0.031 A 
ATOM     44  C   UNL A   1      45.007  25.033  27.470  1.00  0.00     0.074 A 
ATOM     45  C   UNL A   1      42.581  25.457  27.648  1.00  0.00     0.049 A 
ATOM     46  N   UNL A   1      45.488  26.200  27.818  1.00  0.00    -0.248 NA
ATOM     47  C   UNL A   1      46.037  24.027  27.164  1.00  0.00     0.031 C 
ATOM     48  C   UNL A   1      41.153  25.135  27.637  1.00  0.00     0.029 A 
ATOM     49  N   UNL A   1      42.617  26.780  28.018  1.00  0.00    -0.354 N 
ATOM     50  C   UNL A   1      46.870  26.066  27.787  1.00  0.00     0.074 A 
ATOM     51  C   UNL A   1      47.153  24.694  27.424  1.00  0.00     0.031 C 
ATOM     52  C   UNL A   1      40.450  26.226  27.975  1.00  0.00     0.029 A 
ATOM     53  C   UNL A   1      41.376  27.314  28.272  1.00  0.00     0.049 A 
ATOM     54  H   UNL A   1      43.451  27.295  28.094  1.00  0.00     0.167 HD
ATOM     55  C   UNL A   1      47.813  27.008  28.026  1.00  0.00     0.037 A 
ATOM     56  C   UNL A   1      41.023  28.535  28.719  1.00  0.00     0.037 A 
ATOM     57  C   UNL A   1      47.525  28.379  28.362  1.00  0.00     0.049 A 
ATOM     58  C   UNL A   1      42.095  29.555  28.992  1.00  0.00     0.074 A 
ATOM     59  C   UNL A   1      48.412  29.430  28.525  1.00  0.00     0.029 A 
ATOM     60  N   UNL A   1      46.257  28.886  28.601  1.00  0.00    -0.354 N 
ATOM     61  N   UNL A   1      43.394  29.444  28.860  1.00  0.00    -0.248 NA
ATOM     62  C   UNL A   1      41.653  30.870  29.478  1.00  0.00     0.031 C 
ATOM     63  C   UNL A   1      47.688  30.555  28.927  1.00  0.00     0.029 A 
ATOM     64  C   UNL A   1      46.343  30.224  28.957  1.00  0.00     0.049 A 
ATOM     65  H   UNL A   1      45.420  28.374  28.528  1.00  0.00     0.167 HD
ATOM     66  C   UNL A   1      43.922  30.674  29.231  1.00  0.00     0.074 A 
ATOM     67  C   UNL A   1      42.801  31.526  29.565  1.00  0.00     0.031 C 
ATOM     68  C   UNL A   1      45.220  31.059  29.295  1.00  0.00     0.037 A 
BRANCH  55  69
ATOM     69  C   UNL A   1      49.256  26.602  27.939  1.00  0.00     0.064 A 
ATOM     70  C   UNL A   1      49.935  26.550  26.713  1.00  0.00     0.173 A 
ATOM     71  C   UNL A   1      49.989  26.337  29.106  1.00  0.00     0.173 A 
ATOM     72  F   UNL A   1      49.281  26.789  25.567  1.00  0.00    -0.203 F 
ATOM     73  C   UNL A   1      51.291  26.233  26.657  1.00  0.00     0.198 A 
ATOM     74  C   UNL A   1      51.350  26.049  29.050  1.00  0.00     0.198 A 
ATOM     75  F   UNL A   1      49.390  26.380  30.306  1.00  0.00    -0.203 F 
ATOM     76  F   UNL A   1      51.911  26.158  25.472  1.00  0.00    -0.200 F 
ATOM     77  C   UNL A   1      51.998  25.993  27.827  1.00  0.00     0.200 A 
ATOM     78  F   UNL A   1      52.035  25.832  30.181  1.00  0.00    -0.200 F 
ATOM     79  F   UNL A   1      53.306  25.707  27.772  1.00  0.00    -0.200 F 
ENDBRANCH  55  69
BRANCH  56  80
ATOM     80  C   UNL A   1      39.591  28.857  28.957  1.00  0.00     0.064 A 
ATOM     81  C   UNL A   1      38.770  29.321  27.920  1.00  0.00     0.173 A 
ATOM     82  C   UNL A   1      39.018  28.729  30.232  1.00  0.00     0.173 A 
ATOM     83  F   UNL A   1      39.275  29.481  26.688  1.00  0.00    -0.203 F 
ATOM     84  C   UNL A   1      37.441  29.670  28.153  1.00  0.00     0.198 A 
ATOM     85  C   UNL A   1      37.680  29.046  30.457  1.00  0.00     0.198 A 
ATOM     86  F   UNL A   1      39.757  28.286  31.260  1.00  0.00    -0.203 F 
ATOM     87  F   UNL A   1      36.696  30.165  27.156  1.00  0.00    -0.200 F 
ATOM     88  C   UNL A   1      36.897  29.527  29.421  1.00  0.00     0.200 A 
ATOM     89  F   UNL A   1      37.154  28.890  31.679  1.00  0.00    -0.200 F 
ATOM     90  F   UNL A   1      35.618  29.863  29.645  1.00  0.00    -0.200 F 
ENDBRANCH  56  80
BRANCH  68  91
ATOM     91  C   UNL A   1      45.500  32.465  29.742  1.00  0.00     0.064 A 
ATOM     92  C   UNL A   1      45.496  33.535  28.835  1.00  0.00     0.173 A 
ATOM     93  C   UNL A   1      45.727  32.752  31.097  1.00  0.00     0.173 A 
ATOM     94  F   UNL A   1      45.301  33.311  27.526  1.00  0.00    -0.203 F 
ATOM     95  C   UNL A   1      45.731  34.839  29.265  1.00  0.00     0.198 A 
ATOM     96  C   UNL A   1      45.929  34.060  31.528  1.00  0.00     0.198 A 
ATOM     97  F   UNL A   1      45.735  31.765  32.005  1.00  0.00    -0.203 F 
ATOM     98  F   UNL A   1      45.768  35.839  28.374  1.00  0.00    -0.200 F 
ATOM     99  C   UNL A   1      45.937  35.101  30.611  1.00  0.00     0.200 A 
ATOM    100  F   UNL A   1      46.113  34.314  32.830  1.00  0.00    -0.200 F 
ATOM    101  F   UNL A   1      46.151  36.358  31.025  1.00  0.00    -0.200 F 
ENDBRANCH  68  91
ENDBRANCH  42  43
ENDBRANCH  34  37
ENDBRANCH  32  33
ENDBRANCH  31  32
ENDBRANCH   1  31
TORSDOF 15
ENDMDL
