MODEL 1
REMARK VINA RESULT:     -13.2      0.000      0.000
REMARK SMILES C[C@H]1[C@@H](C(=O)NCCCCNC(=O)c2ccc(-c3c4nc(c(-c5c(F)c(F)c(F)c(F)c5F)c5ccc([nH]5)c(-c5c(F)c(F)c(F)c(F)c5F)c5nc(c(-c6c(F)c(F)c(F)c(F)c6F)c6ccc3[nH]6)C=C5)C=C4)cc2)CCN1C(=O)/C=C/c1cccc(F)c1
REMARK SMILES IDX 8 1 7 2 6 3 4 4 5 5 3 7 1 8 2 9 79 10 77 11 78 12 80 13
REMARK SMILES IDX 81 14 82 15 83 16 84 17 85 18 90 19 86 20 88 21 87 22 89 23
REMARK SMILES IDX 9 24 10 25 11 26 12 27 13 29 14 30 15 31 76 32 16 33 75 34
REMARK SMILES IDX 17 35 18 36 19 37 69 38 20 39 74 40 68 41 70 42 21 43 73 44
REMARK SMILES IDX 67 45 66 46 22 48 54 49 34 50 53 51 35 52 38 53 52 54 71 55
REMARK SMILES IDX 36 56 37 57 51 59 72 60 39 61 23 62 24 63 32 64 25 65 26 66
REMARK SMILES IDX 30 67 33 68 27 69 28 70 31 71 29 72 55 73 56 74 64 75 57 76
REMARK SMILES IDX 58 77 62 78 65 79 59 80 60 81 63 82 61 83 40 84 41 85 49 86
REMARK SMILES IDX 42 87 43 88 47 89 50 90 44 91 45 92 48 93 46 94
REMARK H PARENT 6 6 11 28 70 47 38 58
REMARK Flexibility Score: inf
ROOT
ATOM      1  C   UNL A   1      31.872  30.539  26.852  1.00  0.00     0.023 C 
ENDROOT
BRANCH   1   2
ATOM      2  C   UNL A   1      32.962  29.940  25.959  1.00  0.00     0.116 C 
BRANCH   2   3
ATOM      3  N   UNL A   1      32.426  29.665  24.641  1.00  0.00    -0.356 N 
ATOM      4  C   UNL A   1      31.760  28.575  24.161  1.00  0.00     0.225 C 
ATOM      5  O   UNL A   1      31.590  28.529  22.941  1.00  0.00    -0.275 OA
ATOM      6  H   UNL A   1      32.565  30.384  23.983  1.00  0.00     0.163 HD
BRANCH   4   7
ATOM      7  C   UNL A   1      31.166  27.529  25.105  1.00  0.00     0.102 C 
ATOM      8  C   UNL A   1      33.557  26.487  25.447  1.00  0.00     0.032 C 
ATOM      9  C   UNL A   1      32.102  26.584  25.892  1.00  0.00     0.094 C 
ATOM     10  N   UNL A   1      31.505  25.256  25.767  1.00  0.00    -0.336 N 
ATOM     11  C   UNL A   1      30.168  26.581  24.393  1.00  0.00     0.037 C 
ATOM     12  C   UNL A   1      30.750  25.187  24.538  1.00  0.00     0.121 C 
BRANCH  10  13
ATOM     13  C   UNL A   1      31.812  24.118  26.490  1.00  0.00     0.246 C 
ATOM     14  O   UNL A   1      31.147  23.710  27.436  1.00  0.00    -0.270 OA
BRANCH  13  15
ATOM     15  C   UNL A   1      32.932  23.280  25.977  1.00  0.00     0.072 C 
ATOM     16  C   UNL A   1      34.092  23.162  26.640  1.00  0.00     0.014 C 
BRANCH  16  17
ATOM     17  C   UNL A   1      35.328  22.541  26.128  1.00  0.00    -0.023 A 
ATOM     18  C   UNL A   1      36.442  23.369  25.905  1.00  0.00     0.008 A 
ATOM     19  C   UNL A   1      35.428  21.191  25.771  1.00  0.00     0.047 A 
ATOM     20  C   UNL A   1      37.621  22.865  25.343  1.00  0.00     0.004 A 
ATOM     21  C   UNL A   1      36.608  20.696  25.214  1.00  0.00     0.123 A 
ATOM     22  C   UNL A   1      37.703  21.521  24.995  1.00  0.00     0.039 A 
ATOM     23  F   UNL A   1      36.679  19.403  24.871  1.00  0.00    -0.207 F 
ENDBRANCH  16  17
ENDBRANCH  13  15
ENDBRANCH  10  13
ENDBRANCH   4   7
ENDBRANCH   2   3
ENDBRANCH   1   2
BRANCH   1  24
ATOM     24  C   UNL A   1      31.671  32.038  26.742  1.00  0.00     0.023 C 
BRANCH  24  25
ATOM     25  C   UNL A   1      32.783  32.859  27.357  1.00  0.00     0.116 C 
BRANCH  25  26
ATOM     26  N   UNL A   1      32.401  34.230  27.683  1.00  0.00    -0.352 N 
ATOM     27  C   UNL A   1      32.952  35.082  28.613  1.00  0.00     0.251 C 
ATOM     28  H   UNL A   1      31.645  34.595  27.168  1.00  0.00     0.163 HD
ATOM     29  O   UNL A   1      32.474  36.193  28.814  1.00  0.00    -0.269 OA
BRANCH  27  30
ATOM     30  C   UNL A   1      34.104  34.609  29.402  1.00  0.00     0.039 A 
ATOM     31  C   UNL A   1      33.880  33.985  30.629  1.00  0.00     0.014 A 
ATOM     32  C   UNL A   1      35.385  34.664  28.851  1.00  0.00     0.014 A 
ATOM     33  C   UNL A   1      34.933  33.319  31.256  1.00  0.00     0.010 A 
ATOM     34  C   UNL A   1      36.392  33.892  29.406  1.00  0.00     0.010 A 
ATOM     35  C   UNL A   1      36.180  33.217  30.618  1.00  0.00    -0.014 A 
BRANCH  35  36
ATOM     36  C   UNL A   1      37.298  32.436  31.201  1.00  0.00     0.031 A 
ATOM     37  C   UNL A   1      37.793  32.779  32.579  1.00  0.00     0.074 A 
ATOM     38  C   UNL A   1      37.928  31.501  30.463  1.00  0.00     0.049 A 
ATOM     39  N   UNL A   1      38.835  32.324  33.225  1.00  0.00    -0.248 NA
ATOM     40  C   UNL A   1      37.044  33.816  33.310  1.00  0.00     0.031 C 
ATOM     41  C   UNL A   1      37.593  31.134  29.086  1.00  0.00     0.029 A 
ATOM     42  N   UNL A   1      38.995  30.695  30.769  1.00  0.00    -0.354 N 
ATOM     43  C   UNL A   1      38.887  33.047  34.409  1.00  0.00     0.074 A 
ATOM     44  C   UNL A   1      37.816  34.017  34.365  1.00  0.00     0.031 C 
ATOM     45  C   UNL A   1      38.413  30.150  28.679  1.00  0.00     0.029 A 
ATOM     46  C   UNL A   1      39.352  29.842  29.752  1.00  0.00     0.049 A 
ATOM     47  H   UNL A   1      39.461  30.723  31.636  1.00  0.00     0.167 HD
ATOM     48  C   UNL A   1      39.727  32.891  35.457  1.00  0.00     0.037 A 
ATOM     49  C   UNL A   1      40.328  28.916  29.699  1.00  0.00     0.037 A 
ATOM     50  C   UNL A   1      40.742  31.876  35.525  1.00  0.00     0.049 A 
ATOM     51  C   UNL A   1      41.210  28.718  30.903  1.00  0.00     0.074 A 
ATOM     52  C   UNL A   1      41.589  31.570  36.573  1.00  0.00     0.029 A 
ATOM     53  N   UNL A   1      41.031  30.988  34.499  1.00  0.00    -0.354 N 
ATOM     54  N   UNL A   1      41.205  29.358  32.047  1.00  0.00    -0.248 NA
ATOM     55  C   UNL A   1      42.227  27.661  30.812  1.00  0.00     0.031 C 
ATOM     56  C   UNL A   1      42.411  30.512  36.173  1.00  0.00     0.029 A 
ATOM     57  C   UNL A   1      42.051  30.136  34.889  1.00  0.00     0.049 A 
ATOM     58  H   UNL A   1      40.579  30.966  33.625  1.00  0.00     0.167 HD
ATOM     59  C   UNL A   1      42.195  28.770  32.819  1.00  0.00     0.074 A 
ATOM     60  C   UNL A   1      42.772  27.708  32.019  1.00  0.00     0.031 C 
ATOM     61  C   UNL A   1      42.595  29.079  34.077  1.00  0.00     0.037 A 
BRANCH  48  62
ATOM     62  C   UNL A   1      39.561  33.825  36.618  1.00  0.00     0.064 A 
ATOM     63  C   UNL A   1      40.182  35.084  36.644  1.00  0.00     0.173 A 
ATOM     64  C   UNL A   1      38.769  33.463  37.717  1.00  0.00     0.173 A 
ATOM     65  F   UNL A   1      40.965  35.471  35.626  1.00  0.00    -0.203 F 
ATOM     66  C   UNL A   1      40.046  35.928  37.743  1.00  0.00     0.198 A 
ATOM     67  C   UNL A   1      38.609  34.323  38.801  1.00  0.00     0.198 A 
ATOM     68  F   UNL A   1      38.154  32.271  37.744  1.00  0.00    -0.203 F 
ATOM     69  F   UNL A   1      40.700  37.098  37.770  1.00  0.00    -0.200 F 
ATOM     70  C   UNL A   1      39.256  35.550  38.817  1.00  0.00     0.200 A 
ATOM     71  F   UNL A   1      37.838  33.960  39.834  1.00  0.00    -0.200 F 
ATOM     72  F   UNL A   1      39.126  36.364  39.873  1.00  0.00    -0.200 F 
ENDBRANCH  48  62
BRANCH  49  73
ATOM     73  C   UNL A   1      40.491  28.073  28.487  1.00  0.00     0.064 A 
ATOM     74  C   UNL A   1      39.868  26.820  28.399  1.00  0.00     0.173 A 
ATOM     75  C   UNL A   1      41.268  28.493  27.399  1.00  0.00     0.173 A 
ATOM     76  F   UNL A   1      39.130  26.368  29.423  1.00  0.00    -0.203 F 
ATOM     77  C   UNL A   1      40.032  26.010  27.277  1.00  0.00     0.198 A 
ATOM     78  C   UNL A   1      41.412  27.692  26.266  1.00  0.00     0.198 A 
ATOM     79  F   UNL A   1      41.880  29.686  27.430  1.00  0.00    -0.203 F 
ATOM     80  F   UNL A   1      39.459  24.800  27.239  1.00  0.00    -0.200 F 
ATOM     81  C   UNL A   1      40.799  26.449  26.210  1.00  0.00     0.200 A 
ATOM     82  F   UNL A   1      42.145  28.125  25.231  1.00  0.00    -0.200 F 
ATOM     83  F   UNL A   1      40.957  25.671  25.130  1.00  0.00    -0.200 F 
ENDBRANCH  49  73
BRANCH  61  84
ATOM     84  C   UNL A   1      43.684  28.241  34.676  1.00  0.00     0.064 A 
ATOM     85  C   UNL A   1      45.028  28.629  34.608  1.00  0.00     0.173 A 
ATOM     86  C   UNL A   1      43.369  27.063  35.370  1.00  0.00     0.173 A 
ATOM     87  F   UNL A   1      45.376  29.741  33.942  1.00  0.00    -0.203 F 
ATOM     88  C   UNL A   1      46.024  27.857  35.198  1.00  0.00     0.198 A 
ATOM     89  C   UNL A   1      44.364  26.307  35.981  1.00  0.00     0.198 A 
ATOM     90  F   UNL A   1      42.094  26.655  35.467  1.00  0.00    -0.203 F 
ATOM     91  F   UNL A   1      47.307  28.226  35.089  1.00  0.00    -0.200 F 
ATOM     92  C   UNL A   1      45.691  26.703  35.890  1.00  0.00     0.200 A 
ATOM     93  F   UNL A   1      44.040  25.198  36.660  1.00  0.00    -0.200 F 
ATOM     94  F   UNL A   1      46.651  25.965  36.466  1.00  0.00    -0.200 F 
ENDBRANCH  61  84
ENDBRANCH  35  36
ENDBRANCH  27  30
ENDBRANCH  25  26
ENDBRANCH  24  25
ENDBRANCH   1  24
TORSDOF 14
ENDMDL
MODEL 2
REMARK VINA RESULT:     -13.1      1.749      3.092
REMARK SMILES C[C@H]1[C@@H](C(=O)NCCCCNC(=O)c2ccc(-c3c4nc(c(-c5c(F)c(F)c(F)c(F)c5F)c5ccc([nH]5)c(-c5c(F)c(F)c(F)c(F)c5F)c5nc(c(-c6c(F)c(F)c(F)c(F)c6F)c6ccc3[nH]6)C=C5)C=C4)cc2)CCN1C(=O)/C=C/c1cccc(F)c1
REMARK SMILES IDX 8 1 7 2 6 3 4 4 5 5 3 7 1 8 2 9 79 10 77 11 78 12 80 13
REMARK SMILES IDX 81 14 82 15 83 16 84 17 85 18 90 19 86 20 88 21 87 22 89 23
REMARK SMILES IDX 9 24 10 25 11 26 12 27 13 29 14 30 15 31 76 32 16 33 75 34
REMARK SMILES IDX 17 35 18 36 19 37 69 38 20 39 74 40 68 41 70 42 21 43 73 44
REMARK SMILES IDX 67 45 66 46 22 48 54 49 34 50 53 51 35 52 38 53 52 54 71 55
REMARK SMILES IDX 36 56 37 57 51 59 72 60 39 61 23 62 24 63 32 64 25 65 26 66
REMARK SMILES IDX 30 67 33 68 27 69 28 70 31 71 29 72 55 73 56 74 64 75 57 76
REMARK SMILES IDX 58 77 62 78 65 79 59 80 60 81 63 82 61 83 40 84 41 85 49 86
REMARK SMILES IDX 42 87 43 88 47 89 50 90 44 91 45 92 48 93 46 94
REMARK H PARENT 6 6 11 28 70 47 38 58
REMARK Flexibility Score: inf
ROOT
ATOM      1  C   UNL A   1      31.646  29.518  24.166  1.00  0.00     0.023 C 
ENDROOT
BRANCH   1   2
ATOM      2  C   UNL A   1      30.445  28.990  23.378  1.00  0.00     0.116 C 
BRANCH   2   3
ATOM      3  N   UNL A   1      30.893  28.070  22.351  1.00  0.00    -0.356 N 
ATOM      4  C   UNL A   1      31.167  26.735  22.411  1.00  0.00     0.225 C 
ATOM      5  O   UNL A   1      31.719  26.243  21.426  1.00  0.00    -0.275 OA
ATOM      6  H   UNL A   1      31.020  28.476  21.463  1.00  0.00     0.163 HD
BRANCH   4   7
ATOM      7  C   UNL A   1      30.709  25.884  23.596  1.00  0.00     0.102 C 
ATOM      8  C   UNL A   1      33.055  26.219  24.737  1.00  0.00     0.032 C 
ATOM      9  C   UNL A   1      31.603  25.770  24.852  1.00  0.00     0.094 C 
ATOM     10  N   UNL A   1      31.598  24.351  25.203  1.00  0.00    -0.336 N 
ATOM     11  C   UNL A   1      30.413  24.415  23.197  1.00  0.00     0.037 C 
ATOM     12  C   UNL A   1      31.371  23.567  24.012  1.00  0.00     0.121 C 
BRANCH  10  13
ATOM     13  C   UNL A   1      32.034  23.769  26.379  1.00  0.00     0.246 C 
ATOM     14  O   UNL A   1      31.401  23.796  27.429  1.00  0.00    -0.270 OA
BRANCH  13  15
ATOM     15  C   UNL A   1      33.271  22.942  26.300  1.00  0.00     0.072 C 
ATOM     16  C   UNL A   1      34.495  23.491  26.327  1.00  0.00     0.014 C 
BRANCH  16  17
ATOM     17  C   UNL A   1      35.766  22.798  26.044  1.00  0.00    -0.023 A 
ATOM     18  C   UNL A   1      36.960  23.530  26.166  1.00  0.00     0.008 A 
ATOM     19  C   UNL A   1      35.844  21.480  25.577  1.00  0.00     0.047 A 
ATOM     20  C   UNL A   1      38.196  22.963  25.834  1.00  0.00     0.004 A 
ATOM     21  C   UNL A   1      37.081  20.923  25.251  1.00  0.00     0.123 A 
ATOM     22  C   UNL A   1      38.255  21.652  25.373  1.00  0.00     0.039 A 
ATOM     23  F   UNL A   1      37.133  19.663  24.799  1.00  0.00    -0.207 F 
ENDBRANCH  16  17
ENDBRANCH  13  15
ENDBRANCH  10  13
ENDBRANCH   4   7
ENDBRANCH   2   3
ENDBRANCH   1   2
BRANCH   1  24
ATOM     24  C   UNL A   1      31.530  29.458  25.677  1.00  0.00     0.023 C 
BRANCH  24  25
ATOM     25  C   UNL A   1      32.736  30.000  26.413  1.00  0.00     0.116 C 
BRANCH  25  26
ATOM     26  N   UNL A   1      32.613  31.400  26.809  1.00  0.00    -0.352 N 
ATOM     27  C   UNL A   1      33.516  32.188  27.487  1.00  0.00     0.251 C 
ATOM     28  H   UNL A   1      31.769  31.841  26.558  1.00  0.00     0.163 HD
ATOM     29  O   UNL A   1      33.236  33.339  27.804  1.00  0.00    -0.269 OA
BRANCH  27  30
ATOM     30  C   UNL A   1      34.811  31.599  27.872  1.00  0.00     0.039 A 
ATOM     31  C   UNL A   1      35.920  32.432  28.026  1.00  0.00     0.014 A 
ATOM     32  C   UNL A   1      34.879  30.248  28.211  1.00  0.00     0.014 A 
ATOM     33  C   UNL A   1      37.073  31.925  28.626  1.00  0.00     0.010 A 
ATOM     34  C   UNL A   1      35.973  29.786  28.925  1.00  0.00     0.010 A 
ATOM     35  C   UNL A   1      37.085  30.616  29.134  1.00  0.00    -0.014 A 
BRANCH  35  36
ATOM     36  C   UNL A   1      38.253  30.068  29.865  1.00  0.00     0.031 A 
ATOM     37  C   UNL A   1      38.507  30.512  31.279  1.00  0.00     0.074 A 
ATOM     38  C   UNL A   1      39.130  29.263  29.235  1.00  0.00     0.049 A 
ATOM     39  N   UNL A   1      39.532  30.271  32.054  1.00  0.00    -0.248 NA
ATOM     40  C   UNL A   1      37.495  31.395  31.885  1.00  0.00     0.031 C 
ATOM     41  C   UNL A   1      39.036  28.825  27.841  1.00  0.00     0.029 A 
ATOM     42  N   UNL A   1      40.286  28.678  29.687  1.00  0.00    -0.354 N 
ATOM     43  C   UNL A   1      39.307  31.002  33.212  1.00  0.00     0.074 A 
ATOM     44  C   UNL A   1      38.086  31.750  33.015  1.00  0.00     0.031 C 
ATOM     45  C   UNL A   1      40.069  28.012  27.563  1.00  0.00     0.029 A 
ATOM     46  C   UNL A   1      40.915  27.899  28.746  1.00  0.00     0.049 A 
ATOM     47  H   UNL A   1      40.632  28.802  30.600  1.00  0.00     0.167 HD
ATOM     48  C   UNL A   1      40.031  31.020  34.355  1.00  0.00     0.037 A 
ATOM     49  C   UNL A   1      42.047  27.175  28.835  1.00  0.00     0.037 A 
ATOM     50  C   UNL A   1      41.203  30.218  34.571  1.00  0.00     0.049 A 
ATOM     51  C   UNL A   1      42.801  27.160  30.138  1.00  0.00     0.074 A 
ATOM     52  C   UNL A   1      41.962  30.089  35.719  1.00  0.00     0.029 A 
ATOM     53  N   UNL A   1      41.773  29.391  33.614  1.00  0.00    -0.354 N 
ATOM     54  N   UNL A   1      42.540  27.800  31.252  1.00  0.00    -0.248 NA
ATOM     55  C   UNL A   1      44.002  26.316  30.198  1.00  0.00     0.031 C 
ATOM     56  C   UNL A   1      43.010  29.203  35.449  1.00  0.00     0.029 A 
ATOM     57  C   UNL A   1      42.882  28.753  34.145  1.00  0.00     0.049 A 
ATOM     58  H   UNL A   1      41.441  29.274  32.695  1.00  0.00     0.167 HD
ATOM     59  C   UNL A   1      43.525  27.418  32.151  1.00  0.00     0.074 A 
ATOM     60  C   UNL A   1      44.382  26.478  31.457  1.00  0.00     0.031 C 
ATOM     61  C   UNL A   1      43.707  27.810  33.436  1.00  0.00     0.037 A 
BRANCH  48  62
ATOM     62  C   UNL A   1      39.556  31.917  35.458  1.00  0.00     0.064 A 
ATOM     63  C   UNL A   1      38.604  31.487  36.396  1.00  0.00     0.173 A 
ATOM     64  C   UNL A   1      40.060  33.220  35.585  1.00  0.00     0.173 A 
ATOM     65  F   UNL A   1      38.077  30.257  36.308  1.00  0.00    -0.203 F 
ATOM     66  C   UNL A   1      38.147  32.341  37.396  1.00  0.00     0.198 A 
ATOM     67  C   UNL A   1      39.624  34.060  36.606  1.00  0.00     0.198 A 
ATOM     68  F   UNL A   1      40.971  33.680  34.715  1.00  0.00    -0.203 F 
ATOM     69  F   UNL A   1      37.191  31.928  38.241  1.00  0.00    -0.200 F 
ATOM     70  C   UNL A   1      38.661  33.624  37.505  1.00  0.00     0.200 A 
ATOM     71  F   UNL A   1      40.128  35.297  36.715  1.00  0.00    -0.200 F 
ATOM     72  F   UNL A   1      38.220  34.444  38.468  1.00  0.00    -0.200 F 
ENDBRANCH  48  62
BRANCH  49  73
ATOM     73  C   UNL A   1      42.508  26.366  27.677  1.00  0.00     0.064 A 
ATOM     74  C   UNL A   1      43.497  26.857  26.812  1.00  0.00     0.173 A 
ATOM     75  C   UNL A   1      41.976  25.099  27.407  1.00  0.00     0.173 A 
ATOM     76  F   UNL A   1      44.022  28.073  27.019  1.00  0.00    -0.203 F 
ATOM     77  C   UNL A   1      43.921  26.119  25.709  1.00  0.00     0.198 A 
ATOM     78  C   UNL A   1      42.418  24.350  26.317  1.00  0.00     0.198 A 
ATOM     79  F   UNL A   1      41.032  24.582  28.207  1.00  0.00    -0.203 F 
ATOM     80  F   UNL A   1      44.837  26.631  24.875  1.00  0.00    -0.200 F 
ATOM     81  C   UNL A   1      43.385  24.864  25.465  1.00  0.00     0.200 A 
ATOM     82  F   UNL A   1      41.907  23.132  26.091  1.00  0.00    -0.200 F 
ATOM     83  F   UNL A   1      43.794  24.153  24.406  1.00  0.00    -0.200 F 
ENDBRANCH  49  73
BRANCH  61  84
ATOM     84  C   UNL A   1      44.855  27.201  34.182  1.00  0.00     0.064 A 
ATOM     85  C   UNL A   1      44.720  25.990  34.872  1.00  0.00     0.173 A 
ATOM     86  C   UNL A   1      46.117  27.814  34.160  1.00  0.00     0.173 A 
ATOM     87  F   UNL A   1      43.528  25.376  34.931  1.00  0.00    -0.203 F 
ATOM     88  C   UNL A   1      45.805  25.420  35.531  1.00  0.00     0.198 A 
ATOM     89  C   UNL A   1      47.206  27.228  34.798  1.00  0.00     0.198 A 
ATOM     90  F   UNL A   1      46.297  28.971  33.506  1.00  0.00    -0.203 F 
ATOM     91  F   UNL A   1      45.645  24.280  36.218  1.00  0.00    -0.200 F 
ATOM     92  C   UNL A   1      47.048  26.034  35.487  1.00  0.00     0.200 A 
ATOM     93  F   UNL A   1      48.409  27.816  34.745  1.00  0.00    -0.200 F 
ATOM     94  F   UNL A   1      48.093  25.479  36.116  1.00  0.00    -0.200 F 
ENDBRANCH  61  84
ENDBRANCH  35  36
ENDBRANCH  27  30
ENDBRANCH  25  26
ENDBRANCH  24  25
ENDBRANCH   1  24
TORSDOF 14
ENDMDL
MODEL 3
REMARK VINA RESULT:     -13.1      3.899      5.680
REMARK SMILES C[C@H]1[C@@H](C(=O)NCCCCNC(=O)c2ccc(-c3c4nc(c(-c5c(F)c(F)c(F)c(F)c5F)c5ccc([nH]5)c(-c5c(F)c(F)c(F)c(F)c5F)c5nc(c(-c6c(F)c(F)c(F)c(F)c6F)c6ccc3[nH]6)C=C5)C=C4)cc2)CCN1C(=O)/C=C/c1cccc(F)c1
REMARK SMILES IDX 8 1 7 2 6 3 4 4 5 5 3 7 1 8 2 9 79 10 77 11 78 12 80 13
REMARK SMILES IDX 81 14 82 15 83 16 84 17 85 18 90 19 86 20 88 21 87 22 89 23
REMARK SMILES IDX 9 24 10 25 11 26 12 27 13 29 14 30 15 31 76 32 16 33 75 34
REMARK SMILES IDX 17 35 18 36 19 37 69 38 20 39 74 40 68 41 70 42 21 43 73 44
REMARK SMILES IDX 67 45 66 46 22 48 54 49 34 50 53 51 35 52 38 53 52 54 71 55
REMARK SMILES IDX 36 56 37 57 51 59 72 60 39 61 23 62 24 63 32 64 25 65 26 66
REMARK SMILES IDX 30 67 33 68 27 69 28 70 31 71 29 72 55 73 56 74 64 75 57 76
REMARK SMILES IDX 58 77 62 78 65 79 59 80 60 81 63 82 61 83 40 84 41 85 49 86
REMARK SMILES IDX 42 87 43 88 47 89 50 90 44 91 45 92 48 93 46 94
REMARK H PARENT 6 6 11 28 70 47 38 58
REMARK Flexibility Score: inf
ROOT
ATOM      1  C   UNL A   1      32.986  29.379  25.071  1.00  0.00     0.023 C 
ENDROOT
BRANCH   1   2
ATOM      2  C   UNL A   1      33.187  29.225  23.562  1.00  0.00     0.116 C 
BRANCH   2   3
ATOM      3  N   UNL A   1      31.912  28.984  22.915  1.00  0.00    -0.356 N 
ATOM      4  C   UNL A   1      31.191  27.835  22.769  1.00  0.00     0.225 C 
ATOM      5  O   UNL A   1      30.229  27.884  22.001  1.00  0.00    -0.275 OA
ATOM      6  H   UNL A   1      31.498  29.782  22.515  1.00  0.00     0.163 HD
BRANCH   4   7
ATOM      7  C   UNL A   1      31.505  26.591  23.602  1.00  0.00     0.102 C 
ATOM      8  C   UNL A   1      33.225  25.806  21.774  1.00  0.00     0.032 C 
ATOM      9  C   UNL A   1      32.662  25.656  23.182  1.00  0.00     0.094 C 
ATOM     10  N   UNL A   1      32.129  24.301  23.310  1.00  0.00    -0.336 N 
ATOM     11  C   UNL A   1      30.281  25.651  23.752  1.00  0.00     0.037 C 
ATOM     12  C   UNL A   1      30.697  24.332  23.127  1.00  0.00     0.121 C 
BRANCH  10  13
ATOM     13  C   UNL A   1      32.832  23.111  23.297  1.00  0.00     0.246 C 
ATOM     14  O   UNL A   1      32.645  22.216  22.480  1.00  0.00    -0.270 OA
BRANCH  13  15
ATOM     15  C   UNL A   1      33.977  22.998  24.245  1.00  0.00     0.072 C 
ATOM     16  C   UNL A   1      35.250  22.987  23.823  1.00  0.00     0.014 C 
BRANCH  16  17
ATOM     17  C   UNL A   1      36.436  22.669  24.640  1.00  0.00    -0.023 A 
ATOM     18  C   UNL A   1      37.016  23.703  25.395  1.00  0.00     0.008 A 
ATOM     19  C   UNL A   1      37.066  21.418  24.639  1.00  0.00     0.047 A 
ATOM     20  C   UNL A   1      38.190  23.495  26.129  1.00  0.00     0.004 A 
ATOM     21  C   UNL A   1      38.234  21.220  25.377  1.00  0.00     0.123 A 
ATOM     22  C   UNL A   1      38.802  22.246  26.118  1.00  0.00     0.039 A 
ATOM     23  F   UNL A   1      38.826  20.018  25.356  1.00  0.00    -0.207 F 
ENDBRANCH  16  17
ENDBRANCH  13  15
ENDBRANCH  10  13
ENDBRANCH   4   7
ENDBRANCH   2   3
ENDBRANCH   1   2
BRANCH   1  24
ATOM     24  C   UNL A   1      33.927  28.581  25.953  1.00  0.00     0.023 C 
BRANCH  24  25
ATOM     25  C   UNL A   1      33.651  28.716  27.435  1.00  0.00     0.116 C 
BRANCH  25  26
ATOM     26  N   UNL A   1      33.731  30.087  27.933  1.00  0.00    -0.352 N 
ATOM     27  C   UNL A   1      34.816  30.753  28.456  1.00  0.00     0.251 C 
ATOM     28  H   UNL A   1      32.895  30.605  27.890  1.00  0.00     0.163 HD
ATOM     29  O   UNL A   1      34.706  31.893  28.894  1.00  0.00    -0.269 OA
BRANCH  27  30
ATOM     30  C   UNL A   1      36.107  30.045  28.525  1.00  0.00     0.039 A 
ATOM     31  C   UNL A   1      37.002  30.152  27.460  1.00  0.00     0.014 A 
ATOM     32  C   UNL A   1      36.475  29.399  29.705  1.00  0.00     0.014 A 
ATOM     33  C   UNL A   1      38.311  29.698  27.623  1.00  0.00     0.010 A 
ATOM     34  C   UNL A   1      37.806  29.073  29.910  1.00  0.00     0.010 A 
ATOM     35  C   UNL A   1      38.737  29.211  28.870  1.00  0.00    -0.014 A 
BRANCH  35  36
ATOM     36  C   UNL A   1      40.143  28.810  29.117  1.00  0.00     0.031 A 
ATOM     37  C   UNL A   1      41.069  29.770  29.812  1.00  0.00     0.074 A 
ATOM     38  C   UNL A   1      40.609  27.642  28.633  1.00  0.00     0.049 A 
ATOM     39  N   UNL A   1      42.359  29.684  30.009  1.00  0.00    -0.248 NA
ATOM     40  C   UNL A   1      40.471  31.023  30.304  1.00  0.00     0.031 C 
ATOM     41  C   UNL A   1      39.830  26.662  27.874  1.00  0.00     0.029 A 
ATOM     42  N   UNL A   1      41.862  27.086  28.700  1.00  0.00    -0.354 N 
ATOM     43  C   UNL A   1      42.726  30.883  30.605  1.00  0.00     0.074 A 
ATOM     44  C   UNL A   1      41.541  31.707  30.676  1.00  0.00     0.031 C 
ATOM     45  C   UNL A   1      40.612  25.610  27.577  1.00  0.00     0.029 A 
ATOM     46  C   UNL A   1      41.953  25.857  28.095  1.00  0.00     0.049 A 
ATOM     47  H   UNL A   1      42.624  27.526  29.142  1.00  0.00     0.167 HD
ATOM     48  C   UNL A   1      43.936  31.251  31.086  1.00  0.00     0.037 A 
ATOM     49  C   UNL A   1      43.005  25.025  27.975  1.00  0.00     0.037 A 
ATOM     50  C   UNL A   1      45.092  30.399  31.080  1.00  0.00     0.049 A 
ATOM     51  C   UNL A   1      44.325  25.429  28.576  1.00  0.00     0.074 A 
ATOM     52  C   UNL A   1      46.342  30.634  31.621  1.00  0.00     0.029 A 
ATOM     53  N   UNL A   1      45.128  29.132  30.514  1.00  0.00    -0.354 N 
ATOM     54  N   UNL A   1      44.645  26.535  29.202  1.00  0.00    -0.248 NA
ATOM     55  C   UNL A   1      45.428  24.464  28.462  1.00  0.00     0.031 C 
ATOM     56  C   UNL A   1      47.145  29.519  31.359  1.00  0.00     0.029 A 
ATOM     57  C   UNL A   1      46.384  28.576  30.687  1.00  0.00     0.049 A 
ATOM     58  H   UNL A   1      44.374  28.694  30.057  1.00  0.00     0.167 HD
ATOM     59  C   UNL A   1      45.973  26.392  29.577  1.00  0.00     0.074 A 
ATOM     60  C   UNL A   1      46.396  25.083  29.122  1.00  0.00     0.031 C 
ATOM     61  C   UNL A   1      46.772  27.265  30.238  1.00  0.00     0.037 A 
BRANCH  48  62
ATOM     62  C   UNL A   1      44.053  32.623  31.680  1.00  0.00     0.064 A 
ATOM     63  C   UNL A   1      43.719  32.875  33.020  1.00  0.00     0.173 A 
ATOM     64  C   UNL A   1      44.509  33.699  30.905  1.00  0.00     0.173 A 
ATOM     65  F   UNL A   1      43.260  31.884  33.799  1.00  0.00    -0.203 F 
ATOM     66  C   UNL A   1      43.801  34.160  33.550  1.00  0.00     0.198 A 
ATOM     67  C   UNL A   1      44.620  34.977  31.447  1.00  0.00     0.198 A 
ATOM     68  F   UNL A   1      44.841  33.513  29.618  1.00  0.00    -0.203 F 
ATOM     69  F   UNL A   1      43.417  34.386  34.814  1.00  0.00    -0.200 F 
ATOM     70  C   UNL A   1      44.257  35.208  32.766  1.00  0.00     0.200 A 
ATOM     71  F   UNL A   1      45.069  35.987  30.690  1.00  0.00    -0.200 F 
ATOM     72  F   UNL A   1      44.336  36.443  33.278  1.00  0.00    -0.200 F 
ENDBRANCH  48  62
BRANCH  49  73
ATOM     73  C   UNL A   1      42.843  23.708  27.305  1.00  0.00     0.064 A 
ATOM     74  C   UNL A   1      43.237  23.532  25.971  1.00  0.00     0.173 A 
ATOM     75  C   UNL A   1      42.293  22.606  27.973  1.00  0.00     0.173 A 
ATOM     76  F   UNL A   1      43.751  24.564  25.285  1.00  0.00    -0.203 F 
ATOM     77  C   UNL A   1      43.068  22.311  25.324  1.00  0.00     0.198 A 
ATOM     78  C   UNL A   1      42.147  21.376  27.333  1.00  0.00     0.198 A 
ATOM     79  F   UNL A   1      41.906  22.720  29.252  1.00  0.00    -0.203 F 
ATOM     80  F   UNL A   1      43.415  22.183  24.036  1.00  0.00    -0.200 F 
ATOM     81  C   UNL A   1      42.528  21.232  26.006  1.00  0.00     0.200 A 
ATOM     82  F   UNL A   1      41.635  20.332  27.999  1.00  0.00    -0.200 F 
ATOM     83  F   UNL A   1      42.367  20.055  25.386  1.00  0.00    -0.200 F 
ENDBRANCH  49  73
BRANCH  61  84
ATOM     84  C   UNL A   1      48.173  26.820  30.535  1.00  0.00     0.064 A 
ATOM     85  C   UNL A   1      48.467  26.021  31.647  1.00  0.00     0.173 A 
ATOM     86  C   UNL A   1      49.221  27.157  29.665  1.00  0.00     0.173 A 
ATOM     87  F   UNL A   1      47.497  25.687  32.513  1.00  0.00    -0.203 F 
ATOM     88  C   UNL A   1      49.767  25.588  31.890  1.00  0.00     0.198 A 
ATOM     89  C   UNL A   1      50.515  26.701  29.897  1.00  0.00     0.198 A 
ATOM     90  F   UNL A   1      48.986  27.914  28.583  1.00  0.00    -0.203 F 
ATOM     91  F   UNL A   1      50.034  24.857  32.981  1.00  0.00    -0.200 F 
ATOM     92  C   UNL A   1      50.787  25.921  31.012  1.00  0.00     0.200 A 
ATOM     93  F   UNL A   1      51.498  27.013  29.042  1.00  0.00    -0.200 F 
ATOM     94  F   UNL A   1      52.037  25.496  31.244  1.00  0.00    -0.200 F 
ENDBRANCH  61  84
ENDBRANCH  35  36
ENDBRANCH  27  30
ENDBRANCH  25  26
ENDBRANCH  24  25
ENDBRANCH   1  24
TORSDOF 14
ENDMDL
