MODEL 1
REMARK VINA RESULT:     -14.3      0.000      0.000
REMARK SMILES Cc1ccc(-c2cc(Cl)cc3c2O[C@@H](C(F)(F)F)C(C(=O)NCCCCNC(=O)c2ccc(-c4c5nc(c(-c6c(F)c(F)c(F)c(F)c6F)c6ccc([nH]6)c(-c6c(F)c(F)c(F)c(F)c6F)c6nc(c(-c7c(F)c(F)c(F)c(F)c7F)c7ccc4[nH]7)C=C6)C=C5)cc2)=C3)cc1
REMARK SMILES IDX 25 1 24 2 23 3 22 4 20 5 21 6 19 8 6 9 7 10 12 11 8 12 11 13
REMARK SMILES IDX 13 14 9 15 10 16 93 17 14 18 5 19 1 20 2 21 3 22 95 23 4 24
REMARK SMILES IDX 94 25 15 26 16 27 17 28 18 29 26 30 27 31 28 32 29 34 30 35
REMARK SMILES IDX 31 36 92 37 32 38 91 39 33 40 34 41 35 42 85 43 36 44 90 45
REMARK SMILES IDX 84 46 86 47 37 48 89 49 83 50 82 51 38 53 70 54 50 55 69 56
REMARK SMILES IDX 51 57 54 58 68 59 87 60 52 61 53 62 67 64 88 65 55 66 39 67
REMARK SMILES IDX 40 68 48 69 41 70 42 71 46 72 49 73 43 74 44 75 47 76 45 77
REMARK SMILES IDX 71 78 72 79 80 80 73 81 74 82 78 83 81 84 75 85 76 86 79 87
REMARK SMILES IDX 77 88 56 89 57 90 65 91 58 92 59 93 63 94 66 95 60 96 61 97
REMARK SMILES IDX 64 98 62 99
REMARK H PARENT 22 7 27 33 86 52 54 63
REMARK Flexibility Score: inf
ROOT
ATOM      1  C   UNL A   1      32.876  29.699  27.321  1.00  0.00     0.023 C 
ENDROOT
BRANCH   1   2
ATOM      2  C   UNL A   1      33.476  28.378  26.823  1.00  0.00     0.023 C 
BRANCH   2   3
ATOM      3  C   UNL A   1      33.236  27.971  25.357  1.00  0.00     0.116 C 
BRANCH   3   4
ATOM      4  N   UNL A   1      33.891  26.750  24.915  1.00  0.00    -0.352 N 
ATOM      5  C   UNL A   1      33.570  25.832  23.948  1.00  0.00     0.251 C 
ATOM      6  O   UNL A   1      34.520  25.335  23.335  1.00  0.00    -0.270 OA
ATOM      7  H   UNL A   1      34.721  26.543  25.401  1.00  0.00     0.163 HD
BRANCH   5   8
ATOM      8  C   UNL A   1      32.151  25.310  23.688  1.00  0.00     0.067 C 
ATOM      9  C   UNL A   1      33.621  21.922  25.210  1.00  0.00     0.026 A 
ATOM     10  C   UNL A   1      33.249  20.664  24.699  1.00  0.00     0.033 A 
ATOM     11  C   UNL A   1      32.848  22.987  24.753  1.00  0.00     0.135 A 
ATOM     12  C   UNL A   1      32.479  20.581  23.532  1.00  0.00     0.042 A 
ATOM     13  C   UNL A   1      32.384  22.975  23.416  1.00  0.00     0.019 A 
ATOM     14  O   UNL A   1      32.383  23.983  25.642  1.00  0.00    -0.475 OA
ATOM     15  Cl  UNL A   1      32.103  19.034  22.877  1.00  0.00    -0.084 Cl
ATOM     16  C   UNL A   1      32.136  21.739  22.827  1.00  0.00     0.032 A 
ATOM     17  C   UNL A   1      32.124  24.309  22.763  1.00  0.00     0.025 C 
ATOM     18  C   UNL A   1      31.415  24.811  24.918  1.00  0.00     0.314 C 
BRANCH   9  19
ATOM     19  C   UNL A   1      35.105  22.108  25.287  1.00  0.00    -0.015 A 
ATOM     20  C   UNL A   1      39.394  22.101  25.980  1.00  0.00     0.044 C 
ATOM     21  C   UNL A   1      37.922  22.127  25.688  1.00  0.00    -0.051 A 
ATOM     22  C   UNL A   1      37.132  23.245  26.001  1.00  0.00     0.004 A 
ATOM     23  C   UNL A   1      37.308  21.020  25.110  1.00  0.00     0.004 A 
ATOM     24  C   UNL A   1      35.736  23.238  25.807  1.00  0.00     0.009 A 
ATOM     25  C   UNL A   1      35.930  21.019  24.908  1.00  0.00     0.009 A 
ENDBRANCH   9  19
BRANCH  18  26
ATOM     26  C   UNL A   1      30.488  25.826  25.599  1.00  0.00     0.429 C 
ATOM     27  F   UNL A   1      31.056  26.281  26.751  1.00  0.00    -0.167 F 
ATOM     28  F   UNL A   1      30.212  26.906  24.847  1.00  0.00    -0.167 F 
ATOM     29  F   UNL A   1      29.315  25.266  25.990  1.00  0.00    -0.167 F 
ENDBRANCH  18  26
ENDBRANCH   5   8
ENDBRANCH   3   4
ENDBRANCH   2   3
ENDBRANCH   1   2
BRANCH   1  30
ATOM     30  C   UNL A   1      33.643  30.973  26.994  1.00  0.00     0.116 C 
BRANCH  30  31
ATOM     31  N   UNL A   1      34.090  31.802  28.103  1.00  0.00    -0.352 N 
ATOM     32  C   UNL A   1      35.051  31.514  29.079  1.00  0.00     0.251 C 
ATOM     33  H   UNL A   1      33.660  32.685  28.176  1.00  0.00     0.163 HD
ATOM     34  O   UNL A   1      35.213  32.258  30.017  1.00  0.00    -0.269 OA
BRANCH  32  35
ATOM     35  C   UNL A   1      35.971  30.354  28.877  1.00  0.00     0.039 A 
ATOM     36  C   UNL A   1      36.328  29.592  29.997  1.00  0.00     0.014 A 
ATOM     37  C   UNL A   1      36.648  30.167  27.679  1.00  0.00     0.014 A 
ATOM     38  C   UNL A   1      37.530  28.882  29.989  1.00  0.00     0.010 A 
ATOM     39  C   UNL A   1      37.900  29.592  27.708  1.00  0.00     0.010 A 
ATOM     40  C   UNL A   1      38.369  29.002  28.883  1.00  0.00    -0.014 A 
BRANCH  40  41
ATOM     41  C   UNL A   1      39.782  28.642  28.892  1.00  0.00     0.031 A 
ATOM     42  C   UNL A   1      40.215  27.289  28.491  1.00  0.00     0.074 A 
ATOM     43  C   UNL A   1      40.710  29.594  29.144  1.00  0.00     0.049 A 
ATOM     44  N   UNL A   1      41.301  26.726  28.903  1.00  0.00    -0.248 NA
ATOM     45  C   UNL A   1      39.439  26.445  27.591  1.00  0.00     0.031 C 
ATOM     46  C   UNL A   1      42.152  29.495  28.935  1.00  0.00     0.029 A 
ATOM     47  N   UNL A   1      40.540  30.816  29.821  1.00  0.00    -0.354 N 
ATOM     48  C   UNL A   1      41.513  25.609  28.128  1.00  0.00     0.074 A 
ATOM     49  C   UNL A   1      40.294  25.443  27.370  1.00  0.00     0.031 C 
ATOM     50  C   UNL A   1      42.764  30.397  29.718  1.00  0.00     0.029 A 
ATOM     51  C   UNL A   1      41.742  31.015  30.541  1.00  0.00     0.049 A 
ATOM     52  H   UNL A   1      39.753  31.405  29.799  1.00  0.00     0.167 HD
ATOM     53  C   UNL A   1      42.749  25.029  28.106  1.00  0.00     0.037 A 
ATOM     54  C   UNL A   1      41.756  31.056  31.904  1.00  0.00     0.037 A 
ATOM     55  C   UNL A   1      43.680  25.740  28.978  1.00  0.00     0.049 A 
ATOM     56  C   UNL A   1      42.606  29.988  32.544  1.00  0.00     0.074 A 
ATOM     57  C   UNL A   1      44.651  26.694  28.722  1.00  0.00     0.029 A 
ATOM     58  N   UNL A   1      43.472  25.751  30.354  1.00  0.00    -0.354 N 
ATOM     59  N   UNL A   1      43.008  28.913  31.923  1.00  0.00    -0.248 NA
ATOM     60  C   UNL A   1      43.051  30.027  33.934  1.00  0.00     0.031 C 
ATOM     61  C   UNL A   1      45.006  27.306  29.947  1.00  0.00     0.029 A 
ATOM     62  C   UNL A   1      44.260  26.715  30.953  1.00  0.00     0.049 A 
ATOM     63  H   UNL A   1      42.851  25.156  30.833  1.00  0.00     0.167 HD
ATOM     64  C   UNL A   1      43.727  28.125  32.785  1.00  0.00     0.074 A 
ATOM     65  C   UNL A   1      43.743  28.878  34.026  1.00  0.00     0.031 C 
ATOM     66  C   UNL A   1      44.239  26.919  32.393  1.00  0.00     0.037 A 
BRANCH  53  67
ATOM     67  C   UNL A   1      43.183  24.023  27.062  1.00  0.00     0.064 A 
ATOM     68  C   UNL A   1      42.843  22.656  27.176  1.00  0.00     0.173 A 
ATOM     69  C   UNL A   1      43.979  24.336  25.945  1.00  0.00     0.173 A 
ATOM     70  F   UNL A   1      41.985  22.221  28.107  1.00  0.00    -0.203 F 
ATOM     71  C   UNL A   1      43.372  21.676  26.332  1.00  0.00     0.198 A 
ATOM     72  C   UNL A   1      44.556  23.350  25.135  1.00  0.00     0.198 A 
ATOM     73  F   UNL A   1      44.181  25.606  25.573  1.00  0.00    -0.203 F 
ATOM     74  F   UNL A   1      43.021  20.393  26.501  1.00  0.00    -0.200 F 
ATOM     75  C   UNL A   1      44.264  22.018  25.339  1.00  0.00     0.200 A 
ATOM     76  F   UNL A   1      45.398  23.706  24.154  1.00  0.00    -0.200 F 
ATOM     77  F   UNL A   1      44.814  21.073  24.564  1.00  0.00    -0.200 F 
ENDBRANCH  53  67
BRANCH  54  78
ATOM     78  C   UNL A   1      40.522  31.649  32.476  1.00  0.00     0.064 A 
ATOM     79  C   UNL A   1      40.345  33.040  32.351  1.00  0.00     0.173 A 
ATOM     80  C   UNL A   1      39.387  30.873  32.738  1.00  0.00     0.173 A 
ATOM     81  F   UNL A   1      41.404  33.828  32.103  1.00  0.00    -0.203 F 
ATOM     82  C   UNL A   1      39.076  33.613  32.356  1.00  0.00     0.198 A 
ATOM     83  C   UNL A   1      38.116  31.454  32.757  1.00  0.00     0.198 A 
ATOM     84  F   UNL A   1      39.488  29.541  32.850  1.00  0.00    -0.203 F 
ATOM     85  F   UNL A   1      38.934  34.925  32.115  1.00  0.00    -0.200 F 
ATOM     86  C   UNL A   1      37.960  32.814  32.527  1.00  0.00     0.200 A 
ATOM     87  F   UNL A   1      37.032  30.680  32.907  1.00  0.00    -0.200 F 
ATOM     88  F   UNL A   1      36.733  33.346  32.431  1.00  0.00    -0.200 F 
ENDBRANCH  54  78
BRANCH  66  89
ATOM     89  C   UNL A   1      44.863  25.862  33.279  1.00  0.00     0.064 A 
ATOM     90  C   UNL A   1      44.142  25.044  34.164  1.00  0.00     0.173 A 
ATOM     91  C   UNL A   1      46.240  25.544  33.149  1.00  0.00     0.173 A 
ATOM     92  F   UNL A   1      42.814  25.153  34.291  1.00  0.00    -0.203 F 
ATOM     93  C   UNL A   1      44.760  24.033  34.908  1.00  0.00     0.198 A 
ATOM     94  C   UNL A   1      46.838  24.495  33.846  1.00  0.00     0.198 A 
ATOM     95  F   UNL A   1      47.046  26.222  32.320  1.00  0.00    -0.203 F 
ATOM     96  F   UNL A   1      44.033  23.311  35.773  1.00  0.00    -0.200 F 
ATOM     97  C   UNL A   1      46.101  23.750  34.741  1.00  0.00     0.200 A 
ATOM     98  F   UNL A   1      48.129  24.201  33.628  1.00  0.00    -0.200 F 
ATOM     99  F   UNL A   1      46.676  22.749  35.420  1.00  0.00    -0.200 F 
ENDBRANCH  66  89
ENDBRANCH  40  41
ENDBRANCH  32  35
ENDBRANCH  30  31
ENDBRANCH   1  30
TORSDOF 13
ENDMDL
MODEL 2
REMARK VINA RESULT:     -14.3      0.360      1.209
REMARK SMILES Cc1ccc(-c2cc(Cl)cc3c2O[C@@H](C(F)(F)F)C(C(=O)NCCCCNC(=O)c2ccc(-c4c5nc(c(-c6c(F)c(F)c(F)c(F)c6F)c6ccc([nH]6)c(-c6c(F)c(F)c(F)c(F)c6F)c6nc(c(-c7c(F)c(F)c(F)c(F)c7F)c7ccc4[nH]7)C=C6)C=C5)cc2)=C3)cc1
REMARK SMILES IDX 25 1 24 2 23 3 22 4 20 5 21 6 19 8 6 9 7 10 12 11 8 12 11 13
REMARK SMILES IDX 13 14 9 15 10 16 93 17 14 18 5 19 1 20 2 21 3 22 95 23 4 24
REMARK SMILES IDX 94 25 15 26 16 27 17 28 18 29 26 30 27 31 28 32 29 34 30 35
REMARK SMILES IDX 31 36 92 37 32 38 91 39 33 40 34 41 35 42 85 43 36 44 90 45
REMARK SMILES IDX 84 46 86 47 37 48 89 49 83 50 82 51 38 53 70 54 50 55 69 56
REMARK SMILES IDX 51 57 54 58 68 59 87 60 52 61 53 62 67 64 88 65 55 66 39 67
REMARK SMILES IDX 40 68 48 69 41 70 42 71 46 72 49 73 43 74 44 75 47 76 45 77
REMARK SMILES IDX 71 78 72 79 80 80 73 81 74 82 78 83 81 84 75 85 76 86 79 87
REMARK SMILES IDX 77 88 56 89 57 90 65 91 58 92 59 93 63 94 66 95 60 96 61 97
REMARK SMILES IDX 64 98 62 99
REMARK H PARENT 22 7 27 33 86 52 54 63
REMARK Flexibility Score: inf
ROOT
ATOM      1  C   UNL A   1      33.186  29.791  27.444  1.00  0.00     0.023 C 
ENDROOT
BRANCH   1   2
ATOM      2  C   UNL A   1      33.810  28.509  26.880  1.00  0.00     0.023 C 
BRANCH   2   3
ATOM      3  C   UNL A   1      33.267  27.953  25.550  1.00  0.00     0.116 C 
BRANCH   3   4
ATOM      4  N   UNL A   1      33.913  26.751  25.045  1.00  0.00    -0.352 N 
ATOM      5  C   UNL A   1      33.574  25.876  24.046  1.00  0.00     0.251 C 
ATOM      6  O   UNL A   1      34.514  25.405  23.397  1.00  0.00    -0.270 OA
ATOM      7  H   UNL A   1      34.751  26.523  25.508  1.00  0.00     0.163 HD
BRANCH   5   8
ATOM      8  C   UNL A   1      32.151  25.367  23.789  1.00  0.00     0.067 C 
ATOM      9  C   UNL A   1      33.611  21.947  25.250  1.00  0.00     0.026 A 
ATOM     10  C   UNL A   1      33.228  20.699  24.723  1.00  0.00     0.033 A 
ATOM     11  C   UNL A   1      32.841  23.023  24.814  1.00  0.00     0.135 A 
ATOM     12  C   UNL A   1      32.449  20.638  23.561  1.00  0.00     0.042 A 
ATOM     13  C   UNL A   1      32.367  23.034  23.481  1.00  0.00     0.019 A 
ATOM     14  O   UNL A   1      32.388  24.009  25.721  1.00  0.00    -0.475 OA
ATOM     15  Cl  UNL A   1      32.059  19.104  22.886  1.00  0.00    -0.084 Cl
ATOM     16  C   UNL A   1      32.108  21.808  22.875  1.00  0.00     0.032 A 
ATOM     17  C   UNL A   1      32.111  24.379  22.849  1.00  0.00     0.025 C 
ATOM     18  C   UNL A   1      31.420  24.853  25.016  1.00  0.00     0.314 C 
BRANCH   9  19
ATOM     19  C   UNL A   1      35.096  22.124  25.320  1.00  0.00    -0.015 A 
ATOM     20  C   UNL A   1      39.389  22.083  25.986  1.00  0.00     0.044 C 
ATOM     21  C   UNL A   1      37.915  22.121  25.703  1.00  0.00    -0.051 A 
ATOM     22  C   UNL A   1      37.135  23.242  26.029  1.00  0.00     0.004 A 
ATOM     23  C   UNL A   1      37.291  21.022  25.120  1.00  0.00     0.004 A 
ATOM     24  C   UNL A   1      35.737  23.245  25.843  1.00  0.00     0.009 A 
ATOM     25  C   UNL A   1      35.912  21.032  24.927  1.00  0.00     0.009 A 
ENDBRANCH   9  19
BRANCH  18  26
ATOM     26  C   UNL A   1      30.504  25.863  25.719  1.00  0.00     0.429 C 
ATOM     27  F   UNL A   1      29.325  25.271  26.059  1.00  0.00    -0.167 F 
ATOM     28  F   UNL A   1      31.022  26.380  26.847  1.00  0.00    -0.167 F 
ATOM     29  F   UNL A   1      30.153  26.889  24.902  1.00  0.00    -0.167 F 
ENDBRANCH  18  26
ENDBRANCH   5   8
ENDBRANCH   3   4
ENDBRANCH   2   3
ENDBRANCH   1   2
BRANCH   1  30
ATOM     30  C   UNL A   1      33.952  31.088  27.222  1.00  0.00     0.116 C 
BRANCH  30  31
ATOM     31  N   UNL A   1      34.431  31.806  28.393  1.00  0.00    -0.352 N 
ATOM     32  C   UNL A   1      35.395  31.409  29.328  1.00  0.00     0.251 C 
ATOM     33  H   UNL A   1      34.025  32.688  28.549  1.00  0.00     0.163 HD
ATOM     34  O   UNL A   1      35.585  32.063  30.326  1.00  0.00    -0.269 OA
BRANCH  32  35
ATOM     35  C   UNL A   1      36.282  30.249  29.014  1.00  0.00     0.039 A 
ATOM     36  C   UNL A   1      36.619  29.374  30.056  1.00  0.00     0.014 A 
ATOM     37  C   UNL A   1      36.953  30.158  27.801  1.00  0.00     0.014 A 
ATOM     38  C   UNL A   1      37.801  28.636  29.976  1.00  0.00     0.010 A 
ATOM     39  C   UNL A   1      38.189  29.550  27.772  1.00  0.00     0.010 A 
ATOM     40  C   UNL A   1      38.643  28.838  28.884  1.00  0.00    -0.014 A 
BRANCH  40  41
ATOM     41  C   UNL A   1      40.045  28.441  28.854  1.00  0.00     0.031 A 
ATOM     42  C   UNL A   1      40.432  27.080  28.431  1.00  0.00     0.074 A 
ATOM     43  C   UNL A   1      41.004  29.365  29.090  1.00  0.00     0.049 A 
ATOM     44  N   UNL A   1      41.513  26.485  28.810  1.00  0.00    -0.248 NA
ATOM     45  C   UNL A   1      39.611  26.265  27.544  1.00  0.00     0.031 C 
ATOM     46  C   UNL A   1      42.438  29.230  28.844  1.00  0.00     0.029 A 
ATOM     47  N   UNL A   1      40.884  30.585  29.782  1.00  0.00    -0.354 N 
ATOM     48  C   UNL A   1      41.675  25.369  28.021  1.00  0.00     0.074 A 
ATOM     49  C   UNL A   1      40.433  25.243  27.293  1.00  0.00     0.031 C 
ATOM     50  C   UNL A   1      43.092  30.108  29.619  1.00  0.00     0.029 A 
ATOM     51  C   UNL A   1      42.109  30.746  30.473  1.00  0.00     0.049 A 
ATOM     52  H   UNL A   1      40.112  31.195  29.784  1.00  0.00     0.167 HD
ATOM     53  C   UNL A   1      42.894  24.757  27.963  1.00  0.00     0.037 A 
ATOM     54  C   UNL A   1      42.158  30.774  31.835  1.00  0.00     0.037 A 
ATOM     55  C   UNL A   1      43.865  25.435  28.817  1.00  0.00     0.049 A 
ATOM     56  C   UNL A   1      42.995  29.678  32.445  1.00  0.00     0.074 A 
ATOM     57  C   UNL A   1      44.854  26.366  28.544  1.00  0.00     0.029 A 
ATOM     58  N   UNL A   1      43.692  25.440  30.197  1.00  0.00    -0.354 N 
ATOM     59  N   UNL A   1      43.353  28.599  31.805  1.00  0.00    -0.248 NA
ATOM     60  C   UNL A   1      43.476  29.692  33.823  1.00  0.00     0.031 C 
ATOM     61  C   UNL A   1      45.256  26.957  29.765  1.00  0.00     0.029 A 
ATOM     62  C   UNL A   1      44.521  26.377  30.784  1.00  0.00     0.049 A 
ATOM     63  H   UNL A   1      43.068  24.857  30.687  1.00  0.00     0.167 HD
ATOM     64  C   UNL A   1      44.072  27.784  32.641  1.00  0.00     0.074 A 
ATOM     65  C   UNL A   1      44.139  28.525  33.887  1.00  0.00     0.031 C 
ATOM     66  C   UNL A   1      44.542  26.569  32.226  1.00  0.00     0.037 A 
BRANCH  53  67
ATOM     67  C   UNL A   1      43.275  23.749  26.899  1.00  0.00     0.064 A 
ATOM     68  C   UNL A   1      42.927  22.386  27.026  1.00  0.00     0.173 A 
ATOM     69  C   UNL A   1      44.026  24.058  25.751  1.00  0.00     0.173 A 
ATOM     70  F   UNL A   1      42.105  21.957  27.991  1.00  0.00    -0.203 F 
ATOM     71  C   UNL A   1      43.411  21.403  26.158  1.00  0.00     0.198 A 
ATOM     72  C   UNL A   1      44.559  23.069  24.916  1.00  0.00     0.198 A 
ATOM     73  F   UNL A   1      44.223  25.327  25.372  1.00  0.00    -0.203 F 
ATOM     74  F   UNL A   1      43.056  20.123  26.340  1.00  0.00    -0.200 F 
ATOM     75  C   UNL A   1      44.264  21.739  25.129  1.00  0.00     0.200 A 
ATOM     76  F   UNL A   1      45.362  23.419  23.900  1.00  0.00    -0.200 F 
ATOM     77  F   UNL A   1      44.773  20.791  24.330  1.00  0.00    -0.200 F 
ENDBRANCH  53  67
BRANCH  54  78
ATOM     78  C   UNL A   1      40.955  31.394  32.444  1.00  0.00     0.064 A 
ATOM     79  C   UNL A   1      40.858  32.799  32.417  1.00  0.00     0.173 A 
ATOM     80  C   UNL A   1      39.776  30.667  32.646  1.00  0.00     0.173 A 
ATOM     81  F   UNL A   1      41.961  33.541  32.229  1.00  0.00    -0.203 F 
ATOM     82  C   UNL A   1      39.623  33.441  32.458  1.00  0.00     0.198 A 
ATOM     83  C   UNL A   1      38.539  31.317  32.701  1.00  0.00     0.198 A 
ATOM     84  F   UNL A   1      39.801  29.327  32.663  1.00  0.00    -0.203 F 
ATOM     85  F   UNL A   1      39.557  34.772  32.310  1.00  0.00    -0.200 F 
ATOM     86  C   UNL A   1      38.462  32.696  32.568  1.00  0.00     0.200 A 
ATOM     87  F   UNL A   1      37.412  30.597  32.792  1.00  0.00    -0.200 F 
ATOM     88  F   UNL A   1      37.268  33.303  32.505  1.00  0.00    -0.200 F 
ENDBRANCH  54  78
BRANCH  66  89
ATOM     89  C   UNL A   1      45.159  25.487  33.087  1.00  0.00     0.064 A 
ATOM     90  C   UNL A   1      46.531  25.194  33.127  1.00  0.00     0.173 A 
ATOM     91  C   UNL A   1      44.365  24.786  34.031  1.00  0.00     0.173 A 
ATOM     92  F   UNL A   1      47.413  25.870  32.379  1.00  0.00    -0.203 F 
ATOM     93  C   UNL A   1      47.058  24.231  33.995  1.00  0.00     0.198 A 
ATOM     94  C   UNL A   1      44.903  23.873  34.936  1.00  0.00     0.198 A 
ATOM     95  F   UNL A   1      43.042  24.984  34.126  1.00  0.00    -0.203 F 
ATOM     96  F   UNL A   1      48.370  23.958  33.960  1.00  0.00    -0.200 F 
ATOM     97  C   UNL A   1      46.249  23.581  34.906  1.00  0.00     0.200 A 
ATOM     98  F   UNL A   1      44.109  23.294  35.850  1.00  0.00    -0.200 F 
ATOM     99  F   UNL A   1      46.767  22.696  35.767  1.00  0.00    -0.200 F 
ENDBRANCH  66  89
ENDBRANCH  40  41
ENDBRANCH  32  35
ENDBRANCH  30  31
ENDBRANCH   1  30
TORSDOF 13
ENDMDL
MODEL 3
REMARK VINA RESULT:     -14.2      3.110      9.254
REMARK SMILES Cc1ccc(-c2cc(Cl)cc3c2O[C@@H](C(F)(F)F)C(C(=O)NCCCCNC(=O)c2ccc(-c4c5nc(c(-c6c(F)c(F)c(F)c(F)c6F)c6ccc([nH]6)c(-c6c(F)c(F)c(F)c(F)c6F)c6nc(c(-c7c(F)c(F)c(F)c(F)c7F)c7ccc4[nH]7)C=C6)C=C5)cc2)=C3)cc1
REMARK SMILES IDX 25 1 24 2 23 3 22 4 20 5 21 6 19 8 6 9 7 10 12 11 8 12 11 13
REMARK SMILES IDX 13 14 9 15 10 16 93 17 14 18 5 19 1 20 2 21 3 22 95 23 4 24
REMARK SMILES IDX 94 25 15 26 16 27 17 28 18 29 26 30 27 31 28 32 29 34 30 35
REMARK SMILES IDX 31 36 92 37 32 38 91 39 33 40 34 41 35 42 85 43 36 44 90 45
REMARK SMILES IDX 84 46 86 47 37 48 89 49 83 50 82 51 38 53 70 54 50 55 69 56
REMARK SMILES IDX 51 57 54 58 68 59 87 60 52 61 53 62 67 64 88 65 55 66 39 67
REMARK SMILES IDX 40 68 48 69 41 70 42 71 46 72 49 73 43 74 44 75 47 76 45 77
REMARK SMILES IDX 71 78 72 79 80 80 73 81 74 82 78 83 81 84 75 85 76 86 79 87
REMARK SMILES IDX 77 88 56 89 57 90 65 91 58 92 59 93 63 94 66 95 60 96 61 97
REMARK SMILES IDX 64 98 62 99
REMARK H PARENT 22 7 27 33 86 52 54 63
REMARK Flexibility Score: inf
ROOT
ATOM      1  C   UNL A   1      36.803  22.111  25.760  1.00  0.00     0.023 C 
ENDROOT
BRANCH   1   2
ATOM      2  C   UNL A   1      35.948  23.327  26.137  1.00  0.00     0.023 C 
BRANCH   2   3
ATOM      3  C   UNL A   1      34.416  23.199  26.053  1.00  0.00     0.116 C 
BRANCH   3   4
ATOM      4  N   UNL A   1      33.657  24.423  26.257  1.00  0.00    -0.352 N 
ATOM      5  C   UNL A   1      32.353  24.753  25.990  1.00  0.00     0.251 C 
ATOM      6  O   UNL A   1      31.806  25.504  26.804  1.00  0.00    -0.270 OA
ATOM      7  H   UNL A   1      34.177  25.153  26.664  1.00  0.00     0.163 HD
BRANCH   5   8
ATOM      8  C   UNL A   1      31.607  24.360  24.709  1.00  0.00     0.067 C 
ATOM      9  C   UNL A   1      32.117  28.213  23.786  1.00  0.00     0.026 A 
ATOM     10  C   UNL A   1      31.121  28.946  23.113  1.00  0.00     0.033 A 
ATOM     11  C   UNL A   1      31.904  26.837  23.816  1.00  0.00     0.135 A 
ATOM     12  C   UNL A   1      29.857  28.380  22.899  1.00  0.00     0.042 A 
ATOM     13  C   UNL A   1      30.583  26.348  23.946  1.00  0.00     0.019 A 
ATOM     14  O   UNL A   1      32.958  25.931  23.552  1.00  0.00    -0.475 OA
ATOM     15  Cl  UNL A   1      28.628  29.320  22.147  1.00  0.00    -0.084 Cl
ATOM     16  C   UNL A   1      29.552  27.116  23.414  1.00  0.00     0.032 A 
ATOM     17  C   UNL A   1      30.406  24.994  24.588  1.00  0.00     0.025 C 
ATOM     18  C   UNL A   1      32.375  24.594  23.420  1.00  0.00     0.314 C 
BRANCH   9  19
ATOM     19  C   UNL A   1      32.593  28.883  25.038  1.00  0.00    -0.015 A 
ATOM     20  C   UNL A   1      34.002  31.423  28.268  1.00  0.00     0.044 C 
ATOM     21  C   UNL A   1      33.490  30.510  27.192  1.00  0.00    -0.051 A 
ATOM     22  C   UNL A   1      34.244  29.413  26.742  1.00  0.00     0.004 A 
ATOM     23  C   UNL A   1      32.252  30.753  26.606  1.00  0.00     0.004 A 
ATOM     24  C   UNL A   1      33.803  28.607  25.673  1.00  0.00     0.009 A 
ATOM     25  C   UNL A   1      31.813  29.948  25.557  1.00  0.00     0.009 A 
ENDBRANCH   9  19
BRANCH  18  26
ATOM     26  C   UNL A   1      33.141  23.384  22.871  1.00  0.00     0.429 C 
ATOM     27  F   UNL A   1      32.858  23.209  21.550  1.00  0.00    -0.167 F 
ATOM     28  F   UNL A   1      34.478  23.489  22.973  1.00  0.00    -0.167 F 
ATOM     29  F   UNL A   1      32.758  22.224  23.463  1.00  0.00    -0.167 F 
ENDBRANCH  18  26
ENDBRANCH   5   8
ENDBRANCH   3   4
ENDBRANCH   2   3
ENDBRANCH   1   2
BRANCH   1  30
ATOM     30  C   UNL A   1      38.134  22.389  25.076  1.00  0.00     0.116 C 
BRANCH  30  31
ATOM     31  N   UNL A   1      39.354  22.058  25.797  1.00  0.00    -0.352 N 
ATOM     32  C   UNL A   1      40.212  22.910  26.502  1.00  0.00     0.251 C 
ATOM     33  H   UNL A   1      39.609  21.107  25.790  1.00  0.00     0.163 HD
ATOM     34  O   UNL A   1      41.262  22.500  26.936  1.00  0.00    -0.269 OA
BRANCH  32  35
ATOM     35  C   UNL A   1      39.755  24.293  26.834  1.00  0.00     0.039 A 
ATOM     36  C   UNL A   1      40.426  25.371  26.241  1.00  0.00     0.014 A 
ATOM     37  C   UNL A   1      38.863  24.531  27.872  1.00  0.00     0.014 A 
ATOM     38  C   UNL A   1      40.425  26.613  26.876  1.00  0.00     0.010 A 
ATOM     39  C   UNL A   1      38.972  25.707  28.583  1.00  0.00     0.010 A 
ATOM     40  C   UNL A   1      39.804  26.728  28.118  1.00  0.00    -0.014 A 
BRANCH  40  41
ATOM     41  C   UNL A   1      40.043  27.823  29.050  1.00  0.00     0.031 A 
ATOM     42  C   UNL A   1      39.085  28.941  29.159  1.00  0.00     0.074 A 
ATOM     43  C   UNL A   1      41.084  27.749  29.911  1.00  0.00     0.049 A 
ATOM     44  N   UNL A   1      39.402  30.130  29.547  1.00  0.00    -0.248 NA
ATOM     45  C   UNL A   1      37.673  28.807  28.821  1.00  0.00     0.031 C 
ATOM     46  C   UNL A   1      41.326  28.596  31.076  1.00  0.00     0.029 A 
ATOM     47  N   UNL A   1      42.254  26.976  29.795  1.00  0.00    -0.354 N 
ATOM     48  C   UNL A   1      38.234  30.819  29.785  1.00  0.00     0.074 A 
ATOM     49  C   UNL A   1      37.188  29.973  29.257  1.00  0.00     0.031 C 
ATOM     50  C   UNL A   1      42.632  28.551  31.378  1.00  0.00     0.029 A 
ATOM     51  C   UNL A   1      43.286  27.774  30.343  1.00  0.00     0.049 A 
ATOM     52  H   UNL A   1      42.336  26.072  29.414  1.00  0.00     0.167 HD
ATOM     53  C   UNL A   1      38.267  31.962  30.529  1.00  0.00     0.037 A 
ATOM     54  C   UNL A   1      44.329  28.210  29.580  1.00  0.00     0.037 A 
ATOM     55  C   UNL A   1      39.628  32.276  30.955  1.00  0.00     0.049 A 
ATOM     56  C   UNL A   1      44.444  29.711  29.493  1.00  0.00     0.074 A 
ATOM     57  C   UNL A   1      40.305  32.054  32.143  1.00  0.00     0.029 A 
ATOM     58  N   UNL A   1      40.592  32.607  30.009  1.00  0.00    -0.354 N 
ATOM     59  N   UNL A   1      43.476  30.531  29.798  1.00  0.00    -0.248 NA
ATOM     60  C   UNL A   1      45.641  30.410  29.036  1.00  0.00     0.031 C 
ATOM     61  C   UNL A   1      41.690  32.222  31.902  1.00  0.00     0.029 A 
ATOM     62  C   UNL A   1      41.854  32.559  30.570  1.00  0.00     0.049 A 
ATOM     63  H   UNL A   1      40.402  32.844  29.073  1.00  0.00     0.167 HD
ATOM     64  C   UNL A   1      43.880  31.823  29.578  1.00  0.00     0.074 A 
ATOM     65  C   UNL A   1      45.251  31.694  29.121  1.00  0.00     0.031 C 
ATOM     66  C   UNL A   1      43.040  32.880  29.790  1.00  0.00     0.037 A 
BRANCH  53  67
ATOM     67  C   UNL A   1      37.034  32.608  31.126  1.00  0.00     0.064 A 
ATOM     68  C   UNL A   1      36.215  33.467  30.359  1.00  0.00     0.173 A 
ATOM     69  C   UNL A   1      36.631  32.456  32.465  1.00  0.00     0.173 A 
ATOM     70  F   UNL A   1      36.388  33.611  29.040  1.00  0.00    -0.203 F 
ATOM     71  C   UNL A   1      35.177  34.216  30.921  1.00  0.00     0.198 A 
ATOM     72  C   UNL A   1      35.631  33.248  33.041  1.00  0.00     0.198 A 
ATOM     73  F   UNL A   1      37.157  31.501  33.242  1.00  0.00    -0.203 F 
ATOM     74  F   UNL A   1      34.444  35.025  30.143  1.00  0.00    -0.200 F 
ATOM     75  C   UNL A   1      34.914  34.140  32.272  1.00  0.00     0.200 A 
ATOM     76  F   UNL A   1      35.368  33.137  34.352  1.00  0.00    -0.200 F 
ATOM     77  F   UNL A   1      33.955  34.898  32.822  1.00  0.00    -0.200 F 
ENDBRANCH  53  67
BRANCH  54  78
ATOM     78  C   UNL A   1      44.715  27.242  28.522  1.00  0.00     0.064 A 
ATOM     79  C   UNL A   1      45.306  26.030  28.929  1.00  0.00     0.173 A 
ATOM     80  C   UNL A   1      44.155  27.293  27.240  1.00  0.00     0.173 A 
ATOM     81  F   UNL A   1      45.858  25.933  30.148  1.00  0.00    -0.203 F 
ATOM     82  C   UNL A   1      45.223  24.884  28.141  1.00  0.00     0.198 A 
ATOM     83  C   UNL A   1      44.088  26.144  26.448  1.00  0.00     0.198 A 
ATOM     84  F   UNL A   1      43.562  28.413  26.804  1.00  0.00    -0.203 F 
ATOM     85  F   UNL A   1      45.691  23.718  28.609  1.00  0.00    -0.200 F 
ATOM     86  C   UNL A   1      44.585  24.935  26.915  1.00  0.00     0.200 A 
ATOM     87  F   UNL A   1      43.457  26.187  25.265  1.00  0.00    -0.200 F 
ATOM     88  F   UNL A   1      44.416  23.814  26.200  1.00  0.00    -0.200 F 
ENDBRANCH  54  78
BRANCH  66  89
ATOM     89  C   UNL A   1      43.273  34.323  29.396  1.00  0.00     0.064 A 
ATOM     90  C   UNL A   1      43.376  35.386  30.307  1.00  0.00     0.173 A 
ATOM     91  C   UNL A   1      43.544  34.659  28.044  1.00  0.00     0.173 A 
ATOM     92  F   UNL A   1      43.267  35.189  31.627  1.00  0.00    -0.203 F 
ATOM     93  C   UNL A   1      43.664  36.691  29.893  1.00  0.00     0.198 A 
ATOM     94  C   UNL A   1      43.891  35.949  27.644  1.00  0.00     0.198 A 
ATOM     95  F   UNL A   1      43.509  33.740  27.068  1.00  0.00    -0.203 F 
ATOM     96  F   UNL A   1      43.706  37.678  30.800  1.00  0.00    -0.200 F 
ATOM     97  C   UNL A   1      43.933  36.971  28.568  1.00  0.00     0.200 A 
ATOM     98  F   UNL A   1      44.203  36.187  26.362  1.00  0.00    -0.200 F 
ATOM     99  F   UNL A   1      44.255  38.213  28.185  1.00  0.00    -0.200 F 
ENDBRANCH  66  89
ENDBRANCH  40  41
ENDBRANCH  32  35
ENDBRANCH  30  31
ENDBRANCH   1  30
TORSDOF 13
ENDMDL
