MODEL 1
REMARK VINA RESULT:     -13.0      0.000      0.000
REMARK SMILES O=C(NCCCCNC(=O)[C@@H]1CCC[N@@H+]1CC(=O)N1CCSc2ccccc21)c1ccc(-c2c3nc(c(-c4c(F)c(F)c(F)c(F)c4F)c4ccc([nH]4)c(-c4c(F)c(F)c(F)c(F)c4F)c4nc(c(-c5c(F)c(F)c(F)c(F)c5F)c5ccc2[nH]5)C=C4)C=C3)cc1
REMARK SMILES IDX 6 1 5 2 4 3 3 4 1 5 2 6 29 8 30 9 91 10 31 11 90 12 32 13
REMARK SMILES IDX 33 14 34 15 84 16 35 17 89 18 83 19 85 20 36 21 88 22 82 23
REMARK SMILES IDX 81 24 37 26 69 27 49 28 68 29 50 30 53 31 67 32 86 33 51 34
REMARK SMILES IDX 52 35 66 37 87 38 54 39 38 40 39 41 47 42 40 43 41 44 45 45
REMARK SMILES IDX 48 46 42 47 43 48 46 49 44 50 70 51 71 52 79 53 72 54 73 55
REMARK SMILES IDX 77 56 80 57 74 58 75 59 78 60 76 61 55 62 56 63 64 64 57 65
REMARK SMILES IDX 58 66 62 67 65 68 59 69 60 70 63 71 61 72 7 73 8 74 9 75
REMARK SMILES IDX 10 77 11 78 12 79 15 80 13 81 14 82 16 84 17 85 18 86 19 87
REMARK SMILES IDX 20 88 28 89 21 90 23 91 27 92 22 93 24 94 26 95 25 96
REMARK H PARENT 3 7 85 25 53 36 8 76 15 83
REMARK Flexibility Score: inf
ROOT
ATOM      1  C   UNL A   1      31.403  30.940  25.776  1.00  0.00     0.023 C 
ENDROOT
BRANCH   1   2
ATOM      2  C   UNL A   1      31.259  32.284  26.502  1.00  0.00     0.023 C 
BRANCH   2   3
ATOM      3  C   UNL A   1      32.489  32.818  27.226  1.00  0.00     0.116 C 
BRANCH   3   4
ATOM      4  N   UNL A   1      32.343  34.203  27.626  1.00  0.00    -0.352 N 
ATOM      5  O   UNL A   1      32.581  36.050  28.874  1.00  0.00    -0.269 OA
ATOM      6  C   UNL A   1      32.986  34.914  28.605  1.00  0.00     0.251 C 
ATOM      7  H   UNL A   1      31.677  34.715  27.113  1.00  0.00     0.163 HD
BRANCH   6   8
ATOM      8  C   UNL A   1      34.149  34.370  29.350  1.00  0.00     0.039 A 
ATOM      9  C   UNL A   1      35.418  34.477  28.764  1.00  0.00     0.014 A 
ATOM     10  C   UNL A   1      34.006  33.663  30.547  1.00  0.00     0.014 A 
ATOM     11  C   UNL A   1      36.528  33.875  29.366  1.00  0.00     0.010 A 
ATOM     12  C   UNL A   1      35.125  33.122  31.183  1.00  0.00     0.010 A 
ATOM     13  C   UNL A   1      36.390  33.184  30.578  1.00  0.00    -0.014 A 
BRANCH  13  14
ATOM     14  C   UNL A   1      37.521  32.410  31.155  1.00  0.00     0.031 A 
ATOM     15  C   UNL A   1      37.989  32.719  32.554  1.00  0.00     0.074 A 
ATOM     16  C   UNL A   1      38.133  31.444  30.443  1.00  0.00     0.049 A 
ATOM     17  N   UNL A   1      39.006  32.233  33.219  1.00  0.00    -0.248 NA
ATOM     18  C   UNL A   1      37.220  33.733  33.295  1.00  0.00     0.031 C 
ATOM     19  C   UNL A   1      37.781  31.044  29.083  1.00  0.00     0.029 A 
ATOM     20  N   UNL A   1      39.184  30.624  30.772  1.00  0.00    -0.354 N 
ATOM     21  C   UNL A   1      39.011  32.896  34.439  1.00  0.00     0.074 A 
ATOM     22  C   UNL A   1      37.929  33.855  34.406  1.00  0.00     0.031 C 
ATOM     23  C   UNL A   1      38.582  30.035  28.702  1.00  0.00     0.029 A 
ATOM     24  C   UNL A   1      39.528  29.742  29.776  1.00  0.00     0.049 A 
ATOM     25  H   UNL A   1      39.648  30.664  31.640  1.00  0.00     0.167 HD
ATOM     26  C   UNL A   1      39.825  32.707  35.505  1.00  0.00     0.037 A 
ATOM     27  C   UNL A   1      40.497  28.808  29.737  1.00  0.00     0.037 A 
ATOM     28  C   UNL A   1      40.868  31.718  35.561  1.00  0.00     0.049 A 
ATOM     29  C   UNL A   1      41.401  28.625  30.927  1.00  0.00     0.074 A 
ATOM     30  C   UNL A   1      41.717  31.419  36.613  1.00  0.00     0.029 A 
ATOM     31  N   UNL A   1      41.194  30.858  34.524  1.00  0.00    -0.354 N 
ATOM     32  N   UNL A   1      41.390  29.253  32.077  1.00  0.00    -0.248 NA
ATOM     33  C   UNL A   1      42.456  27.608  30.809  1.00  0.00     0.031 C 
ATOM     34  C   UNL A   1      42.578  30.397  36.201  1.00  0.00     0.029 A 
ATOM     35  C   UNL A   1      42.241  30.036  34.906  1.00  0.00     0.049 A 
ATOM     36  H   UNL A   1      40.748  30.835  33.647  1.00  0.00     0.167 HD
ATOM     37  C   UNL A   1      42.422  28.700  32.824  1.00  0.00     0.074 A 
ATOM     38  C   UNL A   1      43.028  27.671  32.004  1.00  0.00     0.031 C 
ATOM     39  C   UNL A   1      42.833  29.019  34.076  1.00  0.00     0.037 A 
BRANCH  26  40
ATOM     40  C   UNL A   1      39.610  33.579  36.706  1.00  0.00     0.064 A 
ATOM     41  C   UNL A   1      40.212  34.842  36.814  1.00  0.00     0.173 A 
ATOM     42  C   UNL A   1      38.765  33.165  37.746  1.00  0.00     0.173 A 
ATOM     43  F   UNL A   1      41.040  35.278  35.852  1.00  0.00    -0.203 F 
ATOM     44  C   UNL A   1      39.998  35.646  37.930  1.00  0.00     0.198 A 
ATOM     45  C   UNL A   1      38.530  33.984  38.849  1.00  0.00     0.198 A 
ATOM     46  F   UNL A   1      38.160  31.969  37.692  1.00  0.00    -0.203 F 
ATOM     47  F   UNL A   1      40.623  36.827  38.032  1.00  0.00    -0.200 F 
ATOM     48  C   UNL A   1      39.152  35.220  38.942  1.00  0.00     0.200 A 
ATOM     49  F   UNL A   1      37.704  33.576  39.822  1.00  0.00    -0.200 F 
ATOM     50  F   UNL A   1      38.942  35.997  40.013  1.00  0.00    -0.200 F 
ENDBRANCH  26  40
BRANCH  27  51
ATOM     51  C   UNL A   1      40.643  27.949  28.533  1.00  0.00     0.064 A 
ATOM     52  C   UNL A   1      39.999  26.705  28.461  1.00  0.00     0.173 A 
ATOM     53  C   UNL A   1      41.407  28.354  27.430  1.00  0.00     0.173 A 
ATOM     54  F   UNL A   1      39.277  26.265  29.502  1.00  0.00    -0.203 F 
ATOM     55  C   UNL A   1      40.119  25.898  27.333  1.00  0.00     0.198 A 
ATOM     56  C   UNL A   1      41.508  27.556  26.293  1.00  0.00     0.198 A 
ATOM     57  F   UNL A   1      42.043  29.535  27.452  1.00  0.00    -0.203 F 
ATOM     58  F   UNL A   1      39.519  24.700  27.302  1.00  0.00    -0.200 F 
ATOM     59  C   UNL A   1      40.867  26.327  26.247  1.00  0.00     0.200 A 
ATOM     60  F   UNL A   1      42.223  27.977  25.241  1.00  0.00    -0.200 F 
ATOM     61  F   UNL A   1      40.973  25.554  25.157  1.00  0.00    -0.200 F 
ENDBRANCH  27  51
BRANCH  39  62
ATOM     62  C   UNL A   1      43.988  28.250  34.643  1.00  0.00     0.064 A 
ATOM     63  C   UNL A   1      45.303  28.730  34.542  1.00  0.00     0.173 A 
ATOM     64  C   UNL A   1      43.775  27.060  35.356  1.00  0.00     0.173 A 
ATOM     65  F   UNL A   1      45.559  29.855  33.860  1.00  0.00    -0.203 F 
ATOM     66  C   UNL A   1      46.362  28.039  35.124  1.00  0.00     0.198 A 
ATOM     67  C   UNL A   1      44.833  26.386  35.958  1.00  0.00     0.198 A 
ATOM     68  F   UNL A   1      42.534  26.566  35.488  1.00  0.00    -0.203 F 
ATOM     69  F   UNL A   1      47.613  28.499  34.990  1.00  0.00    -0.200 F 
ATOM     70  C   UNL A   1      46.125  26.874  35.839  1.00  0.00     0.200 A 
ATOM     71  F   UNL A   1      44.600  25.268  36.659  1.00  0.00    -0.200 F 
ATOM     72  F   UNL A   1      47.144  26.219  36.412  1.00  0.00    -0.200 F 
ENDBRANCH  39  62
ENDBRANCH  13  14
ENDBRANCH   6   8
ENDBRANCH   3   4
ENDBRANCH   2   3
ENDBRANCH   1   2
BRANCH   1  73
ATOM     73  C   UNL A   1      32.595  30.069  26.181  1.00  0.00     0.116 C 
BRANCH  73  74
ATOM     74  N   UNL A   1      33.370  29.582  25.059  1.00  0.00    -0.351 N 
ATOM     75  C   UNL A   1      33.074  28.744  24.025  1.00  0.00     0.278 C 
ATOM     76  H   UNL A   1      34.293  29.925  25.038  1.00  0.00     0.163 HD
ATOM     77  O   UNL A   1      33.917  28.734  23.120  1.00  0.00    -0.268 OA
BRANCH  75  78
ATOM     78  C   UNL A   1      31.795  27.869  23.968  1.00  0.00     0.274 C 
ATOM     79  C   UNL A   1      31.101  27.367  25.219  1.00  0.00     0.081 C 
ATOM     80  N   UNL A   1      31.942  26.613  23.174  1.00  0.00    -0.317 N 
ATOM     81  C   UNL A   1      30.130  26.313  24.694  1.00  0.00     0.068 C 
ATOM     82  C   UNL A   1      30.685  25.881  23.343  1.00  0.00     0.263 C 
ATOM     83  H   UNL A   1      32.125  26.918  22.218  1.00  0.00     0.349 HD
BRANCH  80  84
ATOM     84  C   UNL A   1      33.156  25.767  23.285  1.00  0.00     0.364 C 
BRANCH  84  85
ATOM     85  C   UNL A   1      33.197  24.380  22.573  1.00  0.00     0.282 C 
ATOM     86  O   UNL A   1      33.278  24.315  21.344  1.00  0.00    -0.268 OA
BRANCH  85  87
ATOM     87  N   UNL A   1      33.267  23.252  23.416  1.00  0.00    -0.306 N 
ATOM     88  C   UNL A   1      32.038  22.543  23.728  1.00  0.00     0.137 C 
ATOM     89  C   UNL A   1      34.497  22.605  23.829  1.00  0.00     0.057 A 
ATOM     90  C   UNL A   1      31.934  22.105  25.167  1.00  0.00     0.097 C 
ATOM     91  C   UNL A   1      34.483  21.423  24.625  1.00  0.00     0.031 A 
ATOM     92  C   UNL A   1      35.751  23.158  23.535  1.00  0.00     0.027 A 
ATOM     93  S   UNL A   1      33.007  20.672  25.327  1.00  0.00    -0.122 SA
ATOM     94  C   UNL A   1      35.678  20.791  25.001  1.00  0.00     0.017 A 
ATOM     95  C   UNL A   1      36.939  22.542  23.955  1.00  0.00     0.002 A 
ATOM     96  C   UNL A   1      36.904  21.349  24.668  1.00  0.00     0.001 A 
ENDBRANCH  85  87
ENDBRANCH  84  85
ENDBRANCH  80  84
ENDBRANCH  75  78
ENDBRANCH  73  74
ENDBRANCH   1  73
TORSDOF 14
ENDMDL
MODEL 2
REMARK VINA RESULT:     -13.0      0.981      7.296
REMARK SMILES O=C(NCCCCNC(=O)[C@@H]1CCC[N@@H+]1CC(=O)N1CCSc2ccccc21)c1ccc(-c2c3nc(c(-c4c(F)c(F)c(F)c(F)c4F)c4ccc([nH]4)c(-c4c(F)c(F)c(F)c(F)c4F)c4nc(c(-c5c(F)c(F)c(F)c(F)c5F)c5ccc2[nH]5)C=C4)C=C3)cc1
REMARK SMILES IDX 6 1 5 2 4 3 3 4 1 5 2 6 29 8 30 9 91 10 31 11 90 12 32 13
REMARK SMILES IDX 33 14 34 15 84 16 35 17 89 18 83 19 85 20 36 21 88 22 82 23
REMARK SMILES IDX 81 24 37 26 69 27 49 28 68 29 50 30 53 31 67 32 86 33 51 34
REMARK SMILES IDX 52 35 66 37 87 38 54 39 38 40 39 41 47 42 40 43 41 44 45 45
REMARK SMILES IDX 48 46 42 47 43 48 46 49 44 50 70 51 71 52 79 53 72 54 73 55
REMARK SMILES IDX 77 56 80 57 74 58 75 59 78 60 76 61 55 62 56 63 64 64 57 65
REMARK SMILES IDX 58 66 62 67 65 68 59 69 60 70 63 71 61 72 7 73 8 74 9 75
REMARK SMILES IDX 10 77 11 78 12 79 15 80 13 81 14 82 16 84 17 85 18 86 19 87
REMARK SMILES IDX 20 88 28 89 21 90 23 91 27 92 22 93 24 94 26 95 25 96
REMARK H PARENT 3 7 85 25 53 36 8 76 15 83
REMARK Flexibility Score: inf
ROOT
ATOM      1  C   UNL A   1      31.672  30.691  26.240  1.00  0.00     0.023 C 
ENDROOT
BRANCH   1   2
ATOM      2  C   UNL A   1      31.489  32.081  26.863  1.00  0.00     0.023 C 
BRANCH   2   3
ATOM      3  C   UNL A   1      32.749  32.811  27.313  1.00  0.00     0.116 C 
BRANCH   3   4
ATOM      4  N   UNL A   1      32.500  34.201  27.642  1.00  0.00    -0.352 N 
ATOM      5  O   UNL A   1      32.556  36.108  28.818  1.00  0.00    -0.269 OA
ATOM      6  C   UNL A   1      33.040  34.988  28.624  1.00  0.00     0.251 C 
ATOM      7  H   UNL A   1      31.839  34.650  27.068  1.00  0.00     0.163 HD
BRANCH   6   8
ATOM      8  C   UNL A   1      34.184  34.546  29.459  1.00  0.00     0.039 A 
ATOM      9  C   UNL A   1      35.468  34.578  28.896  1.00  0.00     0.014 A 
ATOM     10  C   UNL A   1      34.012  33.997  30.734  1.00  0.00     0.014 A 
ATOM     11  C   UNL A   1      36.562  34.060  29.595  1.00  0.00     0.010 A 
ATOM     12  C   UNL A   1      35.115  33.543  31.460  1.00  0.00     0.010 A 
ATOM     13  C   UNL A   1      36.394  33.529  30.882  1.00  0.00    -0.014 A 
BRANCH  13  14
ATOM     14  C   UNL A   1      37.510  32.837  31.579  1.00  0.00     0.031 A 
ATOM     15  C   UNL A   1      38.198  31.679  30.902  1.00  0.00     0.074 A 
ATOM     16  C   UNL A   1      37.908  33.226  32.805  1.00  0.00     0.049 A 
ATOM     17  N   UNL A   1      39.130  30.881  31.358  1.00  0.00    -0.248 NA
ATOM     18  C   UNL A   1      37.759  31.364  29.533  1.00  0.00     0.031 C 
ATOM     19  C   UNL A   1      37.331  34.329  33.571  1.00  0.00     0.029 A 
ATOM     20  N   UNL A   1      38.895  32.732  33.622  1.00  0.00    -0.354 N 
ATOM     21  C   UNL A   1      39.367  29.961  30.345  1.00  0.00     0.074 A 
ATOM     22  C   UNL A   1      38.448  30.265  29.271  1.00  0.00     0.031 C 
ATOM     23  C   UNL A   1      37.992  34.447  34.734  1.00  0.00     0.029 A 
ATOM     24  C   UNL A   1      39.016  33.407  34.812  1.00  0.00     0.049 A 
ATOM     25  H   UNL A   1      39.465  31.967  33.376  1.00  0.00     0.167 HD
ATOM     26  C   UNL A   1      40.286  28.966  30.300  1.00  0.00     0.037 A 
ATOM     27  C   UNL A   1      39.854  33.206  35.847  1.00  0.00     0.037 A 
ATOM     28  C   UNL A   1      41.235  28.693  31.345  1.00  0.00     0.049 A 
ATOM     29  C   UNL A   1      40.857  32.084  35.782  1.00  0.00     0.074 A 
ATOM     30  C   UNL A   1      42.235  27.737  31.374  1.00  0.00     0.029 A 
ATOM     31  N   UNL A   1      41.311  29.389  32.542  1.00  0.00    -0.354 N 
ATOM     32  N   UNL A   1      41.076  31.227  34.816  1.00  0.00    -0.248 NA
ATOM     33  C   UNL A   1      41.723  31.900  36.956  1.00  0.00     0.031 C 
ATOM     34  C   UNL A   1      42.897  27.834  32.602  1.00  0.00     0.029 A 
ATOM     35  C   UNL A   1      42.332  28.874  33.322  1.00  0.00     0.049 A 
ATOM     36  H   UNL A   1      40.725  30.137  32.799  1.00  0.00     0.167 HD
ATOM     37  C   UNL A   1      42.112  30.413  35.255  1.00  0.00     0.074 A 
ATOM     38  C   UNL A   1      42.491  30.890  36.570  1.00  0.00     0.031 C 
ATOM     39  C   UNL A   1      42.694  29.361  34.629  1.00  0.00     0.037 A 
BRANCH  26  40
ATOM     40  C   UNL A   1      40.318  28.107  29.071  1.00  0.00     0.064 A 
ATOM     41  C   UNL A   1      41.088  28.456  27.951  1.00  0.00     0.173 A 
ATOM     42  C   UNL A   1      39.598  26.904  29.023  1.00  0.00     0.173 A 
ATOM     43  F   UNL A   1      41.783  29.604  27.942  1.00  0.00    -0.203 F 
ATOM     44  C   UNL A   1      41.116  27.647  26.819  1.00  0.00     0.198 A 
ATOM     45  C   UNL A   1      39.650  26.082  27.899  1.00  0.00     0.198 A 
ATOM     46  F   UNL A   1      38.849  26.520  30.068  1.00  0.00    -0.203 F 
ATOM     47  F   UNL A   1      41.820  28.025  25.744  1.00  0.00    -0.200 F 
ATOM     48  C   UNL A   1      40.403  26.457  26.796  1.00  0.00     0.200 A 
ATOM     49  F   UNL A   1      38.970  24.927  27.882  1.00  0.00    -0.200 F 
ATOM     50  F   UNL A   1      40.435  25.676  25.708  1.00  0.00    -0.200 F 
ENDBRANCH  26  40
BRANCH  27  51
ATOM     51  C   UNL A   1      39.799  34.109  37.025  1.00  0.00     0.064 A 
ATOM     52  C   UNL A   1      38.979  33.804  38.121  1.00  0.00     0.173 A 
ATOM     53  C   UNL A   1      40.569  35.279  37.090  1.00  0.00     0.173 A 
ATOM     54  F   UNL A   1      38.206  32.709  38.093  1.00  0.00    -0.203 F 
ATOM     55  C   UNL A   1      38.929  34.637  39.236  1.00  0.00     0.198 A 
ATOM     56  C   UNL A   1      40.536  36.099  38.215  1.00  0.00     0.198 A 
ATOM     57  F   UNL A   1      41.367  35.614  36.066  1.00  0.00    -0.203 F 
ATOM     58  F   UNL A   1      38.115  34.339  40.258  1.00  0.00    -0.200 F 
ATOM     59  C   UNL A   1      39.713  35.780  39.285  1.00  0.00     0.200 A 
ATOM     60  F   UNL A   1      41.302  37.198  38.264  1.00  0.00    -0.200 F 
ATOM     61  F   UNL A   1      39.673  36.577  40.363  1.00  0.00    -0.200 F 
ENDBRANCH  27  51
BRANCH  39  62
ATOM     62  C   UNL A   1      43.804  28.653  35.346  1.00  0.00     0.064 A 
ATOM     63  C   UNL A   1      43.541  27.601  36.236  1.00  0.00     0.173 A 
ATOM     64  C   UNL A   1      45.144  28.980  35.090  1.00  0.00     0.173 A 
ATOM     65  F   UNL A   1      42.276  27.261  36.523  1.00  0.00    -0.203 F 
ATOM     66  C   UNL A   1      44.582  26.910  36.852  1.00  0.00     0.198 A 
ATOM     67  C   UNL A   1      46.181  28.271  35.688  1.00  0.00     0.198 A 
ATOM     68  F   UNL A   1      45.446  29.973  34.240  1.00  0.00    -0.203 F 
ATOM     69  F   UNL A   1      44.308  25.928  37.721  1.00  0.00    -0.200 F 
ATOM     70  C   UNL A   1      45.899  27.240  36.570  1.00  0.00     0.200 A 
ATOM     71  F   UNL A   1      47.453  28.581  35.404  1.00  0.00    -0.200 F 
ATOM     72  F   UNL A   1      46.899  26.563  37.152  1.00  0.00    -0.200 F 
ENDBRANCH  39  62
ENDBRANCH  13  14
ENDBRANCH   6   8
ENDBRANCH   3   4
ENDBRANCH   2   3
ENDBRANCH   1   2
BRANCH   1  73
ATOM     73  C   UNL A   1      32.600  29.726  26.982  1.00  0.00     0.116 C 
BRANCH  73  74
ATOM     74  N   UNL A   1      32.023  28.417  27.208  1.00  0.00    -0.351 N 
ATOM     75  C   UNL A   1      31.507  27.477  26.367  1.00  0.00     0.278 C 
ATOM     76  H   UNL A   1      31.998  28.155  28.157  1.00  0.00     0.163 HD
ATOM     77  O   UNL A   1      31.313  26.374  26.894  1.00  0.00    -0.268 OA
BRANCH  75  78
ATOM     78  C   UNL A   1      31.185  27.743  24.874  1.00  0.00     0.274 C 
ATOM     79  C   UNL A   1      30.205  26.891  24.092  1.00  0.00     0.081 C 
ATOM     80  N   UNL A   1      32.378  27.741  23.976  1.00  0.00    -0.317 N 
ATOM     81  C   UNL A   1      30.453  27.294  22.642  1.00  0.00     0.068 C 
ATOM     82  C   UNL A   1      31.857  27.886  22.615  1.00  0.00     0.263 C 
ATOM     83  H   UNL A   1      32.954  28.521  24.290  1.00  0.00     0.349 HD
BRANCH  80  84
ATOM     84  C   UNL A   1      33.444  26.718  24.111  1.00  0.00     0.364 C 
BRANCH  84  85
ATOM     85  C   UNL A   1      33.510  25.533  23.100  1.00  0.00     0.282 C 
ATOM     86  O   UNL A   1      33.891  25.724  21.943  1.00  0.00    -0.268 OA
BRANCH  85  87
ATOM     87  N   UNL A   1      33.239  24.253  23.625  1.00  0.00    -0.306 N 
ATOM     88  C   UNL A   1      31.868  23.774  23.610  1.00  0.00     0.137 C 
ATOM     89  C   UNL A   1      34.249  23.278  23.986  1.00  0.00     0.057 A 
ATOM     90  C   UNL A   1      31.460  23.048  24.867  1.00  0.00     0.097 C 
ATOM     91  C   UNL A   1      33.896  21.975  24.443  1.00  0.00     0.031 A 
ATOM     92  C   UNL A   1      35.614  23.600  23.981  1.00  0.00     0.027 A 
ATOM     93  S   UNL A   1      32.215  21.420  24.766  1.00  0.00    -0.122 SA
ATOM     94  C   UNL A   1      34.881  21.031  24.769  1.00  0.00     0.017 A 
ATOM     95  C   UNL A   1      36.588  22.662  24.353  1.00  0.00     0.002 A 
ATOM     96  C   UNL A   1      36.225  21.373  24.725  1.00  0.00     0.001 A 
ENDBRANCH  85  87
ENDBRANCH  84  85
ENDBRANCH  80  84
ENDBRANCH  75  78
ENDBRANCH  73  74
ENDBRANCH   1  73
TORSDOF 14
ENDMDL
MODEL 3
REMARK VINA RESULT:     -13.0      0.583      7.241
REMARK SMILES O=C(NCCCCNC(=O)[C@@H]1CCC[N@@H+]1CC(=O)N1CCSc2ccccc21)c1ccc(-c2c3nc(c(-c4c(F)c(F)c(F)c(F)c4F)c4ccc([nH]4)c(-c4c(F)c(F)c(F)c(F)c4F)c4nc(c(-c5c(F)c(F)c(F)c(F)c5F)c5ccc2[nH]5)C=C4)C=C3)cc1
REMARK SMILES IDX 6 1 5 2 4 3 3 4 1 5 2 6 29 8 30 9 91 10 31 11 90 12 32 13
REMARK SMILES IDX 33 14 34 15 84 16 35 17 89 18 83 19 85 20 36 21 88 22 82 23
REMARK SMILES IDX 81 24 37 26 69 27 49 28 68 29 50 30 53 31 67 32 86 33 51 34
REMARK SMILES IDX 52 35 66 37 87 38 54 39 38 40 39 41 47 42 40 43 41 44 45 45
REMARK SMILES IDX 48 46 42 47 43 48 46 49 44 50 70 51 71 52 79 53 72 54 73 55
REMARK SMILES IDX 77 56 80 57 74 58 75 59 78 60 76 61 55 62 56 63 64 64 57 65
REMARK SMILES IDX 58 66 62 67 65 68 59 69 60 70 63 71 61 72 7 73 8 74 9 75
REMARK SMILES IDX 10 77 11 78 12 79 15 80 13 81 14 82 16 84 17 85 18 86 19 87
REMARK SMILES IDX 20 88 28 89 21 90 23 91 27 92 22 93 24 94 26 95 25 96
REMARK H PARENT 3 7 85 25 53 36 8 76 15 83
REMARK Flexibility Score: inf
ROOT
ATOM      1  C   UNL A   1      31.672  30.733  26.043  1.00  0.00     0.023 C 
ENDROOT
BRANCH   1   2
ATOM      2  C   UNL A   1      31.477  32.037  26.828  1.00  0.00     0.023 C 
BRANCH   2   3
ATOM      3  C   UNL A   1      32.734  32.763  27.291  1.00  0.00     0.116 C 
BRANCH   3   4
ATOM      4  N   UNL A   1      32.486  34.152  27.623  1.00  0.00    -0.352 N 
ATOM      5  O   UNL A   1      32.539  36.056  28.804  1.00  0.00    -0.269 OA
ATOM      6  C   UNL A   1      33.022  34.936  28.610  1.00  0.00     0.251 C 
ATOM      7  H   UNL A   1      31.828  34.604  27.047  1.00  0.00     0.163 HD
BRANCH   6   8
ATOM      8  C   UNL A   1      34.162  34.490  29.449  1.00  0.00     0.039 A 
ATOM      9  C   UNL A   1      35.451  34.553  28.903  1.00  0.00     0.014 A 
ATOM     10  C   UNL A   1      33.981  33.910  30.708  1.00  0.00     0.014 A 
ATOM     11  C   UNL A   1      36.544  34.033  29.604  1.00  0.00     0.010 A 
ATOM     12  C   UNL A   1      35.081  33.454  31.438  1.00  0.00     0.010 A 
ATOM     13  C   UNL A   1      36.367  33.471  30.876  1.00  0.00    -0.014 A 
BRANCH  13  14
ATOM     14  C   UNL A   1      37.484  32.777  31.571  1.00  0.00     0.031 A 
ATOM     15  C   UNL A   1      38.180  31.629  30.886  1.00  0.00     0.074 A 
ATOM     16  C   UNL A   1      37.876  33.158  32.802  1.00  0.00     0.049 A 
ATOM     17  N   UNL A   1      39.113  30.831  31.339  1.00  0.00    -0.248 NA
ATOM     18  C   UNL A   1      37.747  31.323  29.513  1.00  0.00     0.031 C 
ATOM     19  C   UNL A   1      37.291  34.252  33.575  1.00  0.00     0.029 A 
ATOM     20  N   UNL A   1      38.863  32.662  33.617  1.00  0.00    -0.354 N 
ATOM     21  C   UNL A   1      39.358  29.920  30.319  1.00  0.00     0.074 A 
ATOM     22  C   UNL A   1      38.442  30.230  29.244  1.00  0.00     0.031 C 
ATOM     23  C   UNL A   1      37.948  34.364  34.741  1.00  0.00     0.029 A 
ATOM     24  C   UNL A   1      38.976  33.327  34.814  1.00  0.00     0.049 A 
ATOM     25  H   UNL A   1      39.437  31.902  33.368  1.00  0.00     0.167 HD
ATOM     26  C   UNL A   1      40.282  28.930  30.269  1.00  0.00     0.037 A 
ATOM     27  C   UNL A   1      39.812  33.121  35.850  1.00  0.00     0.037 A 
ATOM     28  C   UNL A   1      41.229  28.653  31.315  1.00  0.00     0.049 A 
ATOM     29  C   UNL A   1      40.820  32.005  35.779  1.00  0.00     0.074 A 
ATOM     30  C   UNL A   1      42.233  27.701  31.339  1.00  0.00     0.029 A 
ATOM     31  N   UNL A   1      41.297  29.339  32.518  1.00  0.00    -0.354 N 
ATOM     32  N   UNL A   1      41.047  31.156  34.806  1.00  0.00    -0.248 NA
ATOM     33  C   UNL A   1      41.683  31.815  36.954  1.00  0.00     0.031 C 
ATOM     34  C   UNL A   1      42.890  27.791  32.570  1.00  0.00     0.029 A 
ATOM     35  C   UNL A   1      42.318  28.822  33.297  1.00  0.00     0.049 A 
ATOM     36  H   UNL A   1      40.707  30.082  32.779  1.00  0.00     0.167 HD
ATOM     37  C   UNL A   1      42.085  30.343  35.243  1.00  0.00     0.074 A 
ATOM     38  C   UNL A   1      42.457  30.811  36.562  1.00  0.00     0.031 C 
ATOM     39  C   UNL A   1      42.673  29.299  34.609  1.00  0.00     0.037 A 
BRANCH  26  40
ATOM     40  C   UNL A   1      40.322  28.081  29.033  1.00  0.00     0.064 A 
ATOM     41  C   UNL A   1      41.094  28.443  27.919  1.00  0.00     0.173 A 
ATOM     42  C   UNL A   1      39.608  26.876  28.972  1.00  0.00     0.173 A 
ATOM     43  F   UNL A   1      41.784  29.595  27.922  1.00  0.00    -0.203 F 
ATOM     44  C   UNL A   1      41.129  27.644  26.780  1.00  0.00     0.198 A 
ATOM     45  C   UNL A   1      39.668  26.064  27.842  1.00  0.00     0.198 A 
ATOM     46  F   UNL A   1      38.857  26.480  30.011  1.00  0.00    -0.203 F 
ATOM     47  F   UNL A   1      41.836  28.035  25.710  1.00  0.00    -0.200 F 
ATOM     48  C   UNL A   1      40.422  26.451  26.745  1.00  0.00     0.200 A 
ATOM     49  F   UNL A   1      38.992  24.906  27.813  1.00  0.00    -0.200 F 
ATOM     50  F   UNL A   1      40.462  25.680  25.650  1.00  0.00    -0.200 F 
ENDBRANCH  26  40
BRANCH  27  51
ATOM     51  C   UNL A   1      39.749  34.014  37.035  1.00  0.00     0.064 A 
ATOM     52  C   UNL A   1      40.484  35.208  37.069  1.00  0.00     0.173 A 
ATOM     53  C   UNL A   1      38.949  33.707  38.145  1.00  0.00     0.173 A 
ATOM     54  F   UNL A   1      41.282  35.531  36.041  1.00  0.00    -0.203 F 
ATOM     55  C   UNL A   1      40.423  36.059  38.170  1.00  0.00     0.198 A 
ATOM     56  C   UNL A   1      38.871  34.570  39.236  1.00  0.00     0.198 A 
ATOM     57  F   UNL A   1      38.230  32.576  38.160  1.00  0.00    -0.203 F 
ATOM     58  F   UNL A   1      41.158  37.180  38.190  1.00  0.00    -0.200 F 
ATOM     59  C   UNL A   1      39.612  35.743  39.249  1.00  0.00     0.200 A 
ATOM     60  F   UNL A   1      38.079  34.267  40.272  1.00  0.00    -0.200 F 
ATOM     61  F   UNL A   1      39.545  36.568  40.304  1.00  0.00    -0.200 F 
ENDBRANCH  27  51
BRANCH  39  62
ATOM     62  C   UNL A   1      43.784  28.591  35.325  1.00  0.00     0.064 A 
ATOM     63  C   UNL A   1      45.119  28.996  35.180  1.00  0.00     0.173 A 
ATOM     64  C   UNL A   1      43.506  27.545  36.217  1.00  0.00     0.173 A 
ATOM     65  F   UNL A   1      45.436  29.982  34.328  1.00  0.00    -0.203 F 
ATOM     66  C   UNL A   1      46.136  28.370  35.895  1.00  0.00     0.198 A 
ATOM     67  C   UNL A   1      44.523  26.939  36.949  1.00  0.00     0.198 A 
ATOM     68  F   UNL A   1      42.244  27.127  36.397  1.00  0.00    -0.203 F 
ATOM     69  F   UNL A   1      47.409  28.753  35.719  1.00  0.00    -0.200 F 
ATOM     70  C   UNL A   1      45.837  27.349  36.785  1.00  0.00     0.200 A 
ATOM     71  F   UNL A   1      44.230  25.962  37.818  1.00  0.00    -0.200 F 
ATOM     72  F   UNL A   1      46.816  26.759  37.483  1.00  0.00    -0.200 F 
ENDBRANCH  39  62
ENDBRANCH  13  14
ENDBRANCH   6   8
ENDBRANCH   3   4
ENDBRANCH   2   3
ENDBRANCH   1   2
BRANCH   1  73
ATOM     73  C   UNL A   1      32.970  29.966  26.305  1.00  0.00     0.116 C 
BRANCH  73  74
ATOM     74  N   UNL A   1      33.612  29.477  25.102  1.00  0.00    -0.351 N 
ATOM     75  C   UNL A   1      33.204  28.628  24.117  1.00  0.00     0.278 C 
ATOM     76  H   UNL A   1      34.523  29.828  24.970  1.00  0.00     0.163 HD
ATOM     77  O   UNL A   1      33.934  28.619  23.118  1.00  0.00    -0.268 OA
BRANCH  75  78
ATOM     78  C   UNL A   1      31.936  27.741  24.217  1.00  0.00     0.274 C 
ATOM     79  C   UNL A   1      31.401  27.241  25.544  1.00  0.00     0.081 C 
ATOM     80  N   UNL A   1      32.000  26.483  23.416  1.00  0.00    -0.317 N 
ATOM     81  C   UNL A   1      30.385  26.174  25.144  1.00  0.00     0.068 C 
ATOM     82  C   UNL A   1      30.779  25.740  23.737  1.00  0.00     0.263 C 
ATOM     83  H   UNL A   1      32.064  26.784  22.444  1.00  0.00     0.349 HD
BRANCH  80  84
ATOM     84  C   UNL A   1      33.226  25.648  23.385  1.00  0.00     0.364 C 
BRANCH  84  85
ATOM     85  C   UNL A   1      33.213  24.286  22.627  1.00  0.00     0.282 C 
ATOM     86  O   UNL A   1      33.264  24.259  21.395  1.00  0.00    -0.268 OA
BRANCH  85  87
ATOM     87  N   UNL A   1      33.271  23.128  23.430  1.00  0.00    -0.306 N 
ATOM     88  C   UNL A   1      32.044  22.389  23.670  1.00  0.00     0.137 C 
ATOM     89  C   UNL A   1      34.496  22.485  23.864  1.00  0.00     0.057 A 
ATOM     90  C   UNL A   1      31.895  21.896  25.087  1.00  0.00     0.097 C 
ATOM     91  C   UNL A   1      34.474  21.274  24.615  1.00  0.00     0.031 A 
ATOM     92  C   UNL A   1      35.751  23.068  23.637  1.00  0.00     0.027 A 
ATOM     93  S   UNL A   1      32.986  20.475  25.235  1.00  0.00    -0.122 SA
ATOM     94  C   UNL A   1      35.665  20.647  25.011  1.00  0.00     0.017 A 
ATOM     95  C   UNL A   1      36.933  22.455  24.078  1.00  0.00     0.002 A 
ATOM     96  C   UNL A   1      36.892  21.237  24.745  1.00  0.00     0.001 A 
ENDBRANCH  85  87
ENDBRANCH  84  85
ENDBRANCH  80  84
ENDBRANCH  75  78
ENDBRANCH  73  74
ENDBRANCH   1  73
TORSDOF 14
ENDMDL
