MODEL 1
REMARK VINA RESULT:     -12.1      0.000      0.000
REMARK SMILES C[C@]12CC[C@H]3[C@@H](CCC4=CC(=O)C=C[C@@]43C)[C@@H]1CC[C@H]2O[C@@H]1O[C@H](C(=O)NCCCCNC(=O)c2ccc(-c3c4nc(c(-c5c(F)c(F)c(F)c(F)c5F)c5ccc([nH]5)c(-c5c(F)c(F)c(F)c(F)c5F)c5nc(c(-c6c(F)c(F)c(F)c(F)c6F)c6ccc3[nH]6)C=C5)C=C4)cc2)[C@@H](O)[C@H](O)[C@H]1O
REMARK SMILES IDX 29 1 28 2 27 3 25 4 26 5 24 7 22 8 23 9 102 10 100 11 98 12
REMARK SMILES IDX 21 13 20 14 1 15 2 16 3 17 17 18 4 19 6 20 18 21 19 22 5 23
REMARK SMILES IDX 7 24 15 25 8 26 9 27 14 28 16 29 10 30 13 31 11 32 12 33
REMARK SMILES IDX 103 34 101 36 99 38 30 40 31 41 32 42 33 43 34 45 35 46
REMARK SMILES IDX 36 47 97 48 37 49 96 50 38 51 39 52 40 53 90 54 41 55 95 56
REMARK SMILES IDX 89 57 91 58 42 59 94 60 88 61 87 62 43 64 75 65 55 66 74 67
REMARK SMILES IDX 56 68 59 69 73 70 92 71 57 72 58 73 72 75 93 76 60 77 44 78
REMARK SMILES IDX 45 79 53 80 46 81 47 82 51 83 54 84 48 85 49 86 52 87 50 88
REMARK SMILES IDX 76 89 77 90 85 91 78 92 79 93 83 94 86 95 80 96 81 97 84 98
REMARK SMILES IDX 82 99 61 100 62 101 70 102 63 103 64 104 68 105 71 106
REMARK SMILES IDX 65 107 66 108 69 109 67 110
REMARK H PARENT 27 6 103 35 101 37 99 39 32 44 91 63 59 74
REMARK Flexibility Score: inf
ROOT
ATOM      1  C   UNL A   1      44.301  23.367  31.739  1.00  0.00     0.023 C 
ENDROOT
BRANCH   1   2
ATOM      2  C   UNL A   1      43.901  22.934  29.716  1.00  0.00     0.116 C 
BRANCH   2   3
ATOM      3  N   UNL A   1      42.962  22.069  28.880  1.00  0.00    -0.354 N 
ATOM      4  C   UNL A   1      42.838  21.758  27.546  1.00  0.00     0.252 C 
ATOM      5  O   UNL A   1      41.931  20.959  27.269  1.00  0.00    -0.272 OA
ATOM      6  H   UNL A   1      42.277  21.625  29.431  1.00  0.00     0.163 HD
BRANCH   4   7
ATOM      7  C   UNL A   1      43.728  22.317  26.393  1.00  0.00     0.241 C 
ATOM      8  C   UNL A   1      44.997  24.210  25.529  1.00  0.00     0.282 C 
ATOM      9  O   UNL A   1      44.183  23.656  26.575  1.00  0.00    -0.334 OA
ATOM     10  C   UNL A   1      46.115  23.263  25.012  1.00  0.00     0.202 C 
ATOM     11  C   UNL A   1      45.619  21.826  24.839  1.00  0.00     0.180 C 
ATOM     12  C   UNL A   1      44.869  21.345  26.079  1.00  0.00     0.184 C 
BRANCH   8  13
ATOM     13  O   UNL A   1      45.464  25.548  25.828  1.00  0.00    -0.346 OA
BRANCH  13  14
ATOM     14  C   UNL A   1      46.818  25.967  26.087  1.00  0.00     0.127 C 
ATOM     15  C   UNL A   1      48.480  27.877  26.482  1.00  0.00     0.014 C 
ATOM     16  C   UNL A   1      47.004  27.383  26.686  1.00  0.00    -0.003 C 
ATOM     17  C   UNL A   1      46.126  28.504  26.053  1.00  0.00     0.010 C 
ATOM     18  C   UNL A   1      46.745  26.977  28.161  1.00  0.00     0.001 C 
ATOM     19  C   UNL A   1      46.040  29.828  26.858  1.00  0.00     0.006 C 
ATOM     20  C   UNL A   1      46.709  28.155  29.059  1.00  0.00    -0.003 C 
ATOM     21  C   UNL A   1      47.685  25.809  28.414  1.00  0.00     0.007 C 
ATOM     22  C   UNL A   1      47.641  25.065  27.053  1.00  0.00     0.033 C 
ATOM     23  C   UNL A   1      45.469  29.481  28.230  1.00  0.00     0.006 C 
ATOM     24  C   UNL A   1      46.615  27.890  30.998  1.00  0.00     0.009 C 
ATOM     25  C   UNL A   1      44.738  30.940  29.334  1.00  0.00     0.010 C 
ATOM     26  C   UNL A   1      45.874  29.375  32.049  1.00  0.00     0.032 C 
ATOM     27  C   UNL A   1      44.809  30.719  31.217  1.00  0.00    -0.056 C 
ATOM     28  C   UNL A   1      43.274  31.288  28.973  1.00  0.00    -0.012 C 
ATOM     29  C   UNL A   1      45.237  32.399  28.993  1.00  0.00     0.021 C 
ATOM     30  C   UNL A   1      43.789  31.237  31.930  1.00  0.00     0.052 C 
ATOM     31  C   UNL A   1      42.385  31.793  29.850  1.00  0.00     0.048 C 
ATOM     32  C   UNL A   1      42.641  31.955  31.308  1.00  0.00     0.178 C 
ATOM     33  O   UNL A   1      41.854  32.582  32.009  1.00  0.00    -0.290 OA
ENDBRANCH  13  14
ENDBRANCH   8  13
BRANCH  10  34
ATOM     34  O   UNL A   1      46.711  23.729  23.794  1.00  0.00    -0.385 OA
ATOM     35  H   UNL A   1      46.514  23.105  23.078  1.00  0.00     0.211 HD
ENDBRANCH  10  34
BRANCH  11  36
ATOM     36  O   UNL A   1      46.703  20.902  24.616  1.00  0.00    -0.387 OA
ATOM     37  H   UNL A   1      47.519  21.397  24.440  1.00  0.00     0.211 HD
ENDBRANCH  11  36
BRANCH  12  38
ATOM     38  O   UNL A   1      44.396  20.020  25.823  1.00  0.00    -0.387 OA
ATOM     39  H   UNL A   1      43.885  19.705  26.586  1.00  0.00     0.211 HD
ENDBRANCH  12  38
ENDBRANCH   4   7
ENDBRANCH   2   3
ENDBRANCH   1   2
BRANCH   1  40
ATOM     40  C   UNL A   1      44.975  23.257  33.192  1.00  0.00     0.023 C 
BRANCH  40  41
ATOM     41  C   UNL A   1      46.084  24.154  33.608  1.00  0.00     0.116 C 
BRANCH  41  42
ATOM     42  N   UNL A   1      46.414  23.981  35.027  1.00  0.00    -0.352 N 
ATOM     43  C   UNL A   1      46.027  24.843  36.026  1.00  0.00     0.251 C 
ATOM     44  H   UNL A   1      46.950  23.195  35.283  1.00  0.00     0.163 HD
ATOM     45  O   UNL A   1      46.461  24.789  37.166  1.00  0.00    -0.269 OA
BRANCH  43  46
ATOM     46  C   UNL A   1      45.069  25.869  35.595  1.00  0.00     0.039 A 
ATOM     47  C   UNL A   1      45.544  27.025  34.976  1.00  0.00     0.014 A 
ATOM     48  C   UNL A   1      43.732  25.472  35.501  1.00  0.00     0.014 A 
ATOM     49  C   UNL A   1      44.652  27.792  34.236  1.00  0.00     0.010 A 
ATOM     50  C   UNL A   1      42.894  26.155  34.646  1.00  0.00     0.010 A 
ATOM     51  C   UNL A   1      43.330  27.352  34.058  1.00  0.00    -0.014 A 
BRANCH  51  52
ATOM     52  C   UNL A   1      42.327  28.210  33.398  1.00  0.00     0.031 A 
ATOM     53  C   UNL A   1      42.065  27.981  31.937  1.00  0.00     0.074 A 
ATOM     54  C   UNL A   1      41.692  29.178  34.082  1.00  0.00     0.049 A 
ATOM     55  N   UNL A   1      41.241  28.601  31.135  1.00  0.00    -0.248 NA
ATOM     56  C   UNL A   1      42.871  26.939  31.273  1.00  0.00     0.031 C 
ATOM     57  C   UNL A   1      41.926  29.525  35.485  1.00  0.00     0.029 A 
ATOM     58  N   UNL A   1      40.713  30.047  33.681  1.00  0.00    -0.354 N 
ATOM     59  C   UNL A   1      41.451  28.038  29.884  1.00  0.00     0.074 A 
ATOM     60  C   UNL A   1      42.538  27.100  30.006  1.00  0.00     0.031 C 
ATOM     61  C   UNL A   1      41.082  30.510  35.838  1.00  0.00     0.029 A 
ATOM     62  C   UNL A   1      40.265  30.872  34.682  1.00  0.00     0.049 A 
ATOM     63  H   UNL A   1      40.362  30.076  32.761  1.00  0.00     0.167 HD
ATOM     64  C   UNL A   1      40.760  28.246  28.742  1.00  0.00     0.037 A 
ATOM     65  C   UNL A   1      39.290  31.801  34.658  1.00  0.00     0.037 A 
ATOM     66  C   UNL A   1      39.645  29.141  28.650  1.00  0.00     0.049 A 
ATOM     67  C   UNL A   1      38.513  31.997  33.383  1.00  0.00     0.074 A 
ATOM     68  C   UNL A   1      38.819  29.384  27.570  1.00  0.00     0.029 A 
ATOM     69  N   UNL A   1      39.199  29.941  29.692  1.00  0.00    -0.354 N 
ATOM     70  N   UNL A   1      38.654  31.394  32.226  1.00  0.00    -0.248 NA
ATOM     71  C   UNL A   1      37.432  32.991  33.413  1.00  0.00     0.031 C 
ATOM     72  C   UNL A   1      37.897  30.366  27.946  1.00  0.00     0.029 A 
ATOM     73  C   UNL A   1      38.118  30.695  29.276  1.00  0.00     0.049 A 
ATOM     74  H   UNL A   1      39.593  29.967  30.595  1.00  0.00     0.167 HD
ATOM     75  C   UNL A   1      37.666  31.914  31.400  1.00  0.00     0.074 A 
ATOM     76  C   UNL A   1      36.922  32.870  32.196  1.00  0.00     0.031 C 
ATOM     77  C   UNL A   1      37.395  31.629  30.101  1.00  0.00     0.037 A 
BRANCH  64  78
ATOM     78  C   UNL A   1      41.194  27.478  27.529  1.00  0.00     0.064 A 
ATOM     79  C   UNL A   1      40.789  26.150  27.312  1.00  0.00     0.173 A 
ATOM     80  C   UNL A   1      42.041  28.069  26.583  1.00  0.00     0.173 A 
ATOM     81  F   UNL A   1      39.999  25.529  28.202  1.00  0.00    -0.203 F 
ATOM     82  C   UNL A   1      41.250  25.432  26.212  1.00  0.00     0.198 A 
ATOM     83  C   UNL A   1      42.471  27.357  25.465  1.00  0.00     0.198 A 
ATOM     84  F   UNL A   1      42.461  29.332  26.745  1.00  0.00    -0.203 F 
ATOM     85  F   UNL A   1      40.908  24.144  26.065  1.00  0.00    -0.200 F 
ATOM     86  C   UNL A   1      42.085  26.037  25.287  1.00  0.00     0.200 A 
ATOM     87  F   UNL A   1      43.273  27.947  24.567  1.00  0.00    -0.200 F 
ATOM     88  F   UNL A   1      42.528  25.345  24.228  1.00  0.00    -0.200 F 
ENDBRANCH  64  78
BRANCH  65  89
ATOM     89  C   UNL A   1      38.963  32.567  35.888  1.00  0.00     0.064 A 
ATOM     90  C   UNL A   1      39.417  33.883  36.061  1.00  0.00     0.173 A 
ATOM     91  C   UNL A   1      38.187  32.009  36.913  1.00  0.00     0.173 A 
ATOM     92  F   UNL A   1      40.175  34.459  35.116  1.00  0.00    -0.203 F 
ATOM     93  C   UNL A   1      39.124  34.602  37.219  1.00  0.00     0.198 A 
ATOM     94  C   UNL A   1      37.873  32.737  38.059  1.00  0.00     0.198 A 
ATOM     95  F   UNL A   1      37.720  30.757  36.794  1.00  0.00    -0.203 F 
ATOM     96  F   UNL A   1      39.604  35.843  37.374  1.00  0.00    -0.200 F 
ATOM     97  C   UNL A   1      38.347  34.030  38.214  1.00  0.00     0.200 A 
ATOM     98  F   UNL A   1      37.108  32.186  39.012  1.00  0.00    -0.200 F 
ATOM     99  F   UNL A   1      38.060  34.723  39.324  1.00  0.00    -0.200 F 
ENDBRANCH  65  89
BRANCH  77 100
ATOM    100  C   UNL A   1      36.232  32.336  29.471  1.00  0.00     0.064 A 
ATOM    101  C   UNL A   1      36.265  33.712  29.209  1.00  0.00     0.173 A 
ATOM    102  C   UNL A   1      35.102  31.611  29.065  1.00  0.00     0.173 A 
ATOM    103  F   UNL A   1      37.321  34.447  29.588  1.00  0.00    -0.203 F 
ATOM    104  C   UNL A   1      35.196  34.343  28.581  1.00  0.00     0.198 A 
ATOM    105  C   UNL A   1      34.049  32.240  28.409  1.00  0.00     0.198 A 
ATOM    106  F   UNL A   1      35.030  30.289  29.284  1.00  0.00    -0.203 F 
ATOM    107  F   UNL A   1      35.228  35.667  28.376  1.00  0.00    -0.200 F 
ATOM    108  C   UNL A   1      34.094  33.605  28.174  1.00  0.00     0.200 A 
ATOM    109  F   UNL A   1      32.992  31.523  28.001  1.00  0.00    -0.200 F 
ATOM    110  F   UNL A   1      33.071  34.213  27.556  1.00  0.00    -0.200 F 
ENDBRANCH  77 100
ENDBRANCH  51  52
ENDBRANCH  43  46
ENDBRANCH  41  42
ENDBRANCH  40  41
ENDBRANCH   1  40
TORSDOF 16
ENDMDL
MODEL 2
REMARK VINA RESULT:     -11.6      6.249     10.861
REMARK SMILES C[C@]12CC[C@H]3[C@@H](CCC4=CC(=O)C=C[C@@]43C)[C@@H]1CC[C@H]2O[C@@H]1O[C@H](C(=O)NCCCCNC(=O)c2ccc(-c3c4nc(c(-c5c(F)c(F)c(F)c(F)c5F)c5ccc([nH]5)c(-c5c(F)c(F)c(F)c(F)c5F)c5nc(c(-c6c(F)c(F)c(F)c(F)c6F)c6ccc3[nH]6)C=C5)C=C4)cc2)[C@@H](O)[C@H](O)[C@H]1O
REMARK SMILES IDX 29 1 28 2 27 3 25 4 26 5 24 7 22 8 23 9 102 10 100 11 98 12
REMARK SMILES IDX 21 13 20 14 1 15 2 16 3 17 17 18 4 19 6 20 18 21 19 22 5 23
REMARK SMILES IDX 7 24 15 25 8 26 9 27 14 28 16 29 10 30 13 31 11 32 12 33
REMARK SMILES IDX 103 34 101 36 99 38 30 40 31 41 32 42 33 43 34 45 35 46
REMARK SMILES IDX 36 47 97 48 37 49 96 50 38 51 39 52 40 53 90 54 41 55 95 56
REMARK SMILES IDX 89 57 91 58 42 59 94 60 88 61 87 62 43 64 75 65 55 66 74 67
REMARK SMILES IDX 56 68 59 69 73 70 92 71 57 72 58 73 72 75 93 76 60 77 44 78
REMARK SMILES IDX 45 79 53 80 46 81 47 82 51 83 54 84 48 85 49 86 52 87 50 88
REMARK SMILES IDX 76 89 77 90 85 91 78 92 79 93 83 94 86 95 80 96 81 97 84 98
REMARK SMILES IDX 82 99 61 100 62 101 70 102 63 103 64 104 68 105 71 106
REMARK SMILES IDX 65 107 66 108 69 109 67 110
REMARK H PARENT 27 6 103 35 101 37 99 39 32 44 91 63 59 74
REMARK Flexibility Score: inf
ROOT
ATOM      1  C   UNL A   1      47.042  20.963  34.507  1.00  0.00     0.023 C 
ENDROOT
BRANCH   1   2
ATOM      2  C   UNL A   1      48.955  20.169  34.892  1.00  0.00     0.116 C 
BRANCH   2   3
ATOM      3  N   UNL A   1      49.806  19.719  36.076  1.00  0.00    -0.354 N 
ATOM      4  C   UNL A   1      49.608  19.571  37.430  1.00  0.00     0.252 C 
ATOM      5  O   UNL A   1      50.578  19.130  38.063  1.00  0.00    -0.272 OA
ATOM      6  H   UNL A   1      50.721  19.476  35.806  1.00  0.00     0.163 HD
BRANCH   4   7
ATOM      7  C   UNL A   1      48.293  19.903  38.201  1.00  0.00     0.241 C 
ATOM      8  C   UNL A   1      46.761  19.272  39.989  1.00  0.00     0.282 C 
ATOM      9  O   UNL A   1      47.971  19.005  39.261  1.00  0.00    -0.334 OA
ATOM     10  C   UNL A   1      46.561  20.761  40.384  1.00  0.00     0.202 C 
ATOM     11  C   UNL A   1      46.928  21.714  39.245  1.00  0.00     0.180 C 
ATOM     12  C   UNL A   1      48.291  21.368  38.649  1.00  0.00     0.184 C 
BRANCH   8  13
ATOM     13  O   UNL A   1      46.548  18.349  41.084  1.00  0.00    -0.346 OA
BRANCH  13  14
ATOM     14  C   UNL A   1      46.552  18.645  42.495  1.00  0.00     0.127 C 
ATOM     15  C   UNL A   1      45.350  18.542  44.755  1.00  0.00     0.014 C 
ATOM     16  C   UNL A   1      45.581  17.824  43.379  1.00  0.00    -0.003 C 
ATOM     17  C   UNL A   1      44.149  17.621  42.800  1.00  0.00     0.010 C 
ATOM     18  C   UNL A   1      46.504  16.586  43.538  1.00  0.00     0.001 C 
ATOM     19  C   UNL A   1      43.292  16.527  43.490  1.00  0.00     0.006 C 
ATOM     20  C   UNL A   1      45.825  15.480  44.253  1.00  0.00    -0.003 C 
ATOM     21  C   UNL A   1      47.832  17.150  44.017  1.00  0.00     0.007 C 
ATOM     22  C   UNL A   1      47.918  18.481  43.225  1.00  0.00     0.033 C 
ATOM     23  C   UNL A   1      44.057  15.213  43.364  1.00  0.00     0.006 C 
ATOM     24  C   UNL A   1      46.847  13.892  44.770  1.00  0.00     0.009 C 
ATOM     25  C   UNL A   1      43.077  13.529  43.655  1.00  0.00     0.010 C 
ATOM     26  C   UNL A   1      45.820  12.240  45.042  1.00  0.00     0.032 C 
ATOM     27  C   UNL A   1      44.069  12.052  44.311  1.00  0.00    -0.056 C 
ATOM     28  C   UNL A   1      42.327  13.046  42.390  1.00  0.00    -0.012 C 
ATOM     29  C   UNL A   1      41.738  13.628  44.489  1.00  0.00     0.021 C 
ATOM     30  C   UNL A   1      43.704  10.829  43.874  1.00  0.00     0.052 C 
ATOM     31  C   UNL A   1      42.067  11.753  42.120  1.00  0.00     0.048 C 
ATOM     32  C   UNL A   1      42.581  10.607  42.920  1.00  0.00     0.178 C 
ATOM     33  O   UNL A   1      42.160   9.473  42.719  1.00  0.00    -0.290 OA
ENDBRANCH  13  14
ENDBRANCH   8  13
BRANCH  10  34
ATOM     34  O   UNL A   1      45.232  21.034  40.846  1.00  0.00    -0.385 OA
ATOM     35  H   UNL A   1      44.592  20.760  40.171  1.00  0.00     0.211 HD
ENDBRANCH  10  34
BRANCH  11  36
ATOM     36  O   UNL A   1      46.996  23.085  39.686  1.00  0.00    -0.387 OA
ATOM     37  H   UNL A   1      46.531  23.176  40.533  1.00  0.00     0.211 HD
ENDBRANCH  11  36
BRANCH  12  38
ATOM     38  O   UNL A   1      48.539  22.265  37.563  1.00  0.00    -0.387 OA
ATOM     39  H   UNL A   1      47.717  22.411  37.069  1.00  0.00     0.211 HD
ENDBRANCH  12  38
ENDBRANCH   4   7
ENDBRANCH   2   3
ENDBRANCH   1   2
BRANCH   1  40
ATOM     40  C   UNL A   1      45.858  22.043  34.404  1.00  0.00     0.023 C 
BRANCH  40  41
ATOM     41  C   UNL A   1      46.100  23.491  34.632  1.00  0.00     0.116 C 
BRANCH  41  42
ATOM     42  N   UNL A   1      46.766  23.731  35.918  1.00  0.00    -0.352 N 
ATOM     43  C   UNL A   1      46.707  24.914  36.615  1.00  0.00     0.251 C 
ATOM     44  H   UNL A   1      47.291  22.995  36.308  1.00  0.00     0.163 HD
ATOM     45  O   UNL A   1      47.410  25.161  37.582  1.00  0.00    -0.269 OA
BRANCH  43  46
ATOM     46  C   UNL A   1      45.747  25.884  36.072  1.00  0.00     0.039 A 
ATOM     47  C   UNL A   1      46.212  26.921  35.264  1.00  0.00     0.014 A 
ATOM     48  C   UNL A   1      44.401  25.506  36.094  1.00  0.00     0.014 A 
ATOM     49  C   UNL A   1      45.301  27.587  34.452  1.00  0.00     0.010 A 
ATOM     50  C   UNL A   1      43.537  26.069  35.179  1.00  0.00     0.010 A 
ATOM     51  C   UNL A   1      43.965  27.153  34.398  1.00  0.00    -0.014 A 
BRANCH  51  52
ATOM     52  C   UNL A   1      42.949  27.923  33.656  1.00  0.00     0.031 A 
ATOM     53  C   UNL A   1      42.800  27.649  32.186  1.00  0.00     0.074 A 
ATOM     54  C   UNL A   1      42.202  28.853  34.275  1.00  0.00     0.049 A 
ATOM     55  N   UNL A   1      41.987  28.192  31.319  1.00  0.00    -0.248 NA
ATOM     56  C   UNL A   1      43.721  26.658  31.599  1.00  0.00     0.031 C 
ATOM     57  C   UNL A   1      42.317  29.242  35.682  1.00  0.00     0.029 A 
ATOM     58  N   UNL A   1      41.190  29.640  33.792  1.00  0.00    -0.354 N 
ATOM     59  C   UNL A   1      42.320  27.623  30.097  1.00  0.00     0.074 A 
ATOM     60  C   UNL A   1      43.462  26.770  30.310  1.00  0.00     0.031 C 
ATOM     61  C   UNL A   1      41.382  30.167  35.957  1.00  0.00     0.029 A 
ATOM     62  C   UNL A   1      40.619  30.447  34.743  1.00  0.00     0.049 A 
ATOM     63  H   UNL A   1      40.899  29.626  32.852  1.00  0.00     0.167 HD
ATOM     64  C   UNL A   1      41.692  27.759  28.909  1.00  0.00     0.037 A 
ATOM     65  C   UNL A   1      39.582  31.301  34.636  1.00  0.00     0.037 A 
ATOM     66  C   UNL A   1      40.523  28.567  28.725  1.00  0.00     0.049 A 
ATOM     67  C   UNL A   1      38.879  31.416  33.309  1.00  0.00     0.074 A 
ATOM     68  C   UNL A   1      39.755  28.729  27.589  1.00  0.00     0.029 A 
ATOM     69  N   UNL A   1      39.952  29.351  29.718  1.00  0.00    -0.354 N 
ATOM     70  N   UNL A   1      39.138  30.805  32.178  1.00  0.00    -0.248 NA
ATOM     71  C   UNL A   1      37.728  32.327  33.248  1.00  0.00     0.031 C 
ATOM     72  C   UNL A   1      38.741  29.646  27.883  1.00  0.00     0.029 A 
ATOM     73  C   UNL A   1      38.849  30.015  29.216  1.00  0.00     0.049 A 
ATOM     74  H   UNL A   1      40.284  29.422  30.644  1.00  0.00     0.167 HD
ATOM     75  C   UNL A   1      38.172  31.234  31.279  1.00  0.00     0.074 A 
ATOM     76  C   UNL A   1      37.309  32.147  32.003  1.00  0.00     0.031 C 
ATOM     77  C   UNL A   1      38.008  30.908  29.972  1.00  0.00     0.037 A 
BRANCH  64  78
ATOM     78  C   UNL A   1      42.259  27.004  27.744  1.00  0.00     0.064 A 
ATOM     79  C   UNL A   1      41.927  25.660  27.503  1.00  0.00     0.173 A 
ATOM     80  C   UNL A   1      43.161  27.623  26.869  1.00  0.00     0.173 A 
ATOM     81  F   UNL A   1      41.089  25.011  28.327  1.00  0.00    -0.203 F 
ATOM     82  C   UNL A   1      42.510  24.955  26.453  1.00  0.00     0.198 A 
ATOM     83  C   UNL A   1      43.714  26.925  25.799  1.00  0.00     0.198 A 
ATOM     84  F   UNL A   1      43.515  28.903  27.058  1.00  0.00    -0.203 F 
ATOM     85  F   UNL A   1      42.233  23.654  26.287  1.00  0.00    -0.200 F 
ATOM     86  C   UNL A   1      43.397  25.590  25.598  1.00  0.00     0.200 A 
ATOM     87  F   UNL A   1      44.567  27.542  24.968  1.00  0.00    -0.200 F 
ATOM     88  F   UNL A   1      43.957  24.911  24.588  1.00  0.00    -0.200 F 
ENDBRANCH  64  78
BRANCH  65  89
ATOM     89  C   UNL A   1      39.120  32.063  35.825  1.00  0.00     0.064 A 
ATOM     90  C   UNL A   1      38.257  31.480  36.764  1.00  0.00     0.173 A 
ATOM     91  C   UNL A   1      39.532  33.383  36.053  1.00  0.00     0.173 A 
ATOM     92  F   UNL A   1      37.822  30.224  36.584  1.00  0.00    -0.203 F 
ATOM     93  C   UNL A   1      37.810  32.194  37.875  1.00  0.00     0.198 A 
ATOM     94  C   UNL A   1      39.104  34.088  37.177  1.00  0.00     0.198 A 
ATOM     95  F   UNL A   1      40.363  33.985  35.190  1.00  0.00    -0.203 F 
ATOM     96  F   UNL A   1      36.955  31.625  38.735  1.00  0.00    -0.200 F 
ATOM     97  C   UNL A   1      38.238  33.495  38.083  1.00  0.00     0.200 A 
ATOM     98  F   UNL A   1      39.533  35.341  37.383  1.00  0.00    -0.200 F 
ATOM     99  F   UNL A   1      37.813  34.180  39.153  1.00  0.00    -0.200 F 
ENDBRANCH  65  89
BRANCH  77 100
ATOM    100  C   UNL A   1      36.841  31.514  29.253  1.00  0.00     0.064 A 
ATOM    101  C   UNL A   1      35.706  30.759  28.930  1.00  0.00     0.173 A 
ATOM    102  C   UNL A   1      36.834  32.883  28.946  1.00  0.00     0.173 A 
ATOM    103  F   UNL A   1      35.671  29.444  29.195  1.00  0.00    -0.203 F 
ATOM    104  C   UNL A   1      34.612  31.348  28.304  1.00  0.00     0.198 A 
ATOM    105  C   UNL A   1      35.726  33.475  28.350  1.00  0.00     0.198 A 
ATOM    106  F   UNL A   1      37.893  33.650  29.247  1.00  0.00    -0.203 F 
ATOM    107  F   UNL A   1      33.552  30.600  27.966  1.00  0.00    -0.200 F 
ATOM    108  C   UNL A   1      34.619  32.707  28.024  1.00  0.00     0.200 A 
ATOM    109  F   UNL A   1      35.728  34.791  28.095  1.00  0.00    -0.200 F 
ATOM    110  F   UNL A   1      33.558  33.275  27.433  1.00  0.00    -0.200 F 
ENDBRANCH  77 100
ENDBRANCH  51  52
ENDBRANCH  43  46
ENDBRANCH  41  42
ENDBRANCH  40  41
ENDBRANCH   1  40
TORSDOF 16
ENDMDL
MODEL 3
REMARK VINA RESULT:     -11.5      4.170      9.647
REMARK SMILES C[C@]12CC[C@H]3[C@@H](CCC4=CC(=O)C=C[C@@]43C)[C@@H]1CC[C@H]2O[C@@H]1O[C@H](C(=O)NCCCCNC(=O)c2ccc(-c3c4nc(c(-c5c(F)c(F)c(F)c(F)c5F)c5ccc([nH]5)c(-c5c(F)c(F)c(F)c(F)c5F)c5nc(c(-c6c(F)c(F)c(F)c(F)c6F)c6ccc3[nH]6)C=C5)C=C4)cc2)[C@@H](O)[C@H](O)[C@H]1O
REMARK SMILES IDX 29 1 28 2 27 3 25 4 26 5 24 7 22 8 23 9 102 10 100 11 98 12
REMARK SMILES IDX 21 13 20 14 1 15 2 16 3 17 17 18 4 19 6 20 18 21 19 22 5 23
REMARK SMILES IDX 7 24 15 25 8 26 9 27 14 28 16 29 10 30 13 31 11 32 12 33
REMARK SMILES IDX 103 34 101 36 99 38 30 40 31 41 32 42 33 43 34 45 35 46
REMARK SMILES IDX 36 47 97 48 37 49 96 50 38 51 39 52 40 53 90 54 41 55 95 56
REMARK SMILES IDX 89 57 91 58 42 59 94 60 88 61 87 62 43 64 75 65 55 66 74 67
REMARK SMILES IDX 56 68 59 69 73 70 92 71 57 72 58 73 72 75 93 76 60 77 44 78
REMARK SMILES IDX 45 79 53 80 46 81 47 82 51 83 54 84 48 85 49 86 52 87 50 88
REMARK SMILES IDX 76 89 77 90 85 91 78 92 79 93 83 94 86 95 80 96 81 97 84 98
REMARK SMILES IDX 82 99 61 100 62 101 70 102 63 103 64 104 68 105 71 106
REMARK SMILES IDX 65 107 66 108 69 109 67 110
REMARK H PARENT 27 6 103 35 101 37 99 39 32 44 91 63 59 74
REMARK Flexibility Score: inf
ROOT
ATOM      1  C   UNL A   1      44.578  21.892  24.958  1.00  0.00     0.023 C 
ENDROOT
BRANCH   1   2
ATOM      2  C   UNL A   1      43.520  20.174  25.566  1.00  0.00     0.116 C 
BRANCH   2   3
ATOM      3  N   UNL A   1      42.486  19.758  26.608  1.00  0.00    -0.354 N 
ATOM      4  C   UNL A   1      41.383  20.343  27.187  1.00  0.00     0.252 C 
ATOM      5  O   UNL A   1      40.768  19.632  27.995  1.00  0.00    -0.272 OA
ATOM      6  H   UNL A   1      42.648  18.850  26.951  1.00  0.00     0.163 HD
BRANCH   4   7
ATOM      7  C   UNL A   1      40.864  21.787  26.907  1.00  0.00     0.241 C 
ATOM      8  C   UNL A   1      38.936  23.215  26.478  1.00  0.00     0.282 C 
ATOM      9  O   UNL A   1      39.451  21.902  26.748  1.00  0.00    -0.334 OA
ATOM     10  C   UNL A   1      39.530  24.338  27.372  1.00  0.00     0.202 C 
ATOM     11  C   UNL A   1      41.043  24.193  27.551  1.00  0.00     0.180 C 
ATOM     12  C   UNL A   1      41.421  22.767  27.945  1.00  0.00     0.184 C 
BRANCH   8  13
ATOM     13  O   UNL A   1      37.490  23.246  26.396  1.00  0.00    -0.346 OA
BRANCH  13  14
ATOM     14  C   UNL A   1      36.634  22.358  25.652  1.00  0.00     0.127 C 
ATOM     15  C   UNL A   1      34.265  21.542  25.114  1.00  0.00     0.014 C 
ATOM     16  C   UNL A   1      35.148  22.774  25.520  1.00  0.00    -0.003 C 
ATOM     17  C   UNL A   1      34.482  23.322  26.817  1.00  0.00     0.010 C 
ATOM     18  C   UNL A   1      35.350  23.740  24.321  1.00  0.00     0.001 C 
ATOM     19  C   UNL A   1      33.131  24.059  26.623  1.00  0.00     0.006 C 
ATOM     20  C   UNL A   1      34.103  24.464  23.980  1.00  0.00    -0.003 C 
ATOM     21  C   UNL A   1      36.107  22.923  23.286  1.00  0.00     0.007 C 
ATOM     22  C   UNL A   1      37.053  22.077  24.178  1.00  0.00     0.033 C 
ATOM     23  C   UNL A   1      33.392  25.231  25.681  1.00  0.00     0.006 C 
ATOM     24  C   UNL A   1      34.041  25.577  22.369  1.00  0.00     0.009 C 
ATOM     25  C   UNL A   1      32.062  26.681  25.603  1.00  0.00     0.010 C 
ATOM     26  C   UNL A   1      32.699  27.011  22.348  1.00  0.00     0.032 C 
ATOM     27  C   UNL A   1      31.917  27.636  23.970  1.00  0.00    -0.056 C 
ATOM     28  C   UNL A   1      32.252  27.730  26.726  1.00  0.00    -0.012 C 
ATOM     29  C   UNL A   1      30.603  26.327  26.093  1.00  0.00     0.021 C 
ATOM     30  C   UNL A   1      31.624  28.949  24.056  1.00  0.00     0.052 C 
ATOM     31  C   UNL A   1      31.902  29.025  26.610  1.00  0.00     0.048 C 
ATOM     32  C   UNL A   1      31.417  29.656  25.351  1.00  0.00     0.178 C 
ATOM     33  O   UNL A   1      30.952  30.790  25.366  1.00  0.00    -0.290 OA
ENDBRANCH  13  14
ENDBRANCH   8  13
BRANCH  10  34
ATOM     34  O   UNL A   1      39.214  25.650  26.891  1.00  0.00    -0.385 OA
ATOM     35  H   UNL A   1      38.372  25.624  26.410  1.00  0.00     0.211 HD
ENDBRANCH  10  34
BRANCH  11  36
ATOM     36  O   UNL A   1      41.553  25.065  28.579  1.00  0.00    -0.387 OA
ATOM     37  H   UNL A   1      40.861  25.689  28.847  1.00  0.00     0.211 HD
ENDBRANCH  11  36
BRANCH  12  38
ATOM     38  O   UNL A   1      42.846  22.698  28.042  1.00  0.00    -0.387 OA
ATOM     39  H   UNL A   1      43.093  22.130  28.789  1.00  0.00     0.211 HD
ENDBRANCH  12  38
ENDBRANCH   4   7
ENDBRANCH   2   3
ENDBRANCH   1   2
BRANCH   1  40
ATOM     40  C   UNL A   1      44.868  23.303  24.249  1.00  0.00     0.023 C 
BRANCH  40  41
ATOM     41  C   UNL A   1      44.835  24.579  25.009  1.00  0.00     0.116 C 
BRANCH  41  42
ATOM     42  N   UNL A   1      46.102  25.310  24.892  1.00  0.00    -0.352 N 
ATOM     43  C   UNL A   1      46.373  26.504  25.516  1.00  0.00     0.251 C 
ATOM     44  H   UNL A   1      46.808  24.918  24.327  1.00  0.00     0.163 HD
ATOM     45  O   UNL A   1      47.352  27.189  25.264  1.00  0.00    -0.269 OA
BRANCH  43  46
ATOM     46  C   UNL A   1      45.355  26.915  26.492  1.00  0.00     0.039 A 
ATOM     47  C   UNL A   1      45.009  26.041  27.522  1.00  0.00     0.014 A 
ATOM     48  C   UNL A   1      45.061  28.280  26.547  1.00  0.00     0.014 A 
ATOM     49  C   UNL A   1      44.361  26.557  28.638  1.00  0.00     0.010 A 
ATOM     50  C   UNL A   1      44.555  28.806  27.718  1.00  0.00     0.010 A 
ATOM     51  C   UNL A   1      44.146  27.941  28.744  1.00  0.00    -0.014 A 
BRANCH  51  52
ATOM     52  C   UNL A   1      43.339  28.500  29.846  1.00  0.00     0.031 A 
ATOM     53  C   UNL A   1      43.964  28.550  31.212  1.00  0.00     0.074 A 
ATOM     54  C   UNL A   1      42.083  28.927  29.632  1.00  0.00     0.049 A 
ATOM     55  N   UNL A   1      43.463  28.989  32.336  1.00  0.00    -0.248 NA
ATOM     56  C   UNL A   1      45.321  27.990  31.342  1.00  0.00     0.031 C 
ATOM     57  C   UNL A   1      41.363  28.858  28.359  1.00  0.00     0.029 A 
ATOM     58  N   UNL A   1      41.188  29.508  30.491  1.00  0.00    -0.354 N 
ATOM     59  C   UNL A   1      44.435  28.735  33.295  1.00  0.00     0.074 A 
ATOM     60  C   UNL A   1      45.509  28.023  32.649  1.00  0.00     0.031 C 
ATOM     61  C   UNL A   1      40.150  29.415  28.513  1.00  0.00     0.029 A 
ATOM     62  C   UNL A   1      40.003  29.860  29.897  1.00  0.00     0.049 A 
ATOM     63  H   UNL A   1      41.379  29.661  31.445  1.00  0.00     0.167 HD
ATOM     64  C   UNL A   1      44.455  29.111  34.592  1.00  0.00     0.037 A 
ATOM     65  C   UNL A   1      38.932  30.488  30.419  1.00  0.00     0.037 A 
ATOM     66  C   UNL A   1      43.404  29.868  35.207  1.00  0.00     0.049 A 
ATOM     67  C   UNL A   1      38.985  30.924  31.860  1.00  0.00     0.074 A 
ATOM     68  C   UNL A   1      43.340  30.371  36.491  1.00  0.00     0.029 A 
ATOM     69  N   UNL A   1      42.228  30.233  34.566  1.00  0.00    -0.354 N 
ATOM     70  N   UNL A   1      39.947  30.765  32.739  1.00  0.00    -0.248 NA
ATOM     71  C   UNL A   1      37.813  31.642  32.378  1.00  0.00     0.031 C 
ATOM     72  C   UNL A   1      42.103  31.006  36.642  1.00  0.00     0.029 A 
ATOM     73  C   UNL A   1      41.421  30.942  35.436  1.00  0.00     0.049 A 
ATOM     74  H   UNL A   1      42.003  30.021  33.631  1.00  0.00     0.167 HD
ATOM     75  C   UNL A   1      39.509  31.382  33.903  1.00  0.00     0.074 A 
ATOM     76  C   UNL A   1      38.201  31.935  33.611  1.00  0.00     0.031 C 
ATOM     77  C   UNL A   1      40.128  31.486  35.106  1.00  0.00     0.037 A 
BRANCH  64  78
ATOM     78  C   UNL A   1      45.653  28.717  35.402  1.00  0.00     0.064 A 
ATOM     79  C   UNL A   1      46.802  29.524  35.463  1.00  0.00     0.173 A 
ATOM     80  C   UNL A   1      45.663  27.508  36.110  1.00  0.00     0.173 A 
ATOM     81  F   UNL A   1      46.854  30.679  34.781  1.00  0.00    -0.203 F 
ATOM     82  C   UNL A   1      47.928  29.115  36.170  1.00  0.00     0.198 A 
ATOM     83  C   UNL A   1      46.780  27.119  36.845  1.00  0.00     0.198 A 
ATOM     84  F   UNL A   1      44.595  26.698  36.081  1.00  0.00    -0.203 F 
ATOM     85  F   UNL A   1      49.038  29.868  36.154  1.00  0.00    -0.200 F 
ATOM     86  C   UNL A   1      47.915  27.916  36.866  1.00  0.00     0.200 A 
ATOM     87  F   UNL A   1      46.762  25.963  37.524  1.00  0.00    -0.200 F 
ATOM     88  F   UNL A   1      49.000  27.523  37.546  1.00  0.00    -0.200 F 
ENDBRANCH  64  78
BRANCH  65  89
ATOM     89  C   UNL A   1      37.754  30.786  29.565  1.00  0.00     0.064 A 
ATOM     90  C   UNL A   1      36.818  29.789  29.253  1.00  0.00     0.173 A 
ATOM     91  C   UNL A   1      37.533  32.070  29.047  1.00  0.00     0.173 A 
ATOM     92  F   UNL A   1      36.991  28.541  29.712  1.00  0.00    -0.203 F 
ATOM     93  C   UNL A   1      35.717  30.060  28.441  1.00  0.00     0.198 A 
ATOM     94  C   UNL A   1      36.419  32.346  28.256  1.00  0.00     0.198 A 
ATOM     95  F   UNL A   1      38.393  33.061  29.322  1.00  0.00    -0.203 F 
ATOM     96  F   UNL A   1      34.861  29.079  28.127  1.00  0.00    -0.200 F 
ATOM     97  C   UNL A   1      35.516  31.340  27.947  1.00  0.00     0.200 A 
ATOM     98  F   UNL A   1      36.219  33.588  27.794  1.00  0.00    -0.200 F 
ATOM     99  F   UNL A   1      34.456  31.602  27.172  1.00  0.00    -0.200 F 
ENDBRANCH  65  89
BRANCH  77 100
ATOM    100  C   UNL A   1      39.415  32.247  36.183  1.00  0.00     0.064 A 
ATOM    101  C   UNL A   1      38.431  31.643  36.978  1.00  0.00     0.173 A 
ATOM    102  C   UNL A   1      39.771  33.574  36.464  1.00  0.00     0.173 A 
ATOM    103  F   UNL A   1      38.051  30.379  36.739  1.00  0.00    -0.203 F 
ATOM    104  C   UNL A   1      37.812  32.350  38.004  1.00  0.00     0.198 A 
ATOM    105  C   UNL A   1      39.173  34.267  37.511  1.00  0.00     0.198 A 
ATOM    106  F   UNL A   1      40.716  34.190  35.737  1.00  0.00    -0.203 F 
ATOM    107  F   UNL A   1      36.844  31.769  38.726  1.00  0.00    -0.200 F 
ATOM    108  C   UNL A   1      38.190  33.657  38.275  1.00  0.00     0.200 A 
ATOM    109  F   UNL A   1      39.551  35.524  37.783  1.00  0.00    -0.200 F 
ATOM    110  F   UNL A   1      37.602  34.331  39.273  1.00  0.00    -0.200 F 
ENDBRANCH  77 100
ENDBRANCH  51  52
ENDBRANCH  43  46
ENDBRANCH  41  42
ENDBRANCH  40  41
ENDBRANCH   1  40
TORSDOF 16
ENDMDL
