MODEL 1
REMARK VINA RESULT:     -13.1      0.000      0.000
REMARK SMILES O=C(NCCCCNC(=O)c1ccc(-c2c3nc(c(-c4c(F)c(F)c(F)c(F)c4F)c4ccc([nH]4)c(-c4c(F)c(F)c(F)c(F)c4F)c4nc(c(-c5c(F)c(F)c(F)c(F)c5F)c5ccc2[nH]5)C=C4)C=C3)cc1)C1=Cc2c(ccc(Cl)c2Cl)O[C@H]1C(F)(F)F
REMARK SMILES IDX 6 1 5 2 4 3 3 4 1 5 2 6 74 8 75 9 85 10 76 11 84 12 77 13
REMARK SMILES IDX 82 14 78 15 80 16 83 17 79 18 81 19 86 20 87 21 88 22 89 23
REMARK SMILES IDX 7 24 8 25 9 26 10 28 11 29 12 30 73 31 13 32 72 33 14 34
REMARK SMILES IDX 15 35 16 36 66 37 17 38 71 39 65 40 67 41 18 42 70 43 64 44
REMARK SMILES IDX 63 45 19 47 51 48 31 49 50 50 32 51 35 52 49 53 68 54 33 55
REMARK SMILES IDX 34 56 48 58 69 59 36 60 20 61 21 62 29 63 22 64 23 65 27 66
REMARK SMILES IDX 30 67 24 68 25 69 28 70 26 71 52 72 53 73 61 74 54 75 55 76
REMARK SMILES IDX 59 77 62 78 56 79 57 80 60 81 58 82 37 83 38 84 46 85 39 86
REMARK SMILES IDX 40 87 44 88 47 89 41 90 42 91 45 92 43 93
REMARK H PARENT 3 7 8 27 67 46 35 57
REMARK Flexibility Score: inf
ROOT
ATOM      1  C   UNL A   1      31.487  29.347  25.376  1.00  0.00     0.023 C 
ENDROOT
BRANCH   1   2
ATOM      2  C   UNL A   1      32.059  28.944  24.021  1.00  0.00     0.023 C 
BRANCH   2   3
ATOM      3  C   UNL A   1      33.428  28.277  24.047  1.00  0.00     0.116 C 
BRANCH   3   4
ATOM      4  N   UNL A   1      33.647  27.255  23.039  1.00  0.00    -0.352 N 
ATOM      5  O   UNL A   1      33.966  25.163  22.253  1.00  0.00    -0.270 OA
ATOM      6  C   UNL A   1      33.726  25.896  23.208  1.00  0.00     0.251 C 
ATOM      7  H   UNL A   1      33.752  27.579  22.116  1.00  0.00     0.163 HD
BRANCH   6   8
ATOM      8  C   UNL A   1      33.546  25.300  24.561  1.00  0.00     0.067 C 
ATOM      9  C   UNL A   1      34.672  24.864  25.146  1.00  0.00     0.027 C 
ATOM     10  C   UNL A   1      32.212  24.652  24.815  1.00  0.00     0.314 C 
ATOM     11  C   UNL A   1      34.737  23.393  25.262  1.00  0.00     0.037 A 
ATOM     12  O   UNL A   1      32.299  23.239  25.165  1.00  0.00    -0.475 OA
ATOM     13  C   UNL A   1      33.542  22.661  25.206  1.00  0.00     0.129 A 
ATOM     14  C   UNL A   1      35.976  22.720  25.221  1.00  0.00     0.070 A 
ATOM     15  C   UNL A   1      33.574  21.273  25.080  1.00  0.00     0.049 A 
ATOM     16  C   UNL A   1      35.998  21.328  25.060  1.00  0.00     0.060 A 
ATOM     17  Cl  UNL A   1      37.455  23.631  25.268  1.00  0.00    -0.082 Cl
ATOM     18  C   UNL A   1      34.799  20.612  24.980  1.00  0.00     0.026 A 
ATOM     19  Cl  UNL A   1      37.470  20.440  24.882  1.00  0.00    -0.083 Cl
BRANCH  10  20
ATOM     20  C   UNL A   1      31.392  25.418  25.874  1.00  0.00     0.429 C 
ATOM     21  F   UNL A   1      30.799  24.603  26.776  1.00  0.00    -0.167 F 
ATOM     22  F   UNL A   1      32.185  26.271  26.570  1.00  0.00    -0.167 F 
ATOM     23  F   UNL A   1      30.407  26.161  25.314  1.00  0.00    -0.167 F 
ENDBRANCH  10  20
ENDBRANCH   6   8
ENDBRANCH   3   4
ENDBRANCH   2   3
ENDBRANCH   1   2
BRANCH   1  24
ATOM     24  C   UNL A   1      32.483  29.847  26.423  1.00  0.00     0.116 C 
BRANCH  24  25
ATOM     25  N   UNL A   1      32.332  31.247  26.792  1.00  0.00    -0.352 N 
ATOM     26  C   UNL A   1      33.234  32.101  27.395  1.00  0.00     0.251 C 
ATOM     27  H   UNL A   1      31.456  31.644  26.580  1.00  0.00     0.163 HD
ATOM     28  O   UNL A   1      32.910  33.247  27.660  1.00  0.00    -0.269 OA
BRANCH  26  29
ATOM     29  C   UNL A   1      34.572  31.595  27.791  1.00  0.00     0.039 A 
ATOM     30  C   UNL A   1      35.618  32.514  27.927  1.00  0.00     0.014 A 
ATOM     31  C   UNL A   1      34.778  30.251  28.100  1.00  0.00     0.014 A 
ATOM     32  C   UNL A   1      36.827  32.108  28.499  1.00  0.00     0.010 A 
ATOM     33  C   UNL A   1      35.953  29.864  28.741  1.00  0.00     0.010 A 
ATOM     34  C   UNL A   1      36.977  30.796  28.976  1.00  0.00    -0.014 A 
BRANCH  34  35
ATOM     35  C   UNL A   1      38.162  30.396  29.781  1.00  0.00     0.031 A 
ATOM     36  C   UNL A   1      39.161  29.416  29.237  1.00  0.00     0.074 A 
ATOM     37  C   UNL A   1      38.284  30.844  31.047  1.00  0.00     0.049 A 
ATOM     38  N   UNL A   1      40.196  28.873  29.828  1.00  0.00    -0.248 NA
ATOM     39  C   UNL A   1      38.952  28.961  27.854  1.00  0.00     0.031 C 
ATOM     40  C   UNL A   1      37.352  31.753  31.718  1.00  0.00     0.029 A 
ATOM     41  N   UNL A   1      39.236  30.585  32.002  1.00  0.00    -0.354 N 
ATOM     42  C   UNL A   1      40.747  28.001  28.900  1.00  0.00     0.074 A 
ATOM     43  C   UNL A   1      39.909  28.055  27.721  1.00  0.00     0.031 C 
ATOM     44  C   UNL A   1      37.788  31.988  32.966  1.00  0.00     0.029 A 
ATOM     45  C   UNL A   1      39.009  31.223  33.198  1.00  0.00     0.049 A 
ATOM     46  H   UNL A   1      40.010  29.996  31.846  1.00  0.00     0.167 HD
ATOM     47  C   UNL A   1      41.861  27.239  29.014  1.00  0.00     0.037 A 
ATOM     48  C   UNL A   1      39.700  31.192  34.352  1.00  0.00     0.037 A 
ATOM     49  C   UNL A   1      42.714  27.209  30.173  1.00  0.00     0.049 A 
ATOM     50  C   UNL A   1      40.947  30.355  34.444  1.00  0.00     0.074 A 
ATOM     51  C   UNL A   1      43.899  26.519  30.355  1.00  0.00     0.029 A 
ATOM     52  N   UNL A   1      42.471  27.903  31.349  1.00  0.00    -0.354 N 
ATOM     53  N   UNL A   1      41.495  29.587  33.535  1.00  0.00    -0.248 NA
ATOM     54  C   UNL A   1      41.672  30.384  35.722  1.00  0.00     0.031 C 
ATOM     55  C   UNL A   1      44.358  26.769  31.653  1.00  0.00     0.029 A 
ATOM     56  C   UNL A   1      43.478  27.646  32.266  1.00  0.00     0.049 A 
ATOM     57  H   UNL A   1      41.698  28.491  31.509  1.00  0.00     0.167 HD
ATOM     58  C   UNL A   1      42.641  29.064  34.118  1.00  0.00     0.074 A 
ATOM     59  C   UNL A   1      42.716  29.610  35.458  1.00  0.00     0.031 C 
ATOM     60  C   UNL A   1      43.547  28.207  33.590  1.00  0.00     0.037 A 
BRANCH  47  61
ATOM     61  C   UNL A   1      42.230  26.379  27.842  1.00  0.00     0.064 A 
ATOM     62  C   UNL A   1      43.186  26.792  26.902  1.00  0.00     0.173 A 
ATOM     63  C   UNL A   1      41.644  25.115  27.674  1.00  0.00     0.173 A 
ATOM     64  F   UNL A   1      43.765  27.997  27.014  1.00  0.00    -0.203 F 
ATOM     65  C   UNL A   1      43.521  25.983  25.820  1.00  0.00     0.198 A 
ATOM     66  C   UNL A   1      42.002  24.298  26.604  1.00  0.00     0.198 A 
ATOM     67  F   UNL A   1      40.730  24.672  28.548  1.00  0.00    -0.203 F 
ATOM     68  F   UNL A   1      44.403  26.418  24.909  1.00  0.00    -0.200 F 
ATOM     69  C   UNL A   1      42.934  24.736  25.675  1.00  0.00     0.200 A 
ATOM     70  F   UNL A   1      41.442  23.088  26.471  1.00  0.00    -0.200 F 
ATOM     71  F   UNL A   1      43.262  23.957  24.635  1.00  0.00    -0.200 F 
ENDBRANCH  47  61
BRANCH  48  72
ATOM     72  C   UNL A   1      39.249  32.004  35.511  1.00  0.00     0.064 A 
ATOM     73  C   UNL A   1      39.651  33.340  35.650  1.00  0.00     0.173 A 
ATOM     74  C   UNL A   1      38.414  31.467  36.501  1.00  0.00     0.173 A 
ATOM     75  F   UNL A   1      40.467  33.890  34.739  1.00  0.00    -0.203 F 
ATOM     76  C   UNL A   1      39.252  34.102  36.745  1.00  0.00     0.198 A 
ATOM     77  C   UNL A   1      37.995  32.237  37.584  1.00  0.00     0.198 A 
ATOM     78  F   UNL A   1      37.998  30.196  36.412  1.00  0.00    -0.203 F 
ATOM     79  F   UNL A   1      39.685  35.364  36.874  1.00  0.00    -0.200 F 
ATOM     80  C   UNL A   1      38.421  33.552  37.708  1.00  0.00     0.200 A 
ATOM     81  F   UNL A   1      37.183  31.706  38.507  1.00  0.00    -0.200 F 
ATOM     82  F   UNL A   1      38.035  34.286  38.761  1.00  0.00    -0.200 F 
ENDBRANCH  48  72
BRANCH  60  83
ATOM     83  C   UNL A   1      44.720  27.836  34.446  1.00  0.00     0.064 A 
ATOM     84  C   UNL A   1      45.893  28.603  34.458  1.00  0.00     0.173 A 
ATOM     85  C   UNL A   1      44.652  26.723  35.298  1.00  0.00     0.173 A 
ATOM     86  F   UNL A   1      46.012  29.667  33.648  1.00  0.00    -0.203 F 
ATOM     87  C   UNL A   1      46.964  28.259  35.279  1.00  0.00     0.198 A 
ATOM     88  C   UNL A   1      45.716  26.395  36.134  1.00  0.00     0.198 A 
ATOM     89  F   UNL A   1      43.550  25.959  35.325  1.00  0.00    -0.203 F 
ATOM     90  F   UNL A   1      48.091  28.985  35.246  1.00  0.00    -0.200 F 
ATOM     91  C   UNL A   1      46.872  27.160  36.120  1.00  0.00     0.200 A 
ATOM     92  F   UNL A   1      45.621  25.339  36.954  1.00  0.00    -0.200 F 
ATOM     93  F   UNL A   1      47.901  26.835  36.913  1.00  0.00    -0.200 F 
ENDBRANCH  60  83
ENDBRANCH  34  35
ENDBRANCH  26  29
ENDBRANCH  24  25
ENDBRANCH   1  24
TORSDOF 12
ENDMDL
MODEL 2
REMARK VINA RESULT:     -13.1      0.201      1.658
REMARK SMILES O=C(NCCCCNC(=O)c1ccc(-c2c3nc(c(-c4c(F)c(F)c(F)c(F)c4F)c4ccc([nH]4)c(-c4c(F)c(F)c(F)c(F)c4F)c4nc(c(-c5c(F)c(F)c(F)c(F)c5F)c5ccc2[nH]5)C=C4)C=C3)cc1)C1=Cc2c(ccc(Cl)c2Cl)O[C@H]1C(F)(F)F
REMARK SMILES IDX 6 1 5 2 4 3 3 4 1 5 2 6 74 8 75 9 85 10 76 11 84 12 77 13
REMARK SMILES IDX 82 14 78 15 80 16 83 17 79 18 81 19 86 20 87 21 88 22 89 23
REMARK SMILES IDX 7 24 8 25 9 26 10 28 11 29 12 30 73 31 13 32 72 33 14 34
REMARK SMILES IDX 15 35 16 36 66 37 17 38 71 39 65 40 67 41 18 42 70 43 64 44
REMARK SMILES IDX 63 45 19 47 51 48 31 49 50 50 32 51 35 52 49 53 68 54 33 55
REMARK SMILES IDX 34 56 48 58 69 59 36 60 20 61 21 62 29 63 22 64 23 65 27 66
REMARK SMILES IDX 30 67 24 68 25 69 28 70 26 71 52 72 53 73 61 74 54 75 55 76
REMARK SMILES IDX 59 77 62 78 56 79 57 80 60 81 58 82 37 83 38 84 46 85 39 86
REMARK SMILES IDX 40 87 44 88 47 89 41 90 42 91 45 92 43 93
REMARK H PARENT 3 7 8 27 67 46 35 57
REMARK Flexibility Score: inf
ROOT
ATOM      1  C   UNL A   1      31.403  29.627  25.376  1.00  0.00     0.023 C 
ENDROOT
BRANCH   1   2
ATOM      2  C   UNL A   1      31.811  28.757  24.192  1.00  0.00     0.023 C 
BRANCH   2   3
ATOM      3  C   UNL A   1      33.237  28.223  24.217  1.00  0.00     0.116 C 
BRANCH   3   4
ATOM      4  N   UNL A   1      33.558  27.242  23.196  1.00  0.00    -0.352 N 
ATOM      5  O   UNL A   1      34.028  25.193  22.375  1.00  0.00    -0.270 OA
ATOM      6  C   UNL A   1      33.705  25.886  23.335  1.00  0.00     0.251 C 
ATOM      7  H   UNL A   1      33.687  27.597  22.287  1.00  0.00     0.163 HD
BRANCH   6   8
ATOM      8  C   UNL A   1      33.498  25.245  24.663  1.00  0.00     0.067 C 
ATOM      9  C   UNL A   1      34.617  24.833  25.279  1.00  0.00     0.027 C 
ATOM     10  C   UNL A   1      32.180  24.541  24.848  1.00  0.00     0.314 C 
ATOM     11  C   UNL A   1      34.733  23.363  25.357  1.00  0.00     0.037 A 
ATOM     12  O   UNL A   1      32.308  23.122  25.162  1.00  0.00    -0.475 OA
ATOM     13  C   UNL A   1      33.570  22.589  25.235  1.00  0.00     0.129 A 
ATOM     14  C   UNL A   1      35.998  22.738  25.345  1.00  0.00     0.070 A 
ATOM     15  C   UNL A   1      33.659  21.208  25.072  1.00  0.00     0.049 A 
ATOM     16  C   UNL A   1      36.078  21.353  25.147  1.00  0.00     0.060 A 
ATOM     17  Cl  UNL A   1      37.438  23.701  25.474  1.00  0.00    -0.082 Cl
ATOM     18  C   UNL A   1      34.911  20.595  25.001  1.00  0.00     0.026 A 
ATOM     19  Cl  UNL A   1      37.588  20.525  25.001  1.00  0.00    -0.083 Cl
BRANCH  10  20
ATOM     20  C   UNL A   1      31.294  25.246  25.896  1.00  0.00     0.429 C 
ATOM     21  F   UNL A   1      31.924  26.265  26.524  1.00  0.00    -0.167 F 
ATOM     22  F   UNL A   1      30.182  25.763  25.316  1.00  0.00    -0.167 F 
ATOM     23  F   UNL A   1      30.875  24.393  26.863  1.00  0.00    -0.167 F 
ENDBRANCH  10  20
ENDBRANCH   6   8
ENDBRANCH   3   4
ENDBRANCH   2   3
ENDBRANCH   1   2
BRANCH   1  24
ATOM     24  C   UNL A   1      32.527  30.125  26.285  1.00  0.00     0.116 C 
BRANCH  24  25
ATOM     25  N   UNL A   1      32.373  31.495  26.755  1.00  0.00    -0.352 N 
ATOM     26  C   UNL A   1      33.259  32.291  27.453  1.00  0.00     0.251 C 
ATOM     27  H   UNL A   1      31.508  31.915  26.544  1.00  0.00     0.163 HD
ATOM     28  O   UNL A   1      32.934  33.416  27.794  1.00  0.00    -0.269 OA
BRANCH  26  29
ATOM     29  C   UNL A   1      34.578  31.744  27.855  1.00  0.00     0.039 A 
ATOM     30  C   UNL A   1      35.651  32.630  28.001  1.00  0.00     0.014 A 
ATOM     31  C   UNL A   1      34.742  30.393  28.162  1.00  0.00     0.014 A 
ATOM     32  C   UNL A   1      36.843  32.186  28.579  1.00  0.00     0.010 A 
ATOM     33  C   UNL A   1      35.901  29.969  28.809  1.00  0.00     0.010 A 
ATOM     34  C   UNL A   1      36.951  30.868  29.053  1.00  0.00    -0.014 A 
BRANCH  34  35
ATOM     35  C   UNL A   1      38.118  30.430  29.864  1.00  0.00     0.031 A 
ATOM     36  C   UNL A   1      39.106  29.444  29.312  1.00  0.00     0.074 A 
ATOM     37  C   UNL A   1      38.232  30.850  31.141  1.00  0.00     0.049 A 
ATOM     38  N   UNL A   1      40.123  28.871  29.905  1.00  0.00    -0.248 NA
ATOM     39  C   UNL A   1      38.907  29.022  27.917  1.00  0.00     0.031 C 
ATOM     40  C   UNL A   1      37.307  31.761  31.819  1.00  0.00     0.029 A 
ATOM     41  N   UNL A   1      39.167  30.554  32.102  1.00  0.00    -0.354 N 
ATOM     42  C   UNL A   1      40.671  28.008  28.965  1.00  0.00     0.074 A 
ATOM     43  C   UNL A   1      39.849  28.101  27.777  1.00  0.00     0.031 C 
ATOM     44  C   UNL A   1      37.731  31.962  33.077  1.00  0.00     0.029 A 
ATOM     45  C   UNL A   1      38.936  31.170  33.308  1.00  0.00     0.049 A 
ATOM     46  H   UNL A   1      39.932  29.954  31.943  1.00  0.00     0.167 HD
ATOM     47  C   UNL A   1      41.770  27.224  29.076  1.00  0.00     0.037 A 
ATOM     48  C   UNL A   1      39.612  31.103  34.470  1.00  0.00     0.037 A 
ATOM     49  C   UNL A   1      42.607  27.155  30.246  1.00  0.00     0.049 A 
ATOM     50  C   UNL A   1      40.842  30.242  34.560  1.00  0.00     0.074 A 
ATOM     51  C   UNL A   1      43.777  26.439  30.428  1.00  0.00     0.029 A 
ATOM     52  N   UNL A   1      42.362  27.828  31.432  1.00  0.00    -0.354 N 
ATOM     53  N   UNL A   1      41.388  29.483  33.642  1.00  0.00    -0.248 NA
ATOM     54  C   UNL A   1      41.551  30.231  35.847  1.00  0.00     0.031 C 
ATOM     55  C   UNL A   1      44.224  26.654  31.736  1.00  0.00     0.029 A 
ATOM     56  C   UNL A   1      43.352  27.534  32.356  1.00  0.00     0.049 A 
ATOM     57  H   UNL A   1      41.597  28.427  31.595  1.00  0.00     0.167 HD
ATOM     58  C   UNL A   1      42.517  28.927  34.228  1.00  0.00     0.074 A 
ATOM     59  C   UNL A   1      42.584  29.444  35.579  1.00  0.00     0.031 C 
ATOM     60  C   UNL A   1      43.414  28.066  33.692  1.00  0.00     0.037 A 
BRANCH  47  61
ATOM     61  C   UNL A   1      42.138  26.382  27.891  1.00  0.00     0.064 A 
ATOM     62  C   UNL A   1      43.123  26.791  26.979  1.00  0.00     0.173 A 
ATOM     63  C   UNL A   1      41.523  25.139  27.682  1.00  0.00     0.173 A 
ATOM     64  F   UNL A   1      43.731  27.978  27.131  1.00  0.00    -0.203 F 
ATOM     65  C   UNL A   1      43.457  25.999  25.885  1.00  0.00     0.198 A 
ATOM     66  C   UNL A   1      41.880  24.337  26.600  1.00  0.00     0.198 A 
ATOM     67  F   UNL A   1      40.581  24.699  28.528  1.00  0.00    -0.203 F 
ATOM     68  F   UNL A   1      44.367  26.432  25.001  1.00  0.00    -0.200 F 
ATOM     69  C   UNL A   1      42.840  24.772  25.699  1.00  0.00     0.200 A 
ATOM     70  F   UNL A   1      41.291  23.146  26.427  1.00  0.00    -0.200 F 
ATOM     71  F   UNL A   1      43.167  24.009  24.647  1.00  0.00    -0.200 F 
ENDBRANCH  47  61
BRANCH  48  72
ATOM     72  C   UNL A   1      39.160  31.899  35.640  1.00  0.00     0.064 A 
ATOM     73  C   UNL A   1      38.305  31.340  36.600  1.00  0.00     0.173 A 
ATOM     74  C   UNL A   1      39.565  33.229  35.821  1.00  0.00     0.173 A 
ATOM     75  F   UNL A   1      37.874  30.078  36.456  1.00  0.00    -0.203 F 
ATOM     76  C   UNL A   1      37.857  32.086  37.687  1.00  0.00     0.198 A 
ATOM     77  C   UNL A   1      39.137  33.967  36.922  1.00  0.00     0.198 A 
ATOM     78  F   UNL A   1      40.386  33.808  34.933  1.00  0.00    -0.203 F 
ATOM     79  F   UNL A   1      37.008  31.539  38.568  1.00  0.00    -0.200 F 
ATOM     80  C   UNL A   1      38.277  33.397  37.850  1.00  0.00     0.200 A 
ATOM     81  F   UNL A   1      39.553  35.230  37.083  1.00  0.00    -0.200 F 
ATOM     82  F   UNL A   1      37.848  34.114  38.898  1.00  0.00    -0.200 F 
ENDBRANCH  48  72
BRANCH  60  83
ATOM     83  C   UNL A   1      44.569  27.655  34.555  1.00  0.00     0.064 A 
ATOM     84  C   UNL A   1      44.508  26.517  35.371  1.00  0.00     0.173 A 
ATOM     85  C   UNL A   1      45.767  28.386  34.532  1.00  0.00     0.173 A 
ATOM     86  F   UNL A   1      43.379  25.796  35.440  1.00  0.00    -0.203 F 
ATOM     87  C   UNL A   1      45.599  26.135  36.148  1.00  0.00     0.198 A 
ATOM     88  C   UNL A   1      46.863  27.989  35.291  1.00  0.00     0.198 A 
ATOM     89  F   UNL A   1      45.875  29.481  33.764  1.00  0.00    -0.203 F 
ATOM     90  F   UNL A   1      45.507  25.066  36.950  1.00  0.00    -0.200 F 
ATOM     91  C   UNL A   1      46.777  26.867  36.102  1.00  0.00     0.200 A 
ATOM     92  F   UNL A   1      48.004  28.690  35.239  1.00  0.00    -0.200 F 
ATOM     93  F   UNL A   1      47.828  26.494  36.845  1.00  0.00    -0.200 F 
ENDBRANCH  60  83
ENDBRANCH  34  35
ENDBRANCH  26  29
ENDBRANCH  24  25
ENDBRANCH   1  24
TORSDOF 12
ENDMDL
MODEL 3
REMARK VINA RESULT:     -13.1      0.464      7.410
REMARK SMILES O=C(NCCCCNC(=O)c1ccc(-c2c3nc(c(-c4c(F)c(F)c(F)c(F)c4F)c4ccc([nH]4)c(-c4c(F)c(F)c(F)c(F)c4F)c4nc(c(-c5c(F)c(F)c(F)c(F)c5F)c5ccc2[nH]5)C=C4)C=C3)cc1)C1=Cc2c(ccc(Cl)c2Cl)O[C@H]1C(F)(F)F
REMARK SMILES IDX 6 1 5 2 4 3 3 4 1 5 2 6 74 8 75 9 85 10 76 11 84 12 77 13
REMARK SMILES IDX 82 14 78 15 80 16 83 17 79 18 81 19 86 20 87 21 88 22 89 23
REMARK SMILES IDX 7 24 8 25 9 26 10 28 11 29 12 30 73 31 13 32 72 33 14 34
REMARK SMILES IDX 15 35 16 36 66 37 17 38 71 39 65 40 67 41 18 42 70 43 64 44
REMARK SMILES IDX 63 45 19 47 51 48 31 49 50 50 32 51 35 52 49 53 68 54 33 55
REMARK SMILES IDX 34 56 48 58 69 59 36 60 20 61 21 62 29 63 22 64 23 65 27 66
REMARK SMILES IDX 30 67 24 68 25 69 28 70 26 71 52 72 53 73 61 74 54 75 55 76
REMARK SMILES IDX 59 77 62 78 56 79 57 80 60 81 58 82 37 83 38 84 46 85 39 86
REMARK SMILES IDX 40 87 44 88 47 89 41 90 42 91 45 92 43 93
REMARK H PARENT 3 7 8 27 67 46 35 57
REMARK Flexibility Score: inf
ROOT
ATOM      1  C   UNL A   1      31.627  29.885  25.312  1.00  0.00     0.023 C 
ENDROOT
BRANCH   1   2
ATOM      2  C   UNL A   1      31.871  28.519  24.679  1.00  0.00     0.023 C 
BRANCH   2   3
ATOM      3  C   UNL A   1      33.329  28.122  24.492  1.00  0.00     0.116 C 
BRANCH   3   4
ATOM      4  N   UNL A   1      33.590  27.179  23.420  1.00  0.00    -0.352 N 
ATOM      5  O   UNL A   1      33.984  25.157  22.497  1.00  0.00    -0.270 OA
ATOM      6  C   UNL A   1      33.712  25.814  23.496  1.00  0.00     0.251 C 
ATOM      7  H   UNL A   1      33.693  27.569  22.522  1.00  0.00     0.163 HD
BRANCH   6   8
ATOM      8  C   UNL A   1      33.540  25.122  24.803  1.00  0.00     0.067 C 
ATOM      9  C   UNL A   1      34.678  24.718  25.389  1.00  0.00     0.027 C 
ATOM     10  C   UNL A   1      32.244  24.378  24.981  1.00  0.00     0.314 C 
ATOM     11  C   UNL A   1      34.833  23.249  25.413  1.00  0.00     0.037 A 
ATOM     12  O   UNL A   1      32.411  22.954  25.243  1.00  0.00    -0.475 OA
ATOM     13  C   UNL A   1      33.687  22.451  25.279  1.00  0.00     0.129 A 
ATOM     14  C   UNL A   1      36.112  22.658  25.361  1.00  0.00     0.070 A 
ATOM     15  C   UNL A   1      33.809  21.079  25.066  1.00  0.00     0.049 A 
ATOM     16  C   UNL A   1      36.224  21.283  25.113  1.00  0.00     0.060 A 
ATOM     17  Cl  UNL A   1      37.530  23.652  25.505  1.00  0.00    -0.082 Cl
ATOM     18  C   UNL A   1      35.074  20.501  24.956  1.00  0.00     0.026 A 
ATOM     19  Cl  UNL A   1      37.753  20.500  24.917  1.00  0.00    -0.083 Cl
BRANCH  10  20
ATOM     20  C   UNL A   1      31.354  25.023  26.066  1.00  0.00     0.429 C 
ATOM     21  F   UNL A   1      31.992  25.988  26.768  1.00  0.00    -0.167 F 
ATOM     22  F   UNL A   1      30.257  25.594  25.510  1.00  0.00    -0.167 F 
ATOM     23  F   UNL A   1      30.914  24.112  26.967  1.00  0.00    -0.167 F 
ENDBRANCH  10  20
ENDBRANCH   6   8
ENDBRANCH   3   4
ENDBRANCH   2   3
ENDBRANCH   1   2
BRANCH   1  24
ATOM     24  C   UNL A   1      32.432  30.215  26.569  1.00  0.00     0.116 C 
BRANCH  24  25
ATOM     25  N   UNL A   1      32.430  31.622  26.945  1.00  0.00    -0.352 N 
ATOM     26  C   UNL A   1      33.426  32.379  27.531  1.00  0.00     0.251 C 
ATOM     27  H   UNL A   1      31.594  32.106  26.754  1.00  0.00     0.163 HD
ATOM     28  O   UNL A   1      33.224  33.550  27.806  1.00  0.00    -0.269 OA
BRANCH  26  29
ATOM     29  C   UNL A   1      34.715  31.740  27.894  1.00  0.00     0.039 A 
ATOM     30  C   UNL A   1      35.836  32.558  28.072  1.00  0.00     0.014 A 
ATOM     31  C   UNL A   1      34.804  30.370  28.135  1.00  0.00     0.014 A 
ATOM     32  C   UNL A   1      37.006  32.021  28.618  1.00  0.00     0.010 A 
ATOM     33  C   UNL A   1      35.942  29.851  28.751  1.00  0.00     0.010 A 
ATOM     34  C   UNL A   1      37.042  30.678  29.028  1.00  0.00    -0.014 A 
BRANCH  34  35
ATOM     35  C   UNL A   1      38.188  30.137  29.807  1.00  0.00     0.031 A 
ATOM     36  C   UNL A   1      38.438  30.590  31.216  1.00  0.00     0.074 A 
ATOM     37  C   UNL A   1      39.065  29.308  29.204  1.00  0.00     0.049 A 
ATOM     38  N   UNL A   1      39.439  30.308  32.012  1.00  0.00    -0.248 NA
ATOM     39  C   UNL A   1      37.446  31.506  31.800  1.00  0.00     0.031 C 
ATOM     40  C   UNL A   1      38.973  28.838  27.820  1.00  0.00     0.029 A 
ATOM     41  N   UNL A   1      40.215  28.724  29.675  1.00  0.00    -0.354 N 
ATOM     42  C   UNL A   1      39.208  31.026  33.178  1.00  0.00     0.074 A 
ATOM     43  C   UNL A   1      37.996  31.788  32.971  1.00  0.00     0.031 C 
ATOM     44  C   UNL A   1      40.010  28.025  27.561  1.00  0.00     0.029 A 
ATOM     45  C   UNL A   1      40.859  27.944  28.745  1.00  0.00     0.049 A 
ATOM     46  H   UNL A   1      40.549  28.853  30.592  1.00  0.00     0.167 HD
ATOM     47  C   UNL A   1      39.932  31.033  34.323  1.00  0.00     0.037 A 
ATOM     48  C   UNL A   1      42.007  27.245  28.833  1.00  0.00     0.037 A 
ATOM     49  C   UNL A   1      41.121  30.250  34.541  1.00  0.00     0.049 A 
ATOM     50  C   UNL A   1      42.779  27.252  30.123  1.00  0.00     0.074 A 
ATOM     51  C   UNL A   1      41.884  30.143  35.690  1.00  0.00     0.029 A 
ATOM     52  N   UNL A   1      41.717  29.439  33.588  1.00  0.00    -0.354 N 
ATOM     53  N   UNL A   1      42.514  27.882  31.241  1.00  0.00    -0.248 NA
ATOM     54  C   UNL A   1      44.009  26.449  30.165  1.00  0.00     0.031 C 
ATOM     55  C   UNL A   1      42.961  29.291  35.424  1.00  0.00     0.029 A 
ATOM     56  C   UNL A   1      42.847  28.838  34.120  1.00  0.00     0.049 A 
ATOM     57  H   UNL A   1      41.387  29.309  32.669  1.00  0.00     0.167 HD
ATOM     58  C   UNL A   1      43.524  27.531  32.126  1.00  0.00     0.074 A 
ATOM     59  C   UNL A   1      44.404  26.624  31.418  1.00  0.00     0.031 C 
ATOM     60  C   UNL A   1      43.705  27.927  33.409  1.00  0.00     0.037 A 
BRANCH  47  61
ATOM     61  C   UNL A   1      39.449  31.913  35.437  1.00  0.00     0.064 A 
ATOM     62  C   UNL A   1      39.870  33.246  35.552  1.00  0.00     0.173 A 
ATOM     63  C   UNL A   1      38.533  31.428  36.382  1.00  0.00     0.173 A 
ATOM     64  F   UNL A   1      40.755  33.752  34.679  1.00  0.00    -0.203 F 
ATOM     65  C   UNL A   1      39.414  34.053  36.590  1.00  0.00     0.198 A 
ATOM     66  C   UNL A   1      38.058  32.247  37.404  1.00  0.00     0.198 A 
ATOM     67  F   UNL A   1      38.095  30.163  36.313  1.00  0.00    -0.203 F 
ATOM     68  F   UNL A   1      39.865  35.310  36.707  1.00  0.00    -0.200 F 
ATOM     69  C   UNL A   1      38.504  33.556  37.511  1.00  0.00     0.200 A 
ATOM     70  F   UNL A   1      37.171  31.769  38.287  1.00  0.00    -0.200 F 
ATOM     71  F   UNL A   1      38.062  34.336  38.507  1.00  0.00    -0.200 F 
ENDBRANCH  47  61
BRANCH  48  72
ATOM     72  C   UNL A   1      42.483  26.450  27.672  1.00  0.00     0.064 A 
ATOM     73  C   UNL A   1      41.991  25.159  27.437  1.00  0.00     0.173 A 
ATOM     74  C   UNL A   1      43.438  26.958  26.778  1.00  0.00     0.173 A 
ATOM     75  F   UNL A   1      41.094  24.623  28.277  1.00  0.00    -0.203 F 
ATOM     76  C   UNL A   1      42.450  24.397  26.365  1.00  0.00     0.198 A 
ATOM     77  C   UNL A   1      43.878  26.206  25.692  1.00  0.00     0.198 A 
ATOM     78  F   UNL A   1      43.935  28.190  26.957  1.00  0.00    -0.203 F 
ATOM     79  F   UNL A   1      41.993  23.150  26.188  1.00  0.00    -0.200 F 
ATOM     80  C   UNL A   1      43.388  24.923  25.491  1.00  0.00     0.200 A 
ATOM     81  F   UNL A   1      44.776  26.720  24.843  1.00  0.00    -0.200 F 
ATOM     82  F   UNL A   1      43.828  24.191  24.457  1.00  0.00    -0.200 F 
ENDBRANCH  48  72
BRANCH  60  83
ATOM     83  C   UNL A   1      44.878  27.353  34.144  1.00  0.00     0.064 A 
ATOM     84  C   UNL A   1      44.787  26.136  34.835  1.00  0.00     0.173 A 
ATOM     85  C   UNL A   1      46.119  28.006  34.121  1.00  0.00     0.173 A 
ATOM     86  F   UNL A   1      43.617  25.482  34.900  1.00  0.00    -0.203 F 
ATOM     87  C   UNL A   1      45.894  25.603  35.492  1.00  0.00     0.198 A 
ATOM     88  C   UNL A   1      47.229  27.460  34.759  1.00  0.00     0.198 A 
ATOM     89  F   UNL A   1      46.257  29.171  33.471  1.00  0.00    -0.203 F 
ATOM     90  F   UNL A   1      45.775  24.458  36.179  1.00  0.00    -0.200 F 
ATOM     91  C   UNL A   1      47.114  26.262  35.448  1.00  0.00     0.200 A 
ATOM     92  F   UNL A   1      48.409  28.092  34.707  1.00  0.00    -0.200 F 
ATOM     93  F   UNL A   1      48.178  25.744  36.075  1.00  0.00    -0.200 F 
ENDBRANCH  60  83
ENDBRANCH  34  35
ENDBRANCH  26  29
ENDBRANCH  24  25
ENDBRANCH   1  24
TORSDOF 12
ENDMDL
