MODEL 1
REMARK VINA RESULT:     -13.0      0.000      0.000
REMARK SMILES CCOC(=O)C1=NN(c2cc(F)cc(F)c2)[C@@H](C(=O)NCCCCNC(=O)c2ccc(-c3c4nc(c(-c5c(F)c(F)c(F)c(F)c5F)c5ccc([nH]5)c(-c5c(F)c(F)c(F)c(F)c5F)c5nc(c(-c6c(F)c(F)c(F)c(F)c6F)c6ccc3[nH]6)C=C5)C=C4)cc2)C1
REMARK SMILES IDX 22 1 21 2 20 3 18 4 19 5 17 7 6 8 7 9 91 10 8 11 4 12 5 13
REMARK SMILES IDX 3 14 2 15 1 16 9 17 10 18 16 19 11 20 14 21 12 22 13 23
REMARK SMILES IDX 15 24 23 25 24 26 25 27 26 28 27 30 28 31 29 32 90 33 30 34
REMARK SMILES IDX 89 35 31 36 32 37 33 38 83 39 34 40 88 41 82 42 84 43 35 44
REMARK SMILES IDX 87 45 81 46 80 47 36 49 68 50 48 51 67 52 49 53 52 54 66 55
REMARK SMILES IDX 85 56 50 57 51 58 65 60 86 61 53 62 37 63 38 64 46 65 39 66
REMARK SMILES IDX 40 67 44 68 47 69 41 70 42 71 45 72 43 73 69 74 70 75 78 76
REMARK SMILES IDX 71 77 72 78 76 79 79 80 73 81 74 82 77 83 75 84 54 85 55 86
REMARK SMILES IDX 63 87 56 88 57 89 61 90 64 91 58 92 59 93 62 94 60 95
REMARK H PARENT 20 6 25 29 84 48 52 59
REMARK Flexibility Score: inf
ROOT
ATOM      1  C   UNL A   1      31.643  30.748  26.040  1.00  0.00     0.023 C 
ENDROOT
BRANCH   1   2
ATOM      2  C   UNL A   1      32.159  29.530  26.790  1.00  0.00     0.116 C 
BRANCH   2   3
ATOM      3  N   UNL A   1      31.422  28.307  26.541  1.00  0.00    -0.354 N 
ATOM      4  C   UNL A   1      31.438  27.496  25.438  1.00  0.00     0.245 C 
ATOM      5  O   UNL A   1      30.896  26.390  25.563  1.00  0.00    -0.273 OA
ATOM      6  H   UNL A   1      30.825  28.018  27.269  1.00  0.00     0.163 HD
BRANCH   4   7
ATOM      7  C   UNL A   1      31.948  27.935  24.052  1.00  0.00     0.203 C 
ATOM      8  C   UNL A   1      32.289  26.554  22.237  1.00  0.00     0.148 C 
ATOM      9  N   UNL A   1      31.165  27.145  21.960  1.00  0.00    -0.169 NA
ATOM     10  C   UNL A   1      32.954  26.924  23.519  1.00  0.00     0.103 C 
ATOM     11  N   UNL A   1      30.929  28.003  22.998  1.00  0.00    -0.252 N 
BRANCH   8  12
ATOM     12  C   UNL A   1      32.928  25.520  21.357  1.00  0.00     0.354 C 
ATOM     13  O   UNL A   1      32.902  25.579  20.144  1.00  0.00    -0.245 OA
BRANCH  12  14
ATOM     14  O   UNL A   1      33.551  24.616  22.144  1.00  0.00    -0.461 OA
BRANCH  14  15
ATOM     15  C   UNL A   1      33.058  23.272  22.040  1.00  0.00     0.230 C 
ATOM     16  C   UNL A   1      32.038  22.996  23.127  1.00  0.00     0.049 C 
ENDBRANCH  14  15
ENDBRANCH  12  14
ENDBRANCH   8  12
BRANCH  11  17
ATOM     17  C   UNL A   1      29.744  28.723  23.097  1.00  0.00     0.066 A 
ATOM     18  C   UNL A   1      28.506  28.090  23.252  1.00  0.00     0.067 A 
ATOM     19  C   UNL A   1      29.749  30.124  22.997  1.00  0.00     0.067 A 
ATOM     20  C   UNL A   1      27.326  28.833  23.270  1.00  0.00     0.128 A 
ATOM     21  C   UNL A   1      28.558  30.842  22.960  1.00  0.00     0.128 A 
ATOM     22  F   UNL A   1      26.157  28.202  23.445  1.00  0.00    -0.207 F 
ATOM     23  C   UNL A   1      27.336  30.207  23.099  1.00  0.00     0.078 A 
ATOM     24  F   UNL A   1      28.594  32.165  22.753  1.00  0.00    -0.207 F 
ENDBRANCH  11  17
ENDBRANCH   4   7
ENDBRANCH   2   3
ENDBRANCH   1   2
BRANCH   1  25
ATOM     25  C   UNL A   1      31.403  31.996  26.878  1.00  0.00     0.023 C 
BRANCH  25  26
ATOM     26  C   UNL A   1      32.642  32.809  27.238  1.00  0.00     0.116 C 
BRANCH  26  27
ATOM     27  N   UNL A   1      32.359  34.184  27.625  1.00  0.00    -0.352 N 
ATOM     28  C   UNL A   1      32.976  34.985  28.556  1.00  0.00     0.251 C 
ATOM     29  H   UNL A   1      31.609  34.605  27.145  1.00  0.00     0.163 HD
ATOM     30  O   UNL A   1      32.527  36.100  28.807  1.00  0.00    -0.269 OA
BRANCH  28  31
ATOM     31  C   UNL A   1      34.155  34.489  29.298  1.00  0.00     0.039 A 
ATOM     32  C   UNL A   1      33.961  33.889  30.544  1.00  0.00     0.014 A 
ATOM     33  C   UNL A   1      35.440  34.580  28.757  1.00  0.00     0.014 A 
ATOM     34  C   UNL A   1      35.040  33.292  31.200  1.00  0.00     0.010 A 
ATOM     35  C   UNL A   1      36.494  33.906  29.365  1.00  0.00     0.010 A 
ATOM     36  C   UNL A   1      36.305  33.248  30.588  1.00  0.00    -0.014 A 
BRANCH  36  37
ATOM     37  C   UNL A   1      37.430  32.501  31.208  1.00  0.00     0.031 A 
ATOM     38  C   UNL A   1      37.908  32.855  32.588  1.00  0.00     0.074 A 
ATOM     39  C   UNL A   1      38.061  31.541  30.502  1.00  0.00     0.049 A 
ATOM     40  N   UNL A   1      38.899  32.345  33.275  1.00  0.00    -0.248 NA
ATOM     41  C   UNL A   1      37.200  33.945  33.279  1.00  0.00     0.031 C 
ATOM     42  C   UNL A   1      37.730  31.146  29.131  1.00  0.00     0.029 A 
ATOM     43  N   UNL A   1      39.112  30.722  30.836  1.00  0.00    -0.354 N 
ATOM     44  C   UNL A   1      38.935  33.053  34.467  1.00  0.00     0.074 A 
ATOM     45  C   UNL A   1      37.911  34.071  34.389  1.00  0.00     0.031 C 
ATOM     46  C   UNL A   1      38.531  30.136  28.758  1.00  0.00     0.029 A 
ATOM     47  C   UNL A   1      39.459  29.835  29.845  1.00  0.00     0.049 A 
ATOM     48  H   UNL A   1      39.574  30.768  31.704  1.00  0.00     0.167 HD
ATOM     49  C   UNL A   1      39.731  32.852  35.544  1.00  0.00     0.037 A 
ATOM     50  C   UNL A   1      40.412  28.884  29.817  1.00  0.00     0.037 A 
ATOM     51  C   UNL A   1      40.725  31.816  35.634  1.00  0.00     0.049 A 
ATOM     52  C   UNL A   1      41.282  28.680  31.027  1.00  0.00     0.074 A 
ATOM     53  C   UNL A   1      41.537  31.495  36.706  1.00  0.00     0.029 A 
ATOM     54  N   UNL A   1      41.038  30.931  34.612  1.00  0.00    -0.354 N 
ATOM     55  N   UNL A   1      41.261  29.314  32.175  1.00  0.00    -0.248 NA
ATOM     56  C   UNL A   1      42.306  27.628  30.942  1.00  0.00     0.031 C 
ATOM     57  C   UNL A   1      42.373  30.444  36.320  1.00  0.00     0.029 A 
ATOM     58  C   UNL A   1      42.046  30.077  35.024  1.00  0.00     0.049 A 
ATOM     59  H   UNL A   1      40.607  30.914  33.727  1.00  0.00     0.167 HD
ATOM     60  C   UNL A   1      42.244  28.722  32.956  1.00  0.00     0.074 A 
ATOM     61  C   UNL A   1      42.840  27.672  32.156  1.00  0.00     0.031 C 
ATOM     62  C   UNL A   1      42.619  29.025  34.222  1.00  0.00     0.037 A 
BRANCH  49  63
ATOM     63  C   UNL A   1      39.545  33.752  36.730  1.00  0.00     0.064 A 
ATOM     64  C   UNL A   1      40.252  34.961  36.829  1.00  0.00     0.173 A 
ATOM     65  C   UNL A   1      38.720  33.384  37.804  1.00  0.00     0.173 A 
ATOM     66  F   UNL A   1      41.059  35.356  35.832  1.00  0.00    -0.203 F 
ATOM     67  C   UNL A   1      40.149  35.760  37.963  1.00  0.00     0.198 A 
ATOM     68  C   UNL A   1      38.597  34.201  38.924  1.00  0.00     0.198 A 
ATOM     69  F   UNL A   1      38.015  32.244  37.754  1.00  0.00    -0.203 F 
ATOM     70  F   UNL A   1      40.858  36.894  38.049  1.00  0.00    -0.200 F 
ATOM     71  C   UNL A   1      39.318  35.382  39.008  1.00  0.00     0.200 A 
ATOM     72  F   UNL A   1      37.775  33.846  39.922  1.00  0.00    -0.200 F 
ATOM     73  F   UNL A   1      39.212  36.158  40.095  1.00  0.00    -0.200 F 
ENDBRANCH  49  63
BRANCH  50  74
ATOM     74  C   UNL A   1      40.554  28.020  28.616  1.00  0.00     0.064 A 
ATOM     75  C   UNL A   1      39.892  26.788  28.517  1.00  0.00     0.173 A 
ATOM     76  C   UNL A   1      41.386  28.400  27.555  1.00  0.00     0.173 A 
ATOM     77  F   UNL A   1      39.088  26.374  29.508  1.00  0.00    -0.203 F 
ATOM     78  C   UNL A   1      40.071  25.963  27.408  1.00  0.00     0.198 A 
ATOM     79  C   UNL A   1      41.544  27.587  26.435  1.00  0.00     0.198 A 
ATOM     80  F   UNL A   1      42.026  29.578  27.597  1.00  0.00    -0.203 F 
ATOM     81  F   UNL A   1      39.452  24.774  27.352  1.00  0.00    -0.200 F 
ATOM     82  C   UNL A   1      40.892  26.364  26.366  1.00  0.00     0.200 A 
ATOM     83  F   UNL A   1      42.321  27.990  25.421  1.00  0.00    -0.200 F 
ATOM     84  F   UNL A   1      41.056  25.575  25.296  1.00  0.00    -0.200 F 
ENDBRANCH  50  74
BRANCH  62  85
ATOM     85  C   UNL A   1      43.704  28.203  34.849  1.00  0.00     0.064 A 
ATOM     86  C   UNL A   1      43.387  27.043  35.573  1.00  0.00     0.173 A 
ATOM     87  C   UNL A   1      45.043  28.617  34.822  1.00  0.00     0.173 A 
ATOM     88  F   UNL A   1      42.117  26.611  35.634  1.00  0.00    -0.203 F 
ATOM     89  C   UNL A   1      44.367  26.342  36.267  1.00  0.00     0.198 A 
ATOM     90  C   UNL A   1      46.027  27.897  35.496  1.00  0.00     0.198 A 
ATOM     91  F   UNL A   1      45.397  29.712  34.134  1.00  0.00    -0.203 F 
ATOM     92  F   UNL A   1      44.033  25.262  36.988  1.00  0.00    -0.200 F 
ATOM     93  C   UNL A   1      45.685  26.769  36.228  1.00  0.00     0.200 A 
ATOM     94  F   UNL A   1      47.303  28.299  35.442  1.00  0.00    -0.200 F 
ATOM     95  F   UNL A   1      46.630  26.093  36.897  1.00  0.00    -0.200 F 
ENDBRANCH  62  85
ENDBRANCH  36  37
ENDBRANCH  28  31
ENDBRANCH  26  27
ENDBRANCH  25  26
ENDBRANCH   1  25
TORSDOF 15
ENDMDL
MODEL 2
REMARK VINA RESULT:     -12.9      0.233      1.591
REMARK SMILES CCOC(=O)C1=NN(c2cc(F)cc(F)c2)[C@@H](C(=O)NCCCCNC(=O)c2ccc(-c3c4nc(c(-c5c(F)c(F)c(F)c(F)c5F)c5ccc([nH]5)c(-c5c(F)c(F)c(F)c(F)c5F)c5nc(c(-c6c(F)c(F)c(F)c(F)c6F)c6ccc3[nH]6)C=C5)C=C4)cc2)C1
REMARK SMILES IDX 22 1 21 2 20 3 18 4 19 5 17 7 6 8 7 9 91 10 8 11 4 12 5 13
REMARK SMILES IDX 3 14 2 15 1 16 9 17 10 18 16 19 11 20 14 21 12 22 13 23
REMARK SMILES IDX 15 24 23 25 24 26 25 27 26 28 27 30 28 31 29 32 90 33 30 34
REMARK SMILES IDX 89 35 31 36 32 37 33 38 83 39 34 40 88 41 82 42 84 43 35 44
REMARK SMILES IDX 87 45 81 46 80 47 36 49 68 50 48 51 67 52 49 53 52 54 66 55
REMARK SMILES IDX 85 56 50 57 51 58 65 60 86 61 53 62 37 63 38 64 46 65 39 66
REMARK SMILES IDX 40 67 44 68 47 69 41 70 42 71 45 72 43 73 69 74 70 75 78 76
REMARK SMILES IDX 71 77 72 78 76 79 79 80 73 81 74 82 77 83 75 84 54 85 55 86
REMARK SMILES IDX 63 87 56 88 57 89 61 90 64 91 58 92 59 93 62 94 60 95
REMARK H PARENT 20 6 25 29 84 48 52 59
REMARK Flexibility Score: inf
ROOT
ATOM      1  C   UNL A   1      31.699  30.750  25.996  1.00  0.00     0.023 C 
ENDROOT
BRANCH   1   2
ATOM      2  C   UNL A   1      32.235  29.557  26.772  1.00  0.00     0.116 C 
BRANCH   2   3
ATOM      3  N   UNL A   1      31.531  28.312  26.533  1.00  0.00    -0.354 N 
ATOM      4  C   UNL A   1      31.562  27.497  25.434  1.00  0.00     0.245 C 
ATOM      5  O   UNL A   1      31.053  26.377  25.567  1.00  0.00    -0.273 OA
ATOM      6  H   UNL A   1      30.948  28.010  27.266  1.00  0.00     0.163 HD
BRANCH   4   7
ATOM      7  C   UNL A   1      32.050  27.944  24.042  1.00  0.00     0.203 C 
ATOM      8  C   UNL A   1      32.358  26.574  22.213  1.00  0.00     0.148 C 
ATOM      9  N   UNL A   1      31.231  27.169  21.958  1.00  0.00    -0.169 NA
ATOM     10  C   UNL A   1      33.046  26.935  23.486  1.00  0.00     0.103 C 
ATOM     11  N   UNL A   1      31.014  28.020  23.006  1.00  0.00    -0.252 N 
BRANCH   8  12
ATOM     12  C   UNL A   1      32.981  25.544  21.316  1.00  0.00     0.354 C 
ATOM     13  O   UNL A   1      32.913  25.597  20.104  1.00  0.00    -0.245 OA
BRANCH  12  14
ATOM     14  O   UNL A   1      33.643  24.652  22.085  1.00  0.00    -0.461 OA
BRANCH  14  15
ATOM     15  C   UNL A   1      32.946  23.421  22.330  1.00  0.00     0.230 C 
ATOM     16  C   UNL A   1      33.167  22.963  23.759  1.00  0.00     0.049 C 
ENDBRANCH  14  15
ENDBRANCH  12  14
ENDBRANCH   8  12
BRANCH  11  17
ATOM     17  C   UNL A   1      29.832  28.742  23.128  1.00  0.00     0.066 A 
ATOM     18  C   UNL A   1      28.585  28.110  23.194  1.00  0.00     0.067 A 
ATOM     19  C   UNL A   1      29.851  30.146  23.145  1.00  0.00     0.067 A 
ATOM     20  C   UNL A   1      27.410  28.861  23.239  1.00  0.00     0.128 A 
ATOM     21  C   UNL A   1      28.666  30.877  23.132  1.00  0.00     0.128 A 
ATOM     22  F   UNL A   1      26.232  28.229  23.326  1.00  0.00    -0.207 F 
ATOM     23  C   UNL A   1      27.437  30.244  23.182  1.00  0.00     0.078 A 
ATOM     24  F   UNL A   1      28.719  32.211  23.036  1.00  0.00    -0.207 F 
ENDBRANCH  11  17
ENDBRANCH   4   7
ENDBRANCH   2   3
ENDBRANCH   1   2
BRANCH   1  25
ATOM     25  C   UNL A   1      31.412  32.003  26.813  1.00  0.00     0.023 C 
BRANCH  25  26
ATOM     26  C   UNL A   1      32.631  32.789  27.284  1.00  0.00     0.116 C 
BRANCH  26  27
ATOM     27  N   UNL A   1      32.342  34.167  27.655  1.00  0.00    -0.352 N 
ATOM     28  C   UNL A   1      32.961  34.983  28.573  1.00  0.00     0.251 C 
ATOM     29  H   UNL A   1      31.586  34.577  27.176  1.00  0.00     0.163 HD
ATOM     30  O   UNL A   1      32.507  36.098  28.813  1.00  0.00    -0.269 OA
BRANCH  28  31
ATOM     31  C   UNL A   1      34.149  34.504  29.311  1.00  0.00     0.039 A 
ATOM     32  C   UNL A   1      33.966  33.896  30.556  1.00  0.00     0.014 A 
ATOM     33  C   UNL A   1      35.431  34.617  28.769  1.00  0.00     0.014 A 
ATOM     34  C   UNL A   1      35.055  33.314  31.208  1.00  0.00     0.010 A 
ATOM     35  C   UNL A   1      36.497  33.957  29.374  1.00  0.00     0.010 A 
ATOM     36  C   UNL A   1      36.320  33.292  30.595  1.00  0.00    -0.014 A 
BRANCH  36  37
ATOM     37  C   UNL A   1      37.457  32.561  31.212  1.00  0.00     0.031 A 
ATOM     38  C   UNL A   1      37.950  32.938  32.581  1.00  0.00     0.074 A 
ATOM     39  C   UNL A   1      38.086  31.596  30.511  1.00  0.00     0.049 A 
ATOM     40  N   UNL A   1      38.952  32.444  33.262  1.00  0.00    -0.248 NA
ATOM     41  C   UNL A   1      37.243  34.032  33.265  1.00  0.00     0.031 C 
ATOM     42  C   UNL A   1      37.741  31.180  29.151  1.00  0.00     0.029 A 
ATOM     43  N   UNL A   1      39.146  30.789  30.844  1.00  0.00    -0.354 N 
ATOM     44  C   UNL A   1      38.998  33.169  34.444  1.00  0.00     0.074 A 
ATOM     45  C   UNL A   1      37.967  34.179  34.364  1.00  0.00     0.031 C 
ATOM     46  C   UNL A   1      38.544  30.169  28.781  1.00  0.00     0.029 A 
ATOM     47  C   UNL A   1      39.486  29.890  29.861  1.00  0.00     0.049 A 
ATOM     48  H   UNL A   1      39.618  30.850  31.705  1.00  0.00     0.167 HD
ATOM     49  C   UNL A   1      39.808  32.988  35.513  1.00  0.00     0.037 A 
ATOM     50  C   UNL A   1      40.445  28.944  29.835  1.00  0.00     0.037 A 
ATOM     51  C   UNL A   1      40.810  31.960  35.606  1.00  0.00     0.049 A 
ATOM     52  C   UNL A   1      41.332  28.763  31.036  1.00  0.00     0.074 A 
ATOM     53  C   UNL A   1      41.637  31.659  36.672  1.00  0.00     0.029 A 
ATOM     54  N   UNL A   1      41.117  31.063  34.593  1.00  0.00    -0.354 N 
ATOM     55  N   UNL A   1      41.321  29.413  32.175  1.00  0.00    -0.248 NA
ATOM     56  C   UNL A   1      42.362  27.716  30.953  1.00  0.00     0.031 C 
ATOM     57  C   UNL A   1      42.475  30.608  36.290  1.00  0.00     0.029 A 
ATOM     58  C   UNL A   1      42.135  30.221  35.004  1.00  0.00     0.049 A 
ATOM     59  H   UNL A   1      40.675  31.031  33.713  1.00  0.00     0.167 HD
ATOM     60  C   UNL A   1      42.317  28.839  32.952  1.00  0.00     0.074 A 
ATOM     61  C   UNL A   1      42.910  27.781  32.160  1.00  0.00     0.031 C 
ATOM     62  C   UNL A   1      42.705  29.162  34.209  1.00  0.00     0.037 A 
BRANCH  49  63
ATOM     63  C   UNL A   1      39.631  33.903  36.689  1.00  0.00     0.064 A 
ATOM     64  C   UNL A   1      40.319  35.125  36.755  1.00  0.00     0.173 A 
ATOM     65  C   UNL A   1      38.834  33.539  37.785  1.00  0.00     0.173 A 
ATOM     66  F   UNL A   1      41.100  35.517  35.737  1.00  0.00    -0.203 F 
ATOM     67  C   UNL A   1      40.225  35.940  37.879  1.00  0.00     0.198 A 
ATOM     68  C   UNL A   1      38.719  34.370  38.895  1.00  0.00     0.198 A 
ATOM     69  F   UNL A   1      38.147  32.387  37.767  1.00  0.00    -0.203 F 
ATOM     70  F   UNL A   1      40.917  37.087  37.933  1.00  0.00    -0.200 F 
ATOM     71  C   UNL A   1      39.422  35.565  38.946  1.00  0.00     0.200 A 
ATOM     72  F   UNL A   1      37.924  34.018  39.914  1.00  0.00    -0.200 F 
ATOM     73  F   UNL A   1      39.325  36.356  40.023  1.00  0.00    -0.200 F 
ENDBRANCH  49  63
BRANCH  50  74
ATOM     74  C   UNL A   1      40.579  28.065  28.644  1.00  0.00     0.064 A 
ATOM     75  C   UNL A   1      41.351  28.442  27.537  1.00  0.00     0.173 A 
ATOM     76  C   UNL A   1      39.905  26.837  28.582  1.00  0.00     0.173 A 
ATOM     77  F   UNL A   1      42.011  29.610  27.543  1.00  0.00    -0.203 F 
ATOM     78  C   UNL A   1      41.430  27.632  26.405  1.00  0.00     0.198 A 
ATOM     79  C   UNL A   1      40.006  26.016  27.461  1.00  0.00     0.198 A 
ATOM     80  F   UNL A   1      39.170  26.425  29.625  1.00  0.00    -0.203 F 
ATOM     81  F   UNL A   1      42.148  28.031  25.346  1.00  0.00    -0.200 F 
ATOM     82  C   UNL A   1      40.762  26.418  26.370  1.00  0.00     0.200 A 
ATOM     83  F   UNL A   1      39.377  24.833  27.441  1.00  0.00    -0.200 F 
ATOM     84  F   UNL A   1      40.846  25.635  25.286  1.00  0.00    -0.200 F 
ENDBRANCH  50  74
BRANCH  62  85
ATOM     85  C   UNL A   1      43.803  28.356  34.834  1.00  0.00     0.064 A 
ATOM     86  C   UNL A   1      45.145  28.733  34.663  1.00  0.00     0.173 A 
ATOM     87  C   UNL A   1      43.537  27.158  35.512  1.00  0.00     0.173 A 
ATOM     88  F   UNL A   1      45.450  29.867  34.014  1.00  0.00    -0.203 F 
ATOM     89  C   UNL A   1      46.180  27.927  35.127  1.00  0.00     0.198 A 
ATOM     90  C   UNL A   1      44.575  26.367  35.998  1.00  0.00     0.198 A 
ATOM     91  F   UNL A   1      42.271  26.762  35.711  1.00  0.00    -0.203 F 
ATOM     92  F   UNL A   1      47.454  28.285  34.914  1.00  0.00    -0.200 F 
ATOM     93  C   UNL A   1      45.894  26.745  35.794  1.00  0.00     0.200 A 
ATOM     94  F   UNL A   1      44.298  25.236  36.660  1.00  0.00    -0.200 F 
ATOM     95  F   UNL A   1      46.892  25.969  36.241  1.00  0.00    -0.200 F 
ENDBRANCH  62  85
ENDBRANCH  36  37
ENDBRANCH  28  31
ENDBRANCH  26  27
ENDBRANCH  25  26
ENDBRANCH   1  25
TORSDOF 15
ENDMDL
MODEL 3
REMARK VINA RESULT:     -12.7      1.130      7.352
REMARK SMILES CCOC(=O)C1=NN(c2cc(F)cc(F)c2)[C@@H](C(=O)NCCCCNC(=O)c2ccc(-c3c4nc(c(-c5c(F)c(F)c(F)c(F)c5F)c5ccc([nH]5)c(-c5c(F)c(F)c(F)c(F)c5F)c5nc(c(-c6c(F)c(F)c(F)c(F)c6F)c6ccc3[nH]6)C=C5)C=C4)cc2)C1
REMARK SMILES IDX 22 1 21 2 20 3 18 4 19 5 17 7 6 8 7 9 91 10 8 11 4 12 5 13
REMARK SMILES IDX 3 14 2 15 1 16 9 17 10 18 16 19 11 20 14 21 12 22 13 23
REMARK SMILES IDX 15 24 23 25 24 26 25 27 26 28 27 30 28 31 29 32 90 33 30 34
REMARK SMILES IDX 89 35 31 36 32 37 33 38 83 39 34 40 88 41 82 42 84 43 35 44
REMARK SMILES IDX 87 45 81 46 80 47 36 49 68 50 48 51 67 52 49 53 52 54 66 55
REMARK SMILES IDX 85 56 50 57 51 58 65 60 86 61 53 62 37 63 38 64 46 65 39 66
REMARK SMILES IDX 40 67 44 68 47 69 41 70 42 71 45 72 43 73 69 74 70 75 78 76
REMARK SMILES IDX 71 77 72 78 76 79 79 80 73 81 74 82 77 83 75 84 54 85 55 86
REMARK SMILES IDX 63 87 56 88 57 89 61 90 64 91 58 92 59 93 62 94 60 95
REMARK H PARENT 20 6 25 29 84 48 52 59
REMARK Flexibility Score: inf
ROOT
ATOM      1  C   UNL A   1      31.836  30.522  26.225  1.00  0.00     0.023 C 
ENDROOT
BRANCH   1   2
ATOM      2  C   UNL A   1      32.388  29.577  27.281  1.00  0.00     0.116 C 
BRANCH   2   3
ATOM      3  N   UNL A   1      31.758  28.271  27.317  1.00  0.00    -0.354 N 
ATOM      4  C   UNL A   1      32.081  27.135  26.625  1.00  0.00     0.245 C 
ATOM      5  O   UNL A   1      31.536  26.090  27.002  1.00  0.00    -0.273 OA
ATOM      6  H   UNL A   1      30.989  28.190  27.925  1.00  0.00     0.163 HD
BRANCH   4   7
ATOM      7  C   UNL A   1      32.945  27.119  25.349  1.00  0.00     0.203 C 
ATOM      8  C   UNL A   1      33.641  25.238  24.211  1.00  0.00     0.148 C 
ATOM      9  N   UNL A   1      32.660  25.684  23.485  1.00  0.00    -0.169 NA
ATOM     10  C   UNL A   1      33.989  26.013  25.436  1.00  0.00     0.103 C 
ATOM     11  N   UNL A   1      32.226  26.823  24.104  1.00  0.00    -0.252 N 
BRANCH   8  12
ATOM     12  C   UNL A   1      34.414  23.990  23.895  1.00  0.00     0.354 C 
ATOM     13  O   UNL A   1      34.857  23.750  22.789  1.00  0.00    -0.245 OA
BRANCH  12  14
ATOM     14  O   UNL A   1      34.561  23.279  25.034  1.00  0.00    -0.461 OA
BRANCH  14  15
ATOM     15  C   UNL A   1      35.848  22.669  25.212  1.00  0.00     0.230 C 
ATOM     16  C   UNL A   1      36.894  23.719  25.532  1.00  0.00     0.049 C 
ENDBRANCH  14  15
ENDBRANCH  12  14
ENDBRANCH   8  12
BRANCH  11  17
ATOM     17  C   UNL A   1      31.100  27.510  23.666  1.00  0.00     0.066 A 
ATOM     18  C   UNL A   1      29.805  27.058  23.942  1.00  0.00     0.067 A 
ATOM     19  C   UNL A   1      31.231  28.669  22.884  1.00  0.00     0.067 A 
ATOM     20  C   UNL A   1      28.695  27.725  23.424  1.00  0.00     0.128 A 
ATOM     21  C   UNL A   1      30.114  29.287  22.329  1.00  0.00     0.128 A 
ATOM     22  F   UNL A   1      27.466  27.284  23.726  1.00  0.00    -0.207 F 
ATOM     23  C   UNL A   1      28.837  28.825  22.595  1.00  0.00     0.078 A 
ATOM     24  F   UNL A   1      30.281  30.324  21.499  1.00  0.00    -0.207 F 
ENDBRANCH  11  17
ENDBRANCH   4   7
ENDBRANCH   2   3
ENDBRANCH   1   2
BRANCH   1  25
ATOM     25  C   UNL A   1      31.525  31.937  26.693  1.00  0.00     0.023 C 
BRANCH  25  26
ATOM     26  C   UNL A   1      32.691  32.712  27.298  1.00  0.00     0.116 C 
BRANCH  26  27
ATOM     27  N   UNL A   1      32.378  34.095  27.627  1.00  0.00    -0.352 N 
ATOM     28  C   UNL A   1      32.963  34.942  28.539  1.00  0.00     0.251 C 
ATOM     29  H   UNL A   1      31.630  34.485  27.118  1.00  0.00     0.163 HD
ATOM     30  O   UNL A   1      32.490  36.057  28.738  1.00  0.00    -0.269 OA
BRANCH  28  31
ATOM     31  C   UNL A   1      34.136  34.495  29.320  1.00  0.00     0.039 A 
ATOM     32  C   UNL A   1      33.926  33.897  30.565  1.00  0.00     0.014 A 
ATOM     33  C   UNL A   1      35.432  34.630  28.818  1.00  0.00     0.014 A 
ATOM     34  C   UNL A   1      35.005  33.345  31.258  1.00  0.00     0.010 A 
ATOM     35  C   UNL A   1      36.492  33.999  29.463  1.00  0.00     0.010 A 
ATOM     36  C   UNL A   1      36.289  33.343  30.686  1.00  0.00    -0.014 A 
BRANCH  36  37
ATOM     37  C   UNL A   1      37.421  32.642  31.346  1.00  0.00     0.031 A 
ATOM     38  C   UNL A   1      38.117  31.503  30.655  1.00  0.00     0.074 A 
ATOM     39  C   UNL A   1      37.785  32.996  32.595  1.00  0.00     0.049 A 
ATOM     40  N   UNL A   1      39.093  30.747  31.088  1.00  0.00    -0.248 NA
ATOM     41  C   UNL A   1      37.633  31.145  29.312  1.00  0.00     0.031 C 
ATOM     42  C   UNL A   1      37.150  34.046  33.394  1.00  0.00     0.029 A 
ATOM     43  N   UNL A   1      38.776  32.513  33.414  1.00  0.00    -0.354 N 
ATOM     44  C   UNL A   1      39.334  29.826  30.079  1.00  0.00     0.074 A 
ATOM     45  C   UNL A   1      38.361  30.072  29.037  1.00  0.00     0.031 C 
ATOM     46  C   UNL A   1      37.792  34.155  34.568  1.00  0.00     0.029 A 
ATOM     47  C   UNL A   1      38.859  33.160  34.623  1.00  0.00     0.049 A 
ATOM     48  H   UNL A   1      39.371  31.771  33.158  1.00  0.00     0.167 HD
ATOM     49  C   UNL A   1      40.299  28.880  30.014  1.00  0.00     0.037 A 
ATOM     50  C   UNL A   1      39.701  32.977  35.658  1.00  0.00     0.037 A 
ATOM     51  C   UNL A   1      41.287  28.659  31.035  1.00  0.00     0.049 A 
ATOM     52  C   UNL A   1      40.766  31.918  35.560  1.00  0.00     0.074 A 
ATOM     53  C   UNL A   1      42.343  27.765  31.032  1.00  0.00     0.029 A 
ATOM     54  N   UNL A   1      41.343  29.343  32.241  1.00  0.00    -0.354 N 
ATOM     55  N   UNL A   1      41.025  31.098  34.570  1.00  0.00    -0.248 NA
ATOM     56  C   UNL A   1      41.659  31.762  36.718  1.00  0.00     0.031 C 
ATOM     57  C   UNL A   1      43.012  27.877  32.253  1.00  0.00     0.029 A 
ATOM     58  C   UNL A   1      42.404  28.876  32.997  1.00  0.00     0.049 A 
ATOM     59  H   UNL A   1      40.721  30.054  32.517  1.00  0.00     0.167 HD
ATOM     60  C   UNL A   1      42.122  30.350  34.972  1.00  0.00     0.074 A 
ATOM     61  C   UNL A   1      42.488  30.817  36.293  1.00  0.00     0.031 C 
ATOM     62  C   UNL A   1      42.766  29.362  34.305  1.00  0.00     0.037 A 
BRANCH  49  63
ATOM     63  C   UNL A   1      40.357  28.022  28.783  1.00  0.00     0.064 A 
ATOM     64  C   UNL A   1      39.724  26.770  28.753  1.00  0.00     0.173 A 
ATOM     65  C   UNL A   1      41.100  28.410  27.658  1.00  0.00     0.173 A 
ATOM     66  F   UNL A   1      39.007  26.349  29.806  1.00  0.00    -0.203 F 
ATOM     67  C   UNL A   1      39.844  25.934  27.647  1.00  0.00     0.198 A 
ATOM     68  C   UNL A   1      41.193  27.584  26.542  1.00  0.00     0.198 A 
ATOM     69  F   UNL A   1      41.715  29.602  27.632  1.00  0.00    -0.203 F 
ATOM     70  F   UNL A   1      39.257  24.729  27.654  1.00  0.00    -0.200 F 
ATOM     71  C   UNL A   1      40.573  26.342  26.541  1.00  0.00     0.200 A 
ATOM     72  F   UNL A   1      41.878  27.990  25.464  1.00  0.00    -0.200 F 
ATOM     73  F   UNL A   1      40.679  25.540  25.473  1.00  0.00    -0.200 F 
ENDBRANCH  49  63
BRANCH  50  74
ATOM     74  C   UNL A   1      39.600  33.853  36.854  1.00  0.00     0.064 A 
ATOM     75  C   UNL A   1      38.829  33.488  37.967  1.00  0.00     0.173 A 
ATOM     76  C   UNL A   1      40.252  35.093  36.891  1.00  0.00     0.173 A 
ATOM     77  F   UNL A   1      38.180  32.315  37.980  1.00  0.00    -0.203 F 
ATOM     78  C   UNL A   1      38.701  34.339  39.064  1.00  0.00     0.198 A 
ATOM     79  C   UNL A   1      40.145  35.932  37.998  1.00  0.00     0.198 A 
ATOM     80  F   UNL A   1      41.016  35.477  35.858  1.00  0.00    -0.203 F 
ATOM     81  F   UNL A   1      37.931  33.982  40.101  1.00  0.00    -0.200 F 
ATOM     82  C   UNL A   1      39.362  35.557  39.081  1.00  0.00     0.200 A 
ATOM     83  F   UNL A   1      40.804  37.097  38.020  1.00  0.00    -0.200 F 
ATOM     84  F   UNL A   1      39.247  36.371  40.139  1.00  0.00    -0.200 F 
ENDBRANCH  50  74
BRANCH  62  85
ATOM     85  C   UNL A   1      43.953  28.727  34.964  1.00  0.00     0.064 A 
ATOM     86  C   UNL A   1      43.785  27.624  35.815  1.00  0.00     0.173 A 
ATOM     87  C   UNL A   1      45.238  29.271  34.836  1.00  0.00     0.173 A 
ATOM     88  F   UNL A   1      42.572  27.073  35.976  1.00  0.00    -0.203 F 
ATOM     89  C   UNL A   1      44.857  27.104  36.534  1.00  0.00     0.198 A 
ATOM     90  C   UNL A   1      46.315  28.732  35.537  1.00  0.00     0.198 A 
ATOM     91  F   UNL A   1      45.451  30.318  34.025  1.00  0.00    -0.203 F 
ATOM     92  F   UNL A   1      44.665  26.078  37.374  1.00  0.00    -0.200 F 
ATOM     93  C   UNL A   1      46.121  27.658  36.394  1.00  0.00     0.200 A 
ATOM     94  F   UNL A   1      47.539  29.254  35.385  1.00  0.00    -0.200 F 
ATOM     95  F   UNL A   1      47.154  27.157  37.086  1.00  0.00    -0.200 F 
ENDBRANCH  62  85
ENDBRANCH  36  37
ENDBRANCH  28  31
ENDBRANCH  26  27
ENDBRANCH  25  26
ENDBRANCH   1  25
TORSDOF 15
ENDMDL
