MODEL 1
REMARK VINA RESULT:     -12.6      0.000      0.000
REMARK SMILES C[C@@]1(O)CC(NCCCCNC(=O)c2ccc(-c3c4nc(c(-c5c(F)c(F)c(F)c(F)c5F)c5ccc([nH]5)c(-c5c(F)c(F)c(F)c(F)c5F)c5nc(c(-c6c(F)c(F)c(F)c(F)c6F)c6ccc3[nH]6)C=C5)C=C4)cc2)=C(C(=O)Nc2ccccc2)[C@H](c2ccccc2C(=O)[O-])[C@@H]1C(=O)Nc1ccccc1
REMARK SMILES IDX 8 1 7 2 6 3 5 5 1 6 2 7 4 8 97 9 87 10 77 11 3 12 98 14
REMARK SMILES IDX 99 15 100 16 101 18 102 19 106 20 103 21 105 22 104 23 88 24
REMARK SMILES IDX 89 25 93 26 90 27 92 28 91 29 94 30 95 31 96 32 78 33 79 34
REMARK SMILES IDX 80 35 81 37 82 38 86 39 83 40 85 41 84 42 9 43 10 44 11 45
REMARK SMILES IDX 12 46 13 48 14 49 15 50 76 51 16 52 75 53 17 54 18 55 19 56
REMARK SMILES IDX 69 57 20 58 74 59 68 60 70 61 21 62 73 63 67 64 66 65 22 67
REMARK SMILES IDX 54 68 34 69 53 70 35 71 38 72 52 73 71 74 36 75 37 76 51 78
REMARK SMILES IDX 72 79 39 80 23 81 24 82 32 83 25 84 26 85 30 86 33 87 27 88
REMARK SMILES IDX 28 89 31 90 29 91 55 92 56 93 64 94 57 95 58 96 62 97 65 98
REMARK SMILES IDX 59 99 60 100 63 101 61 102 40 103 41 104 49 105 42 106
REMARK SMILES IDX 43 107 47 108 50 109 44 110 45 111 48 112 46 113
REMARK H PARENT 6 4 3 13 100 17 80 36 11 47 70 66 38 77
REMARK Flexibility Score: inf
ROOT
ATOM      1  C   UNL A   1      37.378  21.493  24.914  1.00  0.00     0.023 C 
ENDROOT
BRANCH   1   2
ATOM      2  C   UNL A   1      37.681  22.568  25.950  1.00  0.00     0.112 C 
BRANCH   2   3
ATOM      3  N   UNL A   1      36.462  22.996  26.630  1.00  0.00    -0.388 N 
ATOM      4  H   UNL A   1      36.493  23.035  27.613  1.00  0.00     0.160 HD
BRANCH   3   5
ATOM      5  C   UNL A   1      35.260  23.354  26.022  1.00  0.00     0.023 C 
ATOM      6  C   UNL A   1      34.020  26.624  25.939  1.00  0.00     0.043 C 
ATOM      7  C   UNL A   1      34.074  25.428  24.963  1.00  0.00     0.080 C 
ATOM      8  C   UNL A   1      35.349  24.615  25.197  1.00  0.00     0.089 C 
ATOM      9  C   UNL A   1      32.769  24.604  25.130  1.00  0.00     0.123 C 
ATOM     10  C   UNL A   1      32.959  23.042  25.113  1.00  0.00     0.073 C 
ATOM     11  C   UNL A   1      34.086  22.665  26.091  1.00  0.00     0.045 C 
BRANCH   7  12
ATOM     12  O   UNL A   1      34.256  25.994  23.661  1.00  0.00    -0.389 OA
ATOM     13  H   UNL A   1      34.539  26.918  23.747  1.00  0.00     0.211 HD
ENDBRANCH   7  12
BRANCH   9  14
ATOM     14  C   UNL A   1      31.579  25.183  24.340  1.00  0.00     0.231 C 
ATOM     15  O   UNL A   1      31.272  24.810  23.204  1.00  0.00    -0.274 OA
ATOM     16  N   UNL A   1      30.711  26.037  24.951  1.00  0.00    -0.326 N 
ATOM     17  H   UNL A   1      29.762  25.774  24.906  1.00  0.00     0.169 HD
BRANCH  16  18
ATOM     18  C   UNL A   1      30.965  27.231  25.633  1.00  0.00     0.041 A 
ATOM     19  C   UNL A   1      31.251  28.356  24.854  1.00  0.00     0.026 A 
ATOM     20  C   UNL A   1      31.095  27.305  27.020  1.00  0.00     0.026 A 
ATOM     21  C   UNL A   1      31.629  29.556  25.457  1.00  0.00     0.002 A 
ATOM     22  C   UNL A   1      31.486  28.503  27.622  1.00  0.00     0.002 A 
ATOM     23  C   UNL A   1      31.745  29.628  26.843  1.00  0.00     0.000 A 
ENDBRANCH  16  18
ENDBRANCH   9  14
BRANCH  10  24
ATOM     24  C   UNL A   1      32.956  22.098  23.845  1.00  0.00    -0.030 A 
ATOM     25  C   UNL A   1      32.209  20.890  23.930  1.00  0.00     0.005 A 
ATOM     26  C   UNL A   1      33.193  22.538  22.528  1.00  0.00     0.001 A 
ATOM     27  C   UNL A   1      31.482  20.378  22.844  1.00  0.00     0.000 A 
ATOM     28  C   UNL A   1      32.430  22.053  21.443  1.00  0.00     0.010 A 
ATOM     29  C   UNL A   1      31.528  21.014  21.616  1.00  0.00     0.001 A 
BRANCH  26  30
ATOM     30  C   UNL A   1      34.303  23.403  22.118  1.00  0.00     0.072 C 
ATOM     31  O   UNL A   1      35.475  23.239  22.417  1.00  0.00    -0.545 OA
ATOM     32  O   UNL A   1      33.868  24.446  21.391  1.00  0.00    -0.545 OA
ENDBRANCH  26  30
ENDBRANCH  10  24
BRANCH  11  33
ATOM     33  C   UNL A   1      34.018  21.491  27.059  1.00  0.00     0.253 C 
ATOM     34  O   UNL A   1      34.218  21.704  28.267  1.00  0.00    -0.269 OA
ATOM     35  N   UNL A   1      33.600  20.223  26.794  1.00  0.00    -0.322 N 
ATOM     36  H   UNL A   1      33.104  19.864  27.565  1.00  0.00     0.170 HD
BRANCH  35  37
ATOM     37  C   UNL A   1      33.652  19.263  25.769  1.00  0.00     0.041 A 
ATOM     38  C   UNL A   1      32.630  18.304  25.745  1.00  0.00     0.026 A 
ATOM     39  C   UNL A   1      34.710  19.084  24.887  1.00  0.00     0.026 A 
ATOM     40  C   UNL A   1      32.632  17.261  24.809  1.00  0.00     0.002 A 
ATOM     41  C   UNL A   1      34.717  18.057  23.939  1.00  0.00     0.002 A 
ATOM     42  C   UNL A   1      33.669  17.150  23.891  1.00  0.00     0.000 A 
ENDBRANCH  35  37
ENDBRANCH  11  33
ENDBRANCH   3   5
ENDBRANCH   2   3
ENDBRANCH   1   2
BRANCH   1  43
ATOM     43  C   UNL A   1      38.256  20.251  25.032  1.00  0.00     0.023 C 
BRANCH  43  44
ATOM     44  C   UNL A   1      39.421  20.379  26.008  1.00  0.00     0.116 C 
BRANCH  44  45
ATOM     45  N   UNL A   1      40.333  19.242  25.976  1.00  0.00    -0.352 N 
ATOM     46  C   UNL A   1      41.700  19.242  26.118  1.00  0.00     0.251 C 
ATOM     47  H   UNL A   1      39.916  18.361  25.835  1.00  0.00     0.163 HD
ATOM     48  O   UNL A   1      42.354  18.219  25.953  1.00  0.00    -0.269 OA
BRANCH  46  49
ATOM     49  C   UNL A   1      42.380  20.514  26.435  1.00  0.00     0.039 A 
ATOM     50  C   UNL A   1      42.901  21.281  25.392  1.00  0.00     0.014 A 
ATOM     51  C   UNL A   1      42.428  20.974  27.753  1.00  0.00     0.014 A 
ATOM     52  C   UNL A   1      43.402  22.555  25.663  1.00  0.00     0.010 A 
ATOM     53  C   UNL A   1      42.856  22.272  28.008  1.00  0.00     0.010 A 
ATOM     54  C   UNL A   1      43.342  23.077  26.966  1.00  0.00    -0.014 A 
BRANCH  54  55
ATOM     55  C   UNL A   1      43.771  24.466  27.262  1.00  0.00     0.031 A 
ATOM     56  C   UNL A   1      42.768  25.471  27.753  1.00  0.00     0.074 A 
ATOM     57  C   UNL A   1      45.043  24.839  27.018  1.00  0.00     0.049 A 
ATOM     58  N   UNL A   1      42.923  26.750  27.985  1.00  0.00    -0.248 NA
ATOM     59  C   UNL A   1      41.401  24.980  27.986  1.00  0.00     0.031 C 
ATOM     60  C   UNL A   1      46.095  23.967  26.496  1.00  0.00     0.029 A 
ATOM     61  N   UNL A   1      45.663  26.055  27.165  1.00  0.00    -0.354 N 
ATOM     62  C   UNL A   1      41.675  27.214  28.378  1.00  0.00     0.074 A 
ATOM     63  C   UNL A   1      40.761  26.097  28.299  1.00  0.00     0.031 C 
ATOM     64  C   UNL A   1      47.235  24.668  26.385  1.00  0.00     0.029 A 
ATOM     65  C   UNL A   1      46.984  26.048  26.790  1.00  0.00     0.049 A 
ATOM     66  H   UNL A   1      45.203  26.856  27.507  1.00  0.00     0.167 HD
ATOM     67  C   UNL A   1      41.330  28.456  28.793  1.00  0.00     0.037 A 
ATOM     68  C   UNL A   1      47.887  27.047  26.765  1.00  0.00     0.037 A 
ATOM     69  C   UNL A   1      42.248  29.560  28.892  1.00  0.00     0.049 A 
ATOM     70  C   UNL A   1      47.472  28.422  27.215  1.00  0.00     0.074 A 
ATOM     71  C   UNL A   1      42.009  30.841  29.356  1.00  0.00     0.029 A 
ATOM     72  N   UNL A   1      43.583  29.511  28.518  1.00  0.00    -0.354 N 
ATOM     73  N   UNL A   1      46.307  28.833  27.653  1.00  0.00    -0.248 NA
ATOM     74  C   UNL A   1      48.500  29.472  27.173  1.00  0.00     0.031 C 
ATOM     75  C   UNL A   1      43.187  31.582  29.218  1.00  0.00     0.029 A 
ATOM     76  C   UNL A   1      44.174  30.748  28.718  1.00  0.00     0.049 A 
ATOM     77  H   UNL A   1      44.042  28.715  28.163  1.00  0.00     0.167 HD
ATOM     78  C   UNL A   1      46.468  30.177  27.965  1.00  0.00     0.074 A 
ATOM     79  C   UNL A   1      47.848  30.508  27.681  1.00  0.00     0.031 C 
ATOM     80  C   UNL A   1      45.554  31.057  28.442  1.00  0.00     0.037 A 
BRANCH  67  81
ATOM     81  C   UNL A   1      39.898  28.686  29.178  1.00  0.00     0.064 A 
ATOM     82  C   UNL A   1      39.443  28.457  30.486  1.00  0.00     0.173 A 
ATOM     83  C   UNL A   1      38.978  29.181  28.242  1.00  0.00     0.173 A 
ATOM     84  F   UNL A   1      40.280  27.974  31.417  1.00  0.00    -0.203 F 
ATOM     85  C   UNL A   1      38.115  28.689  30.835  1.00  0.00     0.198 A 
ATOM     86  C   UNL A   1      37.658  29.442  28.602  1.00  0.00     0.198 A 
ATOM     87  F   UNL A   1      39.360  29.422  26.978  1.00  0.00    -0.203 F 
ATOM     88  F   UNL A   1      37.694  28.419  32.078  1.00  0.00    -0.200 F 
ATOM     89  C   UNL A   1      37.227  29.189  29.895  1.00  0.00     0.200 A 
ATOM     90  F   UNL A   1      36.804  29.937  27.696  1.00  0.00    -0.200 F 
ATOM     91  F   UNL A   1      35.951  29.422  30.236  1.00  0.00    -0.200 F 
ENDBRANCH  67  81
BRANCH  68  92
ATOM     92  C   UNL A   1      49.280  26.784  26.315  1.00  0.00     0.064 A 
ATOM     93  C   UNL A   1      49.656  26.992  24.981  1.00  0.00     0.173 A 
ATOM     94  C   UNL A   1      50.258  26.307  27.201  1.00  0.00     0.173 A 
ATOM     95  F   UNL A   1      48.751  27.427  24.090  1.00  0.00    -0.203 F 
ATOM     96  C   UNL A   1      50.948  26.709  24.543  1.00  0.00     0.198 A 
ATOM     97  C   UNL A   1      51.558  26.053  26.769  1.00  0.00     0.198 A 
ATOM     98  F   UNL A   1      49.951  26.094  28.489  1.00  0.00    -0.203 F 
ATOM     99  F   UNL A   1      51.266  26.866  23.251  1.00  0.00    -0.200 F 
ATOM    100  C   UNL A   1      51.900  26.244  25.439  1.00  0.00     0.200 A 
ATOM    101  F   UNL A   1      52.478  25.617  27.640  1.00  0.00    -0.200 F 
ATOM    102  F   UNL A   1      53.142  25.971  25.018  1.00  0.00    -0.200 F 
ENDBRANCH  68  92
BRANCH  80 103
ATOM    103  C   UNL A   1      46.025  32.454  28.723  1.00  0.00     0.064 A 
ATOM    104  C   UNL A   1      45.960  33.464  27.752  1.00  0.00     0.173 A 
ATOM    105  C   UNL A   1      46.500  32.798  29.998  1.00  0.00     0.173 A 
ATOM    106  F   UNL A   1      45.528  33.182  26.513  1.00  0.00    -0.203 F 
ATOM    107  C   UNL A   1      46.377  34.760  28.040  1.00  0.00     0.198 A 
ATOM    108  C   UNL A   1      46.886  34.102  30.292  1.00  0.00     0.198 A 
ATOM    109  F   UNL A   1      46.574  31.870  30.965  1.00  0.00    -0.203 F 
ATOM    110  F   UNL A   1      46.350  35.698  27.083  1.00  0.00    -0.200 F 
ATOM    111  C   UNL A   1      46.831  35.081  29.311  1.00  0.00     0.200 A 
ATOM    112  F   UNL A   1      47.310  34.413  31.525  1.00  0.00    -0.200 F 
ATOM    113  F   UNL A   1      47.221  36.332  29.589  1.00  0.00    -0.200 F 
ENDBRANCH  80 103
ENDBRANCH  54  55
ENDBRANCH  46  49
ENDBRANCH  44  45
ENDBRANCH  43  44
ENDBRANCH   1  43
TORSDOF 18
ENDMDL
MODEL 2
REMARK VINA RESULT:     -12.3      6.562     11.887
REMARK SMILES C[C@@]1(O)CC(NCCCCNC(=O)c2ccc(-c3c4nc(c(-c5c(F)c(F)c(F)c(F)c5F)c5ccc([nH]5)c(-c5c(F)c(F)c(F)c(F)c5F)c5nc(c(-c6c(F)c(F)c(F)c(F)c6F)c6ccc3[nH]6)C=C5)C=C4)cc2)=C(C(=O)Nc2ccccc2)[C@H](c2ccccc2C(=O)[O-])[C@@H]1C(=O)Nc1ccccc1
REMARK SMILES IDX 8 1 7 2 6 3 5 5 1 6 2 7 4 8 97 9 87 10 77 11 3 12 98 14
REMARK SMILES IDX 99 15 100 16 101 18 102 19 106 20 103 21 105 22 104 23 88 24
REMARK SMILES IDX 89 25 93 26 90 27 92 28 91 29 94 30 95 31 96 32 78 33 79 34
REMARK SMILES IDX 80 35 81 37 82 38 86 39 83 40 85 41 84 42 9 43 10 44 11 45
REMARK SMILES IDX 12 46 13 48 14 49 15 50 76 51 16 52 75 53 17 54 18 55 19 56
REMARK SMILES IDX 69 57 20 58 74 59 68 60 70 61 21 62 73 63 67 64 66 65 22 67
REMARK SMILES IDX 54 68 34 69 53 70 35 71 38 72 52 73 71 74 36 75 37 76 51 78
REMARK SMILES IDX 72 79 39 80 23 81 24 82 32 83 25 84 26 85 30 86 33 87 27 88
REMARK SMILES IDX 28 89 31 90 29 91 55 92 56 93 64 94 57 95 58 96 62 97 65 98
REMARK SMILES IDX 59 99 60 100 63 101 61 102 40 103 41 104 49 105 42 106
REMARK SMILES IDX 43 107 47 108 50 109 44 110 45 111 48 112 46 113
REMARK H PARENT 6 4 3 13 100 17 80 36 11 47 70 66 38 77
REMARK Flexibility Score: inf
ROOT
ATOM      1  C   UNL A   1      42.633  35.294  35.554  1.00  0.00     0.023 C 
ENDROOT
BRANCH   1   2
ATOM      2  C   UNL A   1      41.516  34.262  35.470  1.00  0.00     0.112 C 
BRANCH   2   3
ATOM      3  N   UNL A   1      41.475  33.642  34.149  1.00  0.00    -0.388 N 
ATOM      4  H   UNL A   1      42.127  33.966  33.486  1.00  0.00     0.160 HD
BRANCH   3   5
ATOM      5  C   UNL A   1      40.603  32.635  33.736  1.00  0.00     0.023 C 
ATOM      6  C   UNL A   1      41.594  29.340  33.105  1.00  0.00     0.043 C 
ATOM      7  C   UNL A   1      40.373  30.033  33.751  1.00  0.00     0.080 C 
ATOM      8  C   UNL A   1      40.809  31.322  34.451  1.00  0.00     0.089 C 
ATOM      9  C   UNL A   1      39.299  30.251  32.654  1.00  0.00     0.123 C 
ATOM     10  C   UNL A   1      38.562  31.640  32.707  1.00  0.00     0.073 C 
ATOM     11  C   UNL A   1      39.613  32.760  32.807  1.00  0.00     0.045 C 
BRANCH   7  12
ATOM     12  O   UNL A   1      39.962  29.178  34.824  1.00  0.00    -0.389 OA
ATOM     13  H   UNL A   1      39.911  28.263  34.506  1.00  0.00     0.211 HD
ENDBRANCH   7  12
BRANCH   9  14
ATOM     14  C   UNL A   1      38.437  29.000  32.389  1.00  0.00     0.231 C 
ATOM     15  O   UNL A   1      37.936  28.319  33.288  1.00  0.00    -0.274 OA
ATOM     16  N   UNL A   1      38.063  28.692  31.116  1.00  0.00    -0.326 N 
ATOM     17  H   UNL A   1      37.094  28.579  30.979  1.00  0.00     0.169 HD
BRANCH  16  18
ATOM     18  C   UNL A   1      38.850  28.512  29.973  1.00  0.00     0.041 A 
ATOM     19  C   UNL A   1      40.127  27.976  30.163  1.00  0.00     0.026 A 
ATOM     20  C   UNL A   1      38.481  28.978  28.712  1.00  0.00     0.026 A 
ATOM     21  C   UNL A   1      41.016  27.873  29.092  1.00  0.00     0.002 A 
ATOM     22  C   UNL A   1      39.375  28.885  27.643  1.00  0.00     0.002 A 
ATOM     23  C   UNL A   1      40.638  28.327  27.832  1.00  0.00     0.000 A 
ENDBRANCH  16  18
ENDBRANCH   9  14
BRANCH  10  24
ATOM     24  C   UNL A   1      37.261  31.995  33.532  1.00  0.00    -0.030 A 
ATOM     25  C   UNL A   1      37.433  32.393  34.887  1.00  0.00     0.005 A 
ATOM     26  C   UNL A   1      36.048  32.421  32.956  1.00  0.00     0.001 A 
ATOM     27  C   UNL A   1      36.651  33.396  35.481  1.00  0.00     0.000 A 
ATOM     28  C   UNL A   1      35.287  33.461  33.532  1.00  0.00     0.010 A 
ATOM     29  C   UNL A   1      35.627  33.991  34.768  1.00  0.00     0.001 A 
BRANCH  26  30
ATOM     30  C   UNL A   1      35.383  31.773  31.822  1.00  0.00     0.072 C 
ATOM     31  O   UNL A   1      35.746  30.736  31.288  1.00  0.00    -0.545 OA
ATOM     32  O   UNL A   1      34.327  32.488  31.398  1.00  0.00    -0.545 OA
ENDBRANCH  26  30
ENDBRANCH  10  24
BRANCH  11  33
ATOM     33  C   UNL A   1      39.555  34.058  32.013  1.00  0.00     0.253 C 
ATOM     34  O   UNL A   1      40.083  35.074  32.496  1.00  0.00    -0.269 OA
ATOM     35  N   UNL A   1      39.124  34.226  30.733  1.00  0.00    -0.322 N 
ATOM     36  H   UNL A   1      39.681  34.897  30.276  1.00  0.00     0.170 HD
BRANCH  35  37
ATOM     37  C   UNL A   1      38.136  33.747  29.857  1.00  0.00     0.041 A 
ATOM     38  C   UNL A   1      36.974  34.520  29.726  1.00  0.00     0.026 A 
ATOM     39  C   UNL A   1      38.140  32.500  29.245  1.00  0.00     0.026 A 
ATOM     40  C   UNL A   1      35.899  34.092  28.935  1.00  0.00     0.002 A 
ATOM     41  C   UNL A   1      37.081  32.067  28.441  1.00  0.00     0.002 A 
ATOM     42  C   UNL A   1      35.962  32.870  28.276  1.00  0.00     0.000 A 
ENDBRANCH  35  37
ENDBRANCH  11  33
ENDBRANCH   3   5
ENDBRANCH   2   3
ENDBRANCH   1   2
BRANCH   1  43
ATOM     43  C   UNL A   1      42.912  35.795  36.967  1.00  0.00     0.023 C 
BRANCH  43  44
ATOM     44  C   UNL A   1      44.389  35.936  37.318  1.00  0.00     0.116 C 
BRANCH  44  45
ATOM     45  N   UNL A   1      44.731  35.386  38.624  1.00  0.00    -0.352 N 
ATOM     46  C   UNL A   1      45.007  34.080  38.954  1.00  0.00     0.251 C 
ATOM     47  H   UNL A   1      44.769  36.033  39.366  1.00  0.00     0.163 HD
ATOM     48  O   UNL A   1      45.166  33.742  40.121  1.00  0.00    -0.269 OA
BRANCH  46  49
ATOM     49  C   UNL A   1      45.069  33.075  37.875  1.00  0.00     0.039 A 
ATOM     50  C   UNL A   1      43.914  32.363  37.546  1.00  0.00     0.014 A 
ATOM     51  C   UNL A   1      46.248  32.900  37.146  1.00  0.00     0.014 A 
ATOM     52  C   UNL A   1      43.920  31.528  36.427  1.00  0.00     0.010 A 
ATOM     53  C   UNL A   1      46.228  32.129  35.989  1.00  0.00     0.010 A 
ATOM     54  C   UNL A   1      45.063  31.441  35.615  1.00  0.00    -0.014 A 
BRANCH  54  55
ATOM     55  C   UNL A   1      45.062  30.644  34.364  1.00  0.00     0.031 A 
ATOM     56  C   UNL A   1      44.778  31.314  33.050  1.00  0.00     0.074 A 
ATOM     57  C   UNL A   1      45.243  29.310  34.421  1.00  0.00     0.049 A 
ATOM     58  N   UNL A   1      44.646  30.782  31.861  1.00  0.00    -0.248 NA
ATOM     59  C   UNL A   1      44.586  32.772  33.080  1.00  0.00     0.031 C 
ATOM     60  C   UNL A   1      45.479  28.539  35.642  1.00  0.00     0.029 A 
ATOM     61  N   UNL A   1      45.242  28.363  33.427  1.00  0.00    -0.354 N 
ATOM     62  C   UNL A   1      44.346  31.836  31.009  1.00  0.00     0.074 A 
ATOM     63  C   UNL A   1      44.257  33.029  31.822  1.00  0.00     0.031 C 
ATOM     64  C   UNL A   1      45.621  27.242  35.325  1.00  0.00     0.029 A 
ATOM     65  C   UNL A   1      45.446  27.084  33.884  1.00  0.00     0.049 A 
ATOM     66  H   UNL A   1      45.108  28.580  32.476  1.00  0.00     0.167 HD
ATOM     67  C   UNL A   1      44.185  31.815  29.664  1.00  0.00     0.037 A 
ATOM     68  C   UNL A   1      45.477  25.915  33.217  1.00  0.00     0.037 A 
ATOM     69  C   UNL A   1      44.296  30.630  28.856  1.00  0.00     0.049 A 
ATOM     70  C   UNL A   1      45.277  25.917  31.725  1.00  0.00     0.074 A 
ATOM     71  C   UNL A   1      44.207  30.513  27.481  1.00  0.00     0.029 A 
ATOM     72  N   UNL A   1      44.519  29.353  29.353  1.00  0.00    -0.354 N 
ATOM     73  N   UNL A   1      45.064  26.930  30.920  1.00  0.00    -0.248 NA
ATOM     74  C   UNL A   1      45.327  24.614  31.047  1.00  0.00     0.031 C 
ATOM     75  C   UNL A   1      44.329  29.159  27.148  1.00  0.00     0.029 A 
ATOM     76  C   UNL A   1      44.547  28.439  28.312  1.00  0.00     0.049 A 
ATOM     77  H   UNL A   1      44.641  29.131  30.305  1.00  0.00     0.167 HD
ATOM     78  C   UNL A   1      44.985  26.392  29.642  1.00  0.00     0.074 A 
ATOM     79  C   UNL A   1      45.187  24.965  29.777  1.00  0.00     0.031 C 
ATOM     80  C   UNL A   1      44.762  27.023  28.463  1.00  0.00     0.037 A 
BRANCH  67  81
ATOM     81  C   UNL A   1      43.877  33.115  28.981  1.00  0.00     0.064 A 
ATOM     82  C   UNL A   1      44.843  33.791  28.219  1.00  0.00     0.173 A 
ATOM     83  C   UNL A   1      42.591  33.671  29.053  1.00  0.00     0.173 A 
ATOM     84  F   UNL A   1      46.090  33.307  28.128  1.00  0.00    -0.203 F 
ATOM     85  C   UNL A   1      44.540  34.989  27.578  1.00  0.00     0.198 A 
ATOM     86  C   UNL A   1      42.283  34.853  28.383  1.00  0.00     0.198 A 
ATOM     87  F   UNL A   1      41.628  33.063  29.763  1.00  0.00    -0.203 F 
ATOM     88  F   UNL A   1      45.491  35.640  26.895  1.00  0.00    -0.200 F 
ATOM     89  C   UNL A   1      43.259  35.514  27.653  1.00  0.00     0.200 A 
ATOM     90  F   UNL A   1      41.041  35.352  28.446  1.00  0.00    -0.200 F 
ATOM     91  F   UNL A   1      42.966  36.662  27.025  1.00  0.00    -0.200 F 
ENDBRANCH  67  81
BRANCH  68  92
ATOM     92  C   UNL A   1      45.723  24.642  33.947  1.00  0.00     0.064 A 
ATOM     93  C   UNL A   1      47.027  24.223  34.242  1.00  0.00     0.173 A 
ATOM     94  C   UNL A   1      44.665  23.814  34.350  1.00  0.00     0.173 A 
ATOM     95  F   UNL A   1      48.073  24.971  33.859  1.00  0.00    -0.203 F 
ATOM     96  C   UNL A   1      47.267  23.013  34.889  1.00  0.00     0.198 A 
ATOM     97  C   UNL A   1      44.904  22.618  35.024  1.00  0.00     0.198 A 
ATOM     98  F   UNL A   1      43.397  24.170  34.095  1.00  0.00    -0.203 F 
ATOM     99  F   UNL A   1      48.526  22.612  35.112  1.00  0.00    -0.200 F 
ATOM    100  C   UNL A   1      46.204  22.213  35.284  1.00  0.00     0.200 A 
ATOM    101  F   UNL A   1      43.875  21.854  35.415  1.00  0.00    -0.200 F 
ATOM    102  F   UNL A   1      46.435  21.049  35.906  1.00  0.00    -0.200 F 
ENDBRANCH  68  92
BRANCH  80 103
ATOM    103  C   UNL A   1      44.763  26.182  27.220  1.00  0.00     0.064 A 
ATOM    104  C   UNL A   1      45.921  26.009  26.449  1.00  0.00     0.173 A 
ATOM    105  C   UNL A   1      43.601  25.501  26.825  1.00  0.00     0.173 A 
ATOM    106  F   UNL A   1      47.053  26.651  26.776  1.00  0.00    -0.203 F 
ATOM    107  C   UNL A   1      45.909  25.204  25.313  1.00  0.00     0.198 A 
ATOM    108  C   UNL A   1      43.602  24.672  25.707  1.00  0.00     0.198 A 
ATOM    109  F   UNL A   1      42.469  25.627  27.534  1.00  0.00    -0.203 F 
ATOM    110  F   UNL A   1      47.015  25.090  24.564  1.00  0.00    -0.200 F 
ATOM    111  C   UNL A   1      44.754  24.530  24.948  1.00  0.00     0.200 A 
ATOM    112  F   UNL A   1      42.488  24.010  25.364  1.00  0.00    -0.200 F 
ATOM    113  F   UNL A   1      44.748  23.747  23.860  1.00  0.00    -0.200 F 
ENDBRANCH  80 103
ENDBRANCH  54  55
ENDBRANCH  46  49
ENDBRANCH  44  45
ENDBRANCH  43  44
ENDBRANCH   1  43
TORSDOF 18
ENDMDL
MODEL 3
REMARK VINA RESULT:     -12.2      6.921     13.451
REMARK SMILES C[C@@]1(O)CC(NCCCCNC(=O)c2ccc(-c3c4nc(c(-c5c(F)c(F)c(F)c(F)c5F)c5ccc([nH]5)c(-c5c(F)c(F)c(F)c(F)c5F)c5nc(c(-c6c(F)c(F)c(F)c(F)c6F)c6ccc3[nH]6)C=C5)C=C4)cc2)=C(C(=O)Nc2ccccc2)[C@H](c2ccccc2C(=O)[O-])[C@@H]1C(=O)Nc1ccccc1
REMARK SMILES IDX 8 1 7 2 6 3 5 5 1 6 2 7 4 8 97 9 87 10 77 11 3 12 98 14
REMARK SMILES IDX 99 15 100 16 101 18 102 19 106 20 103 21 105 22 104 23 88 24
REMARK SMILES IDX 89 25 93 26 90 27 92 28 91 29 94 30 95 31 96 32 78 33 79 34
REMARK SMILES IDX 80 35 81 37 82 38 86 39 83 40 85 41 84 42 9 43 10 44 11 45
REMARK SMILES IDX 12 46 13 48 14 49 15 50 76 51 16 52 75 53 17 54 18 55 19 56
REMARK SMILES IDX 69 57 20 58 74 59 68 60 70 61 21 62 73 63 67 64 66 65 22 67
REMARK SMILES IDX 54 68 34 69 53 70 35 71 38 72 52 73 71 74 36 75 37 76 51 78
REMARK SMILES IDX 72 79 39 80 23 81 24 82 32 83 25 84 26 85 30 86 33 87 27 88
REMARK SMILES IDX 28 89 31 90 29 91 55 92 56 93 64 94 57 95 58 96 62 97 65 98
REMARK SMILES IDX 59 99 60 100 63 101 61 102 40 103 41 104 49 105 42 106
REMARK SMILES IDX 43 107 47 108 50 109 44 110 45 111 48 112 46 113
REMARK H PARENT 6 4 3 13 100 17 80 36 11 47 70 66 38 77
REMARK Flexibility Score: inf
ROOT
ATOM      1  C   UNL A   1      47.333  32.468  27.824  1.00  0.00     0.023 C 
ENDROOT
BRANCH   1   2
ATOM      2  C   UNL A   1      47.238  30.953  27.709  1.00  0.00     0.112 C 
BRANCH   2   3
ATOM      3  N   UNL A   1      46.364  30.404  28.742  1.00  0.00    -0.388 N 
ATOM      4  H   UNL A   1      46.494  30.740  29.658  1.00  0.00     0.160 HD
BRANCH   3   5
ATOM      5  C   UNL A   1      45.362  29.452  28.556  1.00  0.00     0.023 C 
ATOM      6  C   UNL A   1      42.673  29.861  26.357  1.00  0.00     0.043 C 
ATOM      7  C   UNL A   1      43.598  28.699  26.781  1.00  0.00     0.080 C 
ATOM      8  C   UNL A   1      44.995  29.232  27.108  1.00  0.00     0.089 C 
ATOM      9  C   UNL A   1      42.926  27.946  27.960  1.00  0.00     0.123 C 
ATOM     10  C   UNL A   1      43.899  27.513  29.117  1.00  0.00     0.073 C 
ATOM     11  C   UNL A   1      44.751  28.725  29.534  1.00  0.00     0.045 C 
BRANCH   7  12
ATOM     12  O   UNL A   1      43.795  27.907  25.605  1.00  0.00    -0.389 OA
ATOM     13  H   UNL A   1      44.559  27.322  25.734  1.00  0.00     0.211 HD
ENDBRANCH   7  12
BRANCH   9  14
ATOM     14  C   UNL A   1      41.867  26.923  27.503  1.00  0.00     0.231 C 
ATOM     15  O   UNL A   1      42.055  26.114  26.589  1.00  0.00    -0.274 OA
ATOM     16  N   UNL A   1      40.717  26.772  28.217  1.00  0.00    -0.326 N 
ATOM     17  H   UNL A   1      40.523  25.852  28.511  1.00  0.00     0.169 HD
BRANCH  16  18
ATOM     18  C   UNL A   1      39.770  27.729  28.597  1.00  0.00     0.041 A 
ATOM     19  C   UNL A   1      39.123  27.528  29.819  1.00  0.00     0.026 A 
ATOM     20  C   UNL A   1      39.348  28.759  27.757  1.00  0.00     0.026 A 
ATOM     21  C   UNL A   1      38.085  28.372  30.216  1.00  0.00     0.002 A 
ATOM     22  C   UNL A   1      38.301  29.596  28.150  1.00  0.00     0.002 A 
ATOM     23  C   UNL A   1      37.675  29.407  29.380  1.00  0.00     0.000 A 
ENDBRANCH  16  18
ENDBRANCH   9  14
BRANCH  10  24
ATOM     24  C   UNL A   1      44.725  26.168  29.213  1.00  0.00    -0.030 A 
ATOM     25  C   UNL A   1      44.455  25.311  30.316  1.00  0.00     0.005 A 
ATOM     26  C   UNL A   1      45.314  25.519  28.110  1.00  0.00     0.001 A 
ATOM     27  C   UNL A   1      44.447  23.913  30.198  1.00  0.00     0.000 A 
ATOM     28  C   UNL A   1      45.265  24.115  27.971  1.00  0.00     0.010 A 
ATOM     29  C   UNL A   1      44.773  23.317  28.993  1.00  0.00     0.001 A 
BRANCH  26  30
ATOM     30  C   UNL A   1      46.138  26.176  27.090  1.00  0.00     0.072 C 
ATOM     31  O   UNL A   1      45.902  26.190  25.892  1.00  0.00    -0.545 OA
ATOM     32  O   UNL A   1      47.231  26.740  27.632  1.00  0.00    -0.545 OA
ENDBRANCH  26  30
ENDBRANCH  10  24
BRANCH  11  33
ATOM     33  C   UNL A   1      45.053  29.100  30.979  1.00  0.00     0.253 C 
ATOM     34  O   UNL A   1      46.199  28.903  31.418  1.00  0.00    -0.269 OA
ATOM     35  N   UNL A   1      44.253  29.789  31.839  1.00  0.00    -0.322 N 
ATOM     36  H   UNL A   1      44.799  30.384  32.402  1.00  0.00     0.170 HD
BRANCH  35  37
ATOM     37  C   UNL A   1      42.896  29.920  32.178  1.00  0.00     0.041 A 
ATOM     38  C   UNL A   1      42.016  30.272  31.145  1.00  0.00     0.026 A 
ATOM     39  C   UNL A   1      42.383  29.895  33.467  1.00  0.00     0.026 A 
ATOM     40  C   UNL A   1      40.655  30.500  31.394  1.00  0.00     0.002 A 
ATOM     41  C   UNL A   1      41.026  30.106  33.728  1.00  0.00     0.002 A 
ATOM     42  C   UNL A   1      40.157  30.397  32.687  1.00  0.00     0.000 A 
ENDBRANCH  35  37
ENDBRANCH  11  33
ENDBRANCH   3   5
ENDBRANCH   2   3
ENDBRANCH   1   2
BRANCH   1  43
ATOM     43  C   UNL A   1      47.695  33.169  26.518  1.00  0.00     0.023 C 
BRANCH  43  44
ATOM     44  C   UNL A   1      47.048  34.537  26.324  1.00  0.00     0.116 C 
BRANCH  44  45
ATOM     45  N   UNL A   1      45.948  34.527  25.366  1.00  0.00    -0.352 N 
ATOM     46  C   UNL A   1      44.606  34.363  25.612  1.00  0.00     0.251 C 
ATOM     47  H   UNL A   1      46.199  34.655  24.422  1.00  0.00     0.163 HD
ATOM     48  O   UNL A   1      43.802  34.261  24.692  1.00  0.00    -0.269 OA
BRANCH  46  49
ATOM     49  C   UNL A   1      44.148  34.270  27.012  1.00  0.00     0.039 A 
ATOM     50  C   UNL A   1      43.773  35.436  27.681  1.00  0.00     0.014 A 
ATOM     51  C   UNL A   1      44.020  33.022  27.626  1.00  0.00     0.014 A 
ATOM     52  C   UNL A   1      43.190  35.342  28.946  1.00  0.00     0.010 A 
ATOM     53  C   UNL A   1      43.369  32.927  28.851  1.00  0.00     0.010 A 
ATOM     54  C   UNL A   1      42.944  34.085  29.520  1.00  0.00    -0.014 A 
BRANCH  54  55
ATOM     55  C   UNL A   1      42.231  33.954  30.815  1.00  0.00     0.031 A 
ATOM     56  C   UNL A   1      43.002  33.640  32.066  1.00  0.00     0.074 A 
ATOM     57  C   UNL A   1      40.887  34.043  30.850  1.00  0.00     0.049 A 
ATOM     58  N   UNL A   1      42.558  33.401  33.274  1.00  0.00    -0.248 NA
ATOM     59  C   UNL A   1      44.465  33.554  31.936  1.00  0.00     0.031 C 
ATOM     60  C   UNL A   1      40.025  34.295  29.695  1.00  0.00     0.029 A 
ATOM     61  N   UNL A   1      40.008  33.916  31.897  1.00  0.00    -0.354 N 
ATOM     62  C   UNL A   1      43.683  33.127  34.040  1.00  0.00     0.074 A 
ATOM     63  C   UNL A   1      44.824  33.171  33.152  1.00  0.00     0.031 C 
ATOM     64  C   UNL A   1      38.745  34.326  30.098  1.00  0.00     0.029 A 
ATOM     65  C   UNL A   1      38.692  34.056  31.532  1.00  0.00     0.049 A 
ATOM     66  H   UNL A   1      40.296  33.742  32.823  1.00  0.00     0.167 HD
ATOM     67  C   UNL A   1      43.759  32.886  35.371  1.00  0.00     0.037 A 
ATOM     68  C   UNL A   1      37.569  33.964  32.269  1.00  0.00     0.037 A 
ATOM     69  C   UNL A   1      42.624  32.865  36.254  1.00  0.00     0.049 A 
ATOM     70  C   UNL A   1      37.681  33.678  33.743  1.00  0.00     0.074 A 
ATOM     71  C   UNL A   1      42.603  32.688  37.626  1.00  0.00     0.029 A 
ATOM     72  N   UNL A   1      41.306  33.027  35.850  1.00  0.00    -0.354 N 
ATOM     73  N   UNL A   1      38.756  33.490  34.470  1.00  0.00    -0.248 NA
ATOM     74  C   UNL A   1      36.424  33.595  34.500  1.00  0.00     0.031 C 
ATOM     75  C   UNL A   1      41.269  32.694  38.046  1.00  0.00     0.029 A 
ATOM     76  C   UNL A   1      40.462  32.928  36.945  1.00  0.00     0.049 A 
ATOM     77  H   UNL A   1      41.015  33.188  34.923  1.00  0.00     0.167 HD
ATOM     78  C   UNL A   1      38.308  33.298  35.771  1.00  0.00     0.074 A 
ATOM     79  C   UNL A   1      36.865  33.406  35.736  1.00  0.00     0.031 C 
ATOM     80  C   UNL A   1      39.028  33.051  36.893  1.00  0.00     0.037 A 
BRANCH  67  81
ATOM     81  C   UNL A   1      45.118  32.631  35.953  1.00  0.00     0.064 A 
ATOM     82  C   UNL A   1      45.662  31.339  36.011  1.00  0.00     0.173 A 
ATOM     83  C   UNL A   1      45.905  33.695  36.420  1.00  0.00     0.173 A 
ATOM     84  F   UNL A   1      44.946  30.286  35.589  1.00  0.00    -0.203 F 
ATOM     85  C   UNL A   1      46.930  31.117  36.540  1.00  0.00     0.198 A 
ATOM     86  C   UNL A   1      47.186  33.473  36.919  1.00  0.00     0.198 A 
ATOM     87  F   UNL A   1      45.437  34.952  36.383  1.00  0.00    -0.203 F 
ATOM     88  F   UNL A   1      47.409  29.869  36.628  1.00  0.00    -0.200 F 
ATOM     89  C   UNL A   1      47.694  32.185  36.986  1.00  0.00     0.200 A 
ATOM     90  F   UNL A   1      47.929  34.508  37.337  1.00  0.00    -0.200 F 
ATOM     91  F   UNL A   1      48.920  31.971  37.484  1.00  0.00    -0.200 F 
ENDBRANCH  67  81
BRANCH  68  92
ATOM     92  C   UNL A   1      36.238  34.163  31.634  1.00  0.00     0.064 A 
ATOM     93  C   UNL A   1      35.416  35.233  32.008  1.00  0.00     0.173 A 
ATOM     94  C   UNL A   1      35.756  33.280  30.656  1.00  0.00     0.173 A 
ATOM     95  F   UNL A   1      35.823  36.092  32.955  1.00  0.00    -0.203 F 
ATOM     96  C   UNL A   1      34.151  35.401  31.447  1.00  0.00     0.198 A 
ATOM     97  C   UNL A   1      34.504  33.466  30.074  1.00  0.00     0.198 A 
ATOM     98  F   UNL A   1      36.505  32.241  30.260  1.00  0.00    -0.203 F 
ATOM     99  F   UNL A   1      33.364  36.403  31.862  1.00  0.00    -0.200 F 
ATOM    100  C   UNL A   1      33.698  34.520  30.477  1.00  0.00     0.200 A 
ATOM    101  F   UNL A   1      34.076  32.620  29.127  1.00  0.00    -0.200 F 
ATOM    102  F   UNL A   1      32.482  34.681  29.938  1.00  0.00    -0.200 F 
ENDBRANCH  68  92
BRANCH  80 103
ATOM    103  C   UNL A   1      38.271  32.919  38.182  1.00  0.00     0.064 A 
ATOM    104  C   UNL A   1      38.266  33.943  39.141  1.00  0.00     0.173 A 
ATOM    105  C   UNL A   1      37.500  31.775  38.437  1.00  0.00     0.173 A 
ATOM    106  F   UNL A   1      38.999  35.050  38.951  1.00  0.00    -0.203 F 
ATOM    107  C   UNL A   1      37.536  33.813  40.320  1.00  0.00     0.198 A 
ATOM    108  C   UNL A   1      36.747  31.663  39.602  1.00  0.00     0.198 A 
ATOM    109  F   UNL A   1      37.465  30.771  37.548  1.00  0.00    -0.203 F 
ATOM    110  F   UNL A   1      37.584  34.783  41.244  1.00  0.00    -0.200 F 
ATOM    111  C   UNL A   1      36.771  32.679  40.546  1.00  0.00     0.200 A 
ATOM    112  F   UNL A   1      35.997  30.572  39.812  1.00  0.00    -0.200 F 
ATOM    113  F   UNL A   1      36.061  32.561  41.676  1.00  0.00    -0.200 F 
ENDBRANCH  80 103
ENDBRANCH  54  55
ENDBRANCH  46  49
ENDBRANCH  44  45
ENDBRANCH  43  44
ENDBRANCH   1  43
TORSDOF 18
ENDMDL
