MODEL 1
REMARK VINA RESULT:     -13.5      0.000      0.000
REMARK SMILES CCCc1nc(C)cc(N2CCC(C(=O)NCCCCNC(=O)c3ccc(-c4c5nc(c(-c6c(F)c(F)c(F)c(F)c6F)c6ccc([nH]6)c(-c6c(F)c(F)c(F)c(F)c6F)c6nc(c(-c7c(F)c(F)c(F)c(F)c7F)c7ccc4[nH]7)C=C6)C=C5)cc3)(n3ccc(C(C)C)n3)CC2)n1
REMARK SMILES IDX 18 1 17 2 16 3 14 4 15 5 13 7 10 8 11 9 96 10 12 11 95 12
REMARK SMILES IDX 9 13 4 14 5 15 97 16 6 17 7 18 8 19 3 20 2 21 1 22 87 23
REMARK SMILES IDX 88 24 94 25 89 26 90 27 91 28 92 29 93 30 19 31 20 32 21 33
REMARK SMILES IDX 22 34 23 36 24 37 25 38 86 39 26 40 85 41 27 42 28 43 29 44
REMARK SMILES IDX 79 45 30 46 84 47 78 48 80 49 31 50 83 51 77 52 76 53 32 55
REMARK SMILES IDX 64 56 44 57 63 58 45 59 48 60 62 61 81 62 46 63 47 64 61 66
REMARK SMILES IDX 82 67 49 68 33 69 34 70 42 71 35 72 36 73 40 74 43 75 37 76
REMARK SMILES IDX 38 77 41 78 39 79 65 80 66 81 74 82 67 83 68 84 72 85 75 86
REMARK SMILES IDX 69 87 70 88 73 89 71 90 50 91 51 92 59 93 52 94 53 95 57 96
REMARK SMILES IDX 60 97 54 98 55 99 58 100 56 101
REMARK H PARENT 16 6 21 35 80 54 48 65
REMARK Flexibility Score: inf
ROOT
ATOM      1  C   UNL A   1      36.641  20.526  25.069  1.00  0.00     0.023 C 
ENDROOT
BRANCH   1   2
ATOM      2  C   UNL A   1      36.414  21.947  25.587  1.00  0.00     0.116 C 
BRANCH   2   3
ATOM      3  N   UNL A   1      35.567  21.973  26.773  1.00  0.00    -0.354 N 
ATOM      4  C   UNL A   1      34.302  22.467  27.009  1.00  0.00     0.248 C 
ATOM      5  O   UNL A   1      33.983  22.429  28.200  1.00  0.00    -0.272 OA
ATOM      6  H   UNL A   1      35.981  21.554  27.563  1.00  0.00     0.163 HD
BRANCH   4   7
ATOM      7  C   UNL A   1      33.429  23.061  25.852  1.00  0.00     0.144 C 
ATOM      8  N   UNL A   1      32.607  25.744  25.436  1.00  0.00    -0.356 N 
ATOM      9  C   UNL A   1      31.562  24.873  25.938  1.00  0.00     0.121 C 
ATOM     10  C   UNL A   1      33.534  25.226  24.452  1.00  0.00     0.121 C 
ATOM     11  C   UNL A   1      32.161  23.623  26.556  1.00  0.00     0.062 C 
ATOM     12  C   UNL A   1      34.310  24.072  25.068  1.00  0.00     0.062 C 
BRANCH   8  13
ATOM     13  C   UNL A   1      32.290  27.089  25.460  1.00  0.00     0.132 A 
ATOM     14  C   UNL A   1      31.114  28.819  24.503  1.00  0.00     0.130 A 
ATOM     15  N   UNL A   1      31.614  29.726  25.356  1.00  0.00    -0.238 NA
ATOM     16  N   UNL A   1      31.444  27.515  24.510  1.00  0.00    -0.216 NA
ATOM     17  C   UNL A   1      32.488  29.287  26.280  1.00  0.00     0.043 A 
ATOM     18  C   UNL A   1      33.092  30.323  27.176  1.00  0.00     0.067 C 
ATOM     19  C   UNL A   1      32.842  27.958  26.380  1.00  0.00     0.070 A 
BRANCH  14  20
ATOM     20  C   UNL A   1      30.150  29.253  23.431  1.00  0.00     0.077 C 
BRANCH  20  21
ATOM     21  C   UNL A   1      29.026  28.273  23.087  1.00  0.00     0.005 C 
ATOM     22  C   UNL A   1      27.661  28.935  22.954  1.00  0.00     0.004 C 
ENDBRANCH  20  21
ENDBRANCH  14  20
ENDBRANCH   8  13
BRANCH   7  23
ATOM     23  N   UNL A   1      32.965  22.056  24.840  1.00  0.00    -0.257 N 
ATOM     24  C   UNL A   1      32.419  22.340  23.606  1.00  0.00     0.110 A 
ATOM     25  N   UNL A   1      33.175  20.734  24.981  1.00  0.00    -0.177 NA
ATOM     26  C   UNL A   1      32.179  21.142  22.986  1.00  0.00     0.045 A 
ATOM     27  C   UNL A   1      32.627  20.170  23.901  1.00  0.00     0.065 A 
BRANCH  27  28
ATOM     28  C   UNL A   1      32.564  18.677  23.765  1.00  0.00     0.034 C 
ATOM     29  C   UNL A   1      32.351  18.260  22.306  1.00  0.00     0.014 C 
ATOM     30  C   UNL A   1      33.822  18.016  24.332  1.00  0.00     0.014 C 
ENDBRANCH  27  28
ENDBRANCH   7  23
ENDBRANCH   4   7
ENDBRANCH   2   3
ENDBRANCH   1   2
BRANCH   1  31
ATOM     31  C   UNL A   1      38.083  20.202  24.674  1.00  0.00     0.023 C 
BRANCH  31  32
ATOM     32  C   UNL A   1      39.116  20.369  25.782  1.00  0.00     0.116 C 
BRANCH  32  33
ATOM     33  N   UNL A   1      40.036  19.246  25.879  1.00  0.00    -0.352 N 
ATOM     34  C   UNL A   1      41.388  19.243  26.128  1.00  0.00     0.251 C 
ATOM     35  H   UNL A   1      39.633  18.358  25.744  1.00  0.00     0.163 HD
ATOM     36  O   UNL A   1      42.032  18.202  26.042  1.00  0.00    -0.269 OA
BRANCH  34  37
ATOM     37  C   UNL A   1      42.076  20.506  26.465  1.00  0.00     0.039 A 
ATOM     38  C   UNL A   1      42.615  21.278  25.432  1.00  0.00     0.014 A 
ATOM     39  C   UNL A   1      42.168  20.942  27.789  1.00  0.00     0.014 A 
ATOM     40  C   UNL A   1      43.167  22.528  25.717  1.00  0.00     0.010 A 
ATOM     41  C   UNL A   1      42.655  22.216  28.064  1.00  0.00     0.010 A 
ATOM     42  C   UNL A   1      43.147  23.027  27.030  1.00  0.00    -0.014 A 
BRANCH  42  43
ATOM     43  C   UNL A   1      43.606  24.404  27.342  1.00  0.00     0.031 A 
ATOM     44  C   UNL A   1      42.631  25.426  27.850  1.00  0.00     0.074 A 
ATOM     45  C   UNL A   1      44.880  24.755  27.081  1.00  0.00     0.049 A 
ATOM     46  N   UNL A   1      42.809  26.706  28.065  1.00  0.00    -0.248 NA
ATOM     47  C   UNL A   1      41.266  24.954  28.130  1.00  0.00     0.031 C 
ATOM     48  C   UNL A   1      45.911  23.864  26.550  1.00  0.00     0.029 A 
ATOM     49  N   UNL A   1      45.520  25.964  27.209  1.00  0.00    -0.354 N 
ATOM     50  C   UNL A   1      41.580  27.192  28.489  1.00  0.00     0.074 A 
ATOM     51  C   UNL A   1      40.651  26.082  28.457  1.00  0.00     0.031 C 
ATOM     52  C   UNL A   1      47.056  24.550  26.408  1.00  0.00     0.029 A 
ATOM     53  C   UNL A   1      46.830  25.939  26.791  1.00  0.00     0.049 A 
ATOM     54  H   UNL A   1      45.083  26.771  27.564  1.00  0.00     0.167 HD
ATOM     55  C   UNL A   1      41.260  28.447  28.886  1.00  0.00     0.037 A 
ATOM     56  C   UNL A   1      47.737  26.930  26.707  1.00  0.00     0.037 A 
ATOM     57  C   UNL A   1      42.192  29.543  28.937  1.00  0.00     0.049 A 
ATOM     58  C   UNL A   1      47.346  28.323  27.123  1.00  0.00     0.074 A 
ATOM     59  C   UNL A   1      41.984  30.832  29.394  1.00  0.00     0.029 A 
ATOM     60  N   UNL A   1      43.510  29.480  28.507  1.00  0.00    -0.354 N 
ATOM     61  N   UNL A   1      46.201  28.756  27.590  1.00  0.00    -0.248 NA
ATOM     62  C   UNL A   1      48.374  29.366  26.996  1.00  0.00     0.031 C 
ATOM     63  C   UNL A   1      43.158  31.563  29.192  1.00  0.00     0.029 A 
ATOM     64  C   UNL A   1      44.116  30.717  28.655  1.00  0.00     0.049 A 
ATOM     65  H   UNL A   1      43.950  28.674  28.149  1.00  0.00     0.167 HD
ATOM     66  C   UNL A   1      46.374  30.111  27.829  1.00  0.00     0.074 A 
ATOM     67  C   UNL A   1      47.743  30.427  27.476  1.00  0.00     0.031 C 
ATOM     68  C   UNL A   1      45.479  31.016  28.296  1.00  0.00     0.037 A 
BRANCH  55  69
ATOM     69  C   UNL A   1      39.840  28.705  29.299  1.00  0.00     0.064 A 
ATOM     70  C   UNL A   1      38.874  29.143  28.382  1.00  0.00     0.173 A 
ATOM     71  C   UNL A   1      39.431  28.470  30.622  1.00  0.00     0.173 A 
ATOM     72  F   UNL A   1      39.215  29.392  27.108  1.00  0.00    -0.203 F 
ATOM     73  C   UNL A   1      37.557  29.365  28.778  1.00  0.00     0.198 A 
ATOM     74  C   UNL A   1      38.106  28.663  31.007  1.00  0.00     0.198 A 
ATOM     75  F   UNL A   1      40.313  28.043  31.537  1.00  0.00    -0.203 F 
ATOM     76  F   UNL A   1      36.663  29.830  27.895  1.00  0.00    -0.200 F 
ATOM     77  C   UNL A   1      37.173  29.118  30.087  1.00  0.00     0.200 A 
ATOM     78  F   UNL A   1      37.734  28.411  32.269  1.00  0.00    -0.200 F 
ATOM     79  F   UNL A   1      35.904  29.323  30.465  1.00  0.00    -0.200 F 
ENDBRANCH  55  69
BRANCH  56  80
ATOM     80  C   UNL A   1      49.107  26.643  26.207  1.00  0.00     0.064 A 
ATOM     81  C   UNL A   1      50.090  26.125  27.061  1.00  0.00     0.173 A 
ATOM     82  C   UNL A   1      49.464  26.884  24.871  1.00  0.00     0.173 A 
ATOM     83  F   UNL A   1      49.804  25.899  28.351  1.00  0.00    -0.203 F 
ATOM     84  C   UNL A   1      51.383  25.876  26.604  1.00  0.00     0.198 A 
ATOM     85  C   UNL A   1      50.749  26.609  24.409  1.00  0.00     0.198 A 
ATOM     86  F   UNL A   1      48.561  27.378  24.012  1.00  0.00    -0.203 F 
ATOM     87  F   UNL A   1      52.315  25.424  27.454  1.00  0.00    -0.200 F 
ATOM     88  C   UNL A   1      51.710  26.113  25.277  1.00  0.00     0.200 A 
ATOM     89  F   UNL A   1      51.057  26.825  23.123  1.00  0.00    -0.200 F 
ATOM     90  F   UNL A   1      52.952  25.870  24.838  1.00  0.00    -0.200 F 
ENDBRANCH  56  80
BRANCH  68  91
ATOM     91  C   UNL A   1      45.952  32.430  28.466  1.00  0.00     0.064 A 
ATOM     92  C   UNL A   1      45.794  33.382  27.447  1.00  0.00     0.173 A 
ATOM     93  C   UNL A   1      46.523  32.851  29.676  1.00  0.00     0.173 A 
ATOM     94  F   UNL A   1      45.269  33.024  26.265  1.00  0.00    -0.203 F 
ATOM     95  C   UNL A   1      46.209  34.698  27.628  1.00  0.00     0.198 A 
ATOM     96  C   UNL A   1      46.910  34.175  29.863  1.00  0.00     0.198 A 
ATOM     97  F   UNL A   1      46.691  31.981  30.682  1.00  0.00    -0.203 F 
ATOM     98  F   UNL A   1      46.087  35.581  26.627  1.00  0.00    -0.200 F 
ATOM     99  C   UNL A   1      46.758  35.096  28.837  1.00  0.00     0.200 A 
ATOM    100  F   UNL A   1      47.427  34.560  31.038  1.00  0.00    -0.200 F 
ATOM    101  F   UNL A   1      47.146  36.366  29.014  1.00  0.00    -0.200 F 
ENDBRANCH  68  91
ENDBRANCH  42  43
ENDBRANCH  34  37
ENDBRANCH  32  33
ENDBRANCH  31  32
ENDBRANCH   1  31
TORSDOF 16
ENDMDL
MODEL 2
REMARK VINA RESULT:     -13.4      0.438      1.927
REMARK SMILES CCCc1nc(C)cc(N2CCC(C(=O)NCCCCNC(=O)c3ccc(-c4c5nc(c(-c6c(F)c(F)c(F)c(F)c6F)c6ccc([nH]6)c(-c6c(F)c(F)c(F)c(F)c6F)c6nc(c(-c7c(F)c(F)c(F)c(F)c7F)c7ccc4[nH]7)C=C6)C=C5)cc3)(n3ccc(C(C)C)n3)CC2)n1
REMARK SMILES IDX 18 1 17 2 16 3 14 4 15 5 13 7 10 8 11 9 96 10 12 11 95 12
REMARK SMILES IDX 9 13 4 14 5 15 97 16 6 17 7 18 8 19 3 20 2 21 1 22 87 23
REMARK SMILES IDX 88 24 94 25 89 26 90 27 91 28 92 29 93 30 19 31 20 32 21 33
REMARK SMILES IDX 22 34 23 36 24 37 25 38 86 39 26 40 85 41 27 42 28 43 29 44
REMARK SMILES IDX 79 45 30 46 84 47 78 48 80 49 31 50 83 51 77 52 76 53 32 55
REMARK SMILES IDX 64 56 44 57 63 58 45 59 48 60 62 61 81 62 46 63 47 64 61 66
REMARK SMILES IDX 82 67 49 68 33 69 34 70 42 71 35 72 36 73 40 74 43 75 37 76
REMARK SMILES IDX 38 77 41 78 39 79 65 80 66 81 74 82 67 83 68 84 72 85 75 86
REMARK SMILES IDX 69 87 70 88 73 89 71 90 50 91 51 92 59 93 52 94 53 95 57 96
REMARK SMILES IDX 60 97 54 98 55 99 58 100 56 101
REMARK H PARENT 16 6 21 35 80 54 48 65
REMARK Flexibility Score: inf
ROOT
ATOM      1  C   UNL A   1      36.717  20.384  25.106  1.00  0.00     0.023 C 
ENDROOT
BRANCH   1   2
ATOM      2  C   UNL A   1      36.353  21.846  25.369  1.00  0.00     0.116 C 
BRANCH   2   3
ATOM      3  N   UNL A   1      35.590  22.012  26.600  1.00  0.00    -0.354 N 
ATOM      4  C   UNL A   1      34.325  22.493  26.859  1.00  0.00     0.248 C 
ATOM      5  O   UNL A   1      34.091  22.614  28.064  1.00  0.00    -0.272 OA
ATOM      6  H   UNL A   1      36.075  21.723  27.407  1.00  0.00     0.163 HD
BRANCH   4   7
ATOM      7  C   UNL A   1      33.348  22.889  25.699  1.00  0.00     0.144 C 
ATOM      8  N   UNL A   1      32.270  25.436  25.068  1.00  0.00    -0.356 N 
ATOM      9  C   UNL A   1      31.331  24.535  25.710  1.00  0.00     0.121 C 
ATOM     10  C   UNL A   1      33.192  24.900  24.090  1.00  0.00     0.121 C 
ATOM     11  C   UNL A   1      32.069  23.410  26.413  1.00  0.00     0.062 C 
ATOM     12  C   UNL A   1      34.097  23.886  24.772  1.00  0.00     0.062 C 
BRANCH   8  13
ATOM     13  C   UNL A   1      31.834  26.744  24.977  1.00  0.00     0.132 A 
ATOM     14  C   UNL A   1      30.532  28.279  23.864  1.00  0.00     0.130 A 
ATOM     15  N   UNL A   1      30.929  29.292  24.649  1.00  0.00    -0.238 NA
ATOM     16  N   UNL A   1      30.976  27.015  23.982  1.00  0.00    -0.216 NA
ATOM     17  C   UNL A   1      31.815  29.009  25.620  1.00  0.00     0.043 A 
ATOM     18  C   UNL A   1      32.303  30.163  26.440  1.00  0.00     0.067 C 
ATOM     19  C   UNL A   1      32.284  27.729  25.833  1.00  0.00     0.070 A 
BRANCH  14  20
ATOM     20  C   UNL A   1      29.559  28.538  22.743  1.00  0.00     0.077 C 
BRANCH  20  21
ATOM     21  C   UNL A   1      29.099  29.987  22.563  1.00  0.00     0.005 C 
ATOM     22  C   UNL A   1      27.690  30.245  23.082  1.00  0.00     0.004 C 
ENDBRANCH  20  21
ENDBRANCH  14  20
ENDBRANCH   8  13
BRANCH   7  23
ATOM     23  N   UNL A   1      32.931  21.750  24.817  1.00  0.00    -0.257 N 
ATOM     24  C   UNL A   1      32.538  21.846  23.499  1.00  0.00     0.110 A 
ATOM     25  N   UNL A   1      33.040  20.463  25.195  1.00  0.00    -0.177 NA
ATOM     26  C   UNL A   1      32.288  20.573  23.059  1.00  0.00     0.045 A 
ATOM     27  C   UNL A   1      32.574  19.749  24.165  1.00  0.00     0.065 A 
BRANCH  27  28
ATOM     28  C   UNL A   1      32.431  18.260  24.267  1.00  0.00     0.034 C 
ATOM     29  C   UNL A   1      33.381  17.542  23.301  1.00  0.00     0.014 C 
ATOM     30  C   UNL A   1      32.662  17.779  25.701  1.00  0.00     0.014 C 
ENDBRANCH  27  28
ENDBRANCH   7  23
ENDBRANCH   4   7
ENDBRANCH   2   3
ENDBRANCH   1   2
BRANCH   1  31
ATOM     31  C   UNL A   1      38.172  20.139  24.707  1.00  0.00     0.023 C 
BRANCH  31  32
ATOM     32  C   UNL A   1      39.193  20.306  25.827  1.00  0.00     0.116 C 
BRANCH  32  33
ATOM     33  N   UNL A   1      40.130  19.196  25.915  1.00  0.00    -0.352 N 
ATOM     34  C   UNL A   1      41.484  19.213  26.150  1.00  0.00     0.251 C 
ATOM     35  H   UNL A   1      39.738  18.303  25.786  1.00  0.00     0.163 HD
ATOM     36  O   UNL A   1      42.143  18.181  26.059  1.00  0.00    -0.269 OA
BRANCH  34  37
ATOM     37  C   UNL A   1      42.157  20.487  26.478  1.00  0.00     0.039 A 
ATOM     38  C   UNL A   1      42.640  21.284  25.436  1.00  0.00     0.014 A 
ATOM     39  C   UNL A   1      42.291  20.907  27.804  1.00  0.00     0.014 A 
ATOM     40  C   UNL A   1      43.176  22.541  25.718  1.00  0.00     0.010 A 
ATOM     41  C   UNL A   1      42.761  22.187  28.078  1.00  0.00     0.010 A 
ATOM     42  C   UNL A   1      43.195  23.023  27.037  1.00  0.00    -0.014 A 
BRANCH  42  43
ATOM     43  C   UNL A   1      43.635  24.406  27.352  1.00  0.00     0.031 A 
ATOM     44  C   UNL A   1      42.646  25.416  27.854  1.00  0.00     0.074 A 
ATOM     45  C   UNL A   1      44.907  24.772  27.097  1.00  0.00     0.049 A 
ATOM     46  N   UNL A   1      42.808  26.698  28.069  1.00  0.00    -0.248 NA
ATOM     47  C   UNL A   1      41.285  24.928  28.126  1.00  0.00     0.031 C 
ATOM     48  C   UNL A   1      45.951  23.892  26.572  1.00  0.00     0.029 A 
ATOM     49  N   UNL A   1      45.532  25.987  27.227  1.00  0.00    -0.354 N 
ATOM     50  C   UNL A   1      41.570  27.170  28.485  1.00  0.00     0.074 A 
ATOM     51  C   UNL A   1      40.656  26.049  28.449  1.00  0.00     0.031 C 
ATOM     52  C   UNL A   1      47.089  24.591  26.435  1.00  0.00     0.029 A 
ATOM     53  C   UNL A   1      46.844  25.979  26.817  1.00  0.00     0.049 A 
ATOM     54  H   UNL A   1      45.083  26.790  27.580  1.00  0.00     0.167 HD
ATOM     55  C   UNL A   1      41.234  28.421  28.880  1.00  0.00     0.037 A 
ATOM     56  C   UNL A   1      47.740  26.980  26.736  1.00  0.00     0.037 A 
ATOM     57  C   UNL A   1      42.153  29.528  28.935  1.00  0.00     0.049 A 
ATOM     58  C   UNL A   1      47.330  28.369  27.150  1.00  0.00     0.074 A 
ATOM     59  C   UNL A   1      41.927  30.814  29.391  1.00  0.00     0.029 A 
ATOM     60  N   UNL A   1      43.473  29.480  28.513  1.00  0.00    -0.354 N 
ATOM     61  N   UNL A   1      46.177  28.788  27.611  1.00  0.00    -0.248 NA
ATOM     62  C   UNL A   1      48.347  29.423  27.028  1.00  0.00     0.031 C 
ATOM     63  C   UNL A   1      43.093  31.559  29.195  1.00  0.00     0.029 A 
ATOM     64  C   UNL A   1      44.064  30.725  28.663  1.00  0.00     0.049 A 
ATOM     65  H   UNL A   1      43.924  28.679  28.157  1.00  0.00     0.167 HD
ATOM     66  C   UNL A   1      46.333  30.145  27.850  1.00  0.00     0.074 A 
ATOM     67  C   UNL A   1      47.700  30.477  27.504  1.00  0.00     0.031 C 
ATOM     68  C   UNL A   1      45.425  31.040  28.312  1.00  0.00     0.037 A 
BRANCH  55  69
ATOM     69  C   UNL A   1      39.809  28.662  29.286  1.00  0.00     0.064 A 
ATOM     70  C   UNL A   1      39.369  28.437  30.599  1.00  0.00     0.173 A 
ATOM     71  C   UNL A   1      38.881  29.166  28.360  1.00  0.00     0.173 A 
ATOM     72  F   UNL A   1      40.212  27.946  31.519  1.00  0.00    -0.203 F 
ATOM     73  C   UNL A   1      38.046  28.679  30.963  1.00  0.00     0.198 A 
ATOM     74  C   UNL A   1      37.568  29.436  28.736  1.00  0.00     0.198 A 
ATOM     75  F   UNL A   1      39.252  29.407  27.094  1.00  0.00    -0.203 F 
ATOM     76  F   UNL A   1      37.637  28.410  32.210  1.00  0.00    -0.200 F 
ATOM     77  C   UNL A   1      37.150  29.185  30.034  1.00  0.00     0.200 A 
ATOM     78  F   UNL A   1      36.706  29.938  27.841  1.00  0.00    -0.200 F 
ATOM     79  F   UNL A   1      35.879  29.425  30.389  1.00  0.00    -0.200 F 
ENDBRANCH  55  69
BRANCH  56  80
ATOM     80  C   UNL A   1      49.116  26.708  26.244  1.00  0.00     0.064 A 
ATOM     81  C   UNL A   1      49.459  26.937  24.906  1.00  0.00     0.173 A 
ATOM     82  C   UNL A   1      50.113  26.210  27.097  1.00  0.00     0.173 A 
ATOM     83  F   UNL A   1      48.535  27.392  24.046  1.00  0.00    -0.203 F 
ATOM     84  C   UNL A   1      50.741  26.662  24.433  1.00  0.00     0.198 A 
ATOM     85  C   UNL A   1      51.401  25.962  26.630  1.00  0.00     0.198 A 
ATOM     86  F   UNL A   1      49.837  25.974  28.388  1.00  0.00    -0.203 F 
ATOM     87  F   UNL A   1      51.028  26.848  23.137  1.00  0.00    -0.200 F 
ATOM     88  C   UNL A   1      51.713  26.180  25.296  1.00  0.00     0.200 A 
ATOM     89  F   UNL A   1      52.342  25.509  27.471  1.00  0.00    -0.200 F 
ATOM     90  F   UNL A   1      52.946  25.919  24.843  1.00  0.00    -0.200 F 
ENDBRANCH  56  80
BRANCH  68  91
ATOM     91  C   UNL A   1      45.880  32.460  28.482  1.00  0.00     0.064 A 
ATOM     92  C   UNL A   1      46.486  32.897  29.669  1.00  0.00     0.173 A 
ATOM     93  C   UNL A   1      45.753  33.380  27.431  1.00  0.00     0.173 A 
ATOM     94  F   UNL A   1      46.613  32.058  30.710  1.00  0.00    -0.203 F 
ATOM     95  C   UNL A   1      46.931  34.208  29.804  1.00  0.00     0.198 A 
ATOM     96  C   UNL A   1      46.226  34.682  27.559  1.00  0.00     0.198 A 
ATOM     97  F   UNL A   1      45.185  33.010  26.274  1.00  0.00    -0.203 F 
ATOM     98  F   UNL A   1      47.469  34.616  30.962  1.00  0.00    -0.200 F 
ATOM     99  C   UNL A   1      46.809  35.097  28.747  1.00  0.00     0.200 A 
ATOM    100  F   UNL A   1      46.120  35.536  26.531  1.00  0.00    -0.200 F 
ATOM    101  F   UNL A   1      47.249  36.357  28.874  1.00  0.00    -0.200 F 
ENDBRANCH  68  91
ENDBRANCH  42  43
ENDBRANCH  34  37
ENDBRANCH  32  33
ENDBRANCH  31  32
ENDBRANCH   1  31
TORSDOF 16
ENDMDL
MODEL 3
REMARK VINA RESULT:     -13.2      0.688      7.037
REMARK SMILES CCCc1nc(C)cc(N2CCC(C(=O)NCCCCNC(=O)c3ccc(-c4c5nc(c(-c6c(F)c(F)c(F)c(F)c6F)c6ccc([nH]6)c(-c6c(F)c(F)c(F)c(F)c6F)c6nc(c(-c7c(F)c(F)c(F)c(F)c7F)c7ccc4[nH]7)C=C6)C=C5)cc3)(n3ccc(C(C)C)n3)CC2)n1
REMARK SMILES IDX 18 1 17 2 16 3 14 4 15 5 13 7 10 8 11 9 96 10 12 11 95 12
REMARK SMILES IDX 9 13 4 14 5 15 97 16 6 17 7 18 8 19 3 20 2 21 1 22 87 23
REMARK SMILES IDX 88 24 94 25 89 26 90 27 91 28 92 29 93 30 19 31 20 32 21 33
REMARK SMILES IDX 22 34 23 36 24 37 25 38 86 39 26 40 85 41 27 42 28 43 29 44
REMARK SMILES IDX 79 45 30 46 84 47 78 48 80 49 31 50 83 51 77 52 76 53 32 55
REMARK SMILES IDX 64 56 44 57 63 58 45 59 48 60 62 61 81 62 46 63 47 64 61 66
REMARK SMILES IDX 82 67 49 68 33 69 34 70 42 71 35 72 36 73 40 74 43 75 37 76
REMARK SMILES IDX 38 77 41 78 39 79 65 80 66 81 74 82 67 83 68 84 72 85 75 86
REMARK SMILES IDX 69 87 70 88 73 89 71 90 50 91 51 92 59 93 52 94 53 95 57 96
REMARK SMILES IDX 60 97 54 98 55 99 58 100 56 101
REMARK H PARENT 16 6 21 35 80 54 48 65
REMARK Flexibility Score: inf
ROOT
ATOM      1  C   UNL A   1      36.552  20.373  25.019  1.00  0.00     0.023 C 
ENDROOT
BRANCH   1   2
ATOM      2  C   UNL A   1      36.387  21.834  25.443  1.00  0.00     0.116 C 
BRANCH   2   3
ATOM      3  N   UNL A   1      35.589  21.970  26.655  1.00  0.00    -0.354 N 
ATOM      4  C   UNL A   1      34.309  22.426  26.887  1.00  0.00     0.248 C 
ATOM      5  O   UNL A   1      34.042  22.527  28.086  1.00  0.00    -0.272 OA
ATOM      6  H   UNL A   1      36.058  21.680  27.471  1.00  0.00     0.163 HD
BRANCH   4   7
ATOM      7  C   UNL A   1      33.357  22.820  25.707  1.00  0.00     0.144 C 
ATOM      8  N   UNL A   1      32.284  25.364  25.055  1.00  0.00    -0.356 N 
ATOM      9  C   UNL A   1      31.335  24.460  25.675  1.00  0.00     0.121 C 
ATOM     10  C   UNL A   1      33.229  24.832  24.096  1.00  0.00     0.121 C 
ATOM     11  C   UNL A   1      32.061  23.337  26.393  1.00  0.00     0.062 C 
ATOM     12  C   UNL A   1      34.123  23.820  24.796  1.00  0.00     0.062 C 
BRANCH   8  13
ATOM     13  C   UNL A   1      31.846  26.671  24.955  1.00  0.00     0.132 A 
ATOM     14  C   UNL A   1      30.643  28.225  23.761  1.00  0.00     0.130 A 
ATOM     15  N   UNL A   1      30.952  29.220  24.607  1.00  0.00    -0.238 NA
ATOM     16  N   UNL A   1      31.086  26.962  23.889  1.00  0.00    -0.216 NA
ATOM     17  C   UNL A   1      31.743  28.918  25.651  1.00  0.00     0.043 A 
ATOM     18  C   UNL A   1      32.138  30.054  26.543  1.00  0.00     0.067 C 
ATOM     19  C   UNL A   1      32.202  27.637  25.876  1.00  0.00     0.070 A 
BRANCH  14  20
ATOM     20  C   UNL A   1      29.780  28.507  22.559  1.00  0.00     0.077 C 
BRANCH  20  21
ATOM     21  C   UNL A   1      29.569  29.980  22.202  1.00  0.00     0.005 C 
ATOM     22  C   UNL A   1      28.138  30.309  21.800  1.00  0.00     0.004 C 
ENDBRANCH  20  21
ENDBRANCH  14  20
ENDBRANCH   8  13
BRANCH   7  23
ATOM     23  N   UNL A   1      32.962  21.681  24.815  1.00  0.00    -0.257 N 
ATOM     24  C   UNL A   1      32.649  21.770  23.475  1.00  0.00     0.110 A 
ATOM     25  N   UNL A   1      33.017  20.396  25.213  1.00  0.00    -0.177 NA
ATOM     26  C   UNL A   1      32.392  20.498  23.036  1.00  0.00     0.045 A 
ATOM     27  C   UNL A   1      32.593  19.681  24.165  1.00  0.00     0.065 A 
BRANCH  27  28
ATOM     28  C   UNL A   1      32.406  18.197  24.277  1.00  0.00     0.034 C 
ATOM     29  C   UNL A   1      33.285  17.450  23.268  1.00  0.00     0.014 C 
ATOM     30  C   UNL A   1      32.689  17.709  25.698  1.00  0.00     0.014 C 
ENDBRANCH  27  28
ENDBRANCH   7  23
ENDBRANCH   4   7
ENDBRANCH   2   3
ENDBRANCH   1   2
BRANCH   1  31
ATOM     31  C   UNL A   1      37.986  19.948  24.702  1.00  0.00     0.023 C 
BRANCH  31  32
ATOM     32  C   UNL A   1      39.015  20.264  25.781  1.00  0.00     0.116 C 
BRANCH  32  33
ATOM     33  N   UNL A   1      40.018  19.221  25.936  1.00  0.00    -0.352 N 
ATOM     34  C   UNL A   1      41.369  19.336  26.163  1.00  0.00     0.251 C 
ATOM     35  H   UNL A   1      39.682  18.299  25.866  1.00  0.00     0.163 HD
ATOM     36  O   UNL A   1      42.089  18.343  26.135  1.00  0.00    -0.269 OA
BRANCH  34  37
ATOM     37  C   UNL A   1      41.963  20.667  26.405  1.00  0.00     0.039 A 
ATOM     38  C   UNL A   1      42.261  21.484  25.310  1.00  0.00     0.014 A 
ATOM     39  C   UNL A   1      42.202  21.120  27.705  1.00  0.00     0.014 A 
ATOM     40  C   UNL A   1      42.716  22.786  25.522  1.00  0.00     0.010 A 
ATOM     41  C   UNL A   1      42.589  22.440  27.916  1.00  0.00     0.010 A 
ATOM     42  C   UNL A   1      42.836  23.290  26.827  1.00  0.00    -0.014 A 
BRANCH  42  43
ATOM     43  C   UNL A   1      43.189  24.710  27.080  1.00  0.00     0.031 A 
ATOM     44  C   UNL A   1      44.594  25.190  26.860  1.00  0.00     0.074 A 
ATOM     45  C   UNL A   1      42.262  25.543  27.595  1.00  0.00     0.049 A 
ATOM     46  N   UNL A   1      45.125  26.355  27.137  1.00  0.00    -0.248 NA
ATOM     47  C   UNL A   1      45.536  24.223  26.274  1.00  0.00     0.031 C 
ATOM     48  C   UNL A   1      40.875  25.185  27.890  1.00  0.00     0.029 A 
ATOM     49  N   UNL A   1      42.356  26.857  27.981  1.00  0.00    -0.354 N 
ATOM     50  C   UNL A   1      46.461  26.256  26.774  1.00  0.00     0.074 A 
ATOM     51  C   UNL A   1      46.673  24.904  26.301  1.00  0.00     0.031 C 
ATOM     52  C   UNL A   1      40.243  26.255  28.399  1.00  0.00     0.029 A 
ATOM     53  C   UNL A   1      41.191  27.359  28.512  1.00  0.00     0.049 A 
ATOM     54  H   UNL A   1      43.178  27.390  27.888  1.00  0.00     0.167 HD
ATOM     55  C   UNL A   1      47.419  27.212  26.816  1.00  0.00     0.037 A 
ATOM     56  C   UNL A   1      40.924  28.564  29.048  1.00  0.00     0.037 A 
ATOM     57  C   UNL A   1      47.199  28.561  27.266  1.00  0.00     0.049 A 
ATOM     58  C   UNL A   1      42.017  29.599  29.112  1.00  0.00     0.074 A 
ATOM     59  C   UNL A   1      48.085  29.623  27.277  1.00  0.00     0.029 A 
ATOM     60  N   UNL A   1      46.006  29.032  27.795  1.00  0.00    -0.354 N 
ATOM     61  N   UNL A   1      43.258  29.517  28.700  1.00  0.00    -0.248 NA
ATOM     62  C   UNL A   1      41.670  30.891  29.720  1.00  0.00     0.031 C 
ATOM     63  C   UNL A   1      47.447  30.721  27.860  1.00  0.00     0.029 A 
ATOM     64  C   UNL A   1      46.145  30.359  28.168  1.00  0.00     0.049 A 
ATOM     65  H   UNL A   1      45.182  28.501  27.892  1.00  0.00     0.167 HD
ATOM     66  C   UNL A   1      43.835  30.747  28.981  1.00  0.00     0.074 A 
ATOM     67  C   UNL A   1      42.801  31.567  29.580  1.00  0.00     0.031 C 
ATOM     68  C   UNL A   1      45.108  31.161  28.766  1.00  0.00     0.037 A 
BRANCH  55  69
ATOM     69  C   UNL A   1      48.799  26.834  26.359  1.00  0.00     0.064 A 
ATOM     70  C   UNL A   1      49.207  27.005  25.028  1.00  0.00     0.173 A 
ATOM     71  C   UNL A   1      49.739  26.334  27.274  1.00  0.00     0.173 A 
ATOM     72  F   UNL A   1      48.344  27.470  24.111  1.00  0.00    -0.203 F 
ATOM     73  C   UNL A   1      50.495  26.663  24.623  1.00  0.00     0.198 A 
ATOM     74  C   UNL A   1      51.035  26.022  26.872  1.00  0.00     0.198 A 
ATOM     75  F   UNL A   1      49.403  26.158  28.561  1.00  0.00    -0.203 F 
ATOM     76  F   UNL A   1      50.846  26.790  23.336  1.00  0.00    -0.200 F 
ATOM     77  C   UNL A   1      51.409  26.179  25.545  1.00  0.00     0.200 A 
ATOM     78  F   UNL A   1      51.921  25.567  27.768  1.00  0.00    -0.200 F 
ATOM     79  F   UNL A   1      52.651  25.858  25.156  1.00  0.00    -0.200 F 
ENDBRANCH  55  69
BRANCH  56  80
ATOM     80  C   UNL A   1      39.564  28.862  29.568  1.00  0.00     0.064 A 
ATOM     81  C   UNL A   1      39.219  28.565  30.893  1.00  0.00     0.173 A 
ATOM     82  C   UNL A   1      38.580  29.443  28.753  1.00  0.00     0.173 A 
ATOM     83  F   UNL A   1      40.118  27.988  31.705  1.00  0.00    -0.203 F 
ATOM     84  C   UNL A   1      37.939  28.820  31.379  1.00  0.00     0.198 A 
ATOM     85  C   UNL A   1      37.309  29.724  29.248  1.00  0.00     0.198 A 
ATOM     86  F   UNL A   1      38.859  29.749  27.477  1.00  0.00    -0.203 F 
ATOM     87  F   UNL A   1      37.623  28.483  32.637  1.00  0.00    -0.200 F 
ATOM     88  C   UNL A   1      36.986  29.404  30.558  1.00  0.00     0.200 A 
ATOM     89  F   UNL A   1      36.396  30.302  28.456  1.00  0.00    -0.200 F 
ATOM     90  F   UNL A   1      35.756  29.653  31.027  1.00  0.00    -0.200 F 
ENDBRANCH  56  80
BRANCH  68  91
ATOM     91  C   UNL A   1      45.454  32.565  29.167  1.00  0.00     0.064 A 
ATOM     92  C   UNL A   1      46.009  32.853  30.422  1.00  0.00     0.173 A 
ATOM     93  C   UNL A   1      45.273  33.628  28.269  1.00  0.00     0.173 A 
ATOM     94  F   UNL A   1      46.184  31.872  31.323  1.00  0.00    -0.203 F 
ATOM     95  C   UNL A   1      46.354  34.155  30.771  1.00  0.00     0.198 A 
ATOM     96  C   UNL A   1      45.647  34.925  28.610  1.00  0.00     0.198 A 
ATOM     97  F   UNL A   1      44.751  33.406  27.054  1.00  0.00    -0.203 F 
ATOM     98  F   UNL A   1      46.845  34.413  31.991  1.00  0.00    -0.200 F 
ATOM     99  C   UNL A   1      46.182  35.188  29.862  1.00  0.00     0.200 A 
ATOM    100  F   UNL A   1      45.492  35.919  27.725  1.00  0.00    -0.200 F 
ATOM    101  F   UNL A   1      46.525  36.440  30.195  1.00  0.00    -0.200 F 
ENDBRANCH  68  91
ENDBRANCH  42  43
ENDBRANCH  34  37
ENDBRANCH  32  33
ENDBRANCH  31  32
ENDBRANCH   1  31
TORSDOF 16
ENDMDL
