MODEL 1
REMARK VINA RESULT:     -12.5      0.000      0.000
REMARK SMILES CCOC(=O)c1c(S(=O)(=O)N2CCC[C@@H](C(=O)NCCCCNC(=O)c3ccc(-c4c5nc(c(-c6c(F)c(F)c(F)c(F)c6F)c6ccc([nH]6)c(-c6c(F)c(F)c(F)c(F)c6F)c6nc(c(-c7c(F)c(F)c(F)c(F)c7F)c7ccc4[nH]7)C=C6)C=C5)cc3)C2)c(C)n(C)c1C
REMARK SMILES IDX 19 1 18 2 16 3 17 4 15 6 11 7 12 8 89 9 13 10 14 11 8 12
REMARK SMILES IDX 9 13 10 14 7 15 6 16 94 17 90 18 92 19 95 20 91 21 93 22
REMARK SMILES IDX 4 23 5 24 3 25 2 26 1 27 20 28 21 29 22 30 23 31 24 32 25 34
REMARK SMILES IDX 26 35 27 36 88 37 28 38 87 39 29 40 30 41 31 42 81 43 32 44
REMARK SMILES IDX 86 45 80 46 82 47 33 48 85 49 79 50 78 51 34 53 66 54 46 55
REMARK SMILES IDX 65 56 47 57 50 58 64 59 83 60 48 61 49 62 63 64 84 65 51 66
REMARK SMILES IDX 35 67 36 68 44 69 37 70 38 71 42 72 45 73 39 74 40 75 43 76
REMARK SMILES IDX 41 77 67 78 68 79 76 80 69 81 70 82 74 83 77 84 71 85 72 86
REMARK SMILES IDX 75 87 73 88 52 89 53 90 61 91 54 92 55 93 59 94 62 95 56 96
REMARK SMILES IDX 57 97 60 98 58 99
REMARK H PARENT 18 5 23 33 82 52 50 63
REMARK Flexibility Score: inf
ROOT
ATOM      1  C   UNL A   1      34.508  28.813  27.128  1.00  0.00     0.116 C 
ENDROOT
BRANCH   1   2
ATOM      2  N   UNL A   1      33.098  28.654  27.505  1.00  0.00    -0.356 N 
ATOM      3  C   UNL A   1      32.055  27.842  27.172  1.00  0.00     0.224 C 
ATOM      4  O   UNL A   1      31.040  27.997  27.865  1.00  0.00    -0.275 OA
ATOM      5  H   UNL A   1      32.834  29.315  28.186  1.00  0.00     0.163 HD
BRANCH   3   6
ATOM      6  C   UNL A   1      32.022  26.821  26.021  1.00  0.00     0.093 C 
ATOM      7  N   UNL A   1      31.911  24.340  25.525  1.00  0.00    -0.197 NA
ATOM      8  C   UNL A   1      30.859  24.504  24.511  1.00  0.00     0.102 C 
ATOM      9  C   UNL A   1      32.153  25.407  26.497  1.00  0.00     0.116 C 
ATOM     10  C   UNL A   1      30.716  25.948  24.045  1.00  0.00     0.018 C 
ATOM     11  C   UNL A   1      30.746  26.967  25.180  1.00  0.00     0.016 C 
BRANCH   7  12
ATOM     12  S   UNL A   1      32.108  22.791  26.183  1.00  0.00     0.245 S 
ATOM     13  O   UNL A   1      31.135  21.941  25.517  1.00  0.00    -0.207 OA
ATOM     14  O   UNL A   1      32.138  22.905  27.624  1.00  0.00    -0.207 OA
BRANCH  12  15
ATOM     15  C   UNL A   1      33.614  21.973  25.804  1.00  0.00     0.118 A 
ATOM     16  C   UNL A   1      33.904  20.614  25.438  1.00  0.00     0.101 A 
ATOM     17  C   UNL A   1      35.280  20.558  25.187  1.00  0.00     0.030 A 
ATOM     18  C   UNL A   1      34.837  22.643  25.899  1.00  0.00     0.035 A 
ATOM     19  N   UNL A   1      35.826  21.787  25.477  1.00  0.00    -0.350 N 
ATOM     20  C   UNL A   1      36.098  19.427  24.648  1.00  0.00     0.065 C 
ATOM     21  C   UNL A   1      35.104  24.040  26.366  1.00  0.00     0.066 C 
ATOM     22  C   UNL A   1      37.223  22.151  25.335  1.00  0.00     0.149 C 
BRANCH  16  23
ATOM     23  C   UNL A   1      33.068  19.435  25.252  1.00  0.00     0.341 C 
ATOM     24  O   UNL A   1      32.577  18.794  26.165  1.00  0.00    -0.246 OA
BRANCH  23  25
ATOM     25  O   UNL A   1      32.811  19.203  23.924  1.00  0.00    -0.462 OA
BRANCH  25  26
ATOM     26  C   UNL A   1      32.521  17.842  23.560  1.00  0.00     0.230 C 
ATOM     27  C   UNL A   1      33.648  17.234  22.753  1.00  0.00     0.049 C 
ENDBRANCH  25  26
ENDBRANCH  23  25
ENDBRANCH  16  23
ENDBRANCH  12  15
ENDBRANCH   7  12
ENDBRANCH   3   6
ENDBRANCH   1   2
BRANCH   1  28
ATOM     28  C   UNL A   1      34.960  30.273  27.102  1.00  0.00     0.023 C 
BRANCH  28  29
ATOM     29  C   UNL A   1      33.968  31.251  27.743  1.00  0.00     0.023 C 
BRANCH  29  30
ATOM     30  C   UNL A   1      34.554  32.625  28.076  1.00  0.00     0.116 C 
BRANCH  30  31
ATOM     31  N   UNL A   1      34.471  32.959  29.493  1.00  0.00    -0.352 N 
ATOM     32  C   UNL A   1      35.106  32.333  30.545  1.00  0.00     0.251 C 
ATOM     33  H   UNL A   1      33.894  33.722  29.726  1.00  0.00     0.163 HD
ATOM     34  O   UNL A   1      34.694  32.445  31.694  1.00  0.00    -0.269 OA
BRANCH  32  35
ATOM     35  C   UNL A   1      36.291  31.506  30.268  1.00  0.00     0.039 A 
ATOM     36  C   UNL A   1      37.514  32.113  29.969  1.00  0.00     0.014 A 
ATOM     37  C   UNL A   1      36.180  30.117  30.346  1.00  0.00     0.014 A 
ATOM     38  C   UNL A   1      38.648  31.316  29.844  1.00  0.00     0.010 A 
ATOM     39  C   UNL A   1      37.318  29.336  30.300  1.00  0.00     0.010 A 
ATOM     40  C   UNL A   1      38.556  29.928  30.043  1.00  0.00    -0.014 A 
BRANCH  40  41
ATOM     41  C   UNL A   1      39.783  29.135  30.102  1.00  0.00     0.031 A 
ATOM     42  C   UNL A   1      40.365  28.937  31.463  1.00  0.00     0.074 A 
ATOM     43  C   UNL A   1      40.295  28.445  29.062  1.00  0.00     0.049 A 
ATOM     44  N   UNL A   1      41.515  29.334  31.901  1.00  0.00    -0.248 NA
ATOM     45  C   UNL A   1      39.541  28.269  32.481  1.00  0.00     0.031 C 
ATOM     46  C   UNL A   1      39.716  28.238  27.734  1.00  0.00     0.029 A 
ATOM     47  N   UNL A   1      41.429  27.687  29.024  1.00  0.00    -0.354 N 
ATOM     48  C   UNL A   1      41.634  28.848  33.202  1.00  0.00     0.074 A 
ATOM     49  C   UNL A   1      40.346  28.302  33.547  1.00  0.00     0.031 C 
ATOM     50  C   UNL A   1      40.384  27.247  27.102  1.00  0.00     0.029 A 
ATOM     51  C   UNL A   1      41.530  26.869  27.910  1.00  0.00     0.049 A 
ATOM     52  H   UNL A   1      42.116  27.717  29.729  1.00  0.00     0.167 HD
ATOM     53  C   UNL A   1      42.843  28.768  33.826  1.00  0.00     0.037 A 
ATOM     54  C   UNL A   1      42.475  25.929  27.675  1.00  0.00     0.037 A 
ATOM     55  C   UNL A   1      43.836  29.563  33.150  1.00  0.00     0.049 A 
ATOM     56  C   UNL A   1      43.646  26.246  28.527  1.00  0.00     0.074 A 
ATOM     57  C   UNL A   1      43.982  30.904  32.859  1.00  0.00     0.029 A 
ATOM     58  N   UNL A   1      44.744  28.912  32.355  1.00  0.00    -0.354 N 
ATOM     59  N   UNL A   1      44.423  27.276  28.346  1.00  0.00    -0.248 NA
ATOM     60  C   UNL A   1      43.738  25.616  29.835  1.00  0.00     0.031 C 
ATOM     61  C   UNL A   1      44.600  30.937  31.574  1.00  0.00     0.029 A 
ATOM     62  C   UNL A   1      44.836  29.618  31.185  1.00  0.00     0.049 A 
ATOM     63  H   UNL A   1      45.237  28.090  32.582  1.00  0.00     0.167 HD
ATOM     64  C   UNL A   1      44.759  27.687  29.626  1.00  0.00     0.074 A 
ATOM     65  C   UNL A   1      44.420  26.560  30.488  1.00  0.00     0.031 C 
ATOM     66  C   UNL A   1      45.015  29.001  29.893  1.00  0.00     0.037 A 
BRANCH  53  67
ATOM     67  C   UNL A   1      43.238  27.719  34.839  1.00  0.00     0.064 A 
ATOM     68  C   UNL A   1      43.695  28.125  36.112  1.00  0.00     0.173 A 
ATOM     69  C   UNL A   1      43.489  26.372  34.506  1.00  0.00     0.173 A 
ATOM     70  F   UNL A   1      43.523  29.389  36.530  1.00  0.00    -0.203 F 
ATOM     71  C   UNL A   1      44.428  27.273  36.942  1.00  0.00     0.198 A 
ATOM     72  C   UNL A   1      44.174  25.509  35.361  1.00  0.00     0.198 A 
ATOM     73  F   UNL A   1      43.189  25.872  33.301  1.00  0.00    -0.203 F 
ATOM     74  F   UNL A   1      44.960  27.745  38.079  1.00  0.00    -0.200 F 
ATOM     75  C   UNL A   1      44.674  25.967  36.562  1.00  0.00     0.200 A 
ATOM     76  F   UNL A   1      44.419  24.251  34.968  1.00  0.00    -0.200 F 
ATOM     77  F   UNL A   1      45.434  25.169  37.322  1.00  0.00    -0.200 F 
ENDBRANCH  53  67
BRANCH  54  78
ATOM     78  C   UNL A   1      42.359  24.657  26.931  1.00  0.00     0.064 A 
ATOM     79  C   UNL A   1      43.013  24.474  25.703  1.00  0.00     0.173 A 
ATOM     80  C   UNL A   1      41.835  23.502  27.544  1.00  0.00     0.173 A 
ATOM     81  F   UNL A   1      43.569  25.518  25.072  1.00  0.00    -0.203 F 
ATOM     82  C   UNL A   1      43.169  23.204  25.139  1.00  0.00     0.198 A 
ATOM     83  C   UNL A   1      41.984  22.236  26.975  1.00  0.00     0.198 A 
ATOM     84  F   UNL A   1      41.253  23.565  28.751  1.00  0.00    -0.203 F 
ATOM     85  F   UNL A   1      43.860  23.060  23.999  1.00  0.00    -0.200 F 
ATOM     86  C   UNL A   1      42.666  22.085  25.782  1.00  0.00     0.200 A 
ATOM     87  F   UNL A   1      41.520  21.158  27.625  1.00  0.00    -0.200 F 
ATOM     88  F   UNL A   1      42.873  20.861  25.276  1.00  0.00    -0.200 F 
ENDBRANCH  54  78
BRANCH  66  89
ATOM     89  C   UNL A   1      45.253  29.920  28.729  1.00  0.00     0.064 A 
ATOM     90  C   UNL A   1      44.233  30.556  27.999  1.00  0.00     0.173 A 
ATOM     91  C   UNL A   1      46.577  30.266  28.425  1.00  0.00     0.173 A 
ATOM     92  F   UNL A   1      42.942  30.360  28.297  1.00  0.00    -0.203 F 
ATOM     93  C   UNL A   1      44.532  31.454  26.976  1.00  0.00     0.198 A 
ATOM     94  C   UNL A   1      46.871  31.194  27.431  1.00  0.00     0.198 A 
ATOM     95  F   UNL A   1      47.590  29.733  29.126  1.00  0.00    -0.203 F 
ATOM     96  F   UNL A   1      43.543  32.031  26.279  1.00  0.00    -0.200 F 
ATOM     97  C   UNL A   1      45.850  31.778  26.698  1.00  0.00     0.200 A 
ATOM     98  F   UNL A   1      48.144  31.541  27.200  1.00  0.00    -0.200 F 
ATOM     99  F   UNL A   1      46.135  32.670  25.740  1.00  0.00    -0.200 F 
ENDBRANCH  66  89
ENDBRANCH  40  41
ENDBRANCH  32  35
ENDBRANCH  30  31
ENDBRANCH  29  30
ENDBRANCH  28  29
ENDBRANCH   1  28
TORSDOF 16
ENDMDL
MODEL 2
REMARK VINA RESULT:     -12.2      3.035      9.130
REMARK SMILES CCOC(=O)c1c(S(=O)(=O)N2CCC[C@@H](C(=O)NCCCCNC(=O)c3ccc(-c4c5nc(c(-c6c(F)c(F)c(F)c(F)c6F)c6ccc([nH]6)c(-c6c(F)c(F)c(F)c(F)c6F)c6nc(c(-c7c(F)c(F)c(F)c(F)c7F)c7ccc4[nH]7)C=C6)C=C5)cc3)C2)c(C)n(C)c1C
REMARK SMILES IDX 19 1 18 2 16 3 17 4 15 6 11 7 12 8 89 9 13 10 14 11 8 12
REMARK SMILES IDX 9 13 10 14 7 15 6 16 94 17 90 18 92 19 95 20 91 21 93 22
REMARK SMILES IDX 4 23 5 24 3 25 2 26 1 27 20 28 21 29 22 30 23 31 24 32 25 34
REMARK SMILES IDX 26 35 27 36 88 37 28 38 87 39 29 40 30 41 31 42 81 43 32 44
REMARK SMILES IDX 86 45 80 46 82 47 33 48 85 49 79 50 78 51 34 53 66 54 46 55
REMARK SMILES IDX 65 56 47 57 50 58 64 59 83 60 48 61 49 62 63 64 84 65 51 66
REMARK SMILES IDX 35 67 36 68 44 69 37 70 38 71 42 72 45 73 39 74 40 75 43 76
REMARK SMILES IDX 41 77 67 78 68 79 76 80 69 81 70 82 74 83 77 84 71 85 72 86
REMARK SMILES IDX 75 87 73 88 52 89 53 90 61 91 54 92 55 93 59 94 62 95 56 96
REMARK SMILES IDX 57 97 60 98 58 99
REMARK H PARENT 18 5 23 33 82 52 50 63
REMARK Flexibility Score: inf
ROOT
ATOM      1  C   UNL A   1      36.648  21.922  25.768  1.00  0.00     0.116 C 
ENDROOT
BRANCH   1   2
ATOM      2  N   UNL A   1      35.604  20.905  25.590  1.00  0.00    -0.356 N 
ATOM      3  C   UNL A   1      34.418  20.789  24.927  1.00  0.00     0.224 C 
ATOM      4  O   UNL A   1      33.917  19.656  24.962  1.00  0.00    -0.275 OA
ATOM      5  H   UNL A   1      35.819  20.081  26.085  1.00  0.00     0.163 HD
BRANCH   3   6
ATOM      6  C   UNL A   1      33.659  21.917  24.207  1.00  0.00     0.093 C 
ATOM      7  N   UNL A   1      32.602  24.190  24.567  1.00  0.00    -0.197 NA
ATOM      8  C   UNL A   1      33.232  24.767  23.370  1.00  0.00     0.102 C 
ATOM      9  C   UNL A   1      33.142  22.960  25.148  1.00  0.00     0.116 C 
ATOM     10  C   UNL A   1      33.775  23.701  22.424  1.00  0.00     0.018 C 
ATOM     11  C   UNL A   1      34.531  22.580  23.130  1.00  0.00     0.016 C 
BRANCH   7  12
ATOM     12  S   UNL A   1      32.034  25.279  25.735  1.00  0.00     0.245 S 
ATOM     13  O   UNL A   1      33.209  25.771  26.436  1.00  0.00    -0.207 OA
ATOM     14  O   UNL A   1      30.944  24.657  26.451  1.00  0.00    -0.207 OA
BRANCH  12  15
ATOM     15  C   UNL A   1      31.331  26.769  25.128  1.00  0.00     0.118 A 
ATOM     16  C   UNL A   1      31.476  28.137  25.541  1.00  0.00     0.101 A 
ATOM     17  C   UNL A   1      30.726  28.902  24.640  1.00  0.00     0.030 A 
ATOM     18  C   UNL A   1      30.391  26.749  24.093  1.00  0.00     0.035 A 
ATOM     19  N   UNL A   1      30.074  28.049  23.781  1.00  0.00    -0.350 N 
ATOM     20  C   UNL A   1      30.625  30.391  24.518  1.00  0.00     0.065 C 
ATOM     21  C   UNL A   1      29.792  25.567  23.398  1.00  0.00     0.066 C 
ATOM     22  C   UNL A   1      29.207  28.443  22.687  1.00  0.00     0.149 C 
BRANCH  16  23
ATOM     23  C   UNL A   1      32.247  28.781  26.598  1.00  0.00     0.341 C 
ATOM     24  O   UNL A   1      31.938  28.762  27.776  1.00  0.00    -0.246 OA
BRANCH  23  25
ATOM     25  O   UNL A   1      33.417  29.312  26.117  1.00  0.00    -0.462 OA
BRANCH  25  26
ATOM     26  C   UNL A   1      34.626  28.885  26.771  1.00  0.00     0.230 C 
ATOM     27  C   UNL A   1      35.107  29.918  27.768  1.00  0.00     0.049 C 
ENDBRANCH  25  26
ENDBRANCH  23  25
ENDBRANCH  16  23
ENDBRANCH  12  15
ENDBRANCH   7  12
ENDBRANCH   3   6
ENDBRANCH   1   2
BRANCH   1  28
ATOM     28  C   UNL A   1      37.910  21.632  24.956  1.00  0.00     0.023 C 
BRANCH  28  29
ATOM     29  C   UNL A   1      39.000  20.881  25.731  1.00  0.00     0.023 C 
BRANCH  29  30
ATOM     30  C   UNL A   1      39.944  21.780  26.531  1.00  0.00     0.116 C 
BRANCH  30  31
ATOM     31  N   UNL A   1      41.278  21.877  25.949  1.00  0.00    -0.352 N 
ATOM     32  C   UNL A   1      42.021  23.018  25.727  1.00  0.00     0.251 C 
ATOM     33  H   UNL A   1      41.700  21.027  25.684  1.00  0.00     0.163 HD
ATOM     34  O   UNL A   1      42.941  23.030  24.918  1.00  0.00    -0.269 OA
BRANCH  32  35
ATOM     35  C   UNL A   1      41.681  24.241  26.471  1.00  0.00     0.039 A 
ATOM     36  C   UNL A   1      42.045  24.367  27.814  1.00  0.00     0.014 A 
ATOM     37  C   UNL A   1      41.028  25.279  25.804  1.00  0.00     0.014 A 
ATOM     38  C   UNL A   1      41.834  25.583  28.458  1.00  0.00     0.010 A 
ATOM     39  C   UNL A   1      40.892  26.508  26.419  1.00  0.00     0.010 A 
ATOM     40  C   UNL A   1      41.287  26.666  27.749  1.00  0.00    -0.014 A 
BRANCH  40  41
ATOM     41  C   UNL A   1      41.254  27.986  28.380  1.00  0.00     0.031 A 
ATOM     42  C   UNL A   1      42.382  28.900  28.033  1.00  0.00     0.074 A 
ATOM     43  C   UNL A   1      40.208  28.468  29.081  1.00  0.00     0.049 A 
ATOM     44  N   UNL A   1      43.277  29.394  28.826  1.00  0.00    -0.248 NA
ATOM     45  C   UNL A   1      42.577  29.261  26.621  1.00  0.00     0.031 C 
ATOM     46  C   UNL A   1      38.885  27.872  29.269  1.00  0.00     0.029 A 
ATOM     47  N   UNL A   1      40.092  29.677  29.704  1.00  0.00    -0.354 N 
ATOM     48  C   UNL A   1      44.066  30.244  28.053  1.00  0.00     0.074 A 
ATOM     49  C   UNL A   1      43.664  30.034  26.685  1.00  0.00     0.031 C 
ATOM     50  C   UNL A   1      38.040  28.802  29.766  1.00  0.00     0.029 A 
ATOM     51  C   UNL A   1      38.798  29.998  30.084  1.00  0.00     0.049 A 
ATOM     52  H   UNL A   1      40.860  30.270  29.869  1.00  0.00     0.167 HD
ATOM     53  C   UNL A   1      44.862  31.193  28.623  1.00  0.00     0.037 A 
ATOM     54  C   UNL A   1      38.373  31.175  30.602  1.00  0.00     0.037 A 
ATOM     55  C   UNL A   1      45.055  30.941  30.027  1.00  0.00     0.049 A 
ATOM     56  C   UNL A   1      39.554  31.874  31.162  1.00  0.00     0.074 A 
ATOM     57  C   UNL A   1      45.604  29.916  30.771  1.00  0.00     0.029 A 
ATOM     58  N   UNL A   1      44.337  31.699  30.917  1.00  0.00    -0.354 N 
ATOM     59  N   UNL A   1      40.202  31.478  32.221  1.00  0.00    -0.248 NA
ATOM     60  C   UNL A   1      40.263  32.820  30.314  1.00  0.00     0.031 C 
ATOM     61  C   UNL A   1      44.792  29.834  31.941  1.00  0.00     0.029 A 
ATOM     62  C   UNL A   1      43.832  30.844  31.860  1.00  0.00     0.049 A 
ATOM     63  H   UNL A   1      44.208  32.674  30.885  1.00  0.00     0.167 HD
ATOM     64  C   UNL A   1      41.528  31.766  31.945  1.00  0.00     0.074 A 
ATOM     65  C   UNL A   1      41.489  32.701  30.826  1.00  0.00     0.031 C 
ATOM     66  C   UNL A   1      42.532  31.001  32.466  1.00  0.00     0.037 A 
BRANCH  53  67
ATOM     67  C   UNL A   1      45.197  32.535  28.016  1.00  0.00     0.064 A 
ATOM     68  C   UNL A   1      44.165  33.476  27.809  1.00  0.00     0.173 A 
ATOM     69  C   UNL A   1      46.407  32.806  27.345  1.00  0.00     0.173 A 
ATOM     70  F   UNL A   1      42.964  33.314  28.386  1.00  0.00    -0.203 F 
ATOM     71  C   UNL A   1      44.307  34.549  26.924  1.00  0.00     0.198 A 
ATOM     72  C   UNL A   1      46.564  33.909  26.506  1.00  0.00     0.198 A 
ATOM     73  F   UNL A   1      47.442  31.957  27.381  1.00  0.00    -0.203 F 
ATOM     74  F   UNL A   1      43.255  35.334  26.654  1.00  0.00    -0.200 F 
ATOM     75  C   UNL A   1      45.505  34.760  26.267  1.00  0.00     0.200 A 
ATOM     76  F   UNL A   1      47.726  34.087  25.863  1.00  0.00    -0.200 F 
ATOM     77  F   UNL A   1      45.623  35.744  25.367  1.00  0.00    -0.200 F 
ENDBRANCH  53  67
BRANCH  54  78
ATOM     78  C   UNL A   1      37.058  31.835  30.456  1.00  0.00     0.064 A 
ATOM     79  C   UNL A   1      36.109  31.795  31.490  1.00  0.00     0.173 A 
ATOM     80  C   UNL A   1      36.817  32.754  29.416  1.00  0.00     0.173 A 
ATOM     81  F   UNL A   1      36.283  30.972  32.534  1.00  0.00    -0.203 F 
ATOM     82  C   UNL A   1      35.004  32.650  31.502  1.00  0.00     0.198 A 
ATOM     83  C   UNL A   1      35.708  33.601  29.425  1.00  0.00     0.198 A 
ATOM     84  F   UNL A   1      37.701  32.914  28.419  1.00  0.00    -0.203 F 
ATOM     85  F   UNL A   1      34.155  32.631  32.540  1.00  0.00    -0.200 F 
ATOM     86  C   UNL A   1      34.811  33.562  30.477  1.00  0.00     0.200 A 
ATOM     87  F   UNL A   1      35.553  34.500  28.442  1.00  0.00    -0.200 F 
ATOM     88  F   UNL A   1      33.789  34.427  30.521  1.00  0.00    -0.200 F 
ENDBRANCH  54  78
BRANCH  66  89
ATOM     89  C   UNL A   1      42.191  30.070  33.594  1.00  0.00     0.064 A 
ATOM     90  C   UNL A   1      41.760  28.743  33.424  1.00  0.00     0.173 A 
ATOM     91  C   UNL A   1      42.434  30.507  34.904  1.00  0.00     0.173 A 
ATOM     92  F   UNL A   1      41.606  28.215  32.203  1.00  0.00    -0.203 F 
ATOM     93  C   UNL A   1      41.532  27.913  34.520  1.00  0.00     0.198 A 
ATOM     94  C   UNL A   1      42.245  29.664  35.994  1.00  0.00     0.198 A 
ATOM     95  F   UNL A   1      42.899  31.747  35.124  1.00  0.00    -0.203 F 
ATOM     96  F   UNL A   1      41.100  26.658  34.334  1.00  0.00    -0.200 F 
ATOM     97  C   UNL A   1      41.781  28.373  35.804  1.00  0.00     0.200 A 
ATOM     98  F   UNL A   1      42.534  30.097  37.229  1.00  0.00    -0.200 F 
ATOM     99  F   UNL A   1      41.597  27.562  36.855  1.00  0.00    -0.200 F 
ENDBRANCH  66  89
ENDBRANCH  40  41
ENDBRANCH  32  35
ENDBRANCH  30  31
ENDBRANCH  29  30
ENDBRANCH  28  29
ENDBRANCH   1  28
TORSDOF 16
ENDMDL
MODEL 3
REMARK VINA RESULT:     -12.0      1.305      2.166
REMARK SMILES CCOC(=O)c1c(S(=O)(=O)N2CCC[C@@H](C(=O)NCCCCNC(=O)c3ccc(-c4c5nc(c(-c6c(F)c(F)c(F)c(F)c6F)c6ccc([nH]6)c(-c6c(F)c(F)c(F)c(F)c6F)c6nc(c(-c7c(F)c(F)c(F)c(F)c7F)c7ccc4[nH]7)C=C6)C=C5)cc3)C2)c(C)n(C)c1C
REMARK SMILES IDX 19 1 18 2 16 3 17 4 15 6 11 7 12 8 89 9 13 10 14 11 8 12
REMARK SMILES IDX 9 13 10 14 7 15 6 16 94 17 90 18 92 19 95 20 91 21 93 22
REMARK SMILES IDX 4 23 5 24 3 25 2 26 1 27 20 28 21 29 22 30 23 31 24 32 25 34
REMARK SMILES IDX 26 35 27 36 88 37 28 38 87 39 29 40 30 41 31 42 81 43 32 44
REMARK SMILES IDX 86 45 80 46 82 47 33 48 85 49 79 50 78 51 34 53 66 54 46 55
REMARK SMILES IDX 65 56 47 57 50 58 64 59 83 60 48 61 49 62 63 64 84 65 51 66
REMARK SMILES IDX 35 67 36 68 44 69 37 70 38 71 42 72 45 73 39 74 40 75 43 76
REMARK SMILES IDX 41 77 67 78 68 79 76 80 69 81 70 82 74 83 77 84 71 85 72 86
REMARK SMILES IDX 75 87 73 88 52 89 53 90 61 91 54 92 55 93 59 94 62 95 56 96
REMARK SMILES IDX 57 97 60 98 58 99
REMARK H PARENT 18 5 23 33 82 52 50 63
REMARK Flexibility Score: inf
ROOT
ATOM      1  C   UNL A   1      32.431  29.581  25.951  1.00  0.00     0.116 C 
ENDROOT
BRANCH   1   2
ATOM      2  N   UNL A   1      31.609  28.424  26.327  1.00  0.00    -0.356 N 
ATOM      3  C   UNL A   1      31.644  27.071  26.161  1.00  0.00     0.224 C 
ATOM      4  O   UNL A   1      30.769  26.453  26.783  1.00  0.00    -0.275 OA
ATOM      5  H   UNL A   1      30.816  28.701  26.841  1.00  0.00     0.163 HD
BRANCH   3   6
ATOM      6  C   UNL A   1      32.614  26.285  25.262  1.00  0.00     0.093 C 
ATOM      7  N   UNL A   1      33.046  23.993  24.276  1.00  0.00    -0.197 NA
ATOM      8  C   UNL A   1      33.296  24.525  22.928  1.00  0.00     0.102 C 
ATOM      9  C   UNL A   1      32.340  24.813  25.260  1.00  0.00     0.116 C 
ATOM     10  C   UNL A   1      33.555  26.028  22.932  1.00  0.00     0.018 C 
ATOM     11  C   UNL A   1      32.596  26.815  23.820  1.00  0.00     0.016 C 
BRANCH   7  12
ATOM     12  S   UNL A   1      32.662  22.346  24.391  1.00  0.00     0.245 S 
ATOM     13  O   UNL A   1      32.081  21.975  23.111  1.00  0.00    -0.207 OA
ATOM     14  O   UNL A   1      31.946  22.127  25.627  1.00  0.00    -0.207 OA
BRANCH  12  15
ATOM     15  C   UNL A   1      34.020  21.239  24.499  1.00  0.00     0.118 A 
ATOM     16  C   UNL A   1      35.440  21.452  24.437  1.00  0.00     0.101 A 
ATOM     17  C   UNL A   1      36.035  20.204  24.653  1.00  0.00     0.030 A 
ATOM     18  C   UNL A   1      33.816  19.860  24.604  1.00  0.00     0.035 A 
ATOM     19  N   UNL A   1      35.043  19.257  24.744  1.00  0.00    -0.350 N 
ATOM     20  C   UNL A   1      37.483  19.863  24.823  1.00  0.00     0.065 C 
ATOM     21  C   UNL A   1      32.525  19.102  24.578  1.00  0.00     0.066 C 
ATOM     22  C   UNL A   1      35.239  17.839  24.982  1.00  0.00     0.149 C 
BRANCH  16  23
ATOM     23  C   UNL A   1      36.260  22.645  24.264  1.00  0.00     0.341 C 
ATOM     24  O   UNL A   1      36.572  23.108  23.181  1.00  0.00    -0.246 OA
BRANCH  23  25
ATOM     25  O   UNL A   1      36.540  23.243  25.467  1.00  0.00    -0.462 OA
BRANCH  25  26
ATOM     26  C   UNL A   1      37.899  23.137  25.929  1.00  0.00     0.230 C 
ATOM     27  C   UNL A   1      38.278  24.313  26.802  1.00  0.00     0.049 C 
ENDBRANCH  25  26
ENDBRANCH  23  25
ENDBRANCH  16  23
ENDBRANCH  12  15
ENDBRANCH   7  12
ENDBRANCH   3   6
ENDBRANCH   1   2
BRANCH   1  28
ATOM     28  C   UNL A   1      32.974  30.347  27.158  1.00  0.00     0.023 C 
BRANCH  28  29
ATOM     29  C   UNL A   1      34.458  30.093  27.451  1.00  0.00     0.023 C 
BRANCH  29  30
ATOM     30  C   UNL A   1      35.295  31.360  27.632  1.00  0.00     0.116 C 
BRANCH  30  31
ATOM     31  N   UNL A   1      34.905  32.148  28.795  1.00  0.00    -0.352 N 
ATOM     32  C   UNL A   1      35.302  31.972  30.105  1.00  0.00     0.251 C 
ATOM     33  H   UNL A   1      34.285  32.894  28.627  1.00  0.00     0.163 HD
ATOM     34  O   UNL A   1      34.651  32.433  31.034  1.00  0.00    -0.269 OA
BRANCH  32  35
ATOM     35  C   UNL A   1      36.526  31.202  30.377  1.00  0.00     0.039 A 
ATOM     36  C   UNL A   1      36.446  29.838  30.666  1.00  0.00     0.014 A 
ATOM     37  C   UNL A   1      37.761  31.849  30.304  1.00  0.00     0.014 A 
ATOM     38  C   UNL A   1      37.623  29.104  30.785  1.00  0.00     0.010 A 
ATOM     39  C   UNL A   1      38.926  31.106  30.344  1.00  0.00     0.010 A 
ATOM     40  C   UNL A   1      38.864  29.734  30.592  1.00  0.00    -0.014 A 
BRANCH  40  41
ATOM     41  C   UNL A   1      40.075  28.915  30.526  1.00  0.00     0.031 A 
ATOM     42  C   UNL A   1      40.763  28.664  31.827  1.00  0.00     0.074 A 
ATOM     43  C   UNL A   1      40.483  28.247  29.428  1.00  0.00     0.049 A 
ATOM     44  N   UNL A   1      41.953  29.026  32.179  1.00  0.00    -0.248 NA
ATOM     45  C   UNL A   1      40.011  27.981  32.891  1.00  0.00     0.031 C 
ATOM     46  C   UNL A   1      39.792  28.092  28.147  1.00  0.00     0.029 A 
ATOM     47  N   UNL A   1      41.593  27.468  29.274  1.00  0.00    -0.354 N 
ATOM     48  C   UNL A   1      42.169  28.498  33.451  1.00  0.00     0.074 A 
ATOM     49  C   UNL A   1      40.902  27.966  33.886  1.00  0.00     0.031 C 
ATOM     50  C   UNL A   1      40.383  27.108  27.434  1.00  0.00     0.029 A 
ATOM     51  C   UNL A   1      41.583  26.683  28.131  1.00  0.00     0.049 A 
ATOM     52  H   UNL A   1      42.337  27.464  29.919  1.00  0.00     0.167 HD
ATOM     53  C   UNL A   1      43.423  28.375  33.970  1.00  0.00     0.037 A 
ATOM     54  C   UNL A   1      42.485  25.732  27.792  1.00  0.00     0.037 A 
ATOM     55  C   UNL A   1      44.374  29.170  33.237  1.00  0.00     0.049 A 
ATOM     56  C   UNL A   1      43.729  26.000  28.552  1.00  0.00     0.074 A 
ATOM     57  C   UNL A   1      44.525  30.517  32.973  1.00  0.00     0.029 A 
ATOM     58  N   UNL A   1      45.199  28.526  32.350  1.00  0.00    -0.354 N 
ATOM     59  N   UNL A   1      44.511  27.019  28.337  1.00  0.00    -0.248 NA
ATOM     60  C   UNL A   1      43.915  25.329  29.830  1.00  0.00     0.031 C 
ATOM     61  C   UNL A   1      45.035  30.577  31.642  1.00  0.00     0.029 A 
ATOM     62  C   UNL A   1      45.209  29.266  31.197  1.00  0.00     0.049 A 
ATOM     63  H   UNL A   1      45.691  27.689  32.511  1.00  0.00     0.167 HD
ATOM     64  C   UNL A   1      44.961  27.385  29.595  1.00  0.00     0.074 A 
ATOM     65  C   UNL A   1      44.669  26.239  30.449  1.00  0.00     0.031 C 
ATOM     66  C   UNL A   1      45.266  28.685  29.877  1.00  0.00     0.037 A 
BRANCH  53  67
ATOM     67  C   UNL A   1      43.878  27.288  34.916  1.00  0.00     0.064 A 
ATOM     68  C   UNL A   1      44.539  27.645  36.111  1.00  0.00     0.173 A 
ATOM     69  C   UNL A   1      43.978  25.930  34.550  1.00  0.00     0.173 A 
ATOM     70  F   UNL A   1      44.522  28.913  36.551  1.00  0.00    -0.203 F 
ATOM     71  C   UNL A   1      45.316  26.731  36.829  1.00  0.00     0.198 A 
ATOM     72  C   UNL A   1      44.709  25.009  35.299  1.00  0.00     0.198 A 
ATOM     73  F   UNL A   1      43.474  25.468  33.399  1.00  0.00    -0.203 F 
ATOM     74  F   UNL A   1      46.037  27.150  37.879  1.00  0.00    -0.200 F 
ATOM     75  C   UNL A   1      45.407  25.415  36.417  1.00  0.00     0.200 A 
ATOM     76  F   UNL A   1      44.802  23.741  34.874  1.00  0.00    -0.200 F 
ATOM     77  F   UNL A   1      46.205  24.554  37.061  1.00  0.00    -0.200 F 
ENDBRANCH  53  67
BRANCH  54  78
ATOM     78  C   UNL A   1      42.279  24.485  27.024  1.00  0.00     0.064 A 
ATOM     79  C   UNL A   1      43.006  24.230  25.850  1.00  0.00     0.173 A 
ATOM     80  C   UNL A   1      41.574  23.399  27.577  1.00  0.00     0.173 A 
ATOM     81  F   UNL A   1      43.732  25.202  25.281  1.00  0.00    -0.203 F 
ATOM     82  C   UNL A   1      43.055  22.953  25.284  1.00  0.00     0.198 A 
ATOM     83  C   UNL A   1      41.617  22.127  27.005  1.00  0.00     0.198 A 
ATOM     84  F   UNL A   1      40.906  23.527  28.734  1.00  0.00    -0.203 F 
ATOM     85  F   UNL A   1      43.815  22.731  24.202  1.00  0.00    -0.200 F 
ATOM     86  C   UNL A   1      42.372  21.900  25.869  1.00  0.00     0.200 A 
ATOM     87  F   UNL A   1      40.977  21.110  27.601  1.00  0.00    -0.200 F 
ATOM     88  F   UNL A   1      42.473  20.662  25.366  1.00  0.00    -0.200 F 
ENDBRANCH  54  78
BRANCH  66  89
ATOM     89  C   UNL A   1      45.428  29.634  28.725  1.00  0.00     0.064 A 
ATOM     90  C   UNL A   1      44.364  30.300  28.092  1.00  0.00     0.173 A 
ATOM     91  C   UNL A   1      46.729  29.975  28.331  1.00  0.00     0.173 A 
ATOM     92  F   UNL A   1      43.097  30.110  28.480  1.00  0.00    -0.203 F 
ATOM     93  C   UNL A   1      44.596  31.224  27.074  1.00  0.00     0.198 A 
ATOM     94  C   UNL A   1      46.959  30.928  27.344  1.00  0.00     0.198 A 
ATOM     95  F   UNL A   1      47.786  29.413  28.939  1.00  0.00    -0.203 F 
ATOM     96  F   UNL A   1      43.564  31.831  26.470  1.00  0.00    -0.200 F 
ATOM     97  C   UNL A   1      45.893  31.542  26.706  1.00  0.00     0.200 A 
ATOM     98  F   UNL A   1      48.216  31.268  27.027  1.00  0.00    -0.200 F 
ATOM     99  F   UNL A   1      46.117  32.458  25.754  1.00  0.00    -0.200 F 
ENDBRANCH  66  89
ENDBRANCH  40  41
ENDBRANCH  32  35
ENDBRANCH  30  31
ENDBRANCH  29  30
ENDBRANCH  28  29
ENDBRANCH   1  28
TORSDOF 16
ENDMDL
