MODEL 1
REMARK VINA RESULT:     -13.8      0.000      0.000
REMARK SMILES Cc1cccc(NC(=O)C[C@H]([NH2+]C(C)C)C(=O)NCCCCNC(=O)c2ccc(-c3c4nc(c(-c5c(F)c(F)c(F)c(F)c5F)c5ccc([nH]5)c(-c5c(F)c(F)c(F)c(F)c5F)c5nc(c(-c6c(F)c(F)c(F)c(F)c6F)c6ccc3[nH]6)C=C5)C=C4)cc2)c1
REMARK SMILES IDX 20 1 19 2 18 3 16 4 17 5 11 7 10 8 8 9 7 10 9 12 6 13 1 14
REMARK SMILES IDX 2 15 3 16 89 17 4 18 5 19 12 20 13 23 14 24 15 25 21 26
REMARK SMILES IDX 22 27 23 28 24 29 25 31 26 32 27 33 88 34 28 35 87 36 29 37
REMARK SMILES IDX 30 38 31 39 81 40 32 41 86 42 80 43 82 44 33 45 85 46 79 47
REMARK SMILES IDX 78 48 34 50 66 51 46 52 65 53 47 54 50 55 64 56 83 57 48 58
REMARK SMILES IDX 49 59 63 61 84 62 51 63 35 64 36 65 44 66 37 67 38 68 42 69
REMARK SMILES IDX 45 70 39 71 40 72 43 73 41 74 67 75 68 76 76 77 69 78 70 79
REMARK SMILES IDX 74 80 77 81 71 82 72 83 75 84 73 85 52 86 53 87 61 88 54 89
REMARK SMILES IDX 55 90 59 91 62 92 56 93 57 94 60 95 58 96
REMARK H PARENT 18 6 7 11 12 21 12 22 23 30 82 49 50 60
REMARK Flexibility Score: inf
ROOT
ATOM      1  C   UNL A   1      37.874  21.489  24.983  1.00  0.00     0.023 C 
ENDROOT
BRANCH   1   2
ATOM      2  C   UNL A   1      36.194  20.999  25.353  1.00  0.00     0.116 C 
BRANCH   2   3
ATOM      3  N   UNL A   1      34.816  21.766  26.706  1.00  0.00    -0.351 N 
ATOM      4  C   UNL A   1      33.711  22.500  27.140  1.00  0.00     0.278 C 
ATOM      5  O   UNL A   1      33.380  22.205  28.307  1.00  0.00    -0.268 OA
ATOM      6  H   UNL A   1      35.136  21.377  27.552  1.00  0.00     0.163 HD
BRANCH   4   7
ATOM      7  C   UNL A   1      32.895  23.601  26.448  1.00  0.00     0.282 C 
BRANCH   7   8
ATOM      8  C   UNL A   1      31.478  23.188  25.964  1.00  0.00     0.175 C 
BRANCH   8   9
ATOM      9  C   UNL A   1      30.246  23.830  26.635  1.00  0.00     0.230 C 
ATOM     10  N   UNL A   1      29.834  25.121  26.403  1.00  0.00    -0.326 N 
ATOM     11  H   UNL A   1      29.118  25.474  26.978  1.00  0.00     0.169 HD
ATOM     12  O   UNL A   1      29.582  23.166  27.440  1.00  0.00    -0.274 OA
BRANCH  10  13
ATOM     13  C   UNL A   1      30.345  25.981  25.416  1.00  0.00     0.041 A 
ATOM     14  C   UNL A   1      32.074  30.134  25.761  1.00  0.00     0.044 C 
ATOM     15  C   UNL A   1      31.381  28.946  25.178  1.00  0.00    -0.049 A 
ATOM     16  C   UNL A   1      30.252  29.194  23.782  1.00  0.00     0.003 A 
ATOM     17  C   UNL A   1      31.386  27.335  26.032  1.00  0.00     0.029 A 
ATOM     18  C   UNL A   1      29.280  27.802  23.127  1.00  0.00     0.002 A 
ATOM     19  C   UNL A   1      29.355  26.190  23.913  1.00  0.00     0.026 A 
ENDBRANCH  10  13
ENDBRANCH   8   9
ENDBRANCH   7   8
BRANCH   7  20
ATOM     20  N   UNL A   1      33.724  24.432  25.494  1.00  0.00    -0.334 N 
ATOM     21  H   UNL A   1      34.702  24.171  25.619  1.00  0.00     0.347 HD
ATOM     22  H   UNL A   1      33.523  25.405  25.726  1.00  0.00     0.347 HD
BRANCH  20  23
ATOM     23  C   UNL A   1      33.393  24.282  24.053  1.00  0.00     0.176 C 
ATOM     24  C   UNL A   1      33.555  25.630  23.328  1.00  0.00     0.075 C 
ATOM     25  C   UNL A   1      34.065  23.162  23.273  1.00  0.00     0.075 C 
ENDBRANCH  20  23
ENDBRANCH   7  20
ENDBRANCH   4   7
ENDBRANCH   2   3
ENDBRANCH   1   2
BRANCH   1  26
ATOM     26  C   UNL A   1      38.922  21.639  26.107  1.00  0.00     0.023 C 
BRANCH  26  27
ATOM     27  C   UNL A   1      39.147  23.077  26.484  1.00  0.00     0.116 C 
BRANCH  27  28
ATOM     28  N   UNL A   1      40.512  23.428  26.778  1.00  0.00    -0.352 N 
ATOM     29  C   UNL A   1      41.052  24.697  26.802  1.00  0.00     0.251 C 
ATOM     30  H   UNL A   1      41.123  22.684  26.984  1.00  0.00     0.163 HD
ATOM     31  O   UNL A   1      42.264  24.855  26.691  1.00  0.00    -0.269 OA
BRANCH  29  32
ATOM     32  C   UNL A   1      40.188  25.832  27.230  1.00  0.00     0.039 A 
ATOM     33  C   UNL A   1      40.515  27.053  26.631  1.00  0.00     0.014 A 
ATOM     34  C   UNL A   1      39.495  25.807  28.437  1.00  0.00     0.014 A 
ATOM     35  C   UNL A   1      40.459  28.206  27.391  1.00  0.00     0.010 A 
ATOM     36  C   UNL A   1      39.581  26.905  29.251  1.00  0.00     0.010 A 
ATOM     37  C   UNL A   1      40.112  28.081  28.734  1.00  0.00    -0.014 A 
BRANCH  37  38
ATOM     38  C   UNL A   1      40.043  29.204  29.633  1.00  0.00     0.031 A 
ATOM     39  C   UNL A   1      38.986  30.154  29.286  1.00  0.00     0.074 A 
ATOM     40  C   UNL A   1      40.883  29.267  30.685  1.00  0.00     0.049 A 
ATOM     41  N   UNL A   1      39.111  31.425  29.333  1.00  0.00    -0.248 NA
ATOM     42  C   UNL A   1      37.716  29.728  28.696  1.00  0.00     0.031 C 
ATOM     43  C   UNL A   1      40.945  30.243  31.765  1.00  0.00     0.029 A 
ATOM     44  N   UNL A   1      42.050  28.502  30.850  1.00  0.00    -0.354 N 
ATOM     45  C   UNL A   1      37.846  31.947  29.167  1.00  0.00     0.074 A 
ATOM     46  C   UNL A   1      37.075  30.891  28.571  1.00  0.00     0.031 C 
ATOM     47  C   UNL A   1      42.209  30.273  32.236  1.00  0.00     0.029 A 
ATOM     48  C   UNL A   1      43.002  29.393  31.393  1.00  0.00     0.049 A 
ATOM     49  H   UNL A   1      42.177  27.550  30.635  1.00  0.00     0.167 HD
ATOM     50  C   UNL A   1      37.573  33.136  29.771  1.00  0.00     0.037 A 
ATOM     51  C   UNL A   1      44.071  29.771  30.631  1.00  0.00     0.037 A 
ATOM     52  C   UNL A   1      38.784  33.601  30.451  1.00  0.00     0.049 A 
ATOM     53  C   UNL A   1      44.040  31.243  30.291  1.00  0.00     0.074 A 
ATOM     54  C   UNL A   1      39.222  33.460  31.760  1.00  0.00     0.029 A 
ATOM     55  N   UNL A   1      39.912  33.885  29.692  1.00  0.00    -0.354 N 
ATOM     56  N   UNL A   1      42.956  31.972  30.260  1.00  0.00    -0.248 NA
ATOM     57  C   UNL A   1      45.244  32.010  30.009  1.00  0.00     0.031 C 
ATOM     58  C   UNL A   1      40.631  33.656  31.772  1.00  0.00     0.029 A 
ATOM     59  C   UNL A   1      41.046  33.929  30.479  1.00  0.00     0.049 A 
ATOM     60  H   UNL A   1      39.904  34.036  28.719  1.00  0.00     0.167 HD
ATOM     61  C   UNL A   1      43.287  33.281  29.986  1.00  0.00     0.074 A 
ATOM     62  C   UNL A   1      44.735  33.245  29.870  1.00  0.00     0.031 C 
ATOM     63  C   UNL A   1      42.337  34.268  29.886  1.00  0.00     0.037 A 
BRANCH  50  64
ATOM     64  C   UNL A   1      36.199  33.716  30.031  1.00  0.00     0.064 A 
ATOM     65  C   UNL A   1      35.383  34.097  28.941  1.00  0.00     0.173 A 
ATOM     66  C   UNL A   1      35.622  33.949  31.296  1.00  0.00     0.173 A 
ATOM     67  F   UNL A   1      35.764  33.884  27.675  1.00  0.00    -0.203 F 
ATOM     68  C   UNL A   1      34.138  34.709  29.103  1.00  0.00     0.198 A 
ATOM     69  C   UNL A   1      34.386  34.585  31.459  1.00  0.00     0.198 A 
ATOM     70  F   UNL A   1      36.198  33.530  32.426  1.00  0.00    -0.203 F 
ATOM     71  F   UNL A   1      33.422  35.050  28.023  1.00  0.00    -0.200 F 
ATOM     72  C   UNL A   1      33.645  34.968  30.363  1.00  0.00     0.200 A 
ATOM     73  F   UNL A   1      33.916  34.815  32.695  1.00  0.00    -0.200 F 
ATOM     74  F   UNL A   1      32.454  35.561  30.520  1.00  0.00    -0.200 F 
ENDBRANCH  50  64
BRANCH  51  75
ATOM     75  C   UNL A   1      44.535  28.665  29.737  1.00  0.00     0.064 A 
ATOM     76  C   UNL A   1      44.224  28.771  28.362  1.00  0.00     0.173 A 
ATOM     77  C   UNL A   1      45.590  27.817  30.090  1.00  0.00     0.173 A 
ATOM     78  F   UNL A   1      43.205  29.551  27.965  1.00  0.00    -0.203 F 
ATOM     79  C   UNL A   1      45.047  28.216  27.385  1.00  0.00     0.198 A 
ATOM     80  C   UNL A   1      46.383  27.217  29.104  1.00  0.00     0.198 A 
ATOM     81  F   UNL A   1      45.931  27.656  31.376  1.00  0.00    -0.203 F 
ATOM     82  F   UNL A   1      44.826  28.489  26.091  1.00  0.00    -0.200 F 
ATOM     83  C   UNL A   1      46.146  27.464  27.758  1.00  0.00     0.200 A 
ATOM     84  F   UNL A   1      47.431  26.463  29.462  1.00  0.00    -0.200 F 
ATOM     85  F   UNL A   1      46.987  27.005  26.820  1.00  0.00    -0.200 F 
ENDBRANCH  51  75
BRANCH  63  86
ATOM     86  C   UNL A   1      42.494  35.671  29.291  1.00  0.00     0.064 A 
ATOM     87  C   UNL A   1      41.903  36.123  28.101  1.00  0.00     0.173 A 
ATOM     88  C   UNL A   1      43.195  36.690  30.003  1.00  0.00     0.173 A 
ATOM     89  F   UNL A   1      41.107  35.349  27.362  1.00  0.00    -0.203 F 
ATOM     90  C   UNL A   1      42.053  37.435  27.633  1.00  0.00     0.198 A 
ATOM     91  C   UNL A   1      43.260  38.017  29.584  1.00  0.00     0.198 A 
ATOM     92  F   UNL A   1      43.837  36.455  31.156  1.00  0.00    -0.203 F 
ATOM     93  F   UNL A   1      41.519  37.774  26.452  1.00  0.00    -0.200 F 
ATOM     94  C   UNL A   1      42.710  38.387  28.383  1.00  0.00     0.200 A 
ATOM     95  F   UNL A   1      43.848  38.933  30.368  1.00  0.00    -0.200 F 
ATOM     96  F   UNL A   1      42.796  39.653  27.958  1.00  0.00    -0.200 F 
ENDBRANCH  63  86
ENDBRANCH  37  38
ENDBRANCH  29  32
ENDBRANCH  27  28
ENDBRANCH  26  27
ENDBRANCH   1  26
TORSDOF 16
ENDMDL
MODEL 2
REMARK VINA RESULT:     -13.5      3.595      9.857
REMARK SMILES Cc1cccc(NC(=O)C[C@H]([NH2+]C(C)C)C(=O)NCCCCNC(=O)c2ccc(-c3c4nc(c(-c5c(F)c(F)c(F)c(F)c5F)c5ccc([nH]5)c(-c5c(F)c(F)c(F)c(F)c5F)c5nc(c(-c6c(F)c(F)c(F)c(F)c6F)c6ccc3[nH]6)C=C5)C=C4)cc2)c1
REMARK SMILES IDX 20 1 19 2 18 3 16 4 17 5 11 7 10 8 8 9 7 10 9 12 6 13 1 14
REMARK SMILES IDX 2 15 3 16 89 17 4 18 5 19 12 20 13 23 14 24 15 25 21 26
REMARK SMILES IDX 22 27 23 28 24 29 25 31 26 32 27 33 88 34 28 35 87 36 29 37
REMARK SMILES IDX 30 38 31 39 81 40 32 41 86 42 80 43 82 44 33 45 85 46 79 47
REMARK SMILES IDX 78 48 34 50 66 51 46 52 65 53 47 54 50 55 64 56 83 57 48 58
REMARK SMILES IDX 49 59 63 61 84 62 51 63 35 64 36 65 44 66 37 67 38 68 42 69
REMARK SMILES IDX 45 70 39 71 40 72 43 73 41 74 67 75 68 76 76 77 69 78 70 79
REMARK SMILES IDX 74 80 77 81 71 82 72 83 75 84 73 85 52 86 53 87 61 88 54 89
REMARK SMILES IDX 55 90 59 91 62 92 56 93 57 94 60 95 58 96
REMARK H PARENT 18 6 7 11 12 21 12 22 23 30 82 49 50 60
REMARK Flexibility Score: inf
ROOT
ATOM      1  C   UNL A   1      31.631  31.733  26.580  1.00  0.00     0.023 C 
ENDROOT
BRANCH   1   2
ATOM      2  C   UNL A   1      30.430  31.561  25.266  1.00  0.00     0.116 C 
BRANCH   2   3
ATOM      3  N   UNL A   1      30.265  30.156  23.743  1.00  0.00    -0.351 N 
ATOM      4  C   UNL A   1      30.258  28.890  23.156  1.00  0.00     0.278 C 
ATOM      5  O   UNL A   1      29.783  28.911  22.001  1.00  0.00    -0.268 OA
ATOM      6  H   UNL A   1      30.079  30.732  22.966  1.00  0.00     0.163 HD
BRANCH   4   7
ATOM      7  C   UNL A   1      30.762  27.536  23.672  1.00  0.00     0.282 C 
BRANCH   7   8
ATOM      8  C   UNL A   1      31.683  27.590  24.923  1.00  0.00     0.175 C 
BRANCH   8   9
ATOM      9  C   UNL A   1      31.362  26.675  26.123  1.00  0.00     0.230 C 
ATOM     10  N   UNL A   1      31.716  25.348  26.191  1.00  0.00    -0.326 N 
ATOM     11  H   UNL A   1      31.350  24.824  26.938  1.00  0.00     0.169 HD
ATOM     12  O   UNL A   1      30.740  27.139  27.087  1.00  0.00    -0.274 OA
BRANCH  10  13
ATOM     13  C   UNL A   1      32.556  24.675  25.288  1.00  0.00     0.041 A 
ATOM     14  C   UNL A   1      32.530  20.379  23.909  1.00  0.00     0.044 C 
ATOM     15  C   UNL A   1      33.042  21.738  24.259  1.00  0.00    -0.049 A 
ATOM     16  C   UNL A   1      34.806  21.937  24.629  1.00  0.00     0.003 A 
ATOM     17  C   UNL A   1      31.902  23.109  24.643  1.00  0.00     0.029 A 
ATOM     18  C   UNL A   1      35.453  23.540  25.193  1.00  0.00     0.002 A 
ATOM     19  C   UNL A   1      34.340  24.919  25.484  1.00  0.00     0.026 A 
ENDBRANCH  10  13
ENDBRANCH   8   9
ENDBRANCH   7   8
BRANCH   7  20
ATOM     20  N   UNL A   1      31.184  26.604  22.557  1.00  0.00    -0.334 N 
ATOM     21  H   UNL A   1      30.863  27.005  21.676  1.00  0.00     0.347 HD
ATOM     22  H   UNL A   1      30.767  25.700  22.777  1.00  0.00     0.347 HD
BRANCH  20  23
ATOM     23  C   UNL A   1      32.645  26.358  22.440  1.00  0.00     0.176 C 
ATOM     24  C   UNL A   1      32.906  25.106  21.584  1.00  0.00     0.075 C 
ATOM     25  C   UNL A   1      33.536  27.511  22.001  1.00  0.00     0.075 C 
ENDBRANCH  20  23
ENDBRANCH   7  20
ENDBRANCH   4   7
ENDBRANCH   2   3
ENDBRANCH   1   2
BRANCH   1  26
ATOM     26  C   UNL A   1      32.255  30.489  27.251  1.00  0.00     0.023 C 
BRANCH  26  27
ATOM     27  C   UNL A   1      33.757  30.500  27.180  1.00  0.00     0.116 C 
BRANCH  27  28
ATOM     28  N   UNL A   1      34.406  31.420  28.077  1.00  0.00    -0.352 N 
ATOM     29  C   UNL A   1      35.349  31.112  29.037  1.00  0.00     0.251 C 
ATOM     30  H   UNL A   1      34.152  32.367  27.997  1.00  0.00     0.163 HD
ATOM     31  O   UNL A   1      35.552  31.879  29.972  1.00  0.00    -0.269 OA
BRANCH  29  32
ATOM     32  C   UNL A   1      36.291  29.988  28.776  1.00  0.00     0.039 A 
ATOM     33  C   UNL A   1      36.728  29.333  29.932  1.00  0.00     0.014 A 
ATOM     34  C   UNL A   1      37.043  29.921  27.606  1.00  0.00     0.014 A 
ATOM     35  C   UNL A   1      38.045  28.922  30.010  1.00  0.00     0.010 A 
ATOM     36  C   UNL A   1      38.384  29.666  27.718  1.00  0.00     0.010 A 
ATOM     37  C   UNL A   1      38.881  29.219  28.936  1.00  0.00    -0.014 A 
BRANCH  37  38
ATOM     38  C   UNL A   1      40.277  28.865  28.908  1.00  0.00     0.031 A 
ATOM     39  C   UNL A   1      40.510  27.471  28.531  1.00  0.00     0.074 A 
ATOM     40  C   UNL A   1      41.207  29.803  29.177  1.00  0.00     0.049 A 
ATOM     41  N   UNL A   1      41.373  26.706  29.081  1.00  0.00    -0.248 NA
ATOM     42  C   UNL A   1      39.652  26.767  27.576  1.00  0.00     0.031 C 
ATOM     43  C   UNL A   1      42.660  29.709  29.128  1.00  0.00     0.029 A 
ATOM     44  N   UNL A   1      40.967  31.044  29.791  1.00  0.00    -0.354 N 
ATOM     45  C   UNL A   1      41.446  25.574  28.298  1.00  0.00     0.074 A 
ATOM     46  C   UNL A   1      40.234  25.568  27.527  1.00  0.00     0.031 C 
ATOM     47  C   UNL A   1      43.172  30.619  29.983  1.00  0.00     0.029 A 
ATOM     48  C   UNL A   1      42.052  31.236  30.675  1.00  0.00     0.049 A 
ATOM     49  H   UNL A   1      40.206  31.650  29.638  1.00  0.00     0.167 HD
ATOM     50  C   UNL A   1      42.639  24.919  28.252  1.00  0.00     0.037 A 
ATOM     51  C   UNL A   1      41.829  31.198  32.022  1.00  0.00     0.037 A 
ATOM     52  C   UNL A   1      43.583  25.609  29.135  1.00  0.00     0.049 A 
ATOM     53  C   UNL A   1      42.511  30.022  32.681  1.00  0.00     0.074 A 
ATOM     54  C   UNL A   1      44.534  26.587  28.887  1.00  0.00     0.029 A 
ATOM     55  N   UNL A   1      43.309  25.668  30.495  1.00  0.00    -0.354 N 
ATOM     56  N   UNL A   1      42.839  28.916  32.067  1.00  0.00    -0.248 NA
ATOM     57  C   UNL A   1      42.916  30.031  34.079  1.00  0.00     0.031 C 
ATOM     58  C   UNL A   1      44.819  27.240  30.119  1.00  0.00     0.029 A 
ATOM     59  C   UNL A   1      44.056  26.651  31.113  1.00  0.00     0.049 A 
ATOM     60  H   UNL A   1      42.665  25.084  30.958  1.00  0.00     0.167 HD
ATOM     61  C   UNL A   1      43.506  28.083  32.938  1.00  0.00     0.074 A 
ATOM     62  C   UNL A   1      43.548  28.850  34.171  1.00  0.00     0.031 C 
ATOM     63  C   UNL A   1      43.961  26.844  32.558  1.00  0.00     0.037 A 
BRANCH  50  64
ATOM     64  C   UNL A   1      43.061  23.897  27.218  1.00  0.00     0.064 A 
ATOM     65  C   UNL A   1      42.609  22.562  27.329  1.00  0.00     0.173 A 
ATOM     66  C   UNL A   1      43.911  24.132  26.118  1.00  0.00     0.173 A 
ATOM     67  F   UNL A   1      41.746  22.193  28.286  1.00  0.00    -0.203 F 
ATOM     68  C   UNL A   1      43.017  21.548  26.460  1.00  0.00     0.198 A 
ATOM     69  C   UNL A   1      44.341  23.111  25.262  1.00  0.00     0.198 A 
ATOM     70  F   UNL A   1      44.323  25.359  25.790  1.00  0.00    -0.203 F 
ATOM     71  F   UNL A   1      42.552  20.302  26.630  1.00  0.00    -0.200 F 
ATOM     72  C   UNL A   1      43.896  21.818  25.434  1.00  0.00     0.200 A 
ATOM     73  F   UNL A   1      45.185  23.397  24.260  1.00  0.00    -0.200 F 
ATOM     74  F   UNL A   1      44.294  20.845  24.604  1.00  0.00    -0.200 F 
ENDBRANCH  50  64
BRANCH  51  75
ATOM     75  C   UNL A   1      40.490  31.760  32.380  1.00  0.00     0.064 A 
ATOM     76  C   UNL A   1      39.530  30.863  32.901  1.00  0.00     0.173 A 
ATOM     77  C   UNL A   1      40.302  33.122  32.642  1.00  0.00     0.173 A 
ATOM     78  F   UNL A   1      39.644  29.547  32.661  1.00  0.00    -0.203 F 
ATOM     79  C   UNL A   1      38.552  31.286  33.798  1.00  0.00     0.198 A 
ATOM     80  C   UNL A   1      39.283  33.547  33.502  1.00  0.00     0.198 A 
ATOM     81  F   UNL A   1      41.164  34.031  32.167  1.00  0.00    -0.203 F 
ATOM     82  F   UNL A   1      37.774  30.384  34.414  1.00  0.00    -0.200 F 
ATOM     83  C   UNL A   1      38.448  32.626  34.123  1.00  0.00     0.200 A 
ATOM     84  F   UNL A   1      39.161  34.850  33.795  1.00  0.00    -0.200 F 
ATOM     85  F   UNL A   1      37.566  33.020  35.052  1.00  0.00    -0.200 F 
ENDBRANCH  51  75
BRANCH  63  86
ATOM     86  C   UNL A   1      44.424  25.693  33.456  1.00  0.00     0.064 A 
ATOM     87  C   UNL A   1      45.696  25.099  33.430  1.00  0.00     0.173 A 
ATOM     88  C   UNL A   1      43.587  25.205  34.504  1.00  0.00     0.173 A 
ATOM     89  F   UNL A   1      46.657  25.510  32.602  1.00  0.00    -0.203 F 
ATOM     90  C   UNL A   1      46.071  24.076  34.310  1.00  0.00     0.198 A 
ATOM     91  C   UNL A   1      43.998  24.256  35.439  1.00  0.00     0.198 A 
ATOM     92  F   UNL A   1      42.333  25.638  34.689  1.00  0.00    -0.203 F 
ATOM     93  F   UNL A   1      47.277  23.508  34.179  1.00  0.00    -0.200 F 
ATOM     94  C   UNL A   1      45.234  23.671  35.327  1.00  0.00     0.200 A 
ATOM     95  F   UNL A   1      43.186  23.932  36.456  1.00  0.00    -0.200 F 
ATOM     96  F   UNL A   1      45.622  22.735  36.202  1.00  0.00    -0.200 F 
ENDBRANCH  63  86
ENDBRANCH  37  38
ENDBRANCH  29  32
ENDBRANCH  27  28
ENDBRANCH  26  27
ENDBRANCH   1  26
TORSDOF 16
ENDMDL
MODEL 3
REMARK VINA RESULT:     -13.5      3.575      9.483
REMARK SMILES Cc1cccc(NC(=O)C[C@H]([NH2+]C(C)C)C(=O)NCCCCNC(=O)c2ccc(-c3c4nc(c(-c5c(F)c(F)c(F)c(F)c5F)c5ccc([nH]5)c(-c5c(F)c(F)c(F)c(F)c5F)c5nc(c(-c6c(F)c(F)c(F)c(F)c6F)c6ccc3[nH]6)C=C5)C=C4)cc2)c1
REMARK SMILES IDX 20 1 19 2 18 3 16 4 17 5 11 7 10 8 8 9 7 10 9 12 6 13 1 14
REMARK SMILES IDX 2 15 3 16 89 17 4 18 5 19 12 20 13 23 14 24 15 25 21 26
REMARK SMILES IDX 22 27 23 28 24 29 25 31 26 32 27 33 88 34 28 35 87 36 29 37
REMARK SMILES IDX 30 38 31 39 81 40 32 41 86 42 80 43 82 44 33 45 85 46 79 47
REMARK SMILES IDX 78 48 34 50 66 51 46 52 65 53 47 54 50 55 64 56 83 57 48 58
REMARK SMILES IDX 49 59 63 61 84 62 51 63 35 64 36 65 44 66 37 67 38 68 42 69
REMARK SMILES IDX 45 70 39 71 40 72 43 73 41 74 67 75 68 76 76 77 69 78 70 79
REMARK SMILES IDX 74 80 77 81 71 82 72 83 75 84 73 85 52 86 53 87 61 88 54 89
REMARK SMILES IDX 55 90 59 91 62 92 56 93 57 94 60 95 58 96
REMARK H PARENT 18 6 7 11 12 21 12 22 23 30 82 49 50 60
REMARK Flexibility Score: inf
ROOT
ATOM      1  C   UNL A   1      33.212  29.414  27.129  1.00  0.00     0.023 C 
ENDROOT
BRANCH   1   2
ATOM      2  C   UNL A   1      32.051  28.057  27.043  1.00  0.00     0.116 C 
BRANCH   2   3
ATOM      3  N   UNL A   1      31.007  27.253  25.436  1.00  0.00    -0.351 N 
ATOM      4  C   UNL A   1      30.522  26.259  24.584  1.00  0.00     0.278 C 
ATOM      5  O   UNL A   1      29.619  26.684  23.833  1.00  0.00    -0.268 OA
ATOM      6  H   UNL A   1      30.623  28.063  25.029  1.00  0.00     0.163 HD
BRANCH   4   7
ATOM      7  C   UNL A   1      30.937  24.793  24.405  1.00  0.00     0.282 C 
BRANCH   7   8
ATOM      8  C   UNL A   1      31.992  24.261  25.415  1.00  0.00     0.175 C 
BRANCH   8   9
ATOM      9  C   UNL A   1      31.580  23.154  26.407  1.00  0.00     0.230 C 
ATOM     10  N   UNL A   1      31.957  21.837  26.284  1.00  0.00    -0.326 N 
ATOM     11  H   UNL A   1      31.534  21.191  26.894  1.00  0.00     0.169 HD
ATOM     12  O   UNL A   1      30.860  23.443  27.371  1.00  0.00    -0.274 OA
BRANCH  10  13
ATOM     13  C   UNL A   1      32.893  21.333  25.366  1.00  0.00     0.041 A 
ATOM     14  C   UNL A   1      33.523  17.138  23.830  1.00  0.00     0.044 C 
ATOM     15  C   UNL A   1      33.822  18.544  24.235  1.00  0.00    -0.049 A 
ATOM     16  C   UNL A   1      35.534  18.991  24.631  1.00  0.00     0.003 A 
ATOM     17  C   UNL A   1      32.487  19.712  24.657  1.00  0.00     0.029 A 
ATOM     18  C   UNL A   1      35.929  20.652  25.261  1.00  0.00     0.002 A 
ATOM     19  C   UNL A   1      34.619  21.835  25.590  1.00  0.00     0.026 A 
ENDBRANCH  10  13
ENDBRANCH   8   9
ENDBRANCH   7   8
BRANCH   7  20
ATOM     20  N   UNL A   1      31.133  24.412  22.954  1.00  0.00    -0.334 N 
ATOM     21  H   UNL A   1      30.482  24.963  22.395  1.00  0.00     0.347 HD
ATOM     22  H   UNL A   1      30.971  23.406  22.906  1.00  0.00     0.347 HD
BRANCH  20  23
ATOM     23  C   UNL A   1      32.498  24.630  22.409  1.00  0.00     0.176 C 
ATOM     24  C   UNL A   1      33.164  23.279  22.091  1.00  0.00     0.075 C 
ATOM     25  C   UNL A   1      32.664  25.602  21.251  1.00  0.00     0.075 C 
ENDBRANCH  20  23
ENDBRANCH   7  20
ENDBRANCH   4   7
ENDBRANCH   2   3
ENDBRANCH   1   2
BRANCH   1  26
ATOM     26  C   UNL A   1      34.731  29.153  27.230  1.00  0.00     0.023 C 
BRANCH  26  27
ATOM     27  C   UNL A   1      35.414  30.124  28.153  1.00  0.00     0.116 C 
BRANCH  27  28
ATOM     28  N   UNL A   1      34.669  31.322  28.441  1.00  0.00    -0.352 N 
ATOM     29  C   UNL A   1      34.827  32.151  29.534  1.00  0.00     0.251 C 
ATOM     30  H   UNL A   1      33.976  31.578  27.790  1.00  0.00     0.163 HD
ATOM     31  O   UNL A   1      33.922  32.906  29.872  1.00  0.00    -0.269 OA
BRANCH  29  32
ATOM     32  C   UNL A   1      36.188  32.307  30.118  1.00  0.00     0.039 A 
ATOM     33  C   UNL A   1      37.075  33.026  29.310  1.00  0.00     0.014 A 
ATOM     34  C   UNL A   1      36.674  31.428  31.082  1.00  0.00     0.014 A 
ATOM     35  C   UNL A   1      38.391  32.615  29.232  1.00  0.00     0.010 A 
ATOM     36  C   UNL A   1      37.928  30.908  30.903  1.00  0.00     0.010 A 
ATOM     37  C   UNL A   1      38.757  31.474  29.942  1.00  0.00    -0.014 A 
BRANCH  37  38
ATOM     38  C   UNL A   1      40.091  30.932  29.922  1.00  0.00     0.031 A 
ATOM     39  C   UNL A   1      40.163  29.605  29.309  1.00  0.00     0.074 A 
ATOM     40  C   UNL A   1      41.115  31.663  30.405  1.00  0.00     0.049 A 
ATOM     41  N   UNL A   1      40.872  28.639  29.754  1.00  0.00    -0.248 NA
ATOM     42  C   UNL A   1      39.294  29.210  28.198  1.00  0.00     0.031 C 
ATOM     43  C   UNL A   1      42.542  31.369  30.414  1.00  0.00     0.029 A 
ATOM     44  N   UNL A   1      40.997  32.800  31.222  1.00  0.00    -0.354 N 
ATOM     45  C   UNL A   1      40.853  27.662  28.782  1.00  0.00     0.074 A 
ATOM     46  C   UNL A   1      39.713  27.965  27.961  1.00  0.00     0.031 C 
ATOM     47  C   UNL A   1      43.104  32.032  31.445  1.00  0.00     0.029 A 
ATOM     48  C   UNL A   1      42.027  32.676  32.180  1.00  0.00     0.049 A 
ATOM     49  H   UNL A   1      40.338  33.527  31.143  1.00  0.00     0.167 HD
ATOM     50  C   UNL A   1      41.946  26.858  28.678  1.00  0.00     0.037 A 
ATOM     51  C   UNL A   1      41.699  32.437  33.484  1.00  0.00     0.037 A 
ATOM     52  C   UNL A   1      42.904  27.239  29.719  1.00  0.00     0.049 A 
ATOM     53  C   UNL A   1      42.165  31.079  33.952  1.00  0.00     0.074 A 
ATOM     54  C   UNL A   1      43.994  28.097  29.704  1.00  0.00     0.029 A 
ATOM     55  N   UNL A   1      42.537  27.101  31.051  1.00  0.00    -0.354 N 
ATOM     56  N   UNL A   1      42.388  30.060  33.164  1.00  0.00    -0.248 NA
ATOM     57  C   UNL A   1      42.460  30.786  35.346  1.00  0.00     0.031 C 
ATOM     58  C   UNL A   1      44.269  28.477  31.046  1.00  0.00     0.029 A 
ATOM     59  C   UNL A   1      43.360  27.842  31.876  1.00  0.00     0.049 A 
ATOM     60  H   UNL A   1      41.788  26.545  31.366  1.00  0.00     0.167 HD
ATOM     61  C   UNL A   1      42.868  29.001  33.901  1.00  0.00     0.074 A 
ATOM     62  C   UNL A   1      42.919  29.528  35.254  1.00  0.00     0.031 C 
ATOM     63  C   UNL A   1      43.181  27.793  33.325  1.00  0.00     0.037 A 
BRANCH  50  64
ATOM     64  C   UNL A   1      42.306  25.981  27.498  1.00  0.00     0.064 A 
ATOM     65  C   UNL A   1      41.627  24.756  27.305  1.00  0.00     0.173 A 
ATOM     66  C   UNL A   1      43.302  26.249  26.537  1.00  0.00     0.173 A 
ATOM     67  F   UNL A   1      40.612  24.386  28.097  1.00  0.00    -0.203 F 
ATOM     68  C   UNL A   1      41.955  23.859  26.286  1.00  0.00     0.198 A 
ATOM     69  C   UNL A   1      43.650  25.339  25.532  1.00  0.00     0.198 A 
ATOM     70  F   UNL A   1      43.949  27.417  26.494  1.00  0.00    -0.203 F 
ATOM     71  F   UNL A   1      41.272  22.712  26.167  1.00  0.00    -0.200 F 
ATOM     72  C   UNL A   1      42.978  24.142  25.407  1.00  0.00     0.200 A 
ATOM     73  F   UNL A   1      44.638  25.640  24.676  1.00  0.00    -0.200 F 
ATOM     74  F   UNL A   1      43.299  23.280  24.434  1.00  0.00    -0.200 F 
ENDBRANCH  50  64
BRANCH  51  75
ATOM     75  C   UNL A   1      40.423  33.118  33.870  1.00  0.00     0.064 A 
ATOM     76  C   UNL A   1      39.298  32.296  34.106  1.00  0.00     0.173 A 
ATOM     77  C   UNL A   1      40.405  34.403  34.423  1.00  0.00     0.173 A 
ATOM     78  F   UNL A   1      39.248  31.062  33.580  1.00  0.00    -0.203 F 
ATOM     79  C   UNL A   1      38.304  32.668  35.008  1.00  0.00     0.198 A 
ATOM     80  C   UNL A   1      39.374  34.792  35.286  1.00  0.00     0.198 A 
ATOM     81  F   UNL A   1      41.431  35.242  34.226  1.00  0.00    -0.203 F 
ATOM     82  F   UNL A   1      37.347  31.792  35.347  1.00  0.00    -0.200 F 
ATOM     83  C   UNL A   1      38.359  33.906  35.622  1.00  0.00     0.200 A 
ATOM     84  F   UNL A   1      39.409  36.003  35.860  1.00  0.00    -0.200 F 
ATOM     85  F   UNL A   1      37.451  34.228  36.555  1.00  0.00    -0.200 F 
ENDBRANCH  51  75
BRANCH  63  86
ATOM     86  C   UNL A   1      43.416  26.449  34.021  1.00  0.00     0.064 A 
ATOM     87  C   UNL A   1      42.460  25.734  34.759  1.00  0.00     0.173 A 
ATOM     88  C   UNL A   1      44.652  25.753  33.861  1.00  0.00     0.173 A 
ATOM     89  F   UNL A   1      41.208  26.167  34.911  1.00  0.00    -0.203 F 
ATOM     90  C   UNL A   1      42.729  24.487  35.335  1.00  0.00     0.198 A 
ATOM     91  C   UNL A   1      44.882  24.470  34.353  1.00  0.00     0.198 A 
ATOM     92  F   UNL A   1      45.694  26.273  33.198  1.00  0.00    -0.203 F 
ATOM     93  F   UNL A   1      41.789  23.896  36.086  1.00  0.00    -0.200 F 
ATOM     94  C   UNL A   1      43.928  23.844  35.115  1.00  0.00     0.200 A 
ATOM     95  F   UNL A   1      46.034  23.845  34.065  1.00  0.00    -0.200 F 
ATOM     96  F   UNL A   1      44.155  22.625  35.619  1.00  0.00    -0.200 F 
ENDBRANCH  63  86
ENDBRANCH  37  38
ENDBRANCH  29  32
ENDBRANCH  27  28
ENDBRANCH  26  27
ENDBRANCH   1  26
TORSDOF 16
ENDMDL
