MODEL 1
REMARK VINA RESULT:     -11.7      0.000      0.000
REMARK SMILES O=C(Cc1cccn(C(F)F)c1=O)NCCCCNC(=O)c1ccc(-c2c3nc(c(-c4c(F)c(F)c(F)c(F)c4F)c4ccc([nH]4)c(-c4c(F)c(F)c(F)c(F)c4F)c4nc(c(-c5c(F)c(F)c(F)c(F)c5F)c5ccc2[nH]5)C=C4)C=C3)cc1
REMARK SMILES IDX 16 1 15 2 14 3 1 4 2 5 3 7 4 8 5 9 12 10 6 11 8 12 13 13
REMARK SMILES IDX 7 14 9 15 10 16 11 17 17 18 18 19 19 20 20 21 21 23 22 24
REMARK SMILES IDX 23 25 84 26 24 27 83 28 25 29 26 30 27 31 77 32 28 33 82 34
REMARK SMILES IDX 76 35 78 36 29 37 81 38 75 39 74 40 30 42 62 43 42 44 61 45
REMARK SMILES IDX 43 46 46 47 60 48 79 49 44 50 45 51 59 53 80 54 47 55 31 56
REMARK SMILES IDX 32 57 40 58 33 59 34 60 38 61 41 62 35 63 36 64 39 65 37 66
REMARK SMILES IDX 63 67 64 68 72 69 65 70 66 71 70 72 73 73 67 74 68 75 71 76
REMARK SMILES IDX 69 77 48 78 49 79 57 80 50 81 51 82 55 83 58 84 52 85 53 86
REMARK SMILES IDX 56 87 54 88
REMARK H PARENT 14 6 19 22 78 41 46 52
REMARK Flexibility Score: inf
ROOT
ATOM      1  C   UNL A   1      32.029  28.068  27.262  1.00  0.00     0.023 C 
ENDROOT
BRANCH   1   2
ATOM      2  C   UNL A   1      32.416  26.730  26.636  1.00  0.00     0.116 C 
BRANCH   2   3
ATOM      3  N   UNL A   1      31.745  26.488  25.373  1.00  0.00    -0.356 N 
ATOM      4  O   UNL A   1      29.865  25.525  26.284  1.00  0.00    -0.275 OA
ATOM      5  C   UNL A   1      30.487  25.923  25.304  1.00  0.00     0.224 C 
ATOM      6  H   UNL A   1      32.202  26.737  24.537  1.00  0.00     0.163 HD
BRANCH   5   7
ATOM      7  C   UNL A   1      29.903  25.893  23.898  1.00  0.00     0.141 C 
BRANCH   7   8
ATOM      8  C   UNL A   1      28.973  27.046  23.615  1.00  0.00     0.027 A 
ATOM      9  C   UNL A   1      27.641  27.069  23.812  1.00  0.00     0.011 A 
ATOM     10  C   UNL A   1      29.637  28.281  23.067  1.00  0.00     0.258 A 
ATOM     11  C   UNL A   1      26.858  28.244  23.534  1.00  0.00     0.019 A 
ATOM     12  N   UNL A   1      28.810  29.359  22.808  1.00  0.00    -0.258 N 
ATOM     13  O   UNL A   1      30.852  28.293  22.884  1.00  0.00    -0.269 OA
ATOM     14  C   UNL A   1      27.450  29.338  23.047  1.00  0.00     0.095 A 
BRANCH  12  15
ATOM     15  C   UNL A   1      29.411  30.554  22.269  1.00  0.00     0.451 C 
ATOM     16  F   UNL A   1      29.185  30.612  20.929  1.00  0.00    -0.185 F 
ATOM     17  F   UNL A   1      28.800  31.646  22.803  1.00  0.00    -0.185 F 
ENDBRANCH  12  15
ENDBRANCH   7   8
ENDBRANCH   5   7
ENDBRANCH   2   3
ENDBRANCH   1   2
BRANCH   1  18
ATOM     18  C   UNL A   1      31.639  29.169  26.274  1.00  0.00     0.023 C 
BRANCH  18  19
ATOM     19  C   UNL A   1      32.732  30.180  25.943  1.00  0.00     0.116 C 
BRANCH  19  20
ATOM     20  N   UNL A   1      32.467  31.510  26.472  1.00  0.00    -0.352 N 
ATOM     21  C   UNL A   1      33.213  32.269  27.346  1.00  0.00     0.251 C 
ATOM     22  H   UNL A   1      31.633  31.927  26.160  1.00  0.00     0.163 HD
ATOM     23  O   UNL A   1      32.770  33.330  27.774  1.00  0.00    -0.269 OA
BRANCH  21  24
ATOM     24  C   UNL A   1      34.534  31.786  27.811  1.00  0.00     0.039 A 
ATOM     25  C   UNL A   1      34.761  30.431  28.055  1.00  0.00     0.014 A 
ATOM     26  C   UNL A   1      35.557  32.715  28.030  1.00  0.00     0.014 A 
ATOM     27  C   UNL A   1      35.935  30.029  28.688  1.00  0.00     0.010 A 
ATOM     28  C   UNL A   1      36.769  32.298  28.593  1.00  0.00     0.010 A 
ATOM     29  C   UNL A   1      36.945  30.961  28.982  1.00  0.00    -0.014 A 
BRANCH  29  30
ATOM     30  C   UNL A   1      38.153  30.522  29.732  1.00  0.00     0.031 A 
ATOM     31  C   UNL A   1      38.364  30.954  31.161  1.00  0.00     0.074 A 
ATOM     32  C   UNL A   1      39.023  29.671  29.156  1.00  0.00     0.049 A 
ATOM     33  N   UNL A   1      39.340  30.649  31.982  1.00  0.00    -0.248 NA
ATOM     34  C   UNL A   1      37.348  31.842  31.750  1.00  0.00     0.031 C 
ATOM     35  C   UNL A   1      38.921  29.160  27.789  1.00  0.00     0.029 A 
ATOM     36  N   UNL A   1      40.148  29.061  29.655  1.00  0.00    -0.354 N 
ATOM     37  C   UNL A   1      39.061  31.310  33.171  1.00  0.00     0.074 A 
ATOM     38  C   UNL A   1      37.842  32.060  32.962  1.00  0.00     0.031 C 
ATOM     39  C   UNL A   1      39.905  28.273  27.577  1.00  0.00     0.029 A 
ATOM     40  C   UNL A   1      40.742  28.195  28.771  1.00  0.00     0.049 A 
ATOM     41  H   UNL A   1      40.495  29.230  30.561  1.00  0.00     0.167 HD
ATOM     42  C   UNL A   1      39.749  31.281  34.337  1.00  0.00     0.037 A 
ATOM     43  C   UNL A   1      41.840  27.427  28.902  1.00  0.00     0.037 A 
ATOM     44  C   UNL A   1      40.948  30.517  34.559  1.00  0.00     0.049 A 
ATOM     45  C   UNL A   1      42.613  27.459  30.192  1.00  0.00     0.074 A 
ATOM     46  C   UNL A   1      41.711  30.427  35.712  1.00  0.00     0.029 A 
ATOM     47  N   UNL A   1      41.551  29.702  33.616  1.00  0.00    -0.354 N 
ATOM     48  N   UNL A   1      42.342  28.098  31.303  1.00  0.00    -0.248 NA
ATOM     49  C   UNL A   1      43.853  26.671  30.241  1.00  0.00     0.031 C 
ATOM     50  C   UNL A   1      42.794  29.581  35.455  1.00  0.00     0.029 A 
ATOM     51  C   UNL A   1      42.685  29.115  34.156  1.00  0.00     0.049 A 
ATOM     52  H   UNL A   1      41.224  29.560  32.698  1.00  0.00     0.167 HD
ATOM     53  C   UNL A   1      43.364  27.779  32.185  1.00  0.00     0.074 A 
ATOM     54  C   UNL A   1      44.252  26.872  31.488  1.00  0.00     0.031 C 
ATOM     55  C   UNL A   1      43.553  28.207  33.455  1.00  0.00     0.037 A 
BRANCH  42  56
ATOM     56  C   UNL A   1      39.225  32.091  35.486  1.00  0.00     0.064 A 
ATOM     57  C   UNL A   1      38.430  31.509  36.484  1.00  0.00     0.173 A 
ATOM     58  C   UNL A   1      39.603  33.433  35.642  1.00  0.00     0.173 A 
ATOM     59  F   UNL A   1      38.034  30.232  36.373  1.00  0.00    -0.203 F 
ATOM     60  C   UNL A   1      38.032  32.243  37.597  1.00  0.00     0.198 A 
ATOM     61  C   UNL A   1      39.219  34.157  36.768  1.00  0.00     0.198 A 
ATOM     62  F   UNL A   1      40.367  34.032  34.717  1.00  0.00    -0.203 F 
ATOM     63  F   UNL A   1      37.258  31.672  38.532  1.00  0.00    -0.200 F 
ATOM     64  C   UNL A   1      38.435  33.562  37.744  1.00  0.00     0.200 A 
ATOM     65  F   UNL A   1      39.620  35.428  36.914  1.00  0.00    -0.200 F 
ATOM     66  F   UNL A   1      38.067  34.260  38.828  1.00  0.00    -0.200 F 
ENDBRANCH  42  56
BRANCH  43  67
ATOM     67  C   UNL A   1      42.276  26.556  27.780  1.00  0.00     0.064 A 
ATOM     68  C   UNL A   1      41.736  25.273  27.616  1.00  0.00     0.173 A 
ATOM     69  C   UNL A   1      43.242  26.983  26.857  1.00  0.00     0.173 A 
ATOM     70  F   UNL A   1      40.827  24.813  28.488  1.00  0.00    -0.203 F 
ATOM     71  C   UNL A   1      42.155  24.446  26.576  1.00  0.00     0.198 A 
ATOM     72  C   UNL A   1      43.639  26.165  25.802  1.00  0.00     0.198 A 
ATOM     73  F   UNL A   1      43.789  28.202  26.974  1.00  0.00    -0.203 F 
ATOM     74  F   UNL A   1      41.652  23.209  26.465  1.00  0.00    -0.200 F 
ATOM     75  C   UNL A   1      43.100  24.895  25.667  1.00  0.00     0.200 A 
ATOM     76  F   UNL A   1      44.543  26.608  24.919  1.00  0.00    -0.200 F 
ATOM     77  F   UNL A   1      43.498  24.101  24.664  1.00  0.00    -0.200 F 
ENDBRANCH  43  67
BRANCH  55  78
ATOM     78  C   UNL A   1      44.754  27.689  34.188  1.00  0.00     0.064 A 
ATOM     79  C   UNL A   1      44.708  26.485  34.904  1.00  0.00     0.173 A 
ATOM     80  C   UNL A   1      45.979  28.371  34.120  1.00  0.00     0.173 A 
ATOM     81  F   UNL A   1      43.556  25.805  35.007  1.00  0.00    -0.203 F 
ATOM     82  C   UNL A   1      45.843  25.987  35.538  1.00  0.00     0.198 A 
ATOM     83  C   UNL A   1      47.117  27.859  34.736  1.00  0.00     0.198 A 
ATOM     84  F   UNL A   1      46.074  29.523  33.441  1.00  0.00    -0.203 F 
ATOM     85  F   UNL A   1      45.769  24.850  36.243  1.00  0.00    -0.200 F 
ATOM     86  C   UNL A   1      47.047  26.669  35.446  1.00  0.00     0.200 A 
ATOM     87  F   UNL A   1      48.282  28.513  34.637  1.00  0.00    -0.200 F 
ATOM     88  F   UNL A   1      48.141  26.183  36.048  1.00  0.00    -0.200 F 
ENDBRANCH  55  78
ENDBRANCH  29  30
ENDBRANCH  21  24
ENDBRANCH  19  20
ENDBRANCH  18  19
ENDBRANCH   1  18
TORSDOF 13
ENDMDL
MODEL 2
REMARK VINA RESULT:     -11.6      5.984     11.120
REMARK SMILES O=C(Cc1cccn(C(F)F)c1=O)NCCCCNC(=O)c1ccc(-c2c3nc(c(-c4c(F)c(F)c(F)c(F)c4F)c4ccc([nH]4)c(-c4c(F)c(F)c(F)c(F)c4F)c4nc(c(-c5c(F)c(F)c(F)c(F)c5F)c5ccc2[nH]5)C=C4)C=C3)cc1
REMARK SMILES IDX 16 1 15 2 14 3 1 4 2 5 3 7 4 8 5 9 12 10 6 11 8 12 13 13
REMARK SMILES IDX 7 14 9 15 10 16 11 17 17 18 18 19 19 20 20 21 21 23 22 24
REMARK SMILES IDX 23 25 84 26 24 27 83 28 25 29 26 30 27 31 77 32 28 33 82 34
REMARK SMILES IDX 76 35 78 36 29 37 81 38 75 39 74 40 30 42 62 43 42 44 61 45
REMARK SMILES IDX 43 46 46 47 60 48 79 49 44 50 45 51 59 53 80 54 47 55 31 56
REMARK SMILES IDX 32 57 40 58 33 59 34 60 38 61 41 62 35 63 36 64 39 65 37 66
REMARK SMILES IDX 63 67 64 68 72 69 65 70 66 71 70 72 73 73 67 74 68 75 71 76
REMARK SMILES IDX 69 77 48 78 49 79 57 80 50 81 51 82 55 83 58 84 52 85 53 86
REMARK SMILES IDX 56 87 54 88
REMARK H PARENT 14 6 19 22 78 41 46 52
REMARK Flexibility Score: inf
ROOT
ATOM      1  C   UNL A   1      36.941  21.130  24.616  1.00  0.00     0.023 C 
ENDROOT
BRANCH   1   2
ATOM      2  C   UNL A   1      36.091  21.614  25.789  1.00  0.00     0.116 C 
BRANCH   2   3
ATOM      3  N   UNL A   1      34.739  21.092  25.753  1.00  0.00    -0.356 N 
ATOM      4  O   UNL A   1      33.918  22.657  24.281  1.00  0.00    -0.275 OA
ATOM      5  C   UNL A   1      33.754  21.650  24.962  1.00  0.00     0.224 C 
ATOM      6  H   UNL A   1      34.516  20.312  26.312  1.00  0.00     0.163 HD
BRANCH   5   7
ATOM      7  C   UNL A   1      32.450  20.864  24.957  1.00  0.00     0.141 C 
BRANCH   7   8
ATOM      8  C   UNL A   1      32.577  19.504  24.318  1.00  0.00     0.027 A 
ATOM      9  C   UNL A   1      32.518  19.228  23.001  1.00  0.00     0.011 A 
ATOM     10  C   UNL A   1      32.801  18.366  25.277  1.00  0.00     0.258 A 
ATOM     11  C   UNL A   1      32.687  17.888  22.503  1.00  0.00     0.019 A 
ATOM     12  N   UNL A   1      32.933  17.107  24.719  1.00  0.00    -0.258 N 
ATOM     13  O   UNL A   1      32.868  18.588  26.484  1.00  0.00    -0.269 OA
ATOM     14  C   UNL A   1      32.885  16.881  23.358  1.00  0.00     0.095 A 
BRANCH  12  15
ATOM     15  C   UNL A   1      33.135  15.993  25.611  1.00  0.00     0.451 C 
ATOM     16  F   UNL A   1      32.100  15.118  25.487  1.00  0.00    -0.185 F 
ATOM     17  F   UNL A   1      34.252  15.313  25.237  1.00  0.00    -0.185 F 
ENDBRANCH  12  15
ENDBRANCH   7   8
ENDBRANCH   5   7
ENDBRANCH   2   3
ENDBRANCH   1   2
BRANCH   1  18
ATOM     18  C   UNL A   1      37.850  19.935  24.911  1.00  0.00     0.023 C 
BRANCH  18  19
ATOM     19  C   UNL A   1      39.103  20.241  25.727  1.00  0.00     0.116 C 
BRANCH  19  20
ATOM     20  N   UNL A   1      40.055  19.141  25.755  1.00  0.00    -0.352 N 
ATOM     21  C   UNL A   1      41.410  19.163  26.001  1.00  0.00     0.251 C 
ATOM     22  H   UNL A   1      39.675  18.252  25.572  1.00  0.00     0.163 HD
ATOM     23  O   UNL A   1      42.076  18.141  25.867  1.00  0.00    -0.269 OA
BRANCH  21  24
ATOM     24  C   UNL A   1      42.078  20.429  26.381  1.00  0.00     0.039 A 
ATOM     25  C   UNL A   1      42.163  20.825  27.717  1.00  0.00     0.014 A 
ATOM     26  C   UNL A   1      42.606  21.246  25.376  1.00  0.00     0.014 A 
ATOM     27  C   UNL A   1      42.605  22.108  28.030  1.00  0.00     0.010 A 
ATOM     28  C   UNL A   1      43.123  22.505  25.701  1.00  0.00     0.010 A 
ATOM     29  C   UNL A   1      43.072  22.971  27.024  1.00  0.00    -0.014 A 
BRANCH  29  30
ATOM     30  C   UNL A   1      43.459  24.365  27.374  1.00  0.00     0.031 A 
ATOM     31  C   UNL A   1      44.857  24.859  27.103  1.00  0.00     0.074 A 
ATOM     32  C   UNL A   1      42.534  25.211  27.864  1.00  0.00     0.049 A 
ATOM     33  N   UNL A   1      45.369  26.047  27.314  1.00  0.00    -0.248 NA
ATOM     34  C   UNL A   1      45.807  23.899  26.516  1.00  0.00     0.031 C 
ATOM     35  C   UNL A   1      41.142  24.863  28.149  1.00  0.00     0.029 A 
ATOM     36  N   UNL A   1      42.614  26.545  28.180  1.00  0.00    -0.354 N 
ATOM     37  C   UNL A   1      46.692  25.974  26.897  1.00  0.00     0.074 A 
ATOM     38  C   UNL A   1      46.920  24.618  26.450  1.00  0.00     0.031 C 
ATOM     39  C   UNL A   1      40.486  25.965  28.544  1.00  0.00     0.029 A 
ATOM     40  C   UNL A   1      41.421  27.085  28.594  1.00  0.00     0.049 A 
ATOM     41  H   UNL A   1      43.448  27.065  28.117  1.00  0.00     0.167 HD
ATOM     42  C   UNL A   1      47.628  26.953  26.874  1.00  0.00     0.037 A 
ATOM     43  C   UNL A   1      41.115  28.339  28.979  1.00  0.00     0.037 A 
ATOM     44  C   UNL A   1      47.401  28.311  27.295  1.00  0.00     0.049 A 
ATOM     45  C   UNL A   1      42.191  29.389  28.993  1.00  0.00     0.074 A 
ATOM     46  C   UNL A   1      48.293  29.370  27.304  1.00  0.00     0.029 A 
ATOM     47  N   UNL A   1      46.194  28.799  27.767  1.00  0.00    -0.354 N 
ATOM     48  N   UNL A   1      43.439  29.301  28.606  1.00  0.00    -0.248 NA
ATOM     49  C   UNL A   1      41.815  30.714  29.510  1.00  0.00     0.031 C 
ATOM     50  C   UNL A   1      47.633  30.493  27.812  1.00  0.00     0.029 A 
ATOM     51  C   UNL A   1      46.322  30.143  28.084  1.00  0.00     0.049 A 
ATOM     52  H   UNL A   1      45.369  28.272  27.865  1.00  0.00     0.167 HD
ATOM     53  C   UNL A   1      43.993  30.555  28.818  1.00  0.00     0.074 A 
ATOM     54  C   UNL A   1      42.940  31.396  29.348  1.00  0.00     0.031 C 
ATOM     55  C   UNL A   1      45.263  30.970  28.600  1.00  0.00     0.037 A 
BRANCH  42  56
ATOM     56  C   UNL A   1      48.996  26.609  26.366  1.00  0.00     0.064 A 
ATOM     57  C   UNL A   1      49.372  26.883  25.043  1.00  0.00     0.173 A 
ATOM     58  C   UNL A   1      49.970  26.093  27.234  1.00  0.00     0.173 A 
ATOM     59  F   UNL A   1      48.473  27.366  24.173  1.00  0.00    -0.203 F 
ATOM     60  C   UNL A   1      50.674  26.652  24.608  1.00  0.00     0.198 A 
ATOM     61  C   UNL A   1      51.277  25.884  26.801  1.00  0.00     0.198 A 
ATOM     62  F   UNL A   1      49.661  25.820  28.511  1.00  0.00    -0.203 F 
ATOM     63  F   UNL A   1      51.008  26.906  23.334  1.00  0.00    -0.200 F 
ATOM     64  C   UNL A   1      51.628  26.164  25.489  1.00  0.00     0.200 A 
ATOM     65  F   UNL A   1      52.200  25.423  27.657  1.00  0.00    -0.200 F 
ATOM     66  F   UNL A   1      52.886  25.963  25.073  1.00  0.00    -0.200 F 
ENDBRANCH  42  56
BRANCH  43  67
ATOM     67  C   UNL A   1      39.724  28.673  29.379  1.00  0.00     0.064 A 
ATOM     68  C   UNL A   1      38.818  29.203  28.451  1.00  0.00     0.173 A 
ATOM     69  C   UNL A   1      39.276  28.478  30.693  1.00  0.00     0.173 A 
ATOM     70  F   UNL A   1      39.208  29.429  27.188  1.00  0.00    -0.203 F 
ATOM     71  C   UNL A   1      37.518  29.536  28.825  1.00  0.00     0.198 A 
ATOM     72  C   UNL A   1      37.968  28.785  31.060  1.00  0.00     0.198 A 
ATOM     73  F   UNL A   1      40.107  27.975  31.619  1.00  0.00    -0.203 F 
ATOM     74  F   UNL A   1      36.683  30.078  27.929  1.00  0.00    -0.200 F 
ATOM     75  C   UNL A   1      37.092  29.320  30.128  1.00  0.00     0.200 A 
ATOM     76  F   UNL A   1      37.557  28.563  32.316  1.00  0.00    -0.200 F 
ATOM     77  F   UNL A   1      35.840  29.635  30.486  1.00  0.00    -0.200 F 
ENDBRANCH  43  67
BRANCH  55  78
ATOM     78  C   UNL A   1      45.589  32.399  28.914  1.00  0.00     0.064 A 
ATOM     79  C   UNL A   1      46.123  32.768  30.156  1.00  0.00     0.173 A 
ATOM     80  C   UNL A   1      45.425  33.397  27.941  1.00  0.00     0.173 A 
ATOM     81  F   UNL A   1      46.286  31.851  31.120  1.00  0.00    -0.203 F 
ATOM     82  C   UNL A   1      46.470  34.091  30.418  1.00  0.00     0.198 A 
ATOM     83  C   UNL A   1      45.794  34.714  28.200  1.00  0.00     0.198 A 
ATOM     84  F   UNL A   1      44.924  33.090  26.736  1.00  0.00    -0.203 F 
ATOM     85  F   UNL A   1      46.950  34.429  31.623  1.00  0.00    -0.200 F 
ATOM     86  C   UNL A   1      46.313  35.060  29.438  1.00  0.00     0.200 A 
ATOM     87  F   UNL A   1      45.654  35.646  27.247  1.00  0.00    -0.200 F 
ATOM     88  F   UNL A   1      46.658  36.330  29.689  1.00  0.00    -0.200 F 
ENDBRANCH  55  78
ENDBRANCH  29  30
ENDBRANCH  21  24
ENDBRANCH  19  20
ENDBRANCH  18  19
ENDBRANCH   1  18
TORSDOF 13
ENDMDL
MODEL 3
REMARK VINA RESULT:     -11.6      1.070      7.670
REMARK SMILES O=C(Cc1cccn(C(F)F)c1=O)NCCCCNC(=O)c1ccc(-c2c3nc(c(-c4c(F)c(F)c(F)c(F)c4F)c4ccc([nH]4)c(-c4c(F)c(F)c(F)c(F)c4F)c4nc(c(-c5c(F)c(F)c(F)c(F)c5F)c5ccc2[nH]5)C=C4)C=C3)cc1
REMARK SMILES IDX 16 1 15 2 14 3 1 4 2 5 3 7 4 8 5 9 12 10 6 11 8 12 13 13
REMARK SMILES IDX 7 14 9 15 10 16 11 17 17 18 18 19 19 20 20 21 21 23 22 24
REMARK SMILES IDX 23 25 84 26 24 27 83 28 25 29 26 30 27 31 77 32 28 33 82 34
REMARK SMILES IDX 76 35 78 36 29 37 81 38 75 39 74 40 30 42 62 43 42 44 61 45
REMARK SMILES IDX 43 46 46 47 60 48 79 49 44 50 45 51 59 53 80 54 47 55 31 56
REMARK SMILES IDX 32 57 40 58 33 59 34 60 38 61 41 62 35 63 36 64 39 65 37 66
REMARK SMILES IDX 63 67 64 68 72 69 65 70 66 71 70 72 73 73 67 74 68 75 71 76
REMARK SMILES IDX 69 77 48 78 49 79 57 80 50 81 51 82 55 83 58 84 52 85 53 86
REMARK SMILES IDX 56 87 54 88
REMARK H PARENT 14 6 19 22 78 41 46 52
REMARK Flexibility Score: inf
ROOT
ATOM      1  C   UNL A   1      32.963  27.855  25.129  1.00  0.00     0.023 C 
ENDROOT
BRANCH   1   2
ATOM      2  C   UNL A   1      31.863  26.946  24.586  1.00  0.00     0.116 C 
BRANCH   2   3
ATOM      3  N   UNL A   1      30.611  27.646  24.376  1.00  0.00    -0.356 N 
ATOM      4  O   UNL A   1      30.790  27.772  22.086  1.00  0.00    -0.275 OA
ATOM      5  C   UNL A   1      30.155  27.979  23.115  1.00  0.00     0.224 C 
ATOM      6  H   UNL A   1      30.067  27.890  25.159  1.00  0.00     0.163 HD
BRANCH   5   7
ATOM      7  C   UNL A   1      28.754  28.575  23.106  1.00  0.00     0.141 C 
BRANCH   7   8
ATOM      8  C   UNL A   1      28.746  30.077  22.982  1.00  0.00     0.027 A 
ATOM      9  C   UNL A   1      29.183  30.960  23.900  1.00  0.00     0.011 A 
ATOM     10  C   UNL A   1      28.196  30.607  21.685  1.00  0.00     0.258 A 
ATOM     11  C   UNL A   1      29.155  32.378  23.656  1.00  0.00     0.019 A 
ATOM     12  N   UNL A   1      28.186  31.983  21.537  1.00  0.00    -0.258 N 
ATOM     13  O   UNL A   1      27.797  29.826  20.824  1.00  0.00    -0.269 OA
ATOM     14  C   UNL A   1      28.666  32.845  22.504  1.00  0.00     0.095 A 
BRANCH  12  15
ATOM     15  C   UNL A   1      27.653  32.525  20.312  1.00  0.00     0.451 C 
ATOM     16  F   UNL A   1      27.285  33.820  20.510  1.00  0.00    -0.185 F 
ATOM     17  F   UNL A   1      28.632  32.551  19.368  1.00  0.00    -0.185 F 
ENDBRANCH  12  15
ENDBRANCH   7   8
ENDBRANCH   5   7
ENDBRANCH   2   3
ENDBRANCH   1   2
BRANCH   1  18
ATOM     18  C   UNL A   1      32.597  29.337  25.240  1.00  0.00     0.023 C 
BRANCH  18  19
ATOM     19  C   UNL A   1      32.229  29.826  26.637  1.00  0.00     0.116 C 
BRANCH  19  20
ATOM     20  N   UNL A   1      32.225  31.276  26.759  1.00  0.00    -0.352 N 
ATOM     21  C   UNL A   1      33.153  32.108  27.343  1.00  0.00     0.251 C 
ATOM     22  H   UNL A   1      31.444  31.728  26.366  1.00  0.00     0.163 HD
ATOM     23  O   UNL A   1      32.922  33.309  27.452  1.00  0.00    -0.269 OA
BRANCH  21  24
ATOM     24  C   UNL A   1      34.415  31.553  27.884  1.00  0.00     0.039 A 
ATOM     25  C   UNL A   1      34.530  30.198  28.196  1.00  0.00     0.014 A 
ATOM     26  C   UNL A   1      35.495  32.414  28.108  1.00  0.00     0.014 A 
ATOM     27  C   UNL A   1      35.645  29.742  28.895  1.00  0.00     0.010 A 
ATOM     28  C   UNL A   1      36.649  31.937  28.740  1.00  0.00     0.010 A 
ATOM     29  C   UNL A   1      36.709  30.611  29.192  1.00  0.00    -0.014 A 
BRANCH  29  30
ATOM     30  C   UNL A   1      37.851  30.120  30.012  1.00  0.00     0.031 A 
ATOM     31  C   UNL A   1      38.894  29.216  29.405  1.00  0.00     0.074 A 
ATOM     32  C   UNL A   1      37.993  30.547  31.281  1.00  0.00     0.049 A 
ATOM     33  N   UNL A   1      39.972  28.712  29.955  1.00  0.00    -0.248 NA
ATOM     34  C   UNL A   1      38.708  28.828  27.997  1.00  0.00     0.031 C 
ATOM     35  C   UNL A   1      37.066  31.440  31.977  1.00  0.00     0.029 A 
ATOM     36  N   UNL A   1      38.985  30.315  32.202  1.00  0.00    -0.354 N 
ATOM     37  C   UNL A   1      40.582  27.946  28.970  1.00  0.00     0.074 A 
ATOM     38  C   UNL A   1      39.742  28.022  27.795  1.00  0.00     0.031 C 
ATOM     39  C   UNL A   1      37.561  31.725  33.192  1.00  0.00     0.029 A 
ATOM     40  C   UNL A   1      38.808  30.991  33.383  1.00  0.00     0.049 A 
ATOM     41  H   UNL A   1      39.750  29.719  32.030  1.00  0.00     0.167 HD
ATOM     42  C   UNL A   1      41.746  27.256  29.033  1.00  0.00     0.037 A 
ATOM     43  C   UNL A   1      39.562  31.014  34.499  1.00  0.00     0.037 A 
ATOM     44  C   UNL A   1      42.598  27.197  30.192  1.00  0.00     0.049 A 
ATOM     45  C   UNL A   1      40.820  30.193  34.557  1.00  0.00     0.074 A 
ATOM     46  C   UNL A   1      43.798  26.522  30.344  1.00  0.00     0.029 A 
ATOM     47  N   UNL A   1      42.349  27.846  31.390  1.00  0.00    -0.354 N 
ATOM     48  N   UNL A   1      41.377  29.466  33.620  1.00  0.00    -0.248 NA
ATOM     49  C   UNL A   1      41.549  30.188  35.834  1.00  0.00     0.031 C 
ATOM     50  C   UNL A   1      44.260  26.738  31.646  1.00  0.00     0.029 A 
ATOM     51  C   UNL A   1      43.367  27.577  32.291  1.00  0.00     0.049 A 
ATOM     52  H   UNL A   1      41.566  28.413  31.574  1.00  0.00     0.167 HD
ATOM     53  C   UNL A   1      42.525  28.931  34.187  1.00  0.00     0.074 A 
ATOM     54  C   UNL A   1      42.598  29.432  35.543  1.00  0.00     0.031 C 
ATOM     55  C   UNL A   1      43.432  28.091  33.634  1.00  0.00     0.037 A 
BRANCH  42  56
ATOM     56  C   UNL A   1      42.189  26.507  27.812  1.00  0.00     0.064 A 
ATOM     57  C   UNL A   1      43.098  27.069  26.904  1.00  0.00     0.173 A 
ATOM     58  C   UNL A   1      41.780  25.182  27.601  1.00  0.00     0.173 A 
ATOM     59  F   UNL A   1      43.510  28.336  27.057  1.00  0.00    -0.203 F 
ATOM     60  C   UNL A   1      43.581  26.330  25.828  1.00  0.00     0.198 A 
ATOM     61  C   UNL A   1      42.281  24.439  26.535  1.00  0.00     0.198 A 
ATOM     62  F   UNL A   1      40.916  24.599  28.446  1.00  0.00    -0.203 F 
ATOM     63  F   UNL A   1      44.437  26.891  24.962  1.00  0.00    -0.200 F 
ATOM     64  C   UNL A   1      43.181  25.013  25.650  1.00  0.00     0.200 A 
ATOM     65  F   UNL A   1      41.903  23.163  26.373  1.00  0.00    -0.200 F 
ATOM     66  F   UNL A   1      43.664  24.297  24.625  1.00  0.00    -0.200 F 
ENDBRANCH  42  56
BRANCH  43  67
ATOM     67  C   UNL A   1      39.148  31.848  35.657  1.00  0.00     0.064 A 
ATOM     68  C   UNL A   1      38.287  31.337  36.638  1.00  0.00     0.173 A 
ATOM     69  C   UNL A   1      39.598  33.168  35.804  1.00  0.00     0.173 A 
ATOM     70  F   UNL A   1      37.812  30.088  36.528  1.00  0.00    -0.203 F 
ATOM     71  C   UNL A   1      37.881  32.121  37.716  1.00  0.00     0.198 A 
ATOM     72  C   UNL A   1      39.214  33.941  36.897  1.00  0.00     0.198 A 
ATOM     73  F   UNL A   1      40.422  33.702  34.891  1.00  0.00    -0.203 F 
ATOM     74  F   UNL A   1      37.026  31.623  38.619  1.00  0.00    -0.200 F 
ATOM     75  C   UNL A   1      38.351  33.420  37.848  1.00  0.00     0.200 A 
ATOM     76  F   UNL A   1      39.680  35.190  37.027  1.00  0.00    -0.200 F 
ATOM     77  F   UNL A   1      37.965  34.171  38.889  1.00  0.00    -0.200 F 
ENDBRANCH  43  67
BRANCH  55  78
ATOM     78  C   UNL A   1      44.595  27.672  34.482  1.00  0.00     0.064 A 
ATOM     79  C   UNL A   1      44.551  26.501  35.251  1.00  0.00     0.173 A 
ATOM     80  C   UNL A   1      45.786  28.414  34.475  1.00  0.00     0.173 A 
ATOM     81  F   UNL A   1      43.430  25.767  35.298  1.00  0.00    -0.203 F 
ATOM     82  C   UNL A   1      45.655  26.094  35.994  1.00  0.00     0.198 A 
ATOM     83  C   UNL A   1      46.895  27.992  35.201  1.00  0.00     0.198 A 
ATOM     84  F   UNL A   1      45.877  29.538  33.749  1.00  0.00    -0.203 F 
ATOM     85  F   UNL A   1      45.582  24.988  36.748  1.00  0.00    -0.200 F 
ATOM     86  C   UNL A   1      46.828  26.834  35.962  1.00  0.00     0.200 A 
ATOM     87  F   UNL A   1      48.031  28.701  35.160  1.00  0.00    -0.200 F 
ATOM     88  F   UNL A   1      47.893  26.434  36.670  1.00  0.00    -0.200 F 
ENDBRANCH  55  78
ENDBRANCH  29  30
ENDBRANCH  21  24
ENDBRANCH  19  20
ENDBRANCH  18  19
ENDBRANCH   1  18
TORSDOF 13
ENDMDL
