MODEL 1
REMARK VINA RESULT:     -12.5      0.000      0.000
REMARK SMILES O=C(NCCCCNC(=O)c1cccc(CS(=O)(=O)Nc2ncccn2)c1)c1ccc(-c2c3nc(c(-c4c(F)c(F)c(F)c(F)c4F)c4ccc([nH]4)c(-c4c(F)c(F)c(F)c(F)c4F)c4nc(c(-c5c(F)c(F)c(F)c(F)c5F)c5ccc2[nH]5)C=C4)C=C3)cc1
REMARK SMILES IDX 6 1 5 2 4 3 3 4 1 5 2 6 28 8 29 9 90 10 30 11 89 12 31 13
REMARK SMILES IDX 32 14 33 15 83 16 34 17 88 18 82 19 84 20 35 21 87 22 81 23
REMARK SMILES IDX 80 24 36 26 68 27 48 28 67 29 49 30 52 31 66 32 85 33 50 34
REMARK SMILES IDX 51 35 65 37 86 38 53 39 37 40 38 41 46 42 39 43 40 44 44 45
REMARK SMILES IDX 47 46 41 47 42 48 45 49 43 50 69 51 70 52 78 53 71 54 72 55
REMARK SMILES IDX 76 56 79 57 73 58 74 59 77 60 75 61 54 62 55 63 63 64 56 65
REMARK SMILES IDX 57 66 61 67 64 68 58 69 59 70 62 71 60 72 7 73 8 74 9 75
REMARK SMILES IDX 10 77 11 78 12 79 27 80 13 81 15 82 14 83 16 84 17 85 18 86
REMARK SMILES IDX 19 87 20 88 21 90 22 91 26 92 23 93 25 94 24 95
REMARK H PARENT 3 7 84 25 52 36 8 76 20 89
REMARK Flexibility Score: inf
ROOT
ATOM      1  C   UNL A   1      33.075  29.158  23.920  1.00  0.00     0.023 C 
ENDROOT
BRANCH   1   2
ATOM      2  C   UNL A   1      32.121  28.927  25.088  1.00  0.00     0.023 C 
BRANCH   2   3
ATOM      3  C   UNL A   1      32.617  29.426  26.438  1.00  0.00     0.116 C 
BRANCH   3   4
ATOM      4  N   UNL A   1      32.428  30.859  26.623  1.00  0.00    -0.352 N 
ATOM      5  O   UNL A   1      32.844  32.925  27.439  1.00  0.00    -0.269 OA
ATOM      6  C   UNL A   1      33.232  31.774  27.262  1.00  0.00     0.251 C 
ATOM      7  H   UNL A   1      31.602  31.226  26.232  1.00  0.00     0.163 HD
BRANCH   6   8
ATOM      8  C   UNL A   1      34.554  31.353  27.768  1.00  0.00     0.039 A 
ATOM      9  C   UNL A   1      34.771  30.035  28.165  1.00  0.00     0.014 A 
ATOM     10  C   UNL A   1      35.575  32.302  27.885  1.00  0.00     0.014 A 
ATOM     11  C   UNL A   1      35.931  29.710  28.856  1.00  0.00     0.010 A 
ATOM     12  C   UNL A   1      36.783  31.946  28.491  1.00  0.00     0.010 A 
ATOM     13  C   UNL A   1      36.949  30.663  29.032  1.00  0.00    -0.014 A 
BRANCH  13  14
ATOM     14  C   UNL A   1      38.175  30.276  29.778  1.00  0.00     0.031 A 
ATOM     15  C   UNL A   1      38.378  30.695  31.210  1.00  0.00     0.074 A 
ATOM     16  C   UNL A   1      39.080  29.485  29.172  1.00  0.00     0.049 A 
ATOM     17  N   UNL A   1      39.357  30.393  32.026  1.00  0.00    -0.248 NA
ATOM     18  C   UNL A   1      37.358  31.572  31.803  1.00  0.00     0.031 C 
ATOM     19  C   UNL A   1      38.996  29.024  27.784  1.00  0.00     0.029 A 
ATOM     20  N   UNL A   1      40.226  28.902  29.647  1.00  0.00    -0.354 N 
ATOM     21  C   UNL A   1      39.090  31.065  33.212  1.00  0.00     0.074 A 
ATOM     22  C   UNL A   1      37.863  31.806  33.007  1.00  0.00     0.031 C 
ATOM     23  C   UNL A   1      40.008  28.179  27.540  1.00  0.00     0.029 A 
ATOM     24  C   UNL A   1      40.843  28.085  28.732  1.00  0.00     0.049 A 
ATOM     25  H   UNL A   1      40.572  29.053  30.556  1.00  0.00     0.167 HD
ATOM     26  C   UNL A   1      39.799  31.058  34.366  1.00  0.00     0.037 A 
ATOM     27  C   UNL A   1      41.959  27.341  28.839  1.00  0.00     0.037 A 
ATOM     28  C   UNL A   1      40.998  30.289  34.579  1.00  0.00     0.049 A 
ATOM     29  C   UNL A   1      42.715  27.341  30.137  1.00  0.00     0.074 A 
ATOM     30  C   UNL A   1      41.764  30.182  35.729  1.00  0.00     0.029 A 
ATOM     31  N   UNL A   1      41.605  29.491  33.620  1.00  0.00    -0.354 N 
ATOM     32  N   UNL A   1      42.433  27.958  31.258  1.00  0.00    -0.248 NA
ATOM     33  C   UNL A   1      43.946  26.542  30.181  1.00  0.00     0.031 C 
ATOM     34  C   UNL A   1      42.855  29.349  35.454  1.00  0.00     0.029 A 
ATOM     35  C   UNL A   1      42.745  28.902  34.146  1.00  0.00     0.049 A 
ATOM     36  H   UNL A   1      41.276  29.362  32.702  1.00  0.00     0.167 HD
ATOM     37  C   UNL A   1      43.439  27.611  32.146  1.00  0.00     0.074 A 
ATOM     38  C   UNL A   1      44.327  26.710  31.439  1.00  0.00     0.031 C 
ATOM     39  C   UNL A   1      43.614  28.004  33.431  1.00  0.00     0.037 A 
BRANCH  26  40
ATOM     40  C   UNL A   1      39.309  31.922  35.493  1.00  0.00     0.064 A 
ATOM     41  C   UNL A   1      38.432  31.435  36.472  1.00  0.00     0.173 A 
ATOM     42  C   UNL A   1      39.763  33.244  35.618  1.00  0.00     0.173 A 
ATOM     43  F   UNL A   1      37.958  30.183  36.392  1.00  0.00    -0.203 F 
ATOM     44  C   UNL A   1      38.012  32.246  37.525  1.00  0.00     0.198 A 
ATOM     45  C   UNL A   1      39.362  34.044  36.684  1.00  0.00     0.198 A 
ATOM     46  F   UNL A   1      40.608  33.758  34.711  1.00  0.00    -0.203 F 
ATOM     47  F   UNL A   1      37.143  31.772  38.428  1.00  0.00    -0.200 F 
ATOM     48  C   UNL A   1      38.482  33.546  37.633  1.00  0.00     0.200 A 
ATOM     49  F   UNL A   1      39.825  35.297  36.794  1.00  0.00    -0.200 F 
ATOM     50  F   UNL A   1      38.082  34.322  38.651  1.00  0.00    -0.200 F 
ENDBRANCH  26  40
BRANCH  27  51
ATOM     51  C   UNL A   1      42.413  26.526  27.686  1.00  0.00     0.064 A 
ATOM     52  C   UNL A   1      43.348  27.030  26.772  1.00  0.00     0.173 A 
ATOM     53  C   UNL A   1      41.938  25.221  27.485  1.00  0.00     0.173 A 
ATOM     54  F   UNL A   1      43.818  28.277  26.915  1.00  0.00    -0.203 F 
ATOM     55  C   UNL A   1      43.783  26.262  25.693  1.00  0.00     0.198 A 
ATOM     56  C   UNL A   1      42.394  24.446  26.422  1.00  0.00     0.198 A 
ATOM     57  F   UNL A   1      41.047  24.693  28.336  1.00  0.00    -0.203 F 
ATOM     58  F   UNL A   1      44.652  26.780  24.815  1.00  0.00    -0.200 F 
ATOM     59  C   UNL A   1      43.312  24.970  25.524  1.00  0.00     0.200 A 
ATOM     60  F   UNL A   1      41.951  23.191  26.272  1.00  0.00    -0.200 F 
ATOM     61  F   UNL A   1      43.740  24.229  24.492  1.00  0.00    -0.200 F 
ENDBRANCH  27  51
BRANCH  39  62
ATOM     62  C   UNL A   1      44.795  27.438  34.160  1.00  0.00     0.064 A 
ATOM     63  C   UNL A   1      46.032  28.098  34.179  1.00  0.00     0.173 A 
ATOM     64  C   UNL A   1      44.683  26.227  34.858  1.00  0.00     0.173 A 
ATOM     65  F   UNL A   1      46.193  29.251  33.511  1.00  0.00    -0.203 F 
ATOM     66  C   UNL A   1      47.124  27.551  34.847  1.00  0.00     0.198 A 
ATOM     67  C   UNL A   1      45.769  25.696  35.548  1.00  0.00     0.198 A 
ATOM     68  F   UNL A   1      43.519  25.560  34.873  1.00  0.00    -0.203 F 
ATOM     69  F   UNL A   1      48.311  28.173  34.811  1.00  0.00    -0.200 F 
ATOM     70  C   UNL A   1      46.990  26.353  35.535  1.00  0.00     0.200 A 
ATOM     71  F   UNL A   1      45.636  24.544  36.220  1.00  0.00    -0.200 F 
ATOM     72  F   UNL A   1      48.042  25.828  36.177  1.00  0.00    -0.200 F 
ENDBRANCH  39  62
ENDBRANCH  13  14
ENDBRANCH   6   8
ENDBRANCH   3   4
ENDBRANCH   2   3
ENDBRANCH   1   2
BRANCH   1  73
ATOM     73  C   UNL A   1      34.026  28.004  23.624  1.00  0.00     0.116 C 
BRANCH  73  74
ATOM     74  N   UNL A   1      33.849  27.469  22.284  1.00  0.00    -0.352 N 
ATOM     75  C   UNL A   1      33.190  26.328  21.897  1.00  0.00     0.251 C 
ATOM     76  H   UNL A   1      34.255  27.994  21.557  1.00  0.00     0.163 HD
ATOM     77  O   UNL A   1      33.235  25.954  20.730  1.00  0.00    -0.269 OA
BRANCH  75  78
ATOM     78  C   UNL A   1      32.396  25.573  22.885  1.00  0.00     0.040 A 
ATOM     79  C   UNL A   1      31.038  25.841  23.038  1.00  0.00     0.014 A 
ATOM     80  C   UNL A   1      33.029  24.639  23.711  1.00  0.00     0.018 A 
ATOM     81  C   UNL A   1      30.308  25.132  23.993  1.00  0.00     0.001 A 
ATOM     82  C   UNL A   1      32.314  23.948  24.699  1.00  0.00    -0.030 A 
ATOM     83  C   UNL A   1      30.938  24.185  24.810  1.00  0.00     0.005 A 
BRANCH  82  84
ATOM     84  C   UNL A   1      33.052  22.946  25.542  1.00  0.00     0.195 C 
BRANCH  84  85
ATOM     85  S   UNL A   1      33.631  21.494  24.651  1.00  0.00     0.239 S 
ATOM     86  O   UNL A   1      32.617  21.099  23.691  1.00  0.00    -0.206 OA
ATOM     87  O   UNL A   1      34.957  21.813  24.152  1.00  0.00    -0.206 OA
BRANCH  85  88
ATOM     88  N   UNL A   1      33.846  20.204  25.675  1.00  0.00    -0.251 N 
ATOM     89  H   UNL A   1      34.143  20.334  26.605  1.00  0.00     0.183 HD
BRANCH  88  90
ATOM     90  C   UNL A   1      33.590  18.929  25.170  1.00  0.00     0.236 A 
ATOM     91  N   UNL A   1      32.478  18.320  25.578  1.00  0.00    -0.221 NA
ATOM     92  N   UNL A   1      34.556  18.403  24.416  1.00  0.00    -0.221 NA
ATOM     93  C   UNL A   1      32.344  17.041  25.169  1.00  0.00     0.117 A 
ATOM     94  C   UNL A   1      34.363  17.133  24.014  1.00  0.00     0.117 A 
ATOM     95  C   UNL A   1      33.261  16.393  24.370  1.00  0.00     0.040 A 
ENDBRANCH  88  90
ENDBRANCH  85  88
ENDBRANCH  84  85
ENDBRANCH  82  84
ENDBRANCH  75  78
ENDBRANCH  73  74
ENDBRANCH   1  73
TORSDOF 15
ENDMDL
MODEL 2
REMARK VINA RESULT:     -12.4      2.261      3.823
REMARK SMILES O=C(NCCCCNC(=O)c1cccc(CS(=O)(=O)Nc2ncccn2)c1)c1ccc(-c2c3nc(c(-c4c(F)c(F)c(F)c(F)c4F)c4ccc([nH]4)c(-c4c(F)c(F)c(F)c(F)c4F)c4nc(c(-c5c(F)c(F)c(F)c(F)c5F)c5ccc2[nH]5)C=C4)C=C3)cc1
REMARK SMILES IDX 6 1 5 2 4 3 3 4 1 5 2 6 28 8 29 9 90 10 30 11 89 12 31 13
REMARK SMILES IDX 32 14 33 15 83 16 34 17 88 18 82 19 84 20 35 21 87 22 81 23
REMARK SMILES IDX 80 24 36 26 68 27 48 28 67 29 49 30 52 31 66 32 85 33 50 34
REMARK SMILES IDX 51 35 65 37 86 38 53 39 37 40 38 41 46 42 39 43 40 44 44 45
REMARK SMILES IDX 47 46 41 47 42 48 45 49 43 50 69 51 70 52 78 53 71 54 72 55
REMARK SMILES IDX 76 56 79 57 73 58 74 59 77 60 75 61 54 62 55 63 63 64 56 65
REMARK SMILES IDX 57 66 61 67 64 68 58 69 59 70 62 71 60 72 7 73 8 74 9 75
REMARK SMILES IDX 10 77 11 78 12 79 27 80 13 81 15 82 14 83 16 84 17 85 18 86
REMARK SMILES IDX 19 87 20 88 21 90 22 91 26 92 23 93 25 94 24 95
REMARK H PARENT 3 7 84 25 52 36 8 76 20 89
REMARK Flexibility Score: inf
ROOT
ATOM      1  C   UNL A   1      31.707  30.785  26.216  1.00  0.00     0.023 C 
ENDROOT
BRANCH   1   2
ATOM      2  C   UNL A   1      31.424  32.132  26.874  1.00  0.00     0.023 C 
BRANCH   2   3
ATOM      3  C   UNL A   1      32.652  32.873  27.385  1.00  0.00     0.116 C 
BRANCH   3   4
ATOM      4  N   UNL A   1      32.391  34.275  27.682  1.00  0.00    -0.352 N 
ATOM      5  O   UNL A   1      32.550  36.228  28.808  1.00  0.00    -0.269 OA
ATOM      6  C   UNL A   1      32.995  35.104  28.599  1.00  0.00     0.251 C 
ATOM      7  H   UNL A   1      31.677  34.691  27.147  1.00  0.00     0.163 HD
BRANCH   6   8
ATOM      8  C   UNL A   1      34.164  34.619  29.361  1.00  0.00     0.039 A 
ATOM      9  C   UNL A   1      35.457  34.849  28.892  1.00  0.00     0.014 A 
ATOM     10  C   UNL A   1      33.960  33.888  30.536  1.00  0.00     0.014 A 
ATOM     11  C   UNL A   1      36.526  34.189  29.482  1.00  0.00     0.010 A 
ATOM     12  C   UNL A   1      35.051  33.307  31.187  1.00  0.00     0.010 A 
ATOM     13  C   UNL A   1      36.337  33.406  30.634  1.00  0.00    -0.014 A 
BRANCH  13  14
ATOM     14  C   UNL A   1      37.507  32.714  31.234  1.00  0.00     0.031 A 
ATOM     15  C   UNL A   1      37.968  33.036  32.630  1.00  0.00     0.074 A 
ATOM     16  C   UNL A   1      38.118  31.743  30.528  1.00  0.00     0.049 A 
ATOM     17  N   UNL A   1      38.931  32.485  33.328  1.00  0.00    -0.248 NA
ATOM     18  C   UNL A   1      37.268  34.119  33.336  1.00  0.00     0.031 C 
ATOM     19  C   UNL A   1      37.766  31.351  29.162  1.00  0.00     0.029 A 
ATOM     20  N   UNL A   1      39.133  30.888  30.869  1.00  0.00    -0.354 N 
ATOM     21  C   UNL A   1      38.972  33.172  34.535  1.00  0.00     0.074 A 
ATOM     22  C   UNL A   1      37.949  34.193  34.471  1.00  0.00     0.031 C 
ATOM     23  C   UNL A   1      38.507  30.292  28.805  1.00  0.00     0.029 A 
ATOM     24  C   UNL A   1      39.424  29.969  29.892  1.00  0.00     0.049 A 
ATOM     25  H   UNL A   1      39.607  30.928  31.731  1.00  0.00     0.167 HD
ATOM     26  C   UNL A   1      39.785  32.964  35.598  1.00  0.00     0.037 A 
ATOM     27  C   UNL A   1      40.330  28.974  29.870  1.00  0.00     0.037 A 
ATOM     28  C   UNL A   1      40.777  31.922  35.673  1.00  0.00     0.049 A 
ATOM     29  C   UNL A   1      41.205  28.758  31.071  1.00  0.00     0.074 A 
ATOM     30  C   UNL A   1      41.619  31.604  36.725  1.00  0.00     0.029 A 
ATOM     31  N   UNL A   1      41.057  31.025  34.652  1.00  0.00    -0.354 N 
ATOM     32  N   UNL A   1      41.211  29.397  32.215  1.00  0.00    -0.248 NA
ATOM     33  C   UNL A   1      42.201  27.683  30.974  1.00  0.00     0.031 C 
ATOM     34  C   UNL A   1      42.435  30.538  36.329  1.00  0.00     0.029 A 
ATOM     35  C   UNL A   1      42.071  30.164  35.044  1.00  0.00     0.049 A 
ATOM     36  H   UNL A   1      40.605  31.003  33.779  1.00  0.00     0.167 HD
ATOM     37  C   UNL A   1      42.197  28.793  32.981  1.00  0.00     0.074 A 
ATOM     38  C   UNL A   1      42.752  27.722  32.179  1.00  0.00     0.031 C 
ATOM     39  C   UNL A   1      42.608  29.100  34.235  1.00  0.00     0.037 A 
BRANCH  26  40
ATOM     40  C   UNL A   1      39.652  33.893  36.771  1.00  0.00     0.064 A 
ATOM     41  C   UNL A   1      40.282  35.144  36.800  1.00  0.00     0.173 A 
ATOM     42  C   UNL A   1      38.841  33.541  37.862  1.00  0.00     0.173 A 
ATOM     43  F   UNL A   1      41.079  35.523  35.789  1.00  0.00    -0.203 F 
ATOM     44  C   UNL A   1      40.122  36.003  37.886  1.00  0.00     0.198 A 
ATOM     45  C   UNL A   1      38.662  34.411  38.934  1.00  0.00     0.198 A 
ATOM     46  F   UNL A   1      38.210  32.358  37.882  1.00  0.00    -0.203 F 
ATOM     47  F   UNL A   1      40.765  37.178  37.910  1.00  0.00    -0.200 F 
ATOM     48  C   UNL A   1      39.308  35.638  38.948  1.00  0.00     0.200 A 
ATOM     49  F   UNL A   1      37.867  34.063  39.954  1.00  0.00    -0.200 F 
ATOM     50  F   UNL A   1      39.149  36.469  39.989  1.00  0.00    -0.200 F 
ENDBRANCH  26  40
BRANCH  27  51
ATOM     51  C   UNL A   1      40.436  28.102  28.674  1.00  0.00     0.064 A 
ATOM     52  C   UNL A   1      39.765  26.873  28.619  1.00  0.00     0.173 A 
ATOM     53  C   UNL A   1      41.191  28.487  27.557  1.00  0.00     0.173 A 
ATOM     54  F   UNL A   1      39.044  26.456  29.670  1.00  0.00    -0.203 F 
ATOM     55  C   UNL A   1      39.854  26.056  27.494  1.00  0.00     0.198 A 
ATOM     56  C   UNL A   1      41.257  27.683  26.422  1.00  0.00     0.198 A 
ATOM     57  F   UNL A   1      41.845  29.658  27.560  1.00  0.00    -0.203 F 
ATOM     58  F   UNL A   1      39.231  24.871  27.479  1.00  0.00    -0.200 F 
ATOM     59  C   UNL A   1      40.594  26.465  26.394  1.00  0.00     0.200 A 
ATOM     60  F   UNL A   1      41.957  28.089  25.356  1.00  0.00    -0.200 F 
ATOM     61  F   UNL A   1      40.670  25.684  25.308  1.00  0.00    -0.200 F 
ENDBRANCH  27  51
BRANCH  39  62
ATOM     62  C   UNL A   1      43.690  28.246  34.824  1.00  0.00     0.064 A 
ATOM     63  C   UNL A   1      43.396  27.072  35.531  1.00  0.00     0.173 A 
ATOM     64  C   UNL A   1      45.038  28.600  34.665  1.00  0.00     0.173 A 
ATOM     65  F   UNL A   1      42.121  26.701  35.725  1.00  0.00    -0.203 F 
ATOM     66  C   UNL A   1      44.412  26.298  36.086  1.00  0.00     0.198 A 
ATOM     67  C   UNL A   1      46.053  27.810  35.197  1.00  0.00     0.198 A 
ATOM     68  F   UNL A   1      45.371  29.712  33.992  1.00  0.00    -0.203 F 
ATOM     69  F   UNL A   1      44.106  25.207  36.802  1.00  0.00    -0.200 F 
ATOM     70  C   UNL A   1      45.739  26.665  35.914  1.00  0.00     0.200 A 
ATOM     71  F   UNL A   1      47.334  28.160  35.023  1.00  0.00    -0.200 F 
ATOM     72  F   UNL A   1      46.715  25.919  36.448  1.00  0.00    -0.200 F 
ENDBRANCH  39  62
ENDBRANCH  13  14
ENDBRANCH   6   8
ENDBRANCH   3   4
ENDBRANCH   2   3
ENDBRANCH   1   2
BRANCH   1  73
ATOM     73  C   UNL A   1      31.964  29.634  27.182  1.00  0.00     0.116 C 
BRANCH  73  74
ATOM     74  N   UNL A   1      33.376  29.468  27.486  1.00  0.00    -0.352 N 
ATOM     75  C   UNL A   1      34.317  28.734  26.808  1.00  0.00     0.251 C 
ATOM     76  H   UNL A   1      33.700  29.947  28.283  1.00  0.00     0.163 HD
ATOM     77  O   UNL A   1      35.447  28.603  27.266  1.00  0.00    -0.269 OA
BRANCH  75  78
ATOM     78  C   UNL A   1      33.974  28.133  25.505  1.00  0.00     0.040 A 
ATOM     79  C   UNL A   1      34.018  28.906  24.348  1.00  0.00     0.014 A 
ATOM     80  C   UNL A   1      33.540  26.805  25.450  1.00  0.00     0.018 A 
ATOM     81  C   UNL A   1      33.669  28.326  23.127  1.00  0.00     0.001 A 
ATOM     82  C   UNL A   1      33.151  26.223  24.236  1.00  0.00    -0.030 A 
ATOM     83  C   UNL A   1      33.249  26.992  23.069  1.00  0.00     0.005 A 
BRANCH  82  84
ATOM     84  C   UNL A   1      32.709  24.785  24.245  1.00  0.00     0.195 C 
BRANCH  84  85
ATOM     85  S   UNL A   1      30.947  24.541  24.520  1.00  0.00     0.239 S 
ATOM     86  O   UNL A   1      30.420  25.695  25.226  1.00  0.00    -0.206 OA
ATOM     87  O   UNL A   1      30.367  24.206  23.232  1.00  0.00    -0.206 OA
BRANCH  85  88
ATOM     88  N   UNL A   1      30.666  23.220  25.486  1.00  0.00    -0.251 N 
ATOM     89  H   UNL A   1      29.754  22.876  25.629  1.00  0.00     0.183 HD
BRANCH  88  90
ATOM     90  C   UNL A   1      31.769  22.614  26.088  1.00  0.00     0.236 A 
ATOM     91  N   UNL A   1      32.322  21.581  25.454  1.00  0.00    -0.221 NA
ATOM     92  N   UNL A   1      32.082  23.062  27.304  1.00  0.00    -0.221 NA
ATOM     93  C   UNL A   1      33.297  20.946  26.138  1.00  0.00     0.117 A 
ATOM     94  C   UNL A   1      33.076  22.410  27.934  1.00  0.00     0.117 A 
ATOM     95  C   UNL A   1      33.725  21.327  27.391  1.00  0.00     0.040 A 
ENDBRANCH  88  90
ENDBRANCH  85  88
ENDBRANCH  84  85
ENDBRANCH  82  84
ENDBRANCH  75  78
ENDBRANCH  73  74
ENDBRANCH   1  73
TORSDOF 15
ENDMDL
MODEL 3
REMARK VINA RESULT:     -12.4      0.822      1.982
REMARK SMILES O=C(NCCCCNC(=O)c1cccc(CS(=O)(=O)Nc2ncccn2)c1)c1ccc(-c2c3nc(c(-c4c(F)c(F)c(F)c(F)c4F)c4ccc([nH]4)c(-c4c(F)c(F)c(F)c(F)c4F)c4nc(c(-c5c(F)c(F)c(F)c(F)c5F)c5ccc2[nH]5)C=C4)C=C3)cc1
REMARK SMILES IDX 6 1 5 2 4 3 3 4 1 5 2 6 28 8 29 9 90 10 30 11 89 12 31 13
REMARK SMILES IDX 32 14 33 15 83 16 34 17 88 18 82 19 84 20 35 21 87 22 81 23
REMARK SMILES IDX 80 24 36 26 68 27 48 28 67 29 49 30 52 31 66 32 85 33 50 34
REMARK SMILES IDX 51 35 65 37 86 38 53 39 37 40 38 41 46 42 39 43 40 44 44 45
REMARK SMILES IDX 47 46 41 47 42 48 45 49 43 50 69 51 70 52 78 53 71 54 72 55
REMARK SMILES IDX 76 56 79 57 73 58 74 59 77 60 75 61 54 62 55 63 63 64 56 65
REMARK SMILES IDX 57 66 61 67 64 68 58 69 59 70 62 71 60 72 7 73 8 74 9 75
REMARK SMILES IDX 10 77 11 78 12 79 27 80 13 81 15 82 14 83 16 84 17 85 18 86
REMARK SMILES IDX 19 87 20 88 21 90 22 91 26 92 23 93 25 94 24 95
REMARK H PARENT 3 7 84 25 52 36 8 76 20 89
REMARK Flexibility Score: inf
ROOT
ATOM      1  C   UNL A   1      31.038  28.411  24.676  1.00  0.00     0.023 C 
ENDROOT
BRANCH   1   2
ATOM      2  C   UNL A   1      32.236  29.350  24.590  1.00  0.00     0.023 C 
BRANCH   2   3
ATOM      3  C   UNL A   1      32.883  29.699  25.923  1.00  0.00     0.116 C 
BRANCH   3   4
ATOM      4  N   UNL A   1      32.569  31.047  26.377  1.00  0.00    -0.352 N 
ATOM      5  O   UNL A   1      32.767  32.923  27.621  1.00  0.00    -0.269 OA
ATOM      6  C   UNL A   1      33.255  31.861  27.247  1.00  0.00     0.251 C 
ATOM      7  H   UNL A   1      31.744  31.433  26.004  1.00  0.00     0.163 HD
BRANCH   6   8
ATOM      8  C   UNL A   1      34.572  31.432  27.761  1.00  0.00     0.039 A 
ATOM      9  C   UNL A   1      34.791  30.103  28.120  1.00  0.00     0.014 A 
ATOM     10  C   UNL A   1      35.585  32.382  27.924  1.00  0.00     0.014 A 
ATOM     11  C   UNL A   1      35.941  29.763  28.819  1.00  0.00     0.010 A 
ATOM     12  C   UNL A   1      36.785  32.014  28.539  1.00  0.00     0.010 A 
ATOM     13  C   UNL A   1      36.951  30.715  29.041  1.00  0.00    -0.014 A 
BRANCH  13  14
ATOM     14  C   UNL A   1      38.166  30.311  29.795  1.00  0.00     0.031 A 
ATOM     15  C   UNL A   1      38.373  30.739  31.224  1.00  0.00     0.074 A 
ATOM     16  C   UNL A   1      39.059  29.498  29.198  1.00  0.00     0.049 A 
ATOM     17  N   UNL A   1      39.344  30.425  32.045  1.00  0.00    -0.248 NA
ATOM     18  C   UNL A   1      37.368  31.640  31.807  1.00  0.00     0.031 C 
ATOM     19  C   UNL A   1      38.970  29.027  27.814  1.00  0.00     0.029 A 
ATOM     20  N   UNL A   1      40.191  28.898  29.682  1.00  0.00    -0.354 N 
ATOM     21  C   UNL A   1      39.085  31.112  33.225  1.00  0.00     0.074 A 
ATOM     22  C   UNL A   1      37.874  31.874  33.009  1.00  0.00     0.031 C 
ATOM     23  C   UNL A   1      39.967  28.161  27.581  1.00  0.00     0.029 A 
ATOM     24  C   UNL A   1      40.796  28.062  28.776  1.00  0.00     0.049 A 
ATOM     25  H   UNL A   1      40.538  29.050  30.591  1.00  0.00     0.167 HD
ATOM     26  C   UNL A   1      39.791  31.101  34.381  1.00  0.00     0.037 A 
ATOM     27  C   UNL A   1      41.897  27.298  28.893  1.00  0.00     0.037 A 
ATOM     28  C   UNL A   1      40.975  30.312  34.605  1.00  0.00     0.049 A 
ATOM     29  C   UNL A   1      42.649  27.294  30.193  1.00  0.00     0.074 A 
ATOM     30  C   UNL A   1      41.735  30.200  35.757  1.00  0.00     0.029 A 
ATOM     31  N   UNL A   1      41.569  29.495  33.655  1.00  0.00    -0.354 N 
ATOM     32  N   UNL A   1      42.375  27.926  31.307  1.00  0.00    -0.248 NA
ATOM     33  C   UNL A   1      43.865  26.472  30.248  1.00  0.00     0.031 C 
ATOM     34  C   UNL A   1      42.811  29.345  35.493  1.00  0.00     0.029 A 
ATOM     35  C   UNL A   1      42.696  28.889  34.189  1.00  0.00     0.049 A 
ATOM     36  H   UNL A   1      41.241  29.364  32.736  1.00  0.00     0.167 HD
ATOM     37  C   UNL A   1      43.372  27.567  32.202  1.00  0.00     0.074 A 
ATOM     38  C   UNL A   1      44.245  26.644  31.506  1.00  0.00     0.031 C 
ATOM     39  C   UNL A   1      43.550  27.969  33.484  1.00  0.00     0.037 A 
BRANCH  26  40
ATOM     40  C   UNL A   1      39.314  31.984  35.499  1.00  0.00     0.064 A 
ATOM     41  C   UNL A   1      38.445  31.515  36.494  1.00  0.00     0.173 A 
ATOM     42  C   UNL A   1      39.773  33.307  35.599  1.00  0.00     0.173 A 
ATOM     43  F   UNL A   1      37.967  30.263  36.438  1.00  0.00    -0.203 F 
ATOM     44  C   UNL A   1      38.037  32.343  37.538  1.00  0.00     0.198 A 
ATOM     45  C   UNL A   1      39.384  34.124  36.657  1.00  0.00     0.198 A 
ATOM     46  F   UNL A   1      40.610  33.804  34.677  1.00  0.00    -0.203 F 
ATOM     47  F   UNL A   1      37.176  31.885  38.456  1.00  0.00    -0.200 F 
ATOM     48  C   UNL A   1      38.512  33.643  37.622  1.00  0.00     0.200 A 
ATOM     49  F   UNL A   1      39.851  35.377  36.743  1.00  0.00    -0.200 F 
ATOM     50  F   UNL A   1      38.124  34.436  38.632  1.00  0.00    -0.200 F 
ENDBRANCH  26  40
BRANCH  27  51
ATOM     51  C   UNL A   1      42.339  26.464  27.748  1.00  0.00     0.064 A 
ATOM     52  C   UNL A   1      41.791  25.193  27.531  1.00  0.00     0.173 A 
ATOM     53  C   UNL A   1      43.299  26.928  26.837  1.00  0.00     0.173 A 
ATOM     54  F   UNL A   1      40.881  24.702  28.384  1.00  0.00    -0.203 F 
ATOM     55  C   UNL A   1      42.196  24.411  26.450  1.00  0.00     0.198 A 
ATOM     56  C   UNL A   1      43.683  26.157  25.742  1.00  0.00     0.198 A 
ATOM     57  F   UNL A   1      43.848  28.141  26.999  1.00  0.00    -0.203 F 
ATOM     58  F   UNL A   1      41.681  23.186  26.284  1.00  0.00    -0.200 F 
ATOM     59  C   UNL A   1      43.135  24.896  25.554  1.00  0.00     0.200 A 
ATOM     60  F   UNL A   1      44.577  26.637  24.869  1.00  0.00    -0.200 F 
ATOM     61  F   UNL A   1      43.516  24.149  24.509  1.00  0.00    -0.200 F 
ENDBRANCH  27  51
BRANCH  39  62
ATOM     62  C   UNL A   1      44.719  27.386  34.222  1.00  0.00     0.064 A 
ATOM     63  C   UNL A   1      44.592  26.225  34.997  1.00  0.00     0.173 A 
ATOM     64  C   UNL A   1      45.982  27.990  34.140  1.00  0.00     0.173 A 
ATOM     65  F   UNL A   1      43.400  25.621  35.121  1.00  0.00    -0.203 F 
ATOM     66  C   UNL A   1      45.683  25.705  35.689  1.00  0.00     0.198 A 
ATOM     67  C   UNL A   1      47.076  27.453  34.811  1.00  0.00     0.198 A 
ATOM     68  F   UNL A   1      46.154  29.101  33.407  1.00  0.00    -0.203 F 
ATOM     69  F   UNL A   1      45.529  24.624  36.466  1.00  0.00    -0.200 F 
ATOM     70  C   UNL A   1      46.925  26.317  35.591  1.00  0.00     0.200 A 
ATOM     71  F   UNL A   1      48.277  28.039  34.708  1.00  0.00    -0.200 F 
ATOM     72  F   UNL A   1      47.973  25.816  36.258  1.00  0.00    -0.200 F 
ENDBRANCH  39  62
ENDBRANCH  13  14
ENDBRANCH   6   8
ENDBRANCH   3   4
ENDBRANCH   2   3
ENDBRANCH   1   2
BRANCH   1  73
ATOM     73  C   UNL A   1      30.907  27.422  23.522  1.00  0.00     0.116 C 
BRANCH  73  74
ATOM     74  N   UNL A   1      31.942  27.602  22.518  1.00  0.00    -0.352 N 
ATOM     75  C   UNL A   1      33.162  26.979  22.424  1.00  0.00     0.251 C 
ATOM     76  H   UNL A   1      31.742  28.257  21.810  1.00  0.00     0.163 HD
ATOM     77  O   UNL A   1      33.974  27.333  21.575  1.00  0.00    -0.269 OA
BRANCH  75  78
ATOM     78  C   UNL A   1      33.479  25.855  23.326  1.00  0.00     0.040 A 
ATOM     79  C   UNL A   1      34.050  26.101  24.571  1.00  0.00     0.014 A 
ATOM     80  C   UNL A   1      33.265  24.542  22.894  1.00  0.00     0.018 A 
ATOM     81  C   UNL A   1      34.362  25.025  25.403  1.00  0.00     0.001 A 
ATOM     82  C   UNL A   1      33.610  23.452  23.705  1.00  0.00    -0.030 A 
ATOM     83  C   UNL A   1      34.134  23.710  24.978  1.00  0.00     0.005 A 
BRANCH  82  84
ATOM     84  C   UNL A   1      33.339  22.066  23.187  1.00  0.00     0.195 C 
BRANCH  84  85
ATOM     85  S   UNL A   1      32.829  20.880  24.441  1.00  0.00     0.239 S 
ATOM     86  O   UNL A   1      34.000  20.455  25.186  1.00  0.00    -0.206 OA
ATOM     87  O   UNL A   1      31.738  21.495  25.177  1.00  0.00    -0.206 OA
BRANCH  85  88
ATOM     88  N   UNL A   1      32.180  19.516  23.752  1.00  0.00    -0.251 N 
ATOM     89  H   UNL A   1      31.459  19.574  23.084  1.00  0.00     0.183 HD
BRANCH  88  90
ATOM     90  C   UNL A   1      32.694  18.283  24.155  1.00  0.00     0.236 A 
ATOM     91  N   UNL A   1      33.582  17.697  23.352  1.00  0.00    -0.221 NA
ATOM     92  N   UNL A   1      32.148  17.761  25.253  1.00  0.00    -0.221 NA
ATOM     93  C   UNL A   1      33.946  16.450  23.716  1.00  0.00     0.117 A 
ATOM     94  C   UNL A   1      32.562  16.525  25.586  1.00  0.00     0.117 A 
ATOM     95  C   UNL A   1      33.469  15.811  24.840  1.00  0.00     0.040 A 
ENDBRANCH  88  90
ENDBRANCH  85  88
ENDBRANCH  84  85
ENDBRANCH  82  84
ENDBRANCH  75  78
ENDBRANCH  73  74
ENDBRANCH   1  73
TORSDOF 15
ENDMDL
