MODEL 1
REMARK VINA RESULT:     -12.6      0.000      0.000
REMARK SMILES [NH3+]C[C@H]1CC[C@@H](C(=O)Nc2ccc(C(=O)NCCCCNC(=O)c3ccc(-c4c5nc(c(-c6c(F)c(F)c(F)c(F)c6F)c6ccc([nH]6)c(-c6c(F)c(F)c(F)c(F)c6F)c6nc(c(-c7c(F)c(F)c(F)c(F)c7F)c7ccc4[nH]7)C=C6)C=C5)cc3)cc2Br)CC1
REMARK SMILES IDX 17 1 16 2 14 3 15 4 13 6 10 7 11 8 88 9 12 10 87 11 89 12
REMARK SMILES IDX 9 13 7 14 8 15 6 17 3 18 4 19 91 20 5 21 90 22 2 23 1 24
REMARK SMILES IDX 18 28 19 29 20 30 21 31 22 32 23 34 24 35 25 36 86 37 26 38
REMARK SMILES IDX 85 39 27 40 28 41 29 42 79 43 30 44 84 45 78 46 80 47 31 48
REMARK SMILES IDX 83 49 77 50 76 51 32 53 64 54 44 55 63 56 45 57 48 58 62 59
REMARK SMILES IDX 81 60 46 61 47 62 61 64 82 65 49 66 33 67 34 68 42 69 35 70
REMARK SMILES IDX 36 71 40 72 43 73 37 74 38 75 41 76 39 77 65 78 66 79 74 80
REMARK SMILES IDX 67 81 68 82 72 83 75 84 69 85 70 86 73 87 71 88 50 89 51 90
REMARK SMILES IDX 59 91 52 92 53 93 57 94 60 95 54 96 55 97 58 98 56 99
REMARK H PARENT 16 5 9 16 1 25 1 26 1 27 21 33 80 52 48 63
REMARK Flexibility Score: inf
ROOT
ATOM      1  C   UNL A   1      32.833  29.811  25.529  1.00  0.00     0.116 C 
ENDROOT
BRANCH   1   2
ATOM      2  N   UNL A   1      32.022  29.279  24.444  1.00  0.00    -0.352 N 
ATOM      3  C   UNL A   1      31.626  27.996  24.162  1.00  0.00     0.251 C 
ATOM      4  O   UNL A   1      30.831  27.801  23.245  1.00  0.00    -0.269 OA
ATOM      5  H   UNL A   1      31.701  29.955  23.803  1.00  0.00     0.163 HD
BRANCH   3   6
ATOM      6  C   UNL A   1      32.056  26.857  25.006  1.00  0.00     0.041 A 
ATOM      7  C   UNL A   1      33.070  24.520  26.154  1.00  0.00     0.055 A 
ATOM      8  C   UNL A   1      33.914  25.609  25.924  1.00  0.00     0.028 A 
ATOM      9  C   UNL A   1      31.684  24.697  26.029  1.00  0.00     0.042 A 
ATOM     10  C   UNL A   1      33.413  26.768  25.331  1.00  0.00     0.016 A 
ATOM     11  C   UNL A   1      31.177  25.870  25.457  1.00  0.00     0.031 A 
ATOM     12  Br  UNL A   1      30.434  23.431  26.688  1.00  0.00    -0.049 Br
BRANCH   7  13
ATOM     13  N   UNL A   1      33.664  23.351  26.634  1.00  0.00    -0.325 N 
ATOM     14  C   UNL A   1      33.743  22.091  26.128  1.00  0.00     0.227 C 
ATOM     15  O   UNL A   1      34.098  21.222  26.939  1.00  0.00    -0.274 OA
ATOM     16  H   UNL A   1      34.110  23.461  27.503  1.00  0.00     0.169 HD
BRANCH  14  17
ATOM     17  C   UNL A   1      33.667  21.699  24.635  1.00  0.00     0.079 C 
ATOM     18  C   UNL A   1      33.387  23.709  22.383  1.00  0.00     0.044 C 
ATOM     19  C   UNL A   1      34.635  23.623  23.273  1.00  0.00     0.010 C 
ATOM     20  C   UNL A   1      32.152  23.071  23.034  1.00  0.00     0.010 C 
ATOM     21  C   UNL A   1      34.867  22.236  23.849  1.00  0.00     0.014 C 
ATOM     22  C   UNL A   1      32.387  21.781  23.813  1.00  0.00     0.014 C 
BRANCH  18  23
ATOM     23  C   UNL A   1      33.133  25.195  22.046  1.00  0.00     0.262 C 
BRANCH  23  24
ATOM     24  N   UNL A   1      31.800  25.452  21.516  1.00  0.00    -0.357 N 
ATOM     25  H   UNL A   1      31.877  25.907  20.606  1.00  0.00     0.344 HD
ATOM     26  H   UNL A   1      31.289  26.059  22.157  1.00  0.00     0.344 HD
ATOM     27  H   UNL A   1      31.299  24.569  21.413  1.00  0.00     0.344 HD
ENDBRANCH  23  24
ENDBRANCH  18  23
ENDBRANCH  14  17
ENDBRANCH   7  13
ENDBRANCH   3   6
ENDBRANCH   1   2
BRANCH   1  28
ATOM     28  C   UNL A   1      31.960  30.246  26.704  1.00  0.00     0.023 C 
BRANCH  28  29
ATOM     29  C   UNL A   1      31.696  31.754  26.744  1.00  0.00     0.023 C 
BRANCH  29  30
ATOM     30  C   UNL A   1      32.815  32.583  27.369  1.00  0.00     0.116 C 
BRANCH  30  31
ATOM     31  N   UNL A   1      32.431  33.968  27.604  1.00  0.00    -0.352 N 
ATOM     32  C   UNL A   1      32.953  34.860  28.509  1.00  0.00     0.251 C 
ATOM     33  H   UNL A   1      31.699  34.310  27.040  1.00  0.00     0.163 HD
ATOM     34  O   UNL A   1      32.435  35.958  28.687  1.00  0.00    -0.269 OA
BRANCH  32  35
ATOM     35  C   UNL A   1      34.139  34.466  29.293  1.00  0.00     0.039 A 
ATOM     36  C   UNL A   1      33.965  33.864  30.541  1.00  0.00     0.014 A 
ATOM     37  C   UNL A   1      35.419  34.645  28.762  1.00  0.00     0.014 A 
ATOM     38  C   UNL A   1      35.076  33.366  31.226  1.00  0.00     0.010 A 
ATOM     39  C   UNL A   1      36.514  34.091  29.413  1.00  0.00     0.010 A 
ATOM     40  C   UNL A   1      36.353  33.439  30.648  1.00  0.00    -0.014 A 
BRANCH  40  41
ATOM     41  C   UNL A   1      37.550  32.858  31.306  1.00  0.00     0.031 A 
ATOM     42  C   UNL A   1      38.265  31.711  30.652  1.00  0.00     0.074 A 
ATOM     43  C   UNL A   1      37.930  33.288  32.525  1.00  0.00     0.049 A 
ATOM     44  N   UNL A   1      39.196  30.927  31.134  1.00  0.00    -0.248 NA
ATOM     45  C   UNL A   1      37.854  31.380  29.277  1.00  0.00     0.031 C 
ATOM     46  C   UNL A   1      37.305  34.380  33.274  1.00  0.00     0.029 A 
ATOM     47  N   UNL A   1      38.922  32.838  33.362  1.00  0.00    -0.354 N 
ATOM     48  C   UNL A   1      39.463  30.002  30.134  1.00  0.00     0.074 A 
ATOM     49  C   UNL A   1      38.568  30.291  29.035  1.00  0.00     0.031 C 
ATOM     50  C   UNL A   1      37.928  34.515  34.457  1.00  0.00     0.029 A 
ATOM     51  C   UNL A   1      38.962  33.491  34.571  1.00  0.00     0.049 A 
ATOM     52  H   UNL A   1      39.544  32.115  33.119  1.00  0.00     0.167 HD
ATOM     53  C   UNL A   1      40.387  29.012  30.128  1.00  0.00     0.037 A 
ATOM     54  C   UNL A   1      39.731  33.271  35.654  1.00  0.00     0.037 A 
ATOM     55  C   UNL A   1      41.296  28.748  31.210  1.00  0.00     0.049 A 
ATOM     56  C   UNL A   1      40.744  32.155  35.623  1.00  0.00     0.074 A 
ATOM     57  C   UNL A   1      42.279  27.777  31.293  1.00  0.00     0.029 A 
ATOM     58  N   UNL A   1      41.342  29.469  32.393  1.00  0.00    -0.354 N 
ATOM     59  N   UNL A   1      41.004  31.300  34.664  1.00  0.00    -0.248 NA
ATOM     60  C   UNL A   1      41.574  31.974  36.824  1.00  0.00     0.031 C 
ATOM     61  C   UNL A   1      42.904  27.895  32.539  1.00  0.00     0.029 A 
ATOM     62  C   UNL A   1      42.339  28.967  33.211  1.00  0.00     0.049 A 
ATOM     63  H   UNL A   1      40.753  30.226  32.617  1.00  0.00     0.167 HD
ATOM     64  C   UNL A   1      42.052  30.516  35.125  1.00  0.00     0.074 A 
ATOM     65  C   UNL A   1      42.383  30.994  36.450  1.00  0.00     0.031 C 
ATOM     66  C   UNL A   1      42.685  29.490  34.506  1.00  0.00     0.037 A 
BRANCH  53  67
ATOM     67  C   UNL A   1      40.474  28.150  28.904  1.00  0.00     0.064 A 
ATOM     68  C   UNL A   1      39.740  26.959  28.795  1.00  0.00     0.173 A 
ATOM     69  C   UNL A   1      41.253  28.544  27.806  1.00  0.00     0.173 A 
ATOM     70  F   UNL A   1      38.991  26.533  29.824  1.00  0.00    -0.203 F 
ATOM     71  C   UNL A   1      39.798  26.185  27.641  1.00  0.00     0.198 A 
ATOM     72  C   UNL A   1      41.287  27.782  26.641  1.00  0.00     0.198 A 
ATOM     73  F   UNL A   1      41.971  29.677  27.857  1.00  0.00    -0.203 F 
ATOM     74  F   UNL A   1      39.119  25.032  27.575  1.00  0.00    -0.200 F 
ATOM     75  C   UNL A   1      40.563  26.601  26.562  1.00  0.00     0.200 A 
ATOM     76  F   UNL A   1      42.017  28.191  25.595  1.00  0.00    -0.200 F 
ATOM     77  F   UNL A   1      40.608  25.862  25.446  1.00  0.00    -0.200 F 
ENDBRANCH  53  67
BRANCH  54  78
ATOM     78  C   UNL A   1      39.587  34.121  36.866  1.00  0.00     0.064 A 
ATOM     79  C   UNL A   1      40.279  35.335  36.980  1.00  0.00     0.173 A 
ATOM     80  C   UNL A   1      38.793  33.720  37.951  1.00  0.00     0.173 A 
ATOM     81  F   UNL A   1      41.068  35.751  35.979  1.00  0.00    -0.203 F 
ATOM     82  C   UNL A   1      40.210  36.098  38.144  1.00  0.00     0.198 A 
ATOM     83  C   UNL A   1      38.700  34.499  39.103  1.00  0.00     0.198 A 
ATOM     84  F   UNL A   1      38.106  32.569  37.893  1.00  0.00    -0.203 F 
ATOM     85  F   UNL A   1      40.931  37.223  38.249  1.00  0.00    -0.200 F 
ATOM     86  C   UNL A   1      39.418  35.681  39.203  1.00  0.00     0.200 A 
ATOM     87  F   UNL A   1      37.924  34.099  40.119  1.00  0.00    -0.200 F 
ATOM     88  F   UNL A   1      39.358  36.411  40.325  1.00  0.00    -0.200 F 
ENDBRANCH  54  78
BRANCH  66  89
ATOM     89  C   UNL A   1      43.852  28.866  35.210  1.00  0.00     0.064 A 
ATOM     90  C   UNL A   1      43.693  27.794  36.098  1.00  0.00     0.173 A 
ATOM     91  C   UNL A   1      45.156  29.304  34.930  1.00  0.00     0.173 A 
ATOM     92  F   UNL A   1      42.466  27.350  36.407  1.00  0.00    -0.203 F 
ATOM     93  C   UNL A   1      44.798  27.191  36.694  1.00  0.00     0.198 A 
ATOM     94  C   UNL A   1      46.259  28.682  35.506  1.00  0.00     0.198 A 
ATOM     95  F   UNL A   1      45.358  30.322  34.081  1.00  0.00    -0.203 F 
ATOM     96  F   UNL A   1      44.623  26.188  37.565  1.00  0.00    -0.200 F 
ATOM     97  C   UNL A   1      46.079  27.628  36.389  1.00  0.00     0.200 A 
ATOM     98  F   UNL A   1      47.496  29.096  35.200  1.00  0.00    -0.200 F 
ATOM     99  F   UNL A   1      47.142  27.035  36.950  1.00  0.00    -0.200 F 
ENDBRANCH  66  89
ENDBRANCH  40  41
ENDBRANCH  32  35
ENDBRANCH  30  31
ENDBRANCH  29  30
ENDBRANCH  28  29
ENDBRANCH   1  28
TORSDOF 15
ENDMDL
MODEL 2
REMARK VINA RESULT:     -12.6      1.256      2.461
REMARK SMILES [NH3+]C[C@H]1CC[C@@H](C(=O)Nc2ccc(C(=O)NCCCCNC(=O)c3ccc(-c4c5nc(c(-c6c(F)c(F)c(F)c(F)c6F)c6ccc([nH]6)c(-c6c(F)c(F)c(F)c(F)c6F)c6nc(c(-c7c(F)c(F)c(F)c(F)c7F)c7ccc4[nH]7)C=C6)C=C5)cc3)cc2Br)CC1
REMARK SMILES IDX 17 1 16 2 14 3 15 4 13 6 10 7 11 8 88 9 12 10 87 11 89 12
REMARK SMILES IDX 9 13 7 14 8 15 6 17 3 18 4 19 91 20 5 21 90 22 2 23 1 24
REMARK SMILES IDX 18 28 19 29 20 30 21 31 22 32 23 34 24 35 25 36 86 37 26 38
REMARK SMILES IDX 85 39 27 40 28 41 29 42 79 43 30 44 84 45 78 46 80 47 31 48
REMARK SMILES IDX 83 49 77 50 76 51 32 53 64 54 44 55 63 56 45 57 48 58 62 59
REMARK SMILES IDX 81 60 46 61 47 62 61 64 82 65 49 66 33 67 34 68 42 69 35 70
REMARK SMILES IDX 36 71 40 72 43 73 37 74 38 75 41 76 39 77 65 78 66 79 74 80
REMARK SMILES IDX 67 81 68 82 72 83 75 84 69 85 70 86 73 87 71 88 50 89 51 90
REMARK SMILES IDX 59 91 52 92 53 93 57 94 60 95 54 96 55 97 58 98 56 99
REMARK H PARENT 16 5 9 16 1 25 1 26 1 27 21 33 80 52 48 63
REMARK Flexibility Score: inf
ROOT
ATOM      1  C   UNL A   1      32.115  29.601  25.382  1.00  0.00     0.116 C 
ENDROOT
BRANCH   1   2
ATOM      2  N   UNL A   1      31.012  30.084  24.564  1.00  0.00    -0.352 N 
ATOM      3  C   UNL A   1      30.186  29.426  23.688  1.00  0.00     0.251 C 
ATOM      4  O   UNL A   1      29.234  30.027  23.195  1.00  0.00    -0.269 OA
ATOM      5  H   UNL A   1      30.826  31.047  24.655  1.00  0.00     0.163 HD
BRANCH   3   6
ATOM      6  C   UNL A   1      30.359  27.981  23.407  1.00  0.00     0.041 A 
ATOM      7  C   UNL A   1      30.957  25.253  23.327  1.00  0.00     0.055 A 
ATOM      8  C   UNL A   1      29.905  25.715  24.123  1.00  0.00     0.028 A 
ATOM      9  C   UNL A   1      31.541  26.127  22.399  1.00  0.00     0.042 A 
ATOM     10  C   UNL A   1      29.620  27.080  24.180  1.00  0.00     0.016 A 
ATOM     11  C   UNL A   1      31.238  27.494  22.438  1.00  0.00     0.031 A 
ATOM     12  Br  UNL A   1      32.684  25.522  21.011  1.00  0.00    -0.049 Br
BRANCH   7  13
ATOM     13  N   UNL A   1      31.264  23.894  23.414  1.00  0.00    -0.325 N 
ATOM     14  C   UNL A   1      32.175  23.208  24.155  1.00  0.00     0.227 C 
ATOM     15  O   UNL A   1      32.381  22.042  23.786  1.00  0.00    -0.274 OA
ATOM     16  H   UNL A   1      30.718  23.325  22.828  1.00  0.00     0.169 HD
BRANCH  14  17
ATOM     17  C   UNL A   1      32.774  23.654  25.510  1.00  0.00     0.079 C 
ATOM     18  C   UNL A   1      35.721  23.443  26.193  1.00  0.00     0.044 C 
ATOM     19  C   UNL A   1      35.184  24.374  25.097  1.00  0.00     0.010 C 
ATOM     20  C   UNL A   1      34.744  22.309  26.535  1.00  0.00     0.010 C 
ATOM     21  C   UNL A   1      33.752  24.821  25.336  1.00  0.00     0.014 C 
ATOM     22  C   UNL A   1      33.264  22.676  26.569  1.00  0.00     0.014 C 
BRANCH  18  23
ATOM     23  C   UNL A   1      37.084  22.883  25.730  1.00  0.00     0.262 C 
BRANCH  23  24
ATOM     24  N   UNL A   1      37.517  23.403  24.439  1.00  0.00    -0.357 N 
ATOM     25  H   UNL A   1      36.704  23.702  23.902  1.00  0.00     0.344 HD
ATOM     26  H   UNL A   1      38.013  22.673  23.927  1.00  0.00     0.344 HD
ATOM     27  H   UNL A   1      38.140  24.198  24.584  1.00  0.00     0.344 HD
ENDBRANCH  23  24
ENDBRANCH  18  23
ENDBRANCH  14  17
ENDBRANCH   7  13
ENDBRANCH   3   6
ENDBRANCH   1   2
BRANCH   1  28
ATOM     28  C   UNL A   1      32.038  30.171  26.797  1.00  0.00     0.023 C 
BRANCH  28  29
ATOM     29  C   UNL A   1      31.755  31.675  26.836  1.00  0.00     0.023 C 
BRANCH  29  30
ATOM     30  C   UNL A   1      32.910  32.530  27.350  1.00  0.00     0.116 C 
BRANCH  30  31
ATOM     31  N   UNL A   1      32.522  33.909  27.610  1.00  0.00    -0.352 N 
ATOM     32  C   UNL A   1      33.037  34.783  28.537  1.00  0.00     0.251 C 
ATOM     33  H   UNL A   1      31.795  34.262  27.048  1.00  0.00     0.163 HD
ATOM     34  O   UNL A   1      32.516  35.877  28.733  1.00  0.00    -0.269 OA
BRANCH  32  35
ATOM     35  C   UNL A   1      34.218  34.376  29.322  1.00  0.00     0.039 A 
ATOM     36  C   UNL A   1      34.035  33.694  30.527  1.00  0.00     0.014 A 
ATOM     37  C   UNL A   1      35.502  34.622  28.831  1.00  0.00     0.014 A 
ATOM     38  C   UNL A   1      35.145  33.185  31.204  1.00  0.00     0.010 A 
ATOM     39  C   UNL A   1      36.599  34.059  29.472  1.00  0.00     0.010 A 
ATOM     40  C   UNL A   1      36.431  33.329  30.661  1.00  0.00    -0.014 A 
BRANCH  40  41
ATOM     41  C   UNL A   1      37.631  32.742  31.309  1.00  0.00     0.031 A 
ATOM     42  C   UNL A   1      38.344  31.600  30.642  1.00  0.00     0.074 A 
ATOM     43  C   UNL A   1      38.015  33.161  32.530  1.00  0.00     0.049 A 
ATOM     44  N   UNL A   1      39.276  30.813  31.113  1.00  0.00    -0.248 NA
ATOM     45  C   UNL A   1      37.927  31.282  29.266  1.00  0.00     0.031 C 
ATOM     46  C   UNL A   1      37.394  34.246  33.292  1.00  0.00     0.029 A 
ATOM     47  N   UNL A   1      39.011  32.703  33.360  1.00  0.00    -0.354 N 
ATOM     48  C   UNL A   1      39.539  29.896  30.104  1.00  0.00     0.074 A 
ATOM     49  C   UNL A   1      38.640  30.195  29.011  1.00  0.00     0.031 C 
ATOM     50  C   UNL A   1      38.022  34.370  34.473  1.00  0.00     0.029 A 
ATOM     51  C   UNL A   1      39.056  33.345  34.574  1.00  0.00     0.049 A 
ATOM     52  H   UNL A   1      39.632  31.982  33.107  1.00  0.00     0.167 HD
ATOM     53  C   UNL A   1      40.463  28.906  30.086  1.00  0.00     0.037 A 
ATOM     54  C   UNL A   1      39.830  33.116  35.652  1.00  0.00     0.037 A 
ATOM     55  C   UNL A   1      41.376  28.632  31.162  1.00  0.00     0.049 A 
ATOM     56  C   UNL A   1      40.842  32.000  35.607  1.00  0.00     0.074 A 
ATOM     57  C   UNL A   1      42.360  27.661  31.232  1.00  0.00     0.029 A 
ATOM     58  N   UNL A   1      41.426  29.343  32.351  1.00  0.00    -0.354 N 
ATOM     59  N   UNL A   1      41.098  31.154  34.639  1.00  0.00    -0.248 NA
ATOM     60  C   UNL A   1      41.676  31.809  36.803  1.00  0.00     0.031 C 
ATOM     61  C   UNL A   1      42.989  27.767  32.477  1.00  0.00     0.029 A 
ATOM     62  C   UNL A   1      42.427  28.833  33.160  1.00  0.00     0.049 A 
ATOM     63  H   UNL A   1      40.839  30.098  32.584  1.00  0.00     0.167 HD
ATOM     64  C   UNL A   1      42.148  30.365  35.090  1.00  0.00     0.074 A 
ATOM     65  C   UNL A   1      42.484  30.832  36.418  1.00  0.00     0.031 C 
ATOM     66  C   UNL A   1      42.778  29.345  34.458  1.00  0.00     0.037 A 
BRANCH  53  67
ATOM     67  C   UNL A   1      40.545  28.055  28.854  1.00  0.00     0.064 A 
ATOM     68  C   UNL A   1      39.800  26.873  28.732  1.00  0.00     0.173 A 
ATOM     69  C   UNL A   1      41.331  28.452  27.762  1.00  0.00     0.173 A 
ATOM     70  F   UNL A   1      39.043  26.445  29.754  1.00  0.00    -0.203 F 
ATOM     71  C   UNL A   1      39.853  26.109  27.570  1.00  0.00     0.198 A 
ATOM     72  C   UNL A   1      41.361  27.700  26.590  1.00  0.00     0.198 A 
ATOM     73  F   UNL A   1      42.060  29.577  27.826  1.00  0.00    -0.203 F 
ATOM     74  F   UNL A   1      39.163  24.964  27.491  1.00  0.00    -0.200 F 
ATOM     75  C   UNL A   1      40.626  26.528  26.498  1.00  0.00     0.200 A 
ATOM     76  F   UNL A   1      42.098  28.113  25.549  1.00  0.00    -0.200 F 
ATOM     77  F   UNL A   1      40.666  25.799  25.374  1.00  0.00    -0.200 F 
ENDBRANCH  53  67
BRANCH  54  78
ATOM     78  C   UNL A   1      39.690  33.955  36.873  1.00  0.00     0.064 A 
ATOM     79  C   UNL A   1      38.878  33.542  37.940  1.00  0.00     0.173 A 
ATOM     80  C   UNL A   1      40.324  35.201  36.981  1.00  0.00     0.173 A 
ATOM     81  F   UNL A   1      38.233  32.368  37.874  1.00  0.00    -0.203 F 
ATOM     82  C   UNL A   1      38.680  34.358  39.052  1.00  0.00     0.198 A 
ATOM     83  C   UNL A   1      40.149  36.002  38.108  1.00  0.00     0.198 A 
ATOM     84  F   UNL A   1      41.114  35.642  35.991  1.00  0.00    -0.203 F 
ATOM     85  F   UNL A   1      37.851  33.965  40.029  1.00  0.00    -0.200 F 
ATOM     86  C   UNL A   1      39.318  35.586  39.137  1.00  0.00     0.200 A 
ATOM     87  F   UNL A   1      40.777  37.183  38.191  1.00  0.00    -0.200 F 
ATOM     88  F   UNL A   1      39.121  36.373  40.203  1.00  0.00    -0.200 F 
ENDBRANCH  54  78
BRANCH  66  89
ATOM     89  C   UNL A   1      43.947  28.714  35.153  1.00  0.00     0.064 A 
ATOM     90  C   UNL A   1      45.255  29.186  34.978  1.00  0.00     0.173 A 
ATOM     91  C   UNL A   1      43.740  27.667  36.064  1.00  0.00     0.173 A 
ATOM     92  F   UNL A   1      45.505  30.176  34.108  1.00  0.00    -0.203 F 
ATOM     93  C   UNL A   1      46.317  28.623  35.681  1.00  0.00     0.198 A 
ATOM     94  C   UNL A   1      44.799  27.124  36.784  1.00  0.00     0.198 A 
ATOM     95  F   UNL A   1      42.505  27.186  36.270  1.00  0.00    -0.203 F 
ATOM     96  F   UNL A   1      47.564  29.068  35.476  1.00  0.00    -0.200 F 
ATOM     97  C   UNL A   1      46.087  27.600  36.590  1.00  0.00     0.200 A 
ATOM     98  F   UNL A   1      44.573  26.147  37.672  1.00  0.00    -0.200 F 
ATOM     99  F   UNL A   1      47.108  27.071  37.278  1.00  0.00    -0.200 F 
ENDBRANCH  66  89
ENDBRANCH  40  41
ENDBRANCH  32  35
ENDBRANCH  30  31
ENDBRANCH  29  30
ENDBRANCH  28  29
ENDBRANCH   1  28
TORSDOF 15
ENDMDL
MODEL 3
REMARK VINA RESULT:     -12.6      5.342     10.816
REMARK SMILES [NH3+]C[C@H]1CC[C@@H](C(=O)Nc2ccc(C(=O)NCCCCNC(=O)c3ccc(-c4c5nc(c(-c6c(F)c(F)c(F)c(F)c6F)c6ccc([nH]6)c(-c6c(F)c(F)c(F)c(F)c6F)c6nc(c(-c7c(F)c(F)c(F)c(F)c7F)c7ccc4[nH]7)C=C6)C=C5)cc3)cc2Br)CC1
REMARK SMILES IDX 17 1 16 2 14 3 15 4 13 6 10 7 11 8 88 9 12 10 87 11 89 12
REMARK SMILES IDX 9 13 7 14 8 15 6 17 3 18 4 19 91 20 5 21 90 22 2 23 1 24
REMARK SMILES IDX 18 28 19 29 20 30 21 31 22 32 23 34 24 35 25 36 86 37 26 38
REMARK SMILES IDX 85 39 27 40 28 41 29 42 79 43 30 44 84 45 78 46 80 47 31 48
REMARK SMILES IDX 83 49 77 50 76 51 32 53 64 54 44 55 63 56 45 57 48 58 62 59
REMARK SMILES IDX 81 60 46 61 47 62 61 64 82 65 49 66 33 67 34 68 42 69 35 70
REMARK SMILES IDX 36 71 40 72 43 73 37 74 38 75 41 76 39 77 65 78 66 79 74 80
REMARK SMILES IDX 67 81 68 82 72 83 75 84 69 85 70 86 73 87 71 88 50 89 51 90
REMARK SMILES IDX 59 91 52 92 53 93 57 94 60 95 54 96 55 97 58 98 56 99
REMARK H PARENT 16 5 9 16 1 25 1 26 1 27 21 33 80 52 48 63
REMARK Flexibility Score: inf
ROOT
ATOM      1  C   UNL A   1      35.815  21.264  25.430  1.00  0.00     0.116 C 
ENDROOT
BRANCH   1   2
ATOM      2  N   UNL A   1      35.142  20.028  25.056  1.00  0.00    -0.352 N 
ATOM      3  C   UNL A   1      33.870  19.800  24.594  1.00  0.00     0.251 C 
ATOM      4  O   UNL A   1      33.560  18.669  24.226  1.00  0.00    -0.269 OA
ATOM      5  H   UNL A   1      35.693  19.218  25.151  1.00  0.00     0.163 HD
BRANCH   3   6
ATOM      6  C   UNL A   1      32.901  20.910  24.433  1.00  0.00     0.041 A 
ATOM      7  C   UNL A   1      31.500  23.307  24.126  1.00  0.00     0.055 A 
ATOM      8  C   UNL A   1      32.093  22.697  23.017  1.00  0.00     0.028 A 
ATOM      9  C   UNL A   1      31.411  22.591  25.328  1.00  0.00     0.042 A 
ATOM     10  C   UNL A   1      32.811  21.511  23.174  1.00  0.00     0.016 A 
ATOM     11  C   UNL A   1      32.110  21.388  25.480  1.00  0.00     0.031 A 
ATOM     12  Br  UNL A   1      30.297  23.144  26.762  1.00  0.00    -0.049 Br
BRANCH   7  13
ATOM     13  N   UNL A   1      30.906  24.553  23.918  1.00  0.00    -0.325 N 
ATOM     14  C   UNL A   1      31.322  25.821  24.181  1.00  0.00     0.227 C 
ATOM     15  O   UNL A   1      30.433  26.686  24.131  1.00  0.00    -0.274 OA
ATOM     16  H   UNL A   1      30.016  24.504  23.502  1.00  0.00     0.169 HD
BRANCH  14  17
ATOM     17  C   UNL A   1      32.789  26.297  24.294  1.00  0.00     0.079 C 
ATOM     18  C   UNL A   1      33.627  28.825  25.744  1.00  0.00     0.044 C 
ATOM     19  C   UNL A   1      33.016  27.614  26.464  1.00  0.00     0.010 C 
ATOM     20  C   UNL A   1      33.309  28.840  24.242  1.00  0.00     0.010 C 
ATOM     21  C   UNL A   1      33.270  26.298  25.749  1.00  0.00     0.014 C 
ATOM     22  C   UNL A   1      33.341  27.491  23.529  1.00  0.00     0.014 C 
BRANCH  18  23
ATOM     23  C   UNL A   1      33.115  30.109  26.433  1.00  0.00     0.262 C 
BRANCH  23  24
ATOM     24  N   UNL A   1      33.586  30.259  27.805  1.00  0.00    -0.357 N 
ATOM     25  H   UNL A   1      33.613  29.345  28.257  1.00  0.00     0.344 HD
ATOM     26  H   UNL A   1      32.951  30.873  28.317  1.00  0.00     0.344 HD
ATOM     27  H   UNL A   1      34.521  30.665  27.801  1.00  0.00     0.344 HD
ENDBRANCH  23  24
ENDBRANCH  18  23
ENDBRANCH  14  17
ENDBRANCH   7  13
ENDBRANCH   3   6
ENDBRANCH   1   2
BRANCH   1  28
ATOM     28  C   UNL A   1      37.193  21.355  24.778  1.00  0.00     0.023 C 
BRANCH  28  29
ATOM     29  C   UNL A   1      38.066  20.121  25.018  1.00  0.00     0.023 C 
BRANCH  29  30
ATOM     30  C   UNL A   1      39.322  20.376  25.846  1.00  0.00     0.116 C 
BRANCH  30  31
ATOM     31  N   UNL A   1      40.231  19.239  25.864  1.00  0.00    -0.352 N 
ATOM     32  C   UNL A   1      41.585  19.228  26.096  1.00  0.00     0.251 C 
ATOM     33  H   UNL A   1      39.821  18.362  25.685  1.00  0.00     0.163 HD
ATOM     34  O   UNL A   1      42.245  18.204  25.945  1.00  0.00    -0.269 OA
BRANCH  32  35
ATOM     35  C   UNL A   1      42.248  20.481  26.505  1.00  0.00     0.039 A 
ATOM     36  C   UNL A   1      42.835  21.293  25.532  1.00  0.00     0.014 A 
ATOM     37  C   UNL A   1      42.236  20.872  27.846  1.00  0.00     0.014 A 
ATOM     38  C   UNL A   1      43.341  22.543  25.893  1.00  0.00     0.010 A 
ATOM     39  C   UNL A   1      42.680  22.143  28.192  1.00  0.00     0.010 A 
ATOM     40  C   UNL A   1      43.231  22.994  27.218  1.00  0.00    -0.014 A 
BRANCH  40  41
ATOM     41  C   UNL A   1      43.689  24.343  27.632  1.00  0.00     0.031 A 
ATOM     42  C   UNL A   1      42.673  25.379  28.021  1.00  0.00     0.074 A 
ATOM     43  C   UNL A   1      44.995  24.667  27.562  1.00  0.00     0.049 A 
ATOM     44  N   UNL A   1      42.828  26.663  28.219  1.00  0.00    -0.248 NA
ATOM     45  C   UNL A   1      41.286  24.909  28.177  1.00  0.00     0.031 C 
ATOM     46  C   UNL A   1      46.077  23.759  27.179  1.00  0.00     0.029 A 
ATOM     47  N   UNL A   1      45.632  25.864  27.787  1.00  0.00    -0.354 N 
ATOM     48  C   UNL A   1      41.561  27.155  28.500  1.00  0.00     0.074 A 
ATOM     49  C   UNL A   1      40.640  26.044  28.403  1.00  0.00     0.031 C 
ATOM     50  C   UNL A   1      47.242  24.429  27.197  1.00  0.00     0.029 A 
ATOM     51  C   UNL A   1      46.984  25.823  27.544  1.00  0.00     0.049 A 
ATOM     52  H   UNL A   1      45.163  26.674  28.092  1.00  0.00     0.167 HD
ATOM     53  C   UNL A   1      41.202  28.419  28.827  1.00  0.00     0.037 A 
ATOM     54  C   UNL A   1      47.905  26.806  27.577  1.00  0.00     0.037 A 
ATOM     55  C   UNL A   1      42.124  29.515  28.953  1.00  0.00     0.049 A 
ATOM     56  C   UNL A   1      47.475  28.205  27.935  1.00  0.00     0.074 A 
ATOM     57  C   UNL A   1      41.860  30.830  29.295  1.00  0.00     0.029 A 
ATOM     58  N   UNL A   1      43.492  29.417  28.754  1.00  0.00    -0.354 N 
ATOM     59  N   UNL A   1      46.277  28.655  28.219  1.00  0.00    -0.248 NA
ATOM     60  C   UNL A   1      48.525  29.234  27.978  1.00  0.00     0.031 C 
ATOM     61  C   UNL A   1      43.067  31.535  29.279  1.00  0.00     0.029 A 
ATOM     62  C   UNL A   1      44.087  30.649  28.971  1.00  0.00     0.049 A 
ATOM     63  H   UNL A   1      43.970  28.595  28.498  1.00  0.00     0.167 HD
ATOM     64  C   UNL A   1      46.437  30.001  28.520  1.00  0.00     0.074 A 
ATOM     65  C   UNL A   1      47.847  30.298  28.383  1.00  0.00     0.031 C 
ATOM     66  C   UNL A   1      45.498  30.910  28.878  1.00  0.00     0.037 A 
BRANCH  53  67
ATOM     67  C   UNL A   1      39.749  28.683  29.091  1.00  0.00     0.064 A 
ATOM     68  C   UNL A   1      39.196  28.511  30.369  1.00  0.00     0.173 A 
ATOM     69  C   UNL A   1      38.914  29.166  28.073  1.00  0.00     0.173 A 
ATOM     70  F   UNL A   1      39.950  28.039  31.372  1.00  0.00    -0.203 F 
ATOM     71  C   UNL A   1      37.856  28.795  30.613  1.00  0.00     0.198 A 
ATOM     72  C   UNL A   1      37.580  29.476  28.327  1.00  0.00     0.198 A 
ATOM     73  F   UNL A   1      39.395  29.352  26.834  1.00  0.00    -0.203 F 
ATOM     74  F   UNL A   1      37.340  28.587  31.832  1.00  0.00    -0.200 F 
ATOM     75  C   UNL A   1      37.052  29.285  29.595  1.00  0.00     0.200 A 
ATOM     76  F   UNL A   1      36.808  29.962  27.346  1.00  0.00    -0.200 F 
ATOM     77  F   UNL A   1      35.765  29.571  29.835  1.00  0.00    -0.200 F 
ENDBRANCH  53  67
BRANCH  54  78
ATOM     78  C   UNL A   1      49.330  26.513  27.267  1.00  0.00     0.064 A 
ATOM     79  C   UNL A   1      50.253  26.266  28.294  1.00  0.00     0.173 A 
ATOM     80  C   UNL A   1      49.809  26.518  25.948  1.00  0.00     0.173 A 
ATOM     81  F   UNL A   1      49.849  26.274  29.572  1.00  0.00    -0.203 F 
ATOM     82  C   UNL A   1      51.605  26.069  28.016  1.00  0.00     0.198 A 
ATOM     83  C   UNL A   1      51.155  26.290  25.670  1.00  0.00     0.198 A 
ATOM     84  F   UNL A   1      48.967  26.745  24.928  1.00  0.00    -0.203 F 
ATOM     85  F   UNL A   1      52.475  25.898  29.021  1.00  0.00    -0.200 F 
ATOM     86  C   UNL A   1      52.054  26.078  26.704  1.00  0.00     0.200 A 
ATOM     87  F   UNL A   1      51.583  26.287  24.400  1.00  0.00    -0.200 F 
ATOM     88  F   UNL A   1      53.355  25.897  26.438  1.00  0.00    -0.200 F 
ENDBRANCH  54  78
BRANCH  66  89
ATOM     89  C   UNL A   1      45.966  32.291  29.229  1.00  0.00     0.064 A 
ATOM     90  C   UNL A   1      46.353  32.632  30.532  1.00  0.00     0.173 A 
ATOM     91  C   UNL A   1      46.097  33.263  28.225  1.00  0.00     0.173 A 
ATOM     92  F   UNL A   1      46.233  31.741  31.527  1.00  0.00    -0.203 F 
ATOM     93  C   UNL A   1      46.842  33.904  30.821  1.00  0.00     0.198 A 
ATOM     94  C   UNL A   1      46.610  34.523  28.512  1.00  0.00     0.198 A 
ATOM     95  F   UNL A   1      45.746  32.980  26.962  1.00  0.00    -0.203 F 
ATOM     96  F   UNL A   1      47.176  34.221  32.079  1.00  0.00    -0.200 F 
ATOM     97  C   UNL A   1      46.979  34.844  29.809  1.00  0.00     0.200 A 
ATOM     98  F   UNL A   1      46.756  35.425  27.532  1.00  0.00    -0.200 F 
ATOM     99  F   UNL A   1      47.466  36.062  30.086  1.00  0.00    -0.200 F 
ENDBRANCH  66  89
ENDBRANCH  40  41
ENDBRANCH  32  35
ENDBRANCH  30  31
ENDBRANCH  29  30
ENDBRANCH  28  29
ENDBRANCH   1  28
TORSDOF 15
ENDMDL
