MODEL 1
REMARK VINA RESULT:     -11.4      0.000      0.000
REMARK SMILES CCC[NH2+][C@@](C)(C[N@H+]1CCC(C)(C)C1)C(=O)NCCCCNC(=O)c1ccc(-c2c3nc(c(-c4c(F)c(F)c(F)c(F)c4F)c4ccc([nH]4)c(-c4c(F)c(F)c(F)c(F)c4F)c4nc(c(-c5c(F)c(F)c(F)c(F)c5F)c5ccc2[nH]5)C=C4)C=C3)cc1
REMARK SMILES IDX 19 1 18 2 17 3 15 4 16 5 5 7 6 8 4 9 3 12 2 13 1 14 7 15
REMARK SMILES IDX 8 16 9 17 14 18 10 20 11 21 12 22 13 23 20 24 21 25 22 26
REMARK SMILES IDX 23 27 24 29 25 30 26 31 87 32 27 33 86 34 28 35 29 36 30 37
REMARK SMILES IDX 80 38 31 39 85 40 79 41 81 42 32 43 84 44 78 45 77 46 33 48
REMARK SMILES IDX 65 49 45 50 64 51 46 52 49 53 63 54 82 55 47 56 48 57 62 59
REMARK SMILES IDX 83 60 50 61 34 62 35 63 43 64 36 65 37 66 41 67 44 68 38 69
REMARK SMILES IDX 39 70 42 71 40 72 66 73 67 74 75 75 68 76 69 77 73 78 76 79
REMARK SMILES IDX 70 80 71 81 74 82 72 83 51 84 52 85 60 86 53 87 54 88 58 89
REMARK SMILES IDX 61 90 55 91 56 92 59 93 57 94
REMARK H PARENT 17 6 4 10 4 11 8 19 22 28 81 47 49 58
REMARK Flexibility Score: inf
ROOT
ATOM      1  C   UNL A   1      31.396  31.017  25.822  1.00  0.00     0.023 C 
ENDROOT
BRANCH   1   2
ATOM      2  C   UNL A   1      32.484  29.946  25.911  1.00  0.00     0.116 C 
BRANCH   2   3
ATOM      3  N   UNL A   1      33.148  29.715  24.644  1.00  0.00    -0.350 N 
ATOM      4  C   UNL A   1      33.099  28.698  23.732  1.00  0.00     0.287 C 
ATOM      5  O   UNL A   1      33.866  28.849  22.773  1.00  0.00    -0.268 OA
ATOM      6  H   UNL A   1      33.763  30.440  24.388  1.00  0.00     0.163 HD
BRANCH   4   7
ATOM      7  C   UNL A   1      32.145  27.465  23.886  1.00  0.00     0.221 C 
ATOM      8  C   UNL A   1      32.261  26.583  22.621  1.00  0.00     0.097 C 
BRANCH   7   9
ATOM      9  N   UNL A   1      32.497  26.601  25.055  1.00  0.00    -0.329 N 
ATOM     10  H   UNL A   1      31.989  26.967  25.860  1.00  0.00     0.347 HD
ATOM     11  H   UNL A   1      32.251  25.662  24.746  1.00  0.00     0.347 HD
BRANCH   9  12
ATOM     12  C   UNL A   1      33.894  26.480  25.455  1.00  0.00     0.261 C 
BRANCH  12  13
ATOM     13  C   UNL A   1      34.338  25.012  25.348  1.00  0.00     0.058 C 
ATOM     14  C   UNL A   1      33.360  24.027  25.981  1.00  0.00     0.010 C 
ENDBRANCH  12  13
ENDBRANCH   9  12
ENDBRANCH   7   9
BRANCH   7  15
ATOM     15  C   UNL A   1      30.637  27.910  24.102  1.00  0.00     0.341 C 
BRANCH  15  16
ATOM     16  N   UNL A   1      29.792  28.491  23.036  1.00  0.00    -0.329 N 
ATOM     17  C   UNL A   1      28.396  28.055  23.015  1.00  0.00     0.263 C 
ATOM     18  C   UNL A   1      29.825  29.953  22.902  1.00  0.00     0.269 C 
ATOM     19  H   UNL A   1      30.267  28.091  22.228  1.00  0.00     0.348 HD
ATOM     20  C   UNL A   1      27.565  29.292  23.309  1.00  0.00     0.073 C 
ATOM     21  C   UNL A   1      28.377  30.425  22.685  1.00  0.00     0.019 C 
ATOM     22  C   UNL A   1      28.064  30.565  21.187  1.00  0.00     0.017 C 
ATOM     23  C   UNL A   1      28.102  31.760  23.386  1.00  0.00     0.017 C 
ENDBRANCH  15  16
ENDBRANCH   7  15
ENDBRANCH   4   7
ENDBRANCH   2   3
ENDBRANCH   1   2
BRANCH   1  24
ATOM     24  C   UNL A   1      31.359  32.004  26.987  1.00  0.00     0.023 C 
BRANCH  24  25
ATOM     25  C   UNL A   1      32.626  32.829  27.174  1.00  0.00     0.116 C 
BRANCH  25  26
ATOM     26  N   UNL A   1      32.360  34.186  27.627  1.00  0.00    -0.352 N 
ATOM     27  C   UNL A   1      33.001  34.928  28.583  1.00  0.00     0.251 C 
ATOM     28  H   UNL A   1      31.607  34.638  27.180  1.00  0.00     0.163 HD
ATOM     29  O   UNL A   1      32.554  36.026  28.908  1.00  0.00    -0.269 OA
BRANCH  27  30
ATOM     30  C   UNL A   1      34.205  34.396  29.252  1.00  0.00     0.039 A 
ATOM     31  C   UNL A   1      34.036  33.605  30.391  1.00  0.00     0.014 A 
ATOM     32  C   UNL A   1      35.488  34.659  28.764  1.00  0.00     0.014 A 
ATOM     33  C   UNL A   1      35.149  33.032  31.003  1.00  0.00     0.010 A 
ATOM     34  C   UNL A   1      36.588  34.016  29.323  1.00  0.00     0.010 A 
ATOM     35  C   UNL A   1      36.431  33.201  30.452  1.00  0.00    -0.014 A 
BRANCH  35  36
ATOM     36  C   UNL A   1      37.600  32.509  31.051  1.00  0.00     0.031 A 
ATOM     37  C   UNL A   1      38.087  32.873  32.426  1.00  0.00     0.074 A 
ATOM     38  C   UNL A   1      38.236  31.560  30.337  1.00  0.00     0.049 A 
ATOM     39  N   UNL A   1      39.060  32.342  33.125  1.00  0.00    -0.248 NA
ATOM     40  C   UNL A   1      37.412  33.994  33.096  1.00  0.00     0.031 C 
ATOM     41  C   UNL A   1      37.901  31.170  28.966  1.00  0.00     0.029 A 
ATOM     42  N   UNL A   1      39.291  30.746  30.665  1.00  0.00    -0.354 N 
ATOM     43  C   UNL A   1      39.111  33.063  34.310  1.00  0.00     0.074 A 
ATOM     44  C   UNL A   1      38.120  34.112  34.210  1.00  0.00     0.031 C 
ATOM     45  C   UNL A   1      38.701  30.161  28.589  1.00  0.00     0.029 A 
ATOM     46  C   UNL A   1      39.628  29.858  29.673  1.00  0.00     0.049 A 
ATOM     47  H   UNL A   1      39.761  30.795  31.529  1.00  0.00     0.167 HD
ATOM     48  C   UNL A   1      39.894  32.850  35.395  1.00  0.00     0.037 A 
ATOM     49  C   UNL A   1      40.575  28.901  29.646  1.00  0.00     0.037 A 
ATOM     50  C   UNL A   1      40.872  31.798  35.491  1.00  0.00     0.049 A 
ATOM     51  C   UNL A   1      41.429  28.685  30.866  1.00  0.00     0.074 A 
ATOM     52  C   UNL A   1      41.677  31.463  36.566  1.00  0.00     0.029 A 
ATOM     53  N   UNL A   1      41.186  30.915  34.468  1.00  0.00    -0.354 N 
ATOM     54  N   UNL A   1      41.407  29.314  32.016  1.00  0.00    -0.248 NA
ATOM     55  C   UNL A   1      42.432  27.615  30.786  1.00  0.00     0.031 C 
ATOM     56  C   UNL A   1      42.519  30.416  36.174  1.00  0.00     0.029 A 
ATOM     57  C   UNL A   1      42.193  30.053  34.876  1.00  0.00     0.049 A 
ATOM     58  H   UNL A   1      40.758  30.902  33.581  1.00  0.00     0.167 HD
ATOM     59  C   UNL A   1      42.371  28.701  32.804  1.00  0.00     0.074 A 
ATOM     60  C   UNL A   1      42.940  27.632  32.009  1.00  0.00     0.031 C 
ATOM     61  C   UNL A   1      42.753  28.998  34.072  1.00  0.00     0.037 A 
BRANCH  48  62
ATOM     62  C   UNL A   1      39.722  33.775  36.568  1.00  0.00     0.064 A 
ATOM     63  C   UNL A   1      38.892  33.448  37.651  1.00  0.00     0.173 A 
ATOM     64  C   UNL A   1      40.427  34.988  36.628  1.00  0.00     0.173 A 
ATOM     65  F   UNL A   1      38.187  32.306  37.640  1.00  0.00    -0.203 F 
ATOM     66  C   UNL A   1      38.748  34.311  38.734  1.00  0.00     0.198 A 
ATOM     67  C   UNL A   1      40.307  35.833  37.729  1.00  0.00     0.198 A 
ATOM     68  F   UNL A   1      41.239  35.351  35.624  1.00  0.00    -0.203 F 
ATOM     69  F   UNL A   1      37.907  34.000  39.730  1.00  0.00    -0.200 F 
ATOM     70  C   UNL A   1      39.463  35.499  38.776  1.00  0.00     0.200 A 
ATOM     71  F   UNL A   1      41.010  36.974  37.775  1.00  0.00    -0.200 F 
ATOM     72  F   UNL A   1      39.330  36.325  39.823  1.00  0.00    -0.200 F 
ENDBRANCH  48  62
BRANCH  49  73
ATOM     73  C   UNL A   1      40.739  28.052  28.436  1.00  0.00     0.064 A 
ATOM     74  C   UNL A   1      40.115  26.800  28.340  1.00  0.00     0.173 A 
ATOM     75  C   UNL A   1      41.529  28.470  27.354  1.00  0.00     0.173 A 
ATOM     76  F   UNL A   1      39.364  26.348  29.356  1.00  0.00    -0.203 F 
ATOM     77  C   UNL A   1      40.295  25.988  27.223  1.00  0.00     0.198 A 
ATOM     78  C   UNL A   1      41.680  27.672  26.223  1.00  0.00     0.198 A 
ATOM     79  F   UNL A   1      42.142  29.662  27.392  1.00  0.00    -0.203 F 
ATOM     80  F   UNL A   1      39.730  24.774  27.182  1.00  0.00    -0.200 F 
ATOM     81  C   UNL A   1      41.073  26.427  26.162  1.00  0.00     0.200 A 
ATOM     82  F   UNL A   1      42.418  28.108  25.193  1.00  0.00    -0.200 F 
ATOM     83  F   UNL A   1      41.243  25.648  25.085  1.00  0.00    -0.200 F 
ENDBRANCH  49  73
BRANCH  61  84
ATOM     84  C   UNL A   1      43.818  28.131  34.683  1.00  0.00     0.064 A 
ATOM     85  C   UNL A   1      45.177  28.475  34.623  1.00  0.00     0.173 A 
ATOM     86  C   UNL A   1      43.472  26.943  35.348  1.00  0.00     0.173 A 
ATOM     87  F   UNL A   1      45.563  29.592  33.988  1.00  0.00    -0.203 F 
ATOM     88  C   UNL A   1      46.152  27.641  35.163  1.00  0.00     0.198 A 
ATOM     89  C   UNL A   1      44.447  26.133  35.922  1.00  0.00     0.198 A 
ATOM     90  F   UNL A   1      42.187  26.572  35.445  1.00  0.00    -0.203 F 
ATOM     91  F   UNL A   1      47.449  27.956  35.031  1.00  0.00    -0.200 F 
ATOM     92  C   UNL A   1      45.787  26.474  35.818  1.00  0.00     0.200 A 
ATOM     93  F   UNL A   1      44.089  25.014  36.569  1.00  0.00    -0.200 F 
ATOM     94  F   UNL A   1      46.726  25.673  36.338  1.00  0.00    -0.200 F 
ENDBRANCH  61  84
ENDBRANCH  35  36
ENDBRANCH  27  30
ENDBRANCH  25  26
ENDBRANCH  24  25
ENDBRANCH   1  24
TORSDOF 16
ENDMDL
MODEL 2
REMARK VINA RESULT:     -11.4      0.414      2.022
REMARK SMILES CCC[NH2+][C@@](C)(C[N@H+]1CCC(C)(C)C1)C(=O)NCCCCNC(=O)c1ccc(-c2c3nc(c(-c4c(F)c(F)c(F)c(F)c4F)c4ccc([nH]4)c(-c4c(F)c(F)c(F)c(F)c4F)c4nc(c(-c5c(F)c(F)c(F)c(F)c5F)c5ccc2[nH]5)C=C4)C=C3)cc1
REMARK SMILES IDX 19 1 18 2 17 3 15 4 16 5 5 7 6 8 4 9 3 12 2 13 1 14 7 15
REMARK SMILES IDX 8 16 9 17 14 18 10 20 11 21 12 22 13 23 20 24 21 25 22 26
REMARK SMILES IDX 23 27 24 29 25 30 26 31 87 32 27 33 86 34 28 35 29 36 30 37
REMARK SMILES IDX 80 38 31 39 85 40 79 41 81 42 32 43 84 44 78 45 77 46 33 48
REMARK SMILES IDX 65 49 45 50 64 51 46 52 49 53 63 54 82 55 47 56 48 57 62 59
REMARK SMILES IDX 83 60 50 61 34 62 35 63 43 64 36 65 37 66 41 67 44 68 38 69
REMARK SMILES IDX 39 70 42 71 40 72 66 73 67 74 75 75 68 76 69 77 73 78 76 79
REMARK SMILES IDX 70 80 71 81 74 82 72 83 51 84 52 85 60 86 53 87 54 88 58 89
REMARK SMILES IDX 61 90 55 91 56 92 59 93 57 94
REMARK H PARENT 17 6 4 10 4 11 8 19 22 28 81 47 49 58
REMARK Flexibility Score: inf
ROOT
ATOM      1  C   UNL A   1      31.426  30.701  25.664  1.00  0.00     0.023 C 
ENDROOT
BRANCH   1   2
ATOM      2  C   UNL A   1      32.574  29.691  25.629  1.00  0.00     0.116 C 
BRANCH   2   3
ATOM      3  N   UNL A   1      33.083  29.468  24.290  1.00  0.00    -0.350 N 
ATOM      4  C   UNL A   1      32.816  28.534  23.329  1.00  0.00     0.287 C 
ATOM      5  O   UNL A   1      33.505  28.654  22.309  1.00  0.00    -0.268 OA
ATOM      6  H   UNL A   1      33.763  30.126  24.016  1.00  0.00     0.163 HD
BRANCH   4   7
ATOM      7  C   UNL A   1      31.725  27.423  23.506  1.00  0.00     0.221 C 
ATOM      8  C   UNL A   1      31.687  26.553  22.227  1.00  0.00     0.097 C 
BRANCH   7   9
ATOM      9  N   UNL A   1      32.010  26.506  24.652  1.00  0.00    -0.329 N 
ATOM     10  H   UNL A   1      32.420  27.074  25.393  1.00  0.00     0.347 HD
ATOM     11  H   UNL A   1      31.106  26.077  24.849  1.00  0.00     0.347 HD
BRANCH   9  12
ATOM     12  C   UNL A   1      32.897  25.368  24.448  1.00  0.00     0.261 C 
BRANCH  12  13
ATOM     13  C   UNL A   1      34.225  25.608  25.185  1.00  0.00     0.058 C 
ATOM     14  C   UNL A   1      35.171  24.412  25.152  1.00  0.00     0.010 C 
ENDBRANCH  12  13
ENDBRANCH   9  12
ENDBRANCH   7   9
BRANCH   7  15
ATOM     15  C   UNL A   1      30.291  28.046  23.782  1.00  0.00     0.341 C 
BRANCH  15  16
ATOM     16  N   UNL A   1      29.473  28.715  22.746  1.00  0.00    -0.329 N 
ATOM     17  C   UNL A   1      28.024  28.625  22.916  1.00  0.00     0.263 C 
ATOM     18  C   UNL A   1      29.820  30.109  22.442  1.00  0.00     0.269 C 
ATOM     19  H   UNL A   1      29.740  28.143  21.945  1.00  0.00     0.348 HD
ATOM     20  C   UNL A   1      27.538  30.045  23.148  1.00  0.00     0.073 C 
ATOM     21  C   UNL A   1      28.502  30.892  22.319  1.00  0.00     0.019 C 
ATOM     22  C   UNL A   1      28.044  30.969  20.853  1.00  0.00     0.017 C 
ATOM     23  C   UNL A   1      28.627  32.310  22.885  1.00  0.00     0.017 C 
ENDBRANCH  15  16
ENDBRANCH   7  15
ENDBRANCH   4   7
ENDBRANCH   2   3
ENDBRANCH   1   2
BRANCH   1  24
ATOM     24  C   UNL A   1      31.414  31.627  26.879  1.00  0.00     0.023 C 
BRANCH  24  25
ATOM     25  C   UNL A   1      32.674  32.461  27.066  1.00  0.00     0.116 C 
BRANCH  25  26
ATOM     26  N   UNL A   1      32.395  33.828  27.479  1.00  0.00    -0.352 N 
ATOM     27  C   UNL A   1      33.019  34.599  28.425  1.00  0.00     0.251 C 
ATOM     28  H   UNL A   1      31.647  34.265  27.010  1.00  0.00     0.163 HD
ATOM     29  O   UNL A   1      32.562  35.703  28.714  1.00  0.00    -0.269 OA
BRANCH  27  30
ATOM     30  C   UNL A   1      34.214  34.090  29.126  1.00  0.00     0.039 A 
ATOM     31  C   UNL A   1      34.040  33.127  30.122  1.00  0.00     0.014 A 
ATOM     32  C   UNL A   1      35.497  34.544  28.805  1.00  0.00     0.014 A 
ATOM     33  C   UNL A   1      35.155  32.578  30.753  1.00  0.00     0.010 A 
ATOM     34  C   UNL A   1      36.611  33.932  29.372  1.00  0.00     0.010 A 
ATOM     35  C   UNL A   1      36.452  32.947  30.356  1.00  0.00    -0.014 A 
BRANCH  35  36
ATOM     36  C   UNL A   1      37.635  32.289  30.963  1.00  0.00     0.031 A 
ATOM     37  C   UNL A   1      38.107  32.671  32.338  1.00  0.00     0.074 A 
ATOM     38  C   UNL A   1      38.300  31.354  30.255  1.00  0.00     0.049 A 
ATOM     39  N   UNL A   1      39.091  32.168  33.043  1.00  0.00    -0.248 NA
ATOM     40  C   UNL A   1      37.401  33.777  33.001  1.00  0.00     0.031 C 
ATOM     41  C   UNL A   1      37.980  30.950  28.884  1.00  0.00     0.029 A 
ATOM     42  N   UNL A   1      39.373  30.569  30.590  1.00  0.00    -0.354 N 
ATOM     43  C   UNL A   1      39.119  32.895  34.225  1.00  0.00     0.074 A 
ATOM     44  C   UNL A   1      38.101  33.917  34.117  1.00  0.00     0.031 C 
ATOM     45  C   UNL A   1      38.808  29.961  28.514  1.00  0.00     0.029 A 
ATOM     46  C   UNL A   1      39.738  29.686  29.603  1.00  0.00     0.049 A 
ATOM     47  H   UNL A   1      39.839  30.633  31.456  1.00  0.00     0.167 HD
ATOM     48  C   UNL A   1      39.903  32.707  35.314  1.00  0.00     0.037 A 
ATOM     49  C   UNL A   1      40.710  28.754  29.584  1.00  0.00     0.037 A 
ATOM     50  C   UNL A   1      40.907  31.681  35.419  1.00  0.00     0.049 A 
ATOM     51  C   UNL A   1      41.564  28.565  30.808  1.00  0.00     0.074 A 
ATOM     52  C   UNL A   1      41.716  31.371  36.498  1.00  0.00     0.029 A 
ATOM     53  N   UNL A   1      41.248  30.802  34.400  1.00  0.00    -0.354 N 
ATOM     54  N   UNL A   1      41.520  29.198  31.955  1.00  0.00    -0.248 NA
ATOM     55  C   UNL A   1      42.595  27.522  30.736  1.00  0.00     0.031 C 
ATOM     56  C   UNL A   1      42.586  30.345  36.114  1.00  0.00     0.029 A 
ATOM     57  C   UNL A   1      42.276  29.969  34.816  1.00  0.00     0.049 A 
ATOM     58  H   UNL A   1      40.825  30.775  33.512  1.00  0.00     0.167 HD
ATOM     59  C   UNL A   1      42.497  28.614  32.750  1.00  0.00     0.074 A 
ATOM     60  C   UNL A   1      43.097  27.557  31.961  1.00  0.00     0.031 C 
ATOM     61  C   UNL A   1      42.866  28.925  34.018  1.00  0.00     0.037 A 
BRANCH  48  62
ATOM     62  C   UNL A   1      39.701  33.632  36.482  1.00  0.00     0.064 A 
ATOM     63  C   UNL A   1      40.302  34.899  36.533  1.00  0.00     0.173 A 
ATOM     64  C   UNL A   1      38.865  33.263  37.548  1.00  0.00     0.173 A 
ATOM     65  F   UNL A   1      41.120  35.299  35.546  1.00  0.00    -0.203 F 
ATOM     66  C   UNL A   1      40.100  35.748  37.618  1.00  0.00     0.198 A 
ATOM     67  C   UNL A   1      38.639  34.129  38.615  1.00  0.00     0.198 A 
ATOM     68  F   UNL A   1      38.260  32.065  37.551  1.00  0.00    -0.203 F 
ATOM     69  F   UNL A   1      40.729  36.931  37.668  1.00  0.00    -0.200 F 
ATOM     70  C   UNL A   1      39.262  35.365  38.654  1.00  0.00     0.200 A 
ATOM     71  F   UNL A   1      37.816  33.762  39.609  1.00  0.00    -0.200 F 
ATOM     72  F   UNL A   1      39.061  36.187  39.694  1.00  0.00    -0.200 F 
ENDBRANCH  48  62
BRANCH  49  73
ATOM     73  C   UNL A   1      40.901  27.905  28.378  1.00  0.00     0.064 A 
ATOM     74  C   UNL A   1      41.701  28.337  27.310  1.00  0.00     0.173 A 
ATOM     75  C   UNL A   1      40.284  26.651  28.264  1.00  0.00     0.173 A 
ATOM     76  F   UNL A   1      42.298  29.537  27.363  1.00  0.00    -0.203 F 
ATOM     77  C   UNL A   1      41.853  27.560  26.163  1.00  0.00     0.198 A 
ATOM     78  C   UNL A   1      40.466  25.859  27.132  1.00  0.00     0.198 A 
ATOM     79  F   UNL A   1      39.516  26.187  29.260  1.00  0.00    -0.203 F 
ATOM     80  F   UNL A   1      42.579  28.021  25.136  1.00  0.00    -0.200 F 
ATOM     81  C   UNL A   1      41.241  26.319  26.078  1.00  0.00     0.200 A 
ATOM     82  F   UNL A   1      39.886  24.653  27.061  1.00  0.00    -0.200 F 
ATOM     83  F   UNL A   1      41.391  25.569  24.977  1.00  0.00    -0.200 F 
ENDBRANCH  49  73
BRANCH  61  84
ATOM     84  C   UNL A   1      43.951  28.089  34.638  1.00  0.00     0.064 A 
ATOM     85  C   UNL A   1      43.667  26.894  35.317  1.00  0.00     0.173 A 
ATOM     86  C   UNL A   1      45.294  28.484  34.542  1.00  0.00     0.173 A 
ATOM     87  F   UNL A   1      42.398  26.477  35.448  1.00  0.00    -0.203 F 
ATOM     88  C   UNL A   1      44.682  26.151  35.915  1.00  0.00     0.198 A 
ATOM     89  C   UNL A   1      46.310  27.718  35.108  1.00  0.00     0.198 A 
ATOM     90  F   UNL A   1      45.623  29.612  33.895  1.00  0.00    -0.203 F 
ATOM     91  F   UNL A   1      44.378  25.051  36.618  1.00  0.00    -0.200 F 
ATOM     92  C   UNL A   1      46.002  26.560  35.805  1.00  0.00     0.200 A 
ATOM     93  F   UNL A   1      47.586  28.107  34.985  1.00  0.00    -0.200 F 
ATOM     94  F   UNL A   1      46.977  25.845  36.381  1.00  0.00    -0.200 F 
ENDBRANCH  61  84
ENDBRANCH  35  36
ENDBRANCH  27  30
ENDBRANCH  25  26
ENDBRANCH  24  25
ENDBRANCH   1  24
TORSDOF 16
ENDMDL
MODEL 3
REMARK VINA RESULT:     -11.3      1.423      3.199
REMARK SMILES CCC[NH2+][C@@](C)(C[N@H+]1CCC(C)(C)C1)C(=O)NCCCCNC(=O)c1ccc(-c2c3nc(c(-c4c(F)c(F)c(F)c(F)c4F)c4ccc([nH]4)c(-c4c(F)c(F)c(F)c(F)c4F)c4nc(c(-c5c(F)c(F)c(F)c(F)c5F)c5ccc2[nH]5)C=C4)C=C3)cc1
REMARK SMILES IDX 19 1 18 2 17 3 15 4 16 5 5 7 6 8 4 9 3 12 2 13 1 14 7 15
REMARK SMILES IDX 8 16 9 17 14 18 10 20 11 21 12 22 13 23 20 24 21 25 22 26
REMARK SMILES IDX 23 27 24 29 25 30 26 31 87 32 27 33 86 34 28 35 29 36 30 37
REMARK SMILES IDX 80 38 31 39 85 40 79 41 81 42 32 43 84 44 78 45 77 46 33 48
REMARK SMILES IDX 65 49 45 50 64 51 46 52 49 53 63 54 82 55 47 56 48 57 62 59
REMARK SMILES IDX 83 60 50 61 34 62 35 63 43 64 36 65 37 66 41 67 44 68 38 69
REMARK SMILES IDX 39 70 42 71 40 72 66 73 67 74 75 75 68 76 69 77 73 78 76 79
REMARK SMILES IDX 70 80 71 81 74 82 72 83 51 84 52 85 60 86 53 87 54 88 58 89
REMARK SMILES IDX 61 90 55 91 56 92 59 93 57 94
REMARK H PARENT 17 6 4 10 4 11 8 19 22 28 81 47 49 58
REMARK Flexibility Score: inf
ROOT
ATOM      1  C   UNL A   1      31.629  30.546  26.622  1.00  0.00     0.023 C 
ENDROOT
BRANCH   1   2
ATOM      2  C   UNL A   1      33.073  30.137  26.329  1.00  0.00     0.116 C 
BRANCH   2   3
ATOM      3  N   UNL A   1      33.322  29.928  24.917  1.00  0.00    -0.350 N 
ATOM      4  C   UNL A   1      33.344  28.816  24.123  1.00  0.00     0.287 C 
ATOM      5  O   UNL A   1      33.646  29.047  22.947  1.00  0.00    -0.268 OA
ATOM      6  H   UNL A   1      33.515  30.760  24.427  1.00  0.00     0.163 HD
BRANCH   4   7
ATOM      7  C   UNL A   1      33.004  27.384  24.660  1.00  0.00     0.221 C 
ATOM      8  C   UNL A   1      33.660  27.203  26.049  1.00  0.00     0.097 C 
BRANCH   7   9
ATOM      9  N   UNL A   1      31.535  27.164  24.838  1.00  0.00    -0.329 N 
ATOM     10  H   UNL A   1      31.072  28.041  24.599  1.00  0.00     0.347 HD
ATOM     11  H   UNL A   1      31.336  26.362  24.240  1.00  0.00     0.347 HD
BRANCH   9  12
ATOM     12  C   UNL A   1      31.029  26.758  26.143  1.00  0.00     0.261 C 
BRANCH  12  13
ATOM     13  C   UNL A   1      30.009  25.620  25.972  1.00  0.00     0.058 C 
ATOM     14  C   UNL A   1      30.630  24.228  26.009  1.00  0.00     0.010 C 
ENDBRANCH  12  13
ENDBRANCH   9  12
ENDBRANCH   7   9
BRANCH   7  15
ATOM     15  C   UNL A   1      33.505  26.248  23.671  1.00  0.00     0.341 C 
BRANCH  15  16
ATOM     16  N   UNL A   1      33.598  24.819  24.041  1.00  0.00    -0.329 N 
ATOM     17  C   UNL A   1      32.996  23.873  23.102  1.00  0.00     0.263 C 
ATOM     18  C   UNL A   1      34.930  24.325  24.409  1.00  0.00     0.269 C 
ATOM     19  H   UNL A   1      33.027  24.841  24.886  1.00  0.00     0.348 HD
ATOM     20  C   UNL A   1      34.140  23.032  22.562  1.00  0.00     0.073 C 
ATOM     21  C   UNL A   1      35.112  22.953  23.738  1.00  0.00     0.019 C 
ATOM     22  C   UNL A   1      34.723  21.817  24.697  1.00  0.00     0.017 C 
ATOM     23  C   UNL A   1      36.552  22.740  23.258  1.00  0.00     0.017 C 
ENDBRANCH  15  16
ENDBRANCH   7  15
ENDBRANCH   4   7
ENDBRANCH   2   3
ENDBRANCH   1   2
BRANCH   1  24
ATOM     24  C   UNL A   1      31.402  32.046  26.798  1.00  0.00     0.023 C 
BRANCH  24  25
ATOM     25  C   UNL A   1      32.652  32.854  27.119  1.00  0.00     0.116 C 
BRANCH  25  26
ATOM     26  N   UNL A   1      32.356  34.189  27.617  1.00  0.00    -0.352 N 
ATOM     27  C   UNL A   1      32.974  34.910  28.604  1.00  0.00     0.251 C 
ATOM     28  H   UNL A   1      31.598  34.641  27.179  1.00  0.00     0.163 HD
ATOM     29  O   UNL A   1      32.502  35.987  28.962  1.00  0.00    -0.269 OA
BRANCH  27  30
ATOM     30  C   UNL A   1      34.182  34.378  29.265  1.00  0.00     0.039 A 
ATOM     31  C   UNL A   1      34.021  33.598  30.412  1.00  0.00     0.014 A 
ATOM     32  C   UNL A   1      35.462  34.632  28.762  1.00  0.00     0.014 A 
ATOM     33  C   UNL A   1      35.139  33.026  31.018  1.00  0.00     0.010 A 
ATOM     34  C   UNL A   1      36.565  33.988  29.315  1.00  0.00     0.010 A 
ATOM     35  C   UNL A   1      36.416  33.184  30.453  1.00  0.00    -0.014 A 
BRANCH  35  36
ATOM     36  C   UNL A   1      37.587  32.493  31.046  1.00  0.00     0.031 A 
ATOM     37  C   UNL A   1      38.081  32.857  32.418  1.00  0.00     0.074 A 
ATOM     38  C   UNL A   1      38.221  31.544  30.329  1.00  0.00     0.049 A 
ATOM     39  N   UNL A   1      39.057  32.325  33.112  1.00  0.00    -0.248 NA
ATOM     40  C   UNL A   1      37.410  33.977  33.092  1.00  0.00     0.031 C 
ATOM     41  C   UNL A   1      37.879  31.153  28.959  1.00  0.00     0.029 A 
ATOM     42  N   UNL A   1      39.277  30.730  30.651  1.00  0.00    -0.354 N 
ATOM     43  C   UNL A   1      39.115  33.046  34.297  1.00  0.00     0.074 A 
ATOM     44  C   UNL A   1      38.122  34.095  34.202  1.00  0.00     0.031 C 
ATOM     45  C   UNL A   1      38.677  30.145  28.577  1.00  0.00     0.029 A 
ATOM     46  C   UNL A   1      39.610  29.842  29.657  1.00  0.00     0.049 A 
ATOM     47  H   UNL A   1      39.751  30.778  31.513  1.00  0.00     0.167 HD
ATOM     48  C   UNL A   1      39.903  32.833  35.378  1.00  0.00     0.037 A 
ATOM     49  C   UNL A   1      40.557  28.885  29.625  1.00  0.00     0.037 A 
ATOM     50  C   UNL A   1      40.881  31.782  35.470  1.00  0.00     0.049 A 
ATOM     51  C   UNL A   1      41.416  28.669  30.841  1.00  0.00     0.074 A 
ATOM     52  C   UNL A   1      41.692  31.446  36.540  1.00  0.00     0.029 A 
ATOM     53  N   UNL A   1      41.191  30.898  34.445  1.00  0.00    -0.354 N 
ATOM     54  N   UNL A   1      41.400  29.298  31.991  1.00  0.00    -0.248 NA
ATOM     55  C   UNL A   1      42.420  27.600  30.756  1.00  0.00     0.031 C 
ATOM     56  C   UNL A   1      42.532  30.399  36.144  1.00  0.00     0.029 A 
ATOM     57  C   UNL A   1      42.200  30.037  34.848  1.00  0.00     0.049 A 
ATOM     58  H   UNL A   1      40.759  30.886  33.560  1.00  0.00     0.167 HD
ATOM     59  C   UNL A   1      42.368  28.685  32.775  1.00  0.00     0.074 A 
ATOM     60  C   UNL A   1      42.933  27.617  31.976  1.00  0.00     0.031 C 
ATOM     61  C   UNL A   1      42.756  28.982  34.040  1.00  0.00     0.037 A 
BRANCH  48  62
ATOM     62  C   UNL A   1      39.736  33.758  36.552  1.00  0.00     0.064 A 
ATOM     63  C   UNL A   1      40.374  35.007  36.605  1.00  0.00     0.173 A 
ATOM     64  C   UNL A   1      38.895  33.409  37.621  1.00  0.00     0.173 A 
ATOM     65  F   UNL A   1      41.198  35.387  35.615  1.00  0.00    -0.203 F 
ATOM     66  C   UNL A   1      40.204  35.856  37.695  1.00  0.00     0.198 A 
ATOM     67  C   UNL A   1      38.701  34.276  38.694  1.00  0.00     0.198 A 
ATOM     68  F   UNL A   1      38.255  32.230  37.622  1.00  0.00    -0.203 F 
ATOM     69  F   UNL A   1      40.868  37.019  37.747  1.00  0.00    -0.200 F 
ATOM     70  C   UNL A   1      39.361  35.493  38.734  1.00  0.00     0.200 A 
ATOM     71  F   UNL A   1      37.873  33.930  39.690  1.00  0.00    -0.200 F 
ATOM     72  F   UNL A   1      39.191  36.316  39.779  1.00  0.00    -0.200 F 
ENDBRANCH  48  62
BRANCH  49  73
ATOM     73  C   UNL A   1      40.715  28.037  28.414  1.00  0.00     0.064 A 
ATOM     74  C   UNL A   1      40.065  26.799  28.309  1.00  0.00     0.173 A 
ATOM     75  C   UNL A   1      41.524  28.441  27.342  1.00  0.00     0.173 A 
ATOM     76  F   UNL A   1      39.294  26.359  29.315  1.00  0.00    -0.203 F 
ATOM     77  C   UNL A   1      40.240  25.986  27.191  1.00  0.00     0.198 A 
ATOM     78  C   UNL A   1      41.670  27.643  26.209  1.00  0.00     0.198 A 
ATOM     79  F   UNL A   1      42.162  29.620  27.389  1.00  0.00    -0.203 F 
ATOM     80  F   UNL A   1      39.650  24.784  27.139  1.00  0.00    -0.200 F 
ATOM     81  C   UNL A   1      41.038  26.412  26.139  1.00  0.00     0.200 A 
ATOM     82  F   UNL A   1      42.428  28.067  25.188  1.00  0.00    -0.200 F 
ATOM     83  F   UNL A   1      41.202  25.632  25.061  1.00  0.00    -0.200 F 
ENDBRANCH  49  73
BRANCH  61  84
ATOM     84  C   UNL A   1      43.824  28.115  34.647  1.00  0.00     0.064 A 
ATOM     85  C   UNL A   1      43.523  26.890  35.261  1.00  0.00     0.173 A 
ATOM     86  C   UNL A   1      45.170  28.512  34.604  1.00  0.00     0.173 A 
ATOM     87  F   UNL A   1      42.251  26.469  35.340  1.00  0.00    -0.203 F 
ATOM     88  C   UNL A   1      44.522  26.118  35.849  1.00  0.00     0.198 A 
ATOM     89  C   UNL A   1      46.170  27.719  35.158  1.00  0.00     0.198 A 
ATOM     90  F   UNL A   1      45.516  29.669  34.020  1.00  0.00    -0.203 F 
ATOM     91  F   UNL A   1      44.200  24.986  36.491  1.00  0.00    -0.200 F 
ATOM     92  C   UNL A   1      45.845  26.529  35.792  1.00  0.00     0.200 A 
ATOM     93  F   UNL A   1      47.450  28.111  35.087  1.00  0.00    -0.200 F 
ATOM     94  F   UNL A   1      46.804  25.786  36.358  1.00  0.00    -0.200 F 
ENDBRANCH  61  84
ENDBRANCH  35  36
ENDBRANCH  27  30
ENDBRANCH  25  26
ENDBRANCH  24  25
ENDBRANCH   1  24
TORSDOF 16
ENDMDL
