MODEL 1
REMARK VINA RESULT:     -12.1      0.000      0.000
REMARK SMILES C[NH+]1CC[NH+](CC[C@H]2CCC[C@@]2([NH3+])C(=O)NCCCCNC(=O)c2ccc(-c3c4nc(c(-c5c(F)c(F)c(F)c(F)c5F)c5ccc([nH]5)c(-c5c(F)c(F)c(F)c(F)c5F)c5nc(c(-c6c(F)c(F)c(F)c(F)c6F)c6ccc3[nH]6)C=C5)C=C4)cc2)CC1
REMARK SMILES IDX 18 1 17 2 16 3 14 4 15 5 12 7 8 8 9 9 10 10 11 11 7 12 6 13
REMARK SMILES IDX 5 14 1 15 2 16 3 17 88 18 4 20 87 21 13 23 19 27 20 28 21 29
REMARK SMILES IDX 22 30 23 32 24 33 25 34 86 35 26 36 85 37 27 38 28 39 29 40
REMARK SMILES IDX 79 41 30 42 84 43 78 44 80 45 31 46 83 47 77 48 76 49 32 51
REMARK SMILES IDX 64 52 44 53 63 54 45 55 48 56 62 57 81 58 46 59 47 60 61 62
REMARK SMILES IDX 82 63 49 64 33 65 34 66 42 67 35 68 36 69 40 70 43 71 37 72
REMARK SMILES IDX 38 73 41 74 39 75 65 76 66 77 74 78 67 79 68 80 72 81 75 82
REMARK SMILES IDX 69 83 70 84 73 85 71 86 50 87 51 88 59 89 52 90 53 91 57 92
REMARK SMILES IDX 60 93 54 94 55 95 58 96 56 97
REMARK H PARENT 16 6 2 19 5 22 13 24 13 25 13 26 21 31 80 50 48 61
REMARK Flexibility Score: inf
ROOT
ATOM      1  C   UNL A   1      31.533  30.894  26.171  1.00  0.00     0.023 C 
ENDROOT
BRANCH   1   2
ATOM      2  C   UNL A   1      32.297  29.926  27.092  1.00  0.00     0.116 C 
BRANCH   2   3
ATOM      3  N   UNL A   1      31.683  28.620  27.248  1.00  0.00    -0.351 N 
ATOM      4  C   UNL A   1      31.751  27.461  26.533  1.00  0.00     0.281 C 
ATOM      5  O   UNL A   1      31.127  26.516  27.038  1.00  0.00    -0.268 OA
ATOM      6  H   UNL A   1      31.095  28.557  28.035  1.00  0.00     0.163 HD
BRANCH   4   7
ATOM      7  C   UNL A   1      32.511  27.285  25.162  1.00  0.00     0.177 C 
ATOM      8  C   UNL A   1      31.748  27.498  23.799  1.00  0.00     0.066 C 
ATOM      9  C   UNL A   1      32.720  28.361  22.949  1.00  0.00     0.011 C 
ATOM     10  C   UNL A   1      34.086  28.257  23.614  1.00  0.00     0.008 C 
ATOM     11  C   UNL A   1      33.754  28.186  25.094  1.00  0.00     0.079 C 
BRANCH   8  12
ATOM     12  C   UNL A   1      30.366  28.144  23.894  1.00  0.00     0.072 C 
BRANCH  12  13
ATOM     13  C   UNL A   1      30.167  29.638  23.620  1.00  0.00     0.263 C 
BRANCH  13  14
ATOM     14  N   UNL A   1      28.813  30.165  23.465  1.00  0.00    -0.326 N 
ATOM     15  C   UNL A   1      28.024  32.666  20.017  1.00  0.00     0.333 C 
ATOM     16  N   UNL A   1      27.822  31.937  21.271  1.00  0.00    -0.328 N 
ATOM     17  C   UNL A   1      28.772  32.402  22.292  1.00  0.00     0.324 C 
ATOM     18  C   UNL A   1      27.965  30.486  21.058  1.00  0.00     0.324 C 
ATOM     19  H   UNL A   1      26.874  32.119  21.601  1.00  0.00     0.348 HD
ATOM     20  C   UNL A   1      28.669  31.611  23.607  1.00  0.00     0.324 C 
ATOM     21  C   UNL A   1      27.978  29.649  22.366  1.00  0.00     0.324 C 
ATOM     22  H   UNL A   1      28.410  29.734  24.297  1.00  0.00     0.348 HD
ENDBRANCH  13  14
ENDBRANCH  12  13
ENDBRANCH   8  12
BRANCH   7  23
ATOM     23  N   UNL A   1      33.063  25.893  25.135  1.00  0.00    -0.345 N 
ATOM     24  H   UNL A   1      33.866  25.835  25.760  1.00  0.00     0.345 HD
ATOM     25  H   UNL A   1      33.352  25.660  24.185  1.00  0.00     0.345 HD
ATOM     26  H   UNL A   1      32.345  25.237  25.442  1.00  0.00     0.345 HD
ENDBRANCH   7  23
ENDBRANCH   4   7
ENDBRANCH   2   3
ENDBRANCH   1   2
BRANCH   1  27
ATOM     27  C   UNL A   1      31.367  32.319  26.670  1.00  0.00     0.023 C 
BRANCH  27  28
ATOM     28  C   UNL A   1      32.630  32.911  27.256  1.00  0.00     0.116 C 
BRANCH  28  29
ATOM     29  N   UNL A   1      32.451  34.290  27.690  1.00  0.00    -0.352 N 
ATOM     30  C   UNL A   1      33.065  34.982  28.702  1.00  0.00     0.251 C 
ATOM     31  H   UNL A   1      31.785  34.805  27.178  1.00  0.00     0.163 HD
ATOM     32  O   UNL A   1      32.656  36.090  29.034  1.00  0.00    -0.269 OA
BRANCH  30  33
ATOM     33  C   UNL A   1      34.205  34.365  29.398  1.00  0.00     0.039 A 
ATOM     34  C   UNL A   1      33.965  33.501  30.468  1.00  0.00     0.014 A 
ATOM     35  C   UNL A   1      35.507  34.613  28.960  1.00  0.00     0.014 A 
ATOM     36  C   UNL A   1      35.036  32.833  31.056  1.00  0.00     0.010 A 
ATOM     37  C   UNL A   1      36.551  33.854  29.459  1.00  0.00     0.010 A 
ATOM     38  C   UNL A   1      36.330  32.976  30.529  1.00  0.00    -0.014 A 
BRANCH  38  39
ATOM     39  C   UNL A   1      37.488  32.262  31.109  1.00  0.00     0.031 A 
ATOM     40  C   UNL A   1      37.977  32.644  32.478  1.00  0.00     0.074 A 
ATOM     41  C   UNL A   1      38.133  31.331  30.381  1.00  0.00     0.049 A 
ATOM     42  N   UNL A   1      39.025  32.217  33.134  1.00  0.00    -0.248 NA
ATOM     43  C   UNL A   1      37.208  33.679  33.191  1.00  0.00     0.031 C 
ATOM     44  C   UNL A   1      37.780  30.925  29.018  1.00  0.00     0.029 A 
ATOM     45  N   UNL A   1      39.225  30.560  30.684  1.00  0.00    -0.354 N 
ATOM     46  C   UNL A   1      39.049  32.944  34.316  1.00  0.00     0.074 A 
ATOM     47  C   UNL A   1      37.961  33.894  34.257  1.00  0.00     0.031 C 
ATOM     48  C   UNL A   1      38.617  29.954  28.619  1.00  0.00     0.029 A 
ATOM     49  C   UNL A   1      39.586  29.698  29.678  1.00  0.00     0.049 A 
ATOM     50  H   UNL A   1      39.706  30.620  31.542  1.00  0.00     0.167 HD
ATOM     51  C   UNL A   1      39.879  32.806  35.374  1.00  0.00     0.037 A 
ATOM     52  C   UNL A   1      40.591  28.804  29.626  1.00  0.00     0.037 A 
ATOM     53  C   UNL A   1      40.931  31.828  35.439  1.00  0.00     0.049 A 
ATOM     54  C   UNL A   1      41.496  28.663  30.821  1.00  0.00     0.074 A 
ATOM     55  C   UNL A   1      41.800  31.560  36.481  1.00  0.00     0.029 A 
ATOM     56  N   UNL A   1      41.249  30.949  34.413  1.00  0.00    -0.354 N 
ATOM     57  N   UNL A   1      41.470  29.310  31.962  1.00  0.00    -0.248 NA
ATOM     58  C   UNL A   1      42.566  27.662  30.724  1.00  0.00     0.031 C 
ATOM     59  C   UNL A   1      42.668  30.544  36.071  1.00  0.00     0.029 A 
ATOM     60  C   UNL A   1      42.310  30.146  34.792  1.00  0.00     0.049 A 
ATOM     61  H   UNL A   1      40.788  30.905  33.544  1.00  0.00     0.167 HD
ATOM     62  C   UNL A   1      42.495  28.774  32.729  1.00  0.00     0.074 A 
ATOM     63  C   UNL A   1      43.114  27.737  31.928  1.00  0.00     0.031 C 
ATOM     64  C   UNL A   1      42.892  29.108  33.981  1.00  0.00     0.037 A 
BRANCH  51  65
ATOM     65  C   UNL A   1      39.665  33.717  36.548  1.00  0.00     0.064 A 
ATOM     66  C   UNL A   1      40.269  34.983  36.614  1.00  0.00     0.173 A 
ATOM     67  C   UNL A   1      38.836  33.331  37.611  1.00  0.00     0.173 A 
ATOM     68  F   UNL A   1      41.086  35.394  35.633  1.00  0.00    -0.203 F 
ATOM     69  C   UNL A   1      40.078  35.813  37.715  1.00  0.00     0.198 A 
ATOM     70  C   UNL A   1      38.620  34.178  38.696  1.00  0.00     0.198 A 
ATOM     71  F   UNL A   1      38.234  32.133  37.599  1.00  0.00    -0.203 F 
ATOM     72  F   UNL A   1      40.712  36.991  37.782  1.00  0.00    -0.200 F 
ATOM     73  C   UNL A   1      39.247  35.413  38.751  1.00  0.00     0.200 A 
ATOM     74  F   UNL A   1      37.808  33.796  39.691  1.00  0.00    -0.200 F 
ATOM     75  F   UNL A   1      39.059  36.216  39.808  1.00  0.00    -0.200 F 
ENDBRANCH  51  65
BRANCH  52  76
ATOM     76  C   UNL A   1      40.769  27.946  28.426  1.00  0.00     0.064 A 
ATOM     77  C   UNL A   1      41.541  28.384  27.341  1.00  0.00     0.173 A 
ATOM     78  C   UNL A   1      40.167  26.684  28.329  1.00  0.00     0.173 A 
ATOM     79  F   UNL A   1      42.127  29.590  27.379  1.00  0.00    -0.203 F 
ATOM     80  C   UNL A   1      41.680  27.605  26.193  1.00  0.00     0.198 A 
ATOM     81  C   UNL A   1      40.330  25.893  27.193  1.00  0.00     0.198 A 
ATOM     82  F   UNL A   1      39.424  26.214  29.342  1.00  0.00    -0.203 F 
ATOM     83  F   UNL A   1      42.382  28.071  25.151  1.00  0.00    -0.200 F 
ATOM     84  C   UNL A   1      41.078  26.359  26.122  1.00  0.00     0.200 A 
ATOM     85  F   UNL A   1      39.759  24.683  27.134  1.00  0.00    -0.200 F 
ATOM     86  F   UNL A   1      41.211  25.610  25.018  1.00  0.00    -0.200 F 
ENDBRANCH  52  76
BRANCH  64  87
ATOM     87  C   UNL A   1      44.018  28.317  34.576  1.00  0.00     0.064 A 
ATOM     88  C   UNL A   1      45.351  28.740  34.474  1.00  0.00     0.173 A 
ATOM     89  C   UNL A   1      43.752  27.142  35.296  1.00  0.00     0.173 A 
ATOM     90  F   UNL A   1      45.656  29.848  33.783  1.00  0.00    -0.203 F 
ATOM     91  C   UNL A   1      46.380  28.000  35.049  1.00  0.00     0.198 A 
ATOM     92  C   UNL A   1      44.780  26.423  35.897  1.00  0.00     0.198 A 
ATOM     93  F   UNL A   1      42.492  26.700  35.429  1.00  0.00    -0.203 F 
ATOM     94  F   UNL A   1      47.652  28.396  34.898  1.00  0.00    -0.200 F 
ATOM     95  C   UNL A   1      46.094  26.847  35.766  1.00  0.00     0.200 A 
ATOM     96  F   UNL A   1      44.500  25.318  36.603  1.00  0.00    -0.200 F 
ATOM     97  F   UNL A   1      47.086  26.142  36.327  1.00  0.00    -0.200 F 
ENDBRANCH  64  87
ENDBRANCH  38  39
ENDBRANCH  30  33
ENDBRANCH  28  29
ENDBRANCH  27  28
ENDBRANCH   1  27
TORSDOF 15
ENDMDL
MODEL 2
REMARK VINA RESULT:     -12.1      0.891      7.551
REMARK SMILES C[NH+]1CC[NH+](CC[C@H]2CCC[C@@]2([NH3+])C(=O)NCCCCNC(=O)c2ccc(-c3c4nc(c(-c5c(F)c(F)c(F)c(F)c5F)c5ccc([nH]5)c(-c5c(F)c(F)c(F)c(F)c5F)c5nc(c(-c6c(F)c(F)c(F)c(F)c6F)c6ccc3[nH]6)C=C5)C=C4)cc2)CC1
REMARK SMILES IDX 18 1 17 2 16 3 14 4 15 5 12 7 8 8 9 9 10 10 11 11 7 12 6 13
REMARK SMILES IDX 5 14 1 15 2 16 3 17 88 18 4 20 87 21 13 23 19 27 20 28 21 29
REMARK SMILES IDX 22 30 23 32 24 33 25 34 86 35 26 36 85 37 27 38 28 39 29 40
REMARK SMILES IDX 79 41 30 42 84 43 78 44 80 45 31 46 83 47 77 48 76 49 32 51
REMARK SMILES IDX 64 52 44 53 63 54 45 55 48 56 62 57 81 58 46 59 47 60 61 62
REMARK SMILES IDX 82 63 49 64 33 65 34 66 42 67 35 68 36 69 40 70 43 71 37 72
REMARK SMILES IDX 38 73 41 74 39 75 65 76 66 77 74 78 67 79 68 80 72 81 75 82
REMARK SMILES IDX 69 83 70 84 73 85 71 86 50 87 51 88 59 89 52 90 53 91 57 92
REMARK SMILES IDX 60 93 54 94 55 95 58 96 56 97
REMARK H PARENT 16 6 2 19 5 22 13 24 13 25 13 26 21 31 80 50 48 61
REMARK Flexibility Score: inf
ROOT
ATOM      1  C   UNL A   1      31.761  30.751  26.233  1.00  0.00     0.023 C 
ENDROOT
BRANCH   1   2
ATOM      2  C   UNL A   1      32.917  29.990  26.908  1.00  0.00     0.116 C 
BRANCH   2   3
ATOM      3  N   UNL A   1      33.541  28.972  26.083  1.00  0.00    -0.351 N 
ATOM      4  C   UNL A   1      33.129  27.760  25.616  1.00  0.00     0.281 C 
ATOM      5  O   UNL A   1      33.939  27.205  24.859  1.00  0.00    -0.268 OA
ATOM      6  H   UNL A   1      34.455  29.207  25.800  1.00  0.00     0.163 HD
BRANCH   4   7
ATOM      7  C   UNL A   1      31.766  27.059  25.994  1.00  0.00     0.177 C 
ATOM      8  C   UNL A   1      30.499  27.242  25.076  1.00  0.00     0.066 C 
ATOM      9  C   UNL A   1      29.913  25.810  24.944  1.00  0.00     0.011 C 
ATOM     10  C   UNL A   1      30.542  24.981  26.056  1.00  0.00     0.008 C 
ATOM     11  C   UNL A   1      31.948  25.543  26.163  1.00  0.00     0.079 C 
BRANCH   8  12
ATOM     12  C   UNL A   1      30.745  27.872  23.705  1.00  0.00     0.072 C 
BRANCH  12  13
ATOM     13  C   UNL A   1      30.488  29.362  23.458  1.00  0.00     0.263 C 
BRANCH  13  14
ATOM     14  N   UNL A   1      29.117  29.868  23.482  1.00  0.00    -0.326 N 
ATOM     15  C   UNL A   1      27.932  32.585  20.324  1.00  0.00     0.333 C 
ATOM     16  N   UNL A   1      27.874  31.766  21.536  1.00  0.00    -0.328 N 
ATOM     17  C   UNL A   1      28.919  32.180  22.484  1.00  0.00     0.324 C 
ATOM     18  C   UNL A   1      28.016  30.337  21.206  1.00  0.00     0.324 C 
ATOM     19  H   UNL A   1      26.963  31.903  21.974  1.00  0.00     0.348 HD
ATOM     20  C   UNL A   1      28.966  31.297  23.742  1.00  0.00     0.324 C 
ATOM     21  C   UNL A   1      28.179  29.411  22.442  1.00  0.00     0.324 C 
ATOM     22  H   UNL A   1      28.810  29.371  24.319  1.00  0.00     0.348 HD
ENDBRANCH  13  14
ENDBRANCH  12  13
ENDBRANCH   8  12
BRANCH   7  23
ATOM     23  N   UNL A   1      31.383  27.539  27.360  1.00  0.00    -0.345 N 
ATOM     24  H   UNL A   1      31.431  28.557  27.387  1.00  0.00     0.345 HD
ATOM     25  H   UNL A   1      32.025  27.148  28.050  1.00  0.00     0.345 HD
ATOM     26  H   UNL A   1      30.432  27.238  27.571  1.00  0.00     0.345 HD
ENDBRANCH   7  23
ENDBRANCH   4   7
ENDBRANCH   2   3
ENDBRANCH   1   2
BRANCH   1  27
ATOM     27  C   UNL A   1      31.498  32.164  26.725  1.00  0.00     0.023 C 
BRANCH  27  28
ATOM     28  C   UNL A   1      32.712  32.835  27.330  1.00  0.00     0.116 C 
BRANCH  28  29
ATOM     29  N   UNL A   1      32.476  34.238  27.643  1.00  0.00    -0.352 N 
ATOM     30  C   UNL A   1      33.035  35.029  28.613  1.00  0.00     0.251 C 
ATOM     31  H   UNL A   1      31.811  34.686  27.071  1.00  0.00     0.163 HD
ATOM     32  O   UNL A   1      32.581  36.146  28.840  1.00  0.00    -0.269 OA
BRANCH  30  33
ATOM     33  C   UNL A   1      34.171  34.510  29.390  1.00  0.00     0.039 A 
ATOM     34  C   UNL A   1      33.930  33.878  30.611  1.00  0.00     0.014 A 
ATOM     35  C   UNL A   1      35.469  34.615  28.885  1.00  0.00     0.014 A 
ATOM     36  C   UNL A   1      34.992  33.290  31.294  1.00  0.00     0.010 A 
ATOM     37  C   UNL A   1      36.497  33.923  29.499  1.00  0.00     0.010 A 
ATOM     38  C   UNL A   1      36.275  33.276  30.722  1.00  0.00    -0.014 A 
BRANCH  38  39
ATOM     39  C   UNL A   1      37.422  32.638  31.404  1.00  0.00     0.031 A 
ATOM     40  C   UNL A   1      38.151  31.515  30.721  1.00  0.00     0.074 A 
ATOM     41  C   UNL A   1      37.754  33.020  32.652  1.00  0.00     0.049 A 
ATOM     42  N   UNL A   1      39.117  30.758  31.174  1.00  0.00    -0.248 NA
ATOM     43  C   UNL A   1      37.707  31.168  29.361  1.00  0.00     0.031 C 
ATOM     44  C   UNL A   1      37.074  34.057  33.432  1.00  0.00     0.029 A 
ATOM     45  N   UNL A   1      38.744  32.573  33.488  1.00  0.00    -0.354 N 
ATOM     46  C   UNL A   1      39.374  29.838  30.167  1.00  0.00     0.074 A 
ATOM     47  C   UNL A   1      38.416  30.078  29.112  1.00  0.00     0.031 C 
ATOM     48  C   UNL A   1      37.694  34.193  34.615  1.00  0.00     0.029 A 
ATOM     49  C   UNL A   1      38.783  33.227  34.694  1.00  0.00     0.049 A 
ATOM     50  H   UNL A   1      39.369  31.851  33.245  1.00  0.00     0.167 HD
ATOM     51  C   UNL A   1      40.349  28.903  30.107  1.00  0.00     0.037 A 
ATOM     52  C   UNL A   1      39.611  33.059  35.742  1.00  0.00     0.037 A 
ATOM     53  C   UNL A   1      41.324  28.702  31.145  1.00  0.00     0.049 A 
ATOM     54  C   UNL A   1      40.693  32.017  35.648  1.00  0.00     0.074 A 
ATOM     55  C   UNL A   1      42.390  27.822  31.171  1.00  0.00     0.029 A 
ATOM     56  N   UNL A   1      41.352  29.405  32.342  1.00  0.00    -0.354 N 
ATOM     57  N   UNL A   1      40.971  31.195  34.663  1.00  0.00    -0.248 NA
ATOM     58  C   UNL A   1      41.583  31.882  36.809  1.00  0.00     0.031 C 
ATOM     59  C   UNL A   1      43.041  27.965  32.400  1.00  0.00     0.029 A 
ATOM     60  C   UNL A   1      42.410  28.969  33.119  1.00  0.00     0.049 A 
ATOM     61  H   UNL A   1      40.714  30.109  32.598  1.00  0.00     0.167 HD
ATOM     62  C   UNL A   1      42.084  30.473  35.070  1.00  0.00     0.074 A 
ATOM     63  C   UNL A   1      42.439  30.963  36.386  1.00  0.00     0.031 C 
ATOM     64  C   UNL A   1      42.751  29.489  34.418  1.00  0.00     0.037 A 
BRANCH  51  65
ATOM     65  C   UNL A   1      40.417  28.048  28.875  1.00  0.00     0.064 A 
ATOM     66  C   UNL A   1      39.732  26.826  28.791  1.00  0.00     0.173 A 
ATOM     67  C   UNL A   1      41.161  28.460  27.759  1.00  0.00     0.173 A 
ATOM     68  F   UNL A   1      39.021  26.377  29.836  1.00  0.00    -0.203 F 
ATOM     69  C   UNL A   1      39.815  26.033  27.650  1.00  0.00     0.198 A 
ATOM     70  C   UNL A   1      41.215  27.680  26.607  1.00  0.00     0.198 A 
ATOM     71  F   UNL A   1      41.835  29.619  27.785  1.00  0.00    -0.203 F 
ATOM     72  F   UNL A   1      39.200  24.843  27.616  1.00  0.00    -0.200 F 
ATOM     73  C   UNL A   1      40.550  26.464  26.556  1.00  0.00     0.200 A 
ATOM     74  F   UNL A   1      41.916  28.103  25.546  1.00  0.00    -0.200 F 
ATOM     75  F   UNL A   1      40.625  25.702  25.456  1.00  0.00    -0.200 F 
ENDBRANCH  51  65
BRANCH  52  76
ATOM     76  C   UNL A   1      39.480  33.919  36.947  1.00  0.00     0.064 A 
ATOM     77  C   UNL A   1      38.751  33.482  38.063  1.00  0.00     0.173 A 
ATOM     78  C   UNL A   1      40.063  35.192  37.008  1.00  0.00     0.173 A 
ATOM     79  F   UNL A   1      38.161  32.277  38.047  1.00  0.00    -0.203 F 
ATOM     80  C   UNL A   1      38.586  34.297  39.181  1.00  0.00     0.198 A 
ATOM     81  C   UNL A   1      39.922  35.995  38.139  1.00  0.00     0.198 A 
ATOM     82  F   UNL A   1      40.777  35.655  35.972  1.00  0.00    -0.203 F 
ATOM     83  F   UNL A   1      37.841  33.875  40.211  1.00  0.00    -0.200 F 
ATOM     84  C   UNL A   1      39.175  35.551  39.220  1.00  0.00     0.200 A 
ATOM     85  F   UNL A   1      40.505  37.200  38.179  1.00  0.00    -0.200 F 
ATOM     86  F   UNL A   1      39.016  36.336  40.295  1.00  0.00    -0.200 F 
ENDBRANCH  52  76
BRANCH  64  87
ATOM     87  C   UNL A   1      43.956  28.913  35.098  1.00  0.00     0.064 A 
ATOM     88  C   UNL A   1      45.220  29.510  34.989  1.00  0.00     0.173 A 
ATOM     89  C   UNL A   1      43.834  27.774  35.908  1.00  0.00     0.173 A 
ATOM     90  F   UNL A   1      45.390  30.593  34.215  1.00  0.00    -0.203 F 
ATOM     91  C   UNL A   1      46.324  28.970  35.642  1.00  0.00     0.198 A 
ATOM     92  C   UNL A   1      44.933  27.256  36.586  1.00  0.00     0.198 A 
ATOM     93  F   UNL A   1      42.644  27.171  36.052  1.00  0.00    -0.203 F 
ATOM     94  F   UNL A   1      47.533  29.528  35.484  1.00  0.00    -0.200 F 
ATOM     95  C   UNL A   1      46.178  27.849  36.446  1.00  0.00     0.200 A 
ATOM     96  F   UNL A   1      44.786  26.182  37.375  1.00  0.00    -0.200 F 
ATOM     97  F   UNL A   1      47.241  27.337  37.082  1.00  0.00    -0.200 F 
ENDBRANCH  64  87
ENDBRANCH  38  39
ENDBRANCH  30  33
ENDBRANCH  28  29
ENDBRANCH  27  28
ENDBRANCH   1  27
TORSDOF 15
ENDMDL
MODEL 3
REMARK VINA RESULT:     -12.0      1.027      7.565
REMARK SMILES C[NH+]1CC[NH+](CC[C@H]2CCC[C@@]2([NH3+])C(=O)NCCCCNC(=O)c2ccc(-c3c4nc(c(-c5c(F)c(F)c(F)c(F)c5F)c5ccc([nH]5)c(-c5c(F)c(F)c(F)c(F)c5F)c5nc(c(-c6c(F)c(F)c(F)c(F)c6F)c6ccc3[nH]6)C=C5)C=C4)cc2)CC1
REMARK SMILES IDX 18 1 17 2 16 3 14 4 15 5 12 7 8 8 9 9 10 10 11 11 7 12 6 13
REMARK SMILES IDX 5 14 1 15 2 16 3 17 88 18 4 20 87 21 13 23 19 27 20 28 21 29
REMARK SMILES IDX 22 30 23 32 24 33 25 34 86 35 26 36 85 37 27 38 28 39 29 40
REMARK SMILES IDX 79 41 30 42 84 43 78 44 80 45 31 46 83 47 77 48 76 49 32 51
REMARK SMILES IDX 64 52 44 53 63 54 45 55 48 56 62 57 81 58 46 59 47 60 61 62
REMARK SMILES IDX 82 63 49 64 33 65 34 66 42 67 35 68 36 69 40 70 43 71 37 72
REMARK SMILES IDX 38 73 41 74 39 75 65 76 66 77 74 78 67 79 68 80 72 81 75 82
REMARK SMILES IDX 69 83 70 84 73 85 71 86 50 87 51 88 59 89 52 90 53 91 57 92
REMARK SMILES IDX 60 93 54 94 55 95 58 96 56 97
REMARK H PARENT 16 6 2 19 5 22 13 24 13 25 13 26 21 31 80 50 48 61
REMARK Flexibility Score: inf
ROOT
ATOM      1  C   UNL A   1      31.718  30.600  26.512  1.00  0.00     0.023 C 
ENDROOT
BRANCH   1   2
ATOM      2  C   UNL A   1      33.155  30.075  26.336  1.00  0.00     0.116 C 
BRANCH   2   3
ATOM      3  N   UNL A   1      33.522  29.749  24.970  1.00  0.00    -0.351 N 
ATOM      4  C   UNL A   1      33.198  28.724  24.132  1.00  0.00     0.281 C 
ATOM      5  O   UNL A   1      33.663  28.838  22.988  1.00  0.00    -0.268 OA
ATOM      6  H   UNL A   1      34.134  30.405  24.564  1.00  0.00     0.163 HD
BRANCH   4   7
ATOM      7  C   UNL A   1      32.338  27.463  24.532  1.00  0.00     0.177 C 
ATOM      8  C   UNL A   1      30.765  27.523  24.465  1.00  0.00     0.066 C 
ATOM      9  C   UNL A   1      30.362  26.190  23.777  1.00  0.00     0.011 C 
ATOM     10  C   UNL A   1      31.575  25.275  23.861  1.00  0.00     0.008 C 
ATOM     11  C   UNL A   1      32.748  26.228  23.714  1.00  0.00     0.079 C 
BRANCH   8  12
ATOM     12  C   UNL A   1      30.166  28.728  23.740  1.00  0.00     0.072 C 
BRANCH  12  13
ATOM     13  C   UNL A   1      29.266  28.551  22.514  1.00  0.00     0.263 C 
BRANCH  13  14
ATOM     14  N   UNL A   1      28.194  29.513  22.265  1.00  0.00    -0.326 N 
ATOM     15  C   UNL A   1      29.000  33.675  23.159  1.00  0.00     0.333 C 
ATOM     16  N   UNL A   1      28.289  32.461  22.749  1.00  0.00    -0.328 N 
ATOM     17  C   UNL A   1      28.275  31.482  23.847  1.00  0.00     0.324 C 
ATOM     18  C   UNL A   1      28.907  31.878  21.546  1.00  0.00     0.324 C 
ATOM     19  H   UNL A   1      27.326  32.713  22.524  1.00  0.00     0.348 HD
ATOM     20  C   UNL A   1      27.619  30.150  23.447  1.00  0.00     0.324 C 
ATOM     21  C   UNL A   1      28.355  30.477  21.163  1.00  0.00     0.324 C 
ATOM     22  H   UNL A   1      27.505  28.852  21.908  1.00  0.00     0.348 HD
ENDBRANCH  13  14
ENDBRANCH  12  13
ENDBRANCH   8  12
BRANCH   7  23
ATOM     23  N   UNL A   1      32.697  27.108  25.942  1.00  0.00    -0.345 N 
ATOM     24  H   UNL A   1      33.174  27.897  26.378  1.00  0.00     0.345 HD
ATOM     25  H   UNL A   1      33.313  26.295  25.941  1.00  0.00     0.345 HD
ATOM     26  H   UNL A   1      31.849  26.892  26.464  1.00  0.00     0.345 HD
ENDBRANCH   7  23
ENDBRANCH   4   7
ENDBRANCH   2   3
ENDBRANCH   1   2
BRANCH   1  27
ATOM     27  C   UNL A   1      31.556  32.104  26.651  1.00  0.00     0.023 C 
BRANCH  27  28
ATOM     28  C   UNL A   1      32.756  32.793  27.264  1.00  0.00     0.116 C 
BRANCH  28  29
ATOM     29  N   UNL A   1      32.486  34.181  27.610  1.00  0.00    -0.352 N 
ATOM     30  C   UNL A   1      33.015  34.959  28.607  1.00  0.00     0.251 C 
ATOM     31  H   UNL A   1      31.818  34.630  27.042  1.00  0.00     0.163 HD
ATOM     32  O   UNL A   1      32.535  36.060  28.857  1.00  0.00    -0.269 OA
BRANCH  30  33
ATOM     33  C   UNL A   1      34.153  34.445  29.386  1.00  0.00     0.039 A 
ATOM     34  C   UNL A   1      33.909  33.736  30.562  1.00  0.00     0.014 A 
ATOM     35  C   UNL A   1      35.457  34.631  28.923  1.00  0.00     0.014 A 
ATOM     36  C   UNL A   1      34.978  33.155  31.241  1.00  0.00     0.010 A 
ATOM     37  C   UNL A   1      36.498  33.948  29.525  1.00  0.00     0.010 A 
ATOM     38  C   UNL A   1      36.274  33.226  30.704  1.00  0.00    -0.014 A 
BRANCH  38  39
ATOM     39  C   UNL A   1      37.430  32.598  31.381  1.00  0.00     0.031 A 
ATOM     40  C   UNL A   1      38.165  31.481  30.695  1.00  0.00     0.074 A 
ATOM     41  C   UNL A   1      37.764  32.983  32.627  1.00  0.00     0.049 A 
ATOM     42  N   UNL A   1      39.140  30.732  31.144  1.00  0.00    -0.248 NA
ATOM     43  C   UNL A   1      37.717  31.128  29.337  1.00  0.00     0.031 C 
ATOM     44  C   UNL A   1      37.080  34.016  33.409  1.00  0.00     0.029 A 
ATOM     45  N   UNL A   1      38.763  32.546  33.458  1.00  0.00    -0.354 N 
ATOM     46  C   UNL A   1      39.400  29.814  30.136  1.00  0.00     0.074 A 
ATOM     47  C   UNL A   1      38.435  30.045  29.086  1.00  0.00     0.031 C 
ATOM     48  C   UNL A   1      37.704  34.158  34.590  1.00  0.00     0.029 A 
ATOM     49  C   UNL A   1      38.803  33.201  34.663  1.00  0.00     0.049 A 
ATOM     50  H   UNL A   1      39.393  31.829  33.212  1.00  0.00     0.167 HD
ATOM     51  C   UNL A   1      40.382  28.887  30.072  1.00  0.00     0.037 A 
ATOM     52  C   UNL A   1      39.637  33.040  35.707  1.00  0.00     0.037 A 
ATOM     53  C   UNL A   1      41.364  28.695  31.105  1.00  0.00     0.049 A 
ATOM     54  C   UNL A   1      40.728  32.008  35.609  1.00  0.00     0.074 A 
ATOM     55  C   UNL A   1      42.438  27.824  31.126  1.00  0.00     0.029 A 
ATOM     56  N   UNL A   1      41.393  29.399  32.301  1.00  0.00    -0.354 N 
ATOM     57  N   UNL A   1      41.008  31.188  34.623  1.00  0.00    -0.248 NA
ATOM     58  C   UNL A   1      41.624  31.882  36.765  1.00  0.00     0.031 C 
ATOM     59  C   UNL A   1      43.094  27.974  32.352  1.00  0.00     0.029 A 
ATOM     60  C   UNL A   1      42.458  28.972  33.073  1.00  0.00     0.049 A 
ATOM     61  H   UNL A   1      40.749  30.098  32.560  1.00  0.00     0.167 HD
ATOM     62  C   UNL A   1      42.128  30.475  35.025  1.00  0.00     0.074 A 
ATOM     63  C   UNL A   1      42.486  30.970  36.339  1.00  0.00     0.031 C 
ATOM     64  C   UNL A   1      42.801  29.497  34.370  1.00  0.00     0.037 A 
BRANCH  51  65
ATOM     65  C   UNL A   1      40.452  28.032  28.840  1.00  0.00     0.064 A 
ATOM     66  C   UNL A   1      41.206  28.417  27.720  1.00  0.00     0.173 A 
ATOM     67  C   UNL A   1      39.772  26.806  28.782  1.00  0.00     0.173 A 
ATOM     68  F   UNL A   1      41.860  29.588  27.717  1.00  0.00    -0.203 F 
ATOM     69  C   UNL A   1      41.249  27.624  26.577  1.00  0.00     0.198 A 
ATOM     70  C   UNL A   1      39.845  25.999  27.648  1.00  0.00     0.198 A 
ATOM     71  F   UNL A   1      39.038  26.389  29.824  1.00  0.00    -0.203 F 
ATOM     72  F   UNL A   1      41.928  28.041  25.500  1.00  0.00    -0.200 F 
ATOM     73  C   UNL A   1      40.576  26.413  26.545  1.00  0.00     0.200 A 
ATOM     74  F   UNL A   1      39.203  24.823  27.623  1.00  0.00    -0.200 F 
ATOM     75  F   UNL A   1      40.623  25.647  25.445  1.00  0.00    -0.200 F 
ENDBRANCH  51  65
BRANCH  52  76
ATOM     76  C   UNL A   1      39.504  33.900  36.912  1.00  0.00     0.064 A 
ATOM     77  C   UNL A   1      38.776  33.463  38.028  1.00  0.00     0.173 A 
ATOM     78  C   UNL A   1      40.086  35.174  36.974  1.00  0.00     0.173 A 
ATOM     79  F   UNL A   1      38.188  32.257  38.012  1.00  0.00    -0.203 F 
ATOM     80  C   UNL A   1      38.609  34.278  39.146  1.00  0.00     0.198 A 
ATOM     81  C   UNL A   1      39.943  35.977  38.104  1.00  0.00     0.198 A 
ATOM     82  F   UNL A   1      40.799  35.638  35.937  1.00  0.00    -0.203 F 
ATOM     83  F   UNL A   1      37.865  33.854  40.176  1.00  0.00    -0.200 F 
ATOM     84  C   UNL A   1      39.197  35.533  39.185  1.00  0.00     0.200 A 
ATOM     85  F   UNL A   1      40.525  37.183  38.144  1.00  0.00    -0.200 F 
ATOM     86  F   UNL A   1      39.037  36.317  40.260  1.00  0.00    -0.200 F 
ENDBRANCH  52  76
BRANCH  64  87
ATOM     87  C   UNL A   1      44.014  28.932  35.045  1.00  0.00     0.064 A 
ATOM     88  C   UNL A   1      43.936  27.811  35.884  1.00  0.00     0.173 A 
ATOM     89  C   UNL A   1      45.279  29.494  34.811  1.00  0.00     0.173 A 
ATOM     90  F   UNL A   1      42.748  27.248  36.149  1.00  0.00    -0.203 F 
ATOM     91  C   UNL A   1      45.077  27.290  36.487  1.00  0.00     0.198 A 
ATOM     92  C   UNL A   1      46.421  28.950  35.390  1.00  0.00     0.198 A 
ATOM     93  F   UNL A   1      45.407  30.562  34.009  1.00  0.00    -0.203 F 
ATOM     94  F   UNL A   1      44.974  26.249  37.325  1.00  0.00    -0.200 F 
ATOM     95  C   UNL A   1      46.319  27.855  36.233  1.00  0.00     0.200 A 
ATOM     96  F   UNL A   1      47.622  29.487  35.130  1.00  0.00    -0.200 F 
ATOM     97  F   UNL A   1      47.418  27.345  36.808  1.00  0.00    -0.200 F 
ENDBRANCH  64  87
ENDBRANCH  38  39
ENDBRANCH  30  33
ENDBRANCH  28  29
ENDBRANCH  27  28
ENDBRANCH   1  27
TORSDOF 15
ENDMDL
