MODEL 1
REMARK VINA RESULT:     -11.7      0.000      0.000
REMARK SMILES [N-]=[N+]=NC[C@@H](Nc1ccccc1Br)C(=O)NCCCCNC(=O)c1ccc(-c2c3nc(c(-c4c(F)c(F)c(F)c(F)c4F)c4ccc([nH]4)c(-c4c(F)c(F)c(F)c(F)c4F)c4nc(c(-c5c(F)c(F)c(F)c(F)c5F)c5ccc2[nH]5)C=C4)C=C3)cc1
REMARK SMILES IDX 18 1 17 2 16 3 14 4 15 5 5 7 4 8 3 9 1 10 2 11 6 12 7 14
REMARK SMILES IDX 8 15 12 16 9 17 11 18 13 19 10 20 19 21 20 22 21 23 22 24
REMARK SMILES IDX 23 26 24 27 25 28 86 29 26 30 85 31 27 32 28 33 29 34 79 35
REMARK SMILES IDX 30 36 84 37 78 38 80 39 31 40 83 41 77 42 76 43 32 45 64 46
REMARK SMILES IDX 44 47 63 48 45 49 48 50 62 51 81 52 46 53 47 54 61 56 82 57
REMARK SMILES IDX 49 58 33 59 34 60 42 61 35 62 36 63 40 64 43 65 37 66 38 67
REMARK SMILES IDX 41 68 39 69 65 70 66 71 74 72 67 73 68 74 72 75 75 76 69 77
REMARK SMILES IDX 70 78 73 79 71 80 50 81 51 82 59 83 52 84 53 85 57 86 60 87
REMARK SMILES IDX 54 88 55 89 58 90 56 91
REMARK H PARENT 16 6 6 13 21 25 80 44 48 55
REMARK Flexibility Score: inf
ROOT
ATOM      1  C   UNL A   1      37.336  21.404  24.689  1.00  0.00     0.023 C 
ENDROOT
BRANCH   1   2
ATOM      2  C   UNL A   1      36.273  21.715  25.737  1.00  0.00     0.116 C 
BRANCH   2   3
ATOM      3  N   UNL A   1      35.356  22.722  25.242  1.00  0.00    -0.354 N 
ATOM      4  C   UNL A   1      34.010  22.843  25.424  1.00  0.00     0.242 C 
ATOM      5  O   UNL A   1      33.430  23.690  24.737  1.00  0.00    -0.273 OA
ATOM      6  H   UNL A   1      35.768  23.426  24.689  1.00  0.00     0.163 HD
BRANCH   4   7
ATOM      7  C   UNL A   1      33.228  21.922  26.383  1.00  0.00     0.174 C 
BRANCH   7   8
ATOM      8  C   UNL A   1      32.540  22.832  27.428  1.00  0.00     0.125 C 
BRANCH   8   9
ATOM      9  N   UNL A   1      31.093  22.973  27.169  1.00  0.00    -0.091 NA
ATOM     10  N   UNL A   1      30.411  25.116  26.378  1.00  0.00    -0.003 NA
ATOM     11  N   UNL A   1      30.722  24.092  26.775  1.00  0.00     0.001 N 
ENDBRANCH   8   9
ENDBRANCH   7   8
BRANCH   7  12
ATOM     12  N   UNL A   1      32.257  21.015  25.725  1.00  0.00    -0.373 N 
ATOM     13  H   UNL A   1      31.304  21.198  25.893  1.00  0.00     0.161 HD
BRANCH  12  14
ATOM     14  C   UNL A   1      32.538  19.936  24.902  1.00  0.00     0.049 A 
ATOM     15  C   UNL A   1      32.976  18.764  25.552  1.00  0.00     0.027 A 
ATOM     16  C   UNL A   1      32.334  19.855  23.514  1.00  0.00     0.041 A 
ATOM     17  C   UNL A   1      33.096  17.545  24.881  1.00  0.00     0.002 A 
ATOM     18  C   UNL A   1      32.442  18.629  22.839  1.00  0.00     0.018 A 
ATOM     19  Br  UNL A   1      32.076  21.386  22.413  1.00  0.00    -0.049 Br
ATOM     20  C   UNL A   1      32.800  17.472  23.526  1.00  0.00     0.001 A 
ENDBRANCH  12  14
ENDBRANCH   7  12
ENDBRANCH   4   7
ENDBRANCH   2   3
ENDBRANCH   1   2
BRANCH   1  21
ATOM     21  C   UNL A   1      38.144  20.143  24.996  1.00  0.00     0.023 C 
BRANCH  21  22
ATOM     22  C   UNL A   1      39.375  20.383  25.859  1.00  0.00     0.116 C 
BRANCH  22  23
ATOM     23  N   UNL A   1      40.243  19.216  25.933  1.00  0.00    -0.352 N 
ATOM     24  C   UNL A   1      41.605  19.184  26.116  1.00  0.00     0.251 C 
ATOM     25  H   UNL A   1      39.799  18.341  25.840  1.00  0.00     0.163 HD
ATOM     26  O   UNL A   1      42.239  18.143  25.998  1.00  0.00    -0.269 OA
BRANCH  24  27
ATOM     27  C   UNL A   1      42.292  20.449  26.433  1.00  0.00     0.039 A 
ATOM     28  C   UNL A   1      42.844  21.208  25.399  1.00  0.00     0.014 A 
ATOM     29  C   UNL A   1      42.300  20.918  27.749  1.00  0.00     0.014 A 
ATOM     30  C   UNL A   1      43.346  22.479  25.678  1.00  0.00     0.010 A 
ATOM     31  C   UNL A   1      42.720  22.215  28.007  1.00  0.00     0.010 A 
ATOM     32  C   UNL A   1      43.251  23.007  26.976  1.00  0.00    -0.014 A 
BRANCH  32  33
ATOM     33  C   UNL A   1      43.721  24.376  27.306  1.00  0.00     0.031 A 
ATOM     34  C   UNL A   1      42.732  25.385  27.820  1.00  0.00     0.074 A 
ATOM     35  C   UNL A   1      44.994  24.737  27.056  1.00  0.00     0.049 A 
ATOM     36  N   UNL A   1      42.883  26.670  28.015  1.00  0.00    -0.248 NA
ATOM     37  C   UNL A   1      41.380  24.887  28.119  1.00  0.00     0.031 C 
ATOM     38  C   UNL A   1      46.040  23.856  26.534  1.00  0.00     0.029 A 
ATOM     39  N   UNL A   1      45.620  25.952  27.189  1.00  0.00    -0.354 N 
ATOM     40  C   UNL A   1      41.643  27.132  28.436  1.00  0.00     0.074 A 
ATOM     41  C   UNL A   1      40.737  26.006  28.411  1.00  0.00     0.031 C 
ATOM     42  C   UNL A   1      47.179  24.556  26.402  1.00  0.00     0.029 A 
ATOM     43  C   UNL A   1      46.932  25.945  26.779  1.00  0.00     0.049 A 
ATOM     44  H   UNL A   1      45.171  26.754  27.544  1.00  0.00     0.167 HD
ATOM     45  C   UNL A   1      41.299  28.380  28.831  1.00  0.00     0.037 A 
ATOM     46  C   UNL A   1      47.825  26.950  26.696  1.00  0.00     0.037 A 
ATOM     47  C   UNL A   1      42.212  29.490  28.874  1.00  0.00     0.049 A 
ATOM     48  C   UNL A   1      47.406  28.339  27.106  1.00  0.00     0.074 A 
ATOM     49  C   UNL A   1      41.976  30.783  29.304  1.00  0.00     0.029 A 
ATOM     50  N   UNL A   1      43.539  29.437  28.470  1.00  0.00    -0.354 N 
ATOM     51  N   UNL A   1      46.247  28.755  27.554  1.00  0.00    -0.248 NA
ATOM     52  C   UNL A   1      48.420  29.398  27.000  1.00  0.00     0.031 C 
ATOM     53  C   UNL A   1      43.141  31.528  29.105  1.00  0.00     0.029 A 
ATOM     54  C   UNL A   1      44.125  30.682  28.618  1.00  0.00     0.049 A 
ATOM     55  H   UNL A   1      43.994  28.633  28.130  1.00  0.00     0.167 HD
ATOM     56  C   UNL A   1      46.404  30.109  27.825  1.00  0.00     0.074 A 
ATOM     57  C   UNL A   1      47.772  30.445  27.491  1.00  0.00     0.031 C 
ATOM     58  C   UNL A   1      45.499  30.992  28.312  1.00  0.00     0.037 A 
BRANCH  45  59
ATOM     59  C   UNL A   1      39.874  28.612  29.242  1.00  0.00     0.064 A 
ATOM     60  C   UNL A   1      39.441  28.397  30.559  1.00  0.00     0.173 A 
ATOM     61  C   UNL A   1      38.936  29.092  28.315  1.00  0.00     0.173 A 
ATOM     62  F   UNL A   1      40.293  27.928  31.483  1.00  0.00    -0.203 F 
ATOM     63  C   UNL A   1      38.116  28.620  30.925  1.00  0.00     0.198 A 
ATOM     64  C   UNL A   1      37.620  29.349  28.693  1.00  0.00     0.198 A 
ATOM     65  F   UNL A   1      39.295  29.321  27.044  1.00  0.00    -0.203 F 
ATOM     66  F   UNL A   1      37.714  28.351  32.175  1.00  0.00    -0.200 F 
ATOM     67  C   UNL A   1      37.209  29.104  29.994  1.00  0.00     0.200 A 
ATOM     68  F   UNL A   1      36.750  29.832  27.796  1.00  0.00    -0.200 F 
ATOM     69  F   UNL A   1      35.937  29.328  30.350  1.00  0.00    -0.200 F 
ENDBRANCH  45  59
BRANCH  46  70
ATOM     70  C   UNL A   1      49.207  26.686  26.213  1.00  0.00     0.064 A 
ATOM     71  C   UNL A   1      49.557  26.910  24.873  1.00  0.00     0.173 A 
ATOM     72  C   UNL A   1      50.200  26.187  27.068  1.00  0.00     0.173 A 
ATOM     73  F   UNL A   1      48.639  27.370  24.010  1.00  0.00    -0.203 F 
ATOM     74  C   UNL A   1      50.835  26.618  24.402  1.00  0.00     0.198 A 
ATOM     75  C   UNL A   1      51.488  25.926  26.604  1.00  0.00     0.198 A 
ATOM     76  F   UNL A   1      49.922  25.959  28.361  1.00  0.00    -0.203 F 
ATOM     77  F   UNL A   1      51.124  26.788  23.105  1.00  0.00    -0.200 F 
ATOM     78  C   UNL A   1      51.801  26.131  25.268  1.00  0.00     0.200 A 
ATOM     79  F   UNL A   1      52.424  25.472  27.449  1.00  0.00    -0.200 F 
ATOM     80  F   UNL A   1      53.031  25.850  24.815  1.00  0.00    -0.200 F 
ENDBRANCH  46  70
BRANCH  58  81
ATOM     81  C   UNL A   1      45.962  32.393  28.587  1.00  0.00     0.064 A 
ATOM     82  C   UNL A   1      46.553  32.756  29.805  1.00  0.00     0.173 A 
ATOM     83  C   UNL A   1      45.891  33.364  27.575  1.00  0.00     0.173 A 
ATOM     84  F   UNL A   1      46.633  31.869  30.809  1.00  0.00    -0.203 F 
ATOM     85  C   UNL A   1      47.045  34.043  30.004  1.00  0.00     0.198 A 
ATOM     86  C   UNL A   1      46.414  34.640  27.766  1.00  0.00     0.198 A 
ATOM     87  F   UNL A   1      45.341  33.065  26.388  1.00  0.00    -0.203 F 
ATOM     88  F   UNL A   1      47.576  34.380  31.188  1.00  0.00    -0.200 F 
ATOM     89  C   UNL A   1      46.988  34.979  28.981  1.00  0.00     0.200 A 
ATOM     90  F   UNL A   1      46.374  35.534  26.769  1.00  0.00    -0.200 F 
ATOM     91  F   UNL A   1      47.484  36.210  29.168  1.00  0.00    -0.200 F 
ENDBRANCH  58  81
ENDBRANCH  32  33
ENDBRANCH  24  27
ENDBRANCH  22  23
ENDBRANCH  21  22
ENDBRANCH   1  21
TORSDOF 15
ENDMDL
MODEL 2
REMARK VINA RESULT:     -11.6      6.037     11.353
REMARK SMILES [N-]=[N+]=NC[C@@H](Nc1ccccc1Br)C(=O)NCCCCNC(=O)c1ccc(-c2c3nc(c(-c4c(F)c(F)c(F)c(F)c4F)c4ccc([nH]4)c(-c4c(F)c(F)c(F)c(F)c4F)c4nc(c(-c5c(F)c(F)c(F)c(F)c5F)c5ccc2[nH]5)C=C4)C=C3)cc1
REMARK SMILES IDX 18 1 17 2 16 3 14 4 15 5 5 7 4 8 3 9 1 10 2 11 6 12 7 14
REMARK SMILES IDX 8 15 12 16 9 17 11 18 13 19 10 20 19 21 20 22 21 23 22 24
REMARK SMILES IDX 23 26 24 27 25 28 86 29 26 30 85 31 27 32 28 33 29 34 79 35
REMARK SMILES IDX 30 36 84 37 78 38 80 39 31 40 83 41 77 42 76 43 32 45 64 46
REMARK SMILES IDX 44 47 63 48 45 49 48 50 62 51 81 52 46 53 47 54 61 56 82 57
REMARK SMILES IDX 49 58 33 59 34 60 42 61 35 62 36 63 40 64 43 65 37 66 38 67
REMARK SMILES IDX 41 68 39 69 65 70 66 71 74 72 67 73 68 74 72 75 75 76 69 77
REMARK SMILES IDX 70 78 73 79 71 80 50 81 51 82 59 83 52 84 53 85 57 86 60 87
REMARK SMILES IDX 54 88 55 89 58 90 56 91
REMARK H PARENT 16 6 6 13 21 25 80 44 48 55
REMARK Flexibility Score: inf
ROOT
ATOM      1  C   UNL A   1      32.182  30.243  26.671  1.00  0.00     0.023 C 
ENDROOT
BRANCH   1   2
ATOM      2  C   UNL A   1      31.741  29.678  25.325  1.00  0.00     0.116 C 
BRANCH   2   3
ATOM      3  N   UNL A   1      32.844  29.695  24.385  1.00  0.00    -0.354 N 
ATOM      4  C   UNL A   1      33.518  28.658  23.811  1.00  0.00     0.242 C 
ATOM      5  O   UNL A   1      34.546  28.941  23.186  1.00  0.00    -0.273 OA
ATOM      6  H   UNL A   1      33.153  30.592  24.121  1.00  0.00     0.163 HD
BRANCH   4   7
ATOM      7  C   UNL A   1      33.072  27.192  23.989  1.00  0.00     0.174 C 
BRANCH   7   8
ATOM      8  C   UNL A   1      33.510  26.426  22.718  1.00  0.00     0.125 C 
BRANCH   8   9
ATOM      9  N   UNL A   1      32.361  26.084  21.857  1.00  0.00    -0.091 NA
ATOM     10  N   UNL A   1      32.926  25.334  19.666  1.00  0.00    -0.003 NA
ATOM     11  N   UNL A   1      32.641  25.710  20.705  1.00  0.00     0.001 N 
ENDBRANCH   8   9
ENDBRANCH   7   8
BRANCH   7  12
ATOM     12  N   UNL A   1      33.566  26.533  25.222  1.00  0.00    -0.373 N 
ATOM     13  H   UNL A   1      34.307  26.982  25.690  1.00  0.00     0.161 HD
BRANCH  12  14
ATOM     14  C   UNL A   1      33.104  25.356  25.790  1.00  0.00     0.049 A 
ATOM     15  C   UNL A   1      31.775  25.381  26.259  1.00  0.00     0.027 A 
ATOM     16  C   UNL A   1      33.778  24.125  25.851  1.00  0.00     0.041 A 
ATOM     17  C   UNL A   1      31.110  24.219  26.661  1.00  0.00     0.002 A 
ATOM     18  C   UNL A   1      33.109  22.955  26.243  1.00  0.00     0.018 A 
ATOM     19  Br  UNL A   1      35.656  23.957  25.589  1.00  0.00    -0.049 Br
ATOM     20  C   UNL A   1      31.771  22.999  26.626  1.00  0.00     0.001 A 
ENDBRANCH  12  14
ENDBRANCH   7  12
ENDBRANCH   4   7
ENDBRANCH   2   3
ENDBRANCH   1   2
BRANCH   1  21
ATOM     21  C   UNL A   1      31.807  31.712  26.866  1.00  0.00     0.023 C 
BRANCH  21  22
ATOM     22  C   UNL A   1      32.943  32.586  27.380  1.00  0.00     0.116 C 
BRANCH  22  23
ATOM     23  N   UNL A   1      32.530  33.963  27.610  1.00  0.00    -0.352 N 
ATOM     24  C   UNL A   1      33.010  34.845  28.549  1.00  0.00     0.251 C 
ATOM     25  H   UNL A   1      31.819  34.305  27.021  1.00  0.00     0.163 HD
ATOM     26  O   UNL A   1      32.466  35.924  28.745  1.00  0.00    -0.269 OA
BRANCH  24  27
ATOM     27  C   UNL A   1      34.188  34.444  29.339  1.00  0.00     0.039 A 
ATOM     28  C   UNL A   1      34.007  33.821  30.574  1.00  0.00     0.014 A 
ATOM     29  C   UNL A   1      35.467  34.608  28.799  1.00  0.00     0.014 A 
ATOM     30  C   UNL A   1      35.112  33.295  31.244  1.00  0.00     0.010 A 
ATOM     31  C   UNL A   1      36.551  34.008  29.424  1.00  0.00     0.010 A 
ATOM     32  C   UNL A   1      36.386  33.350  30.654  1.00  0.00    -0.014 A 
BRANCH  32  33
ATOM     33  C   UNL A   1      37.580  32.753  31.303  1.00  0.00     0.031 A 
ATOM     34  C   UNL A   1      38.293  31.618  30.623  1.00  0.00     0.074 A 
ATOM     35  C   UNL A   1      37.962  33.158  32.530  1.00  0.00     0.049 A 
ATOM     36  N   UNL A   1      39.247  30.846  31.076  1.00  0.00    -0.248 NA
ATOM     37  C   UNL A   1      37.846  31.283  29.261  1.00  0.00     0.031 C 
ATOM     38  C   UNL A   1      37.335  34.232  33.302  1.00  0.00     0.029 A 
ATOM     39  N   UNL A   1      38.960  32.696  33.353  1.00  0.00    -0.354 N 
ATOM     40  C   UNL A   1      39.494  29.926  30.067  1.00  0.00     0.074 A 
ATOM     41  C   UNL A   1      38.553  30.194  29.003  1.00  0.00     0.031 C 
ATOM     42  C   UNL A   1      37.969  34.354  34.480  1.00  0.00     0.029 A 
ATOM     43  C   UNL A   1      39.011  33.335  34.568  1.00  0.00     0.049 A 
ATOM     44  H   UNL A   1      39.579  31.976  33.096  1.00  0.00     0.167 HD
ATOM     45  C   UNL A   1      40.439  28.957  30.023  1.00  0.00     0.037 A 
ATOM     46  C   UNL A   1      39.796  33.107  35.640  1.00  0.00     0.037 A 
ATOM     47  C   UNL A   1      41.387  28.711  31.075  1.00  0.00     0.049 A 
ATOM     48  C   UNL A   1      40.815  31.998  35.580  1.00  0.00     0.074 A 
ATOM     49  C   UNL A   1      42.415  27.786  31.109  1.00  0.00     0.029 A 
ATOM     50  N   UNL A   1      41.420  29.393  32.283  1.00  0.00    -0.354 N 
ATOM     51  N   UNL A   1      41.078  31.168  34.600  1.00  0.00    -0.248 NA
ATOM     52  C   UNL A   1      41.648  31.795  36.774  1.00  0.00     0.031 C 
ATOM     53  C   UNL A   1      43.033  27.867  32.359  1.00  0.00     0.029 A 
ATOM     54  C   UNL A   1      42.437  28.891  33.079  1.00  0.00     0.049 A 
ATOM     55  H   UNL A   1      40.812  30.124  32.536  1.00  0.00     0.167 HD
ATOM     56  C   UNL A   1      42.132  30.377  35.041  1.00  0.00     0.074 A 
ATOM     57  C   UNL A   1      42.461  30.827  36.377  1.00  0.00     0.031 C 
ATOM     58  C   UNL A   1      42.773  29.373  34.394  1.00  0.00     0.037 A 
BRANCH  45  59
ATOM     59  C   UNL A   1      40.491  28.089  28.798  1.00  0.00     0.064 A 
ATOM     60  C   UNL A   1      41.256  28.441  27.676  1.00  0.00     0.173 A 
ATOM     61  C   UNL A   1      39.794  26.872  28.761  1.00  0.00     0.173 A 
ATOM     62  F   UNL A   1      41.932  29.599  27.654  1.00  0.00    -0.203 F 
ATOM     63  C   UNL A   1      41.295  27.623  26.549  1.00  0.00     0.198 A 
ATOM     64  C   UNL A   1      39.865  26.038  27.647  1.00  0.00     0.198 A 
ATOM     65  F   UNL A   1      39.052  26.483  29.807  1.00  0.00    -0.203 F 
ATOM     66  F   UNL A   1      41.986  28.009  25.468  1.00  0.00    -0.200 F 
ATOM     67  C   UNL A   1      40.607  26.419  26.540  1.00  0.00     0.200 A 
ATOM     68  F   UNL A   1      39.213  24.868  27.646  1.00  0.00    -0.200 F 
ATOM     69  F   UNL A   1      40.654  25.628  25.459  1.00  0.00    -0.200 F 
ENDBRANCH  45  59
BRANCH  46  70
ATOM     70  C   UNL A   1      39.660  33.947  36.860  1.00  0.00     0.064 A 
ATOM     71  C   UNL A   1      38.860  33.532  37.935  1.00  0.00     0.173 A 
ATOM     72  C   UNL A   1      40.305  35.187  36.973  1.00  0.00     0.173 A 
ATOM     73  F   UNL A   1      38.207  32.362  37.869  1.00  0.00    -0.203 F 
ATOM     74  C   UNL A   1      38.687  34.335  39.060  1.00  0.00     0.198 A 
ATOM     75  C   UNL A   1      40.158  35.976  38.113  1.00  0.00     0.198 A 
ATOM     76  F   UNL A   1      41.086  35.632  35.977  1.00  0.00    -0.203 F 
ATOM     77  F   UNL A   1      37.871  33.938  40.046  1.00  0.00    -0.200 F 
ATOM     78  C   UNL A   1      39.341  35.554  39.150  1.00  0.00     0.200 A 
ATOM     79  F   UNL A   1      40.806  37.146  38.203  1.00  0.00    -0.200 F 
ATOM     80  F   UNL A   1      39.174  36.328  40.233  1.00  0.00    -0.200 F 
ENDBRANCH  46  70
BRANCH  58  81
ATOM     81  C   UNL A   1      43.943  28.730  35.080  1.00  0.00     0.064 A 
ATOM     82  C   UNL A   1      45.249  29.221  34.942  1.00  0.00     0.173 A 
ATOM     83  C   UNL A   1      43.734  27.657  35.962  1.00  0.00     0.173 A 
ATOM     84  F   UNL A   1      45.504  30.235  34.101  1.00  0.00    -0.203 F 
ATOM     85  C   UNL A   1      46.304  28.654  35.651  1.00  0.00     0.198 A 
ATOM     86  C   UNL A   1      44.785  27.115  36.695  1.00  0.00     0.198 A 
ATOM     87  F   UNL A   1      42.502  27.155  36.137  1.00  0.00    -0.203 F 
ATOM     88  F   UNL A   1      47.550  29.116  35.478  1.00  0.00    -0.200 F 
ATOM     89  C   UNL A   1      46.069  27.611  36.537  1.00  0.00     0.200 A 
ATOM     90  F   UNL A   1      44.552  26.122  37.563  1.00  0.00    -0.200 F 
ATOM     91  F   UNL A   1      47.084  27.083  37.236  1.00  0.00    -0.200 F 
ENDBRANCH  58  81
ENDBRANCH  32  33
ENDBRANCH  24  27
ENDBRANCH  22  23
ENDBRANCH  21  22
ENDBRANCH   1  21
TORSDOF 15
ENDMDL
MODEL 3
REMARK VINA RESULT:     -11.6      6.223     11.537
REMARK SMILES [N-]=[N+]=NC[C@@H](Nc1ccccc1Br)C(=O)NCCCCNC(=O)c1ccc(-c2c3nc(c(-c4c(F)c(F)c(F)c(F)c4F)c4ccc([nH]4)c(-c4c(F)c(F)c(F)c(F)c4F)c4nc(c(-c5c(F)c(F)c(F)c(F)c5F)c5ccc2[nH]5)C=C4)C=C3)cc1
REMARK SMILES IDX 18 1 17 2 16 3 14 4 15 5 5 7 4 8 3 9 1 10 2 11 6 12 7 14
REMARK SMILES IDX 8 15 12 16 9 17 11 18 13 19 10 20 19 21 20 22 21 23 22 24
REMARK SMILES IDX 23 26 24 27 25 28 86 29 26 30 85 31 27 32 28 33 29 34 79 35
REMARK SMILES IDX 30 36 84 37 78 38 80 39 31 40 83 41 77 42 76 43 32 45 64 46
REMARK SMILES IDX 44 47 63 48 45 49 48 50 62 51 81 52 46 53 47 54 61 56 82 57
REMARK SMILES IDX 49 58 33 59 34 60 42 61 35 62 36 63 40 64 43 65 37 66 38 67
REMARK SMILES IDX 41 68 39 69 65 70 66 71 74 72 67 73 68 74 72 75 75 76 69 77
REMARK SMILES IDX 70 78 73 79 71 80 50 81 51 82 59 83 52 84 53 85 57 86 60 87
REMARK SMILES IDX 54 88 55 89 58 90 56 91
REMARK H PARENT 16 6 6 13 21 25 80 44 48 55
REMARK Flexibility Score: inf
ROOT
ATOM      1  C   UNL A   1      32.160  30.667  26.054  1.00  0.00     0.023 C 
ENDROOT
BRANCH   1   2
ATOM      2  C   UNL A   1      32.907  29.587  26.827  1.00  0.00     0.116 C 
BRANCH   2   3
ATOM      3  N   UNL A   1      31.981  28.587  27.320  1.00  0.00    -0.354 N 
ATOM      4  C   UNL A   1      31.678  27.355  26.820  1.00  0.00     0.242 C 
ATOM      5  O   UNL A   1      30.712  26.772  27.323  1.00  0.00    -0.273 OA
ATOM      6  H   UNL A   1      31.496  28.836  28.140  1.00  0.00     0.163 HD
BRANCH   4   7
ATOM      7  C   UNL A   1      32.450  26.740  25.634  1.00  0.00     0.174 C 
BRANCH   7   8
ATOM      8  C   UNL A   1      33.166  25.475  26.163  1.00  0.00     0.125 C 
BRANCH   8   9
ATOM      9  N   UNL A   1      32.482  24.237  25.740  1.00  0.00    -0.091 NA
ATOM     10  N   UNL A   1      30.997  23.300  27.351  1.00  0.00    -0.003 NA
ATOM     11  N   UNL A   1      31.720  23.727  26.579  1.00  0.00     0.001 N 
ENDBRANCH   8   9
ENDBRANCH   7   8
BRANCH   7  12
ATOM     12  N   UNL A   1      31.625  26.442  24.438  1.00  0.00    -0.373 N 
ATOM     13  H   UNL A   1      31.582  25.498  24.163  1.00  0.00     0.161 HD
BRANCH  12  14
ATOM     14  C   UNL A   1      30.910  27.341  23.664  1.00  0.00     0.049 A 
ATOM     15  C   UNL A   1      29.517  27.132  23.608  1.00  0.00     0.027 A 
ATOM     16  C   UNL A   1      31.408  28.488  23.021  1.00  0.00     0.041 A 
ATOM     17  C   UNL A   1      28.649  28.070  23.043  1.00  0.00     0.002 A 
ATOM     18  C   UNL A   1      30.538  29.437  22.464  1.00  0.00     0.018 A 
ATOM     19  Br  UNL A   1      33.261  28.769  22.694  1.00  0.00    -0.049 Br
ATOM     20  C   UNL A   1      29.160  29.239  22.496  1.00  0.00     0.001 A 
ENDBRANCH  12  14
ENDBRANCH   7  12
ENDBRANCH   4   7
ENDBRANCH   2   3
ENDBRANCH   1   2
BRANCH   1  21
ATOM     21  C   UNL A   1      31.740  31.855  26.919  1.00  0.00     0.023 C 
BRANCH  21  22
ATOM     22  C   UNL A   1      32.897  32.716  27.406  1.00  0.00     0.116 C 
BRANCH  22  23
ATOM     23  N   UNL A   1      32.510  34.102  27.630  1.00  0.00    -0.352 N 
ATOM     24  C   UNL A   1      33.004  34.978  28.566  1.00  0.00     0.251 C 
ATOM     25  H   UNL A   1      31.807  34.455  27.037  1.00  0.00     0.163 HD
ATOM     26  O   UNL A   1      32.480  36.068  28.757  1.00  0.00    -0.269 OA
BRANCH  24  27
ATOM     27  C   UNL A   1      34.172  34.558  29.361  1.00  0.00     0.039 A 
ATOM     28  C   UNL A   1      33.976  33.950  30.602  1.00  0.00     0.014 A 
ATOM     29  C   UNL A   1      35.455  34.690  28.822  1.00  0.00     0.014 A 
ATOM     30  C   UNL A   1      35.069  33.406  31.277  1.00  0.00     0.010 A 
ATOM     31  C   UNL A   1      36.525  34.071  29.453  1.00  0.00     0.010 A 
ATOM     32  C   UNL A   1      36.344  33.428  30.688  1.00  0.00    -0.014 A 
BRANCH  32  33
ATOM     33  C   UNL A   1      37.524  32.811  31.344  1.00  0.00     0.031 A 
ATOM     34  C   UNL A   1      38.210  31.651  30.677  1.00  0.00     0.074 A 
ATOM     35  C   UNL A   1      37.916  33.221  32.566  1.00  0.00     0.049 A 
ATOM     36  N   UNL A   1      39.146  30.863  31.139  1.00  0.00    -0.248 NA
ATOM     37  C   UNL A   1      37.754  31.311  29.320  1.00  0.00     0.031 C 
ATOM     38  C   UNL A   1      37.315  34.319  33.326  1.00  0.00     0.029 A 
ATOM     39  N   UNL A   1      38.903  32.746  33.394  1.00  0.00    -0.354 N 
ATOM     40  C   UNL A   1      39.370  29.925  30.141  1.00  0.00     0.074 A 
ATOM     41  C   UNL A   1      38.435  30.203  29.074  1.00  0.00     0.031 C 
ATOM     42  C   UNL A   1      37.952  34.439  34.502  1.00  0.00     0.029 A 
ATOM     43  C   UNL A   1      38.970  33.397  34.602  1.00  0.00     0.049 A 
ATOM     44  H   UNL A   1      39.505  32.008  33.146  1.00  0.00     0.167 HD
ATOM     45  C   UNL A   1      40.292  28.933  30.108  1.00  0.00     0.037 A 
ATOM     46  C   UNL A   1      39.749  33.163  35.676  1.00  0.00     0.037 A 
ATOM     47  C   UNL A   1      41.234  28.677  31.164  1.00  0.00     0.049 A 
ATOM     48  C   UNL A   1      40.742  32.030  35.629  1.00  0.00     0.074 A 
ATOM     49  C   UNL A   1      42.240  27.729  31.208  1.00  0.00     0.029 A 
ATOM     50  N   UNL A   1      41.284  29.372  32.363  1.00  0.00    -0.354 N 
ATOM     51  N   UNL A   1      40.985  31.182  34.659  1.00  0.00    -0.248 NA
ATOM     52  C   UNL A   1      41.571  31.821  36.826  1.00  0.00     0.031 C 
ATOM     53  C   UNL A   1      42.860  27.810  32.457  1.00  0.00     0.029 A 
ATOM     54  C   UNL A   1      42.289  28.857  33.164  1.00  0.00     0.049 A 
ATOM     55  H   UNL A   1      40.693  30.121  32.607  1.00  0.00     0.167 HD
ATOM     56  C   UNL A   1      42.020  30.372  35.109  1.00  0.00     0.074 A 
ATOM     57  C   UNL A   1      42.360  30.829  36.439  1.00  0.00     0.031 C 
ATOM     58  C   UNL A   1      42.637  29.346  34.474  1.00  0.00     0.037 A 
BRANCH  45  59
ATOM     59  C   UNL A   1      40.323  28.051  28.894  1.00  0.00     0.064 A 
ATOM     60  C   UNL A   1      41.060  28.392  27.750  1.00  0.00     0.173 A 
ATOM     61  C   UNL A   1      39.634  26.828  28.887  1.00  0.00     0.173 A 
ATOM     62  F   UNL A   1      41.727  29.555  27.699  1.00  0.00    -0.203 F 
ATOM     63  C   UNL A   1      41.080  27.561  26.634  1.00  0.00     0.198 A 
ATOM     64  C   UNL A   1      39.686  25.981  27.783  1.00  0.00     0.198 A 
ATOM     65  F   UNL A   1      38.917  26.448  29.955  1.00  0.00    -0.203 F 
ATOM     66  F   UNL A   1      41.744  27.937  25.532  1.00  0.00    -0.200 F 
ATOM     67  C   UNL A   1      40.400  26.352  26.655  1.00  0.00     0.200 A 
ATOM     68  F   UNL A   1      39.042  24.806  27.811  1.00  0.00    -0.200 F 
ATOM     69  F   UNL A   1      40.429  25.548  25.583  1.00  0.00    -0.200 F 
ENDBRANCH  45  59
BRANCH  46  70
ATOM     70  C   UNL A   1      39.634  34.021  36.887  1.00  0.00     0.064 A 
ATOM     71  C   UNL A   1      38.850  33.622  37.979  1.00  0.00     0.173 A 
ATOM     72  C   UNL A   1      40.282  35.261  36.972  1.00  0.00     0.173 A 
ATOM     73  F   UNL A   1      38.194  32.453  37.940  1.00  0.00    -0.203 F 
ATOM     74  C   UNL A   1      38.696  34.442  39.095  1.00  0.00     0.198 A 
ATOM     75  C   UNL A   1      40.155  36.066  38.102  1.00  0.00     0.198 A 
ATOM     76  F   UNL A   1      41.049  35.690  35.958  1.00  0.00    -0.203 F 
ATOM     77  F   UNL A   1      37.895  34.060  40.099  1.00  0.00    -0.200 F 
ATOM     78  C   UNL A   1      39.353  35.660  39.159  1.00  0.00     0.200 A 
ATOM     79  F   UNL A   1      40.806  37.236  38.166  1.00  0.00    -0.200 F 
ATOM     80  F   UNL A   1      39.205  36.449  40.232  1.00  0.00    -0.200 F 
ENDBRANCH  46  70
BRANCH  58  81
ATOM     81  C   UNL A   1      43.792  28.684  35.167  1.00  0.00     0.064 A 
ATOM     82  C   UNL A   1      45.107  29.147  35.030  1.00  0.00     0.173 A 
ATOM     83  C   UNL A   1      43.559  27.620  36.054  1.00  0.00     0.173 A 
ATOM     84  F   UNL A   1      45.385  30.152  34.186  1.00  0.00    -0.203 F 
ATOM     85  C   UNL A   1      46.149  28.563  35.747  1.00  0.00     0.198 A 
ATOM     86  C   UNL A   1      44.597  27.061  36.793  1.00  0.00     0.198 A 
ATOM     87  F   UNL A   1      42.316  27.143  36.227  1.00  0.00    -0.203 F 
ATOM     88  F   UNL A   1      47.404  29.000  35.575  1.00  0.00    -0.200 F 
ATOM     89  C   UNL A   1      45.891  27.530  36.637  1.00  0.00     0.200 A 
ATOM     90  F   UNL A   1      44.341  26.077  37.666  1.00  0.00    -0.200 F 
ATOM     91  F   UNL A   1      46.892  26.987  37.342  1.00  0.00    -0.200 F 
ENDBRANCH  58  81
ENDBRANCH  32  33
ENDBRANCH  24  27
ENDBRANCH  22  23
ENDBRANCH  21  22
ENDBRANCH   1  21
TORSDOF 15
ENDMDL
