MODEL 1
REMARK VINA RESULT:     -13.1      0.000      0.000
REMARK SMILES CC1(C)[C@H](C(=O)N(Cc2ccccc2)Cc2ccccc2)CC[C@@]1(C)C(=O)NCCCCNC(=O)c1ccc(-c2c3nc(c(-c4c(F)c(F)c(F)c(F)c4F)c4ccc([nH]4)c(-c4c(F)c(F)c(F)c(F)c4F)c4nc(c(-c5c(F)c(F)c(F)c(F)c5F)c5ccc2[nH]5)C=C4)C=C3)cc1
REMARK SMILES IDX 30 1 29 2 28 3 26 4 27 5 24 7 1 8 2 9 3 10 4 11 22 12 23 13
REMARK SMILES IDX 25 14 5 15 6 16 7 17 8 18 9 19 10 20 14 21 11 22 13 23 12 24
REMARK SMILES IDX 15 25 16 26 17 27 21 28 18 29 20 30 19 31 31 32 32 33 33 34
REMARK SMILES IDX 34 35 35 37 36 38 37 39 98 40 38 41 97 42 39 43 40 44 41 45
REMARK SMILES IDX 91 46 42 47 96 48 90 49 92 50 43 51 95 52 89 53 88 54 44 56
REMARK SMILES IDX 76 57 56 58 75 59 57 60 60 61 74 62 93 63 58 64 59 65 73 67
REMARK SMILES IDX 94 68 61 69 45 70 46 71 54 72 47 73 48 74 52 75 55 76 49 77
REMARK SMILES IDX 50 78 53 79 51 80 77 81 78 82 86 83 79 84 80 85 84 86 87 87
REMARK SMILES IDX 81 88 82 89 85 90 83 91 62 92 63 93 71 94 64 95 65 96 69 97
REMARK SMILES IDX 72 98 66 99 67 100 70 101 68 102
REMARK H PARENT 28 6 33 36 92 55 60 66
REMARK Flexibility Score: inf
ROOT
ATOM      1  C   UNL A   1      31.456  29.092  26.463  1.00  0.00     0.023 C 
ENDROOT
BRANCH   1   2
ATOM      2  C   UNL A   1      31.871  29.265  25.008  1.00  0.00     0.116 C 
BRANCH   2   3
ATOM      3  N   UNL A   1      31.142  28.389  24.122  1.00  0.00    -0.356 N 
ATOM      4  C   UNL A   1      31.376  27.157  23.624  1.00  0.00     0.226 C 
ATOM      5  O   UNL A   1      30.437  26.699  22.959  1.00  0.00    -0.274 OA
ATOM      6  H   UNL A   1      30.289  28.773  23.814  1.00  0.00     0.163 HD
BRANCH   4   7
ATOM      7  C   UNL A   1      32.716  26.375  23.733  1.00  0.00     0.052 C 
ATOM      8  C   UNL A   1      31.579  25.548  25.960  1.00  0.00     0.013 C 
ATOM      9  C   UNL A   1      32.712  25.328  24.926  1.00  0.00    -0.010 C 
ATOM     10  C   UNL A   1      34.000  25.414  25.735  1.00  0.00     0.013 C 
ATOM     11  C   UNL A   1      32.502  23.959  24.217  1.00  0.00     0.085 C 
ATOM     12  C   UNL A   1      33.103  24.075  22.820  1.00  0.00     0.015 C 
ATOM     13  C   UNL A   1      33.144  25.569  22.481  1.00  0.00     0.018 C 
ATOM     14  C   UNL A   1      33.782  27.502  23.894  1.00  0.00     0.022 C 
BRANCH  11  15
ATOM     15  C   UNL A   1      32.647  22.583  24.924  1.00  0.00     0.226 C 
ATOM     16  O   UNL A   1      31.588  22.124  25.386  1.00  0.00    -0.275 OA
ATOM     17  N   UNL A   1      33.813  21.828  25.011  1.00  0.00    -0.334 N 
BRANCH  17  18
ATOM     18  C   UNL A   1      35.055  22.076  24.275  1.00  0.00     0.155 C 
BRANCH  18  19
ATOM     19  C   UNL A   1      36.328  22.302  25.069  1.00  0.00    -0.029 A 
ATOM     20  C   UNL A   1      36.678  23.539  25.626  1.00  0.00     0.005 A 
ATOM     21  C   UNL A   1      37.288  21.278  25.106  1.00  0.00     0.005 A 
ATOM     22  C   UNL A   1      37.946  23.769  26.162  1.00  0.00     0.000 A 
ATOM     23  C   UNL A   1      38.554  21.498  25.655  1.00  0.00     0.000 A 
ATOM     24  C   UNL A   1      38.887  22.748  26.170  1.00  0.00     0.000 A 
ENDBRANCH  18  19
ENDBRANCH  17  18
BRANCH  17  25
ATOM     25  C   UNL A   1      33.692  20.475  25.604  1.00  0.00     0.155 C 
BRANCH  25  26
ATOM     26  C   UNL A   1      33.656  19.334  24.609  1.00  0.00    -0.029 A 
ATOM     27  C   UNL A   1      32.601  19.215  23.692  1.00  0.00     0.005 A 
ATOM     28  C   UNL A   1      34.663  18.362  24.586  1.00  0.00     0.005 A 
ATOM     29  C   UNL A   1      32.514  18.111  22.842  1.00  0.00     0.000 A 
ATOM     30  C   UNL A   1      34.555  17.236  23.769  1.00  0.00     0.000 A 
ATOM     31  C   UNL A   1      33.474  17.106  22.903  1.00  0.00     0.000 A 
ENDBRANCH  25  26
ENDBRANCH  17  25
ENDBRANCH  11  15
ENDBRANCH   4   7
ENDBRANCH   2   3
ENDBRANCH   1   2
BRANCH   1  32
ATOM     32  C   UNL A   1      32.455  28.331  27.332  1.00  0.00     0.023 C 
BRANCH  32  33
ATOM     33  C   UNL A   1      33.844  28.950  27.412  1.00  0.00     0.116 C 
BRANCH  33  34
ATOM     34  N   UNL A   1      33.842  30.298  27.965  1.00  0.00    -0.352 N 
ATOM     35  C   UNL A   1      34.838  30.956  28.643  1.00  0.00     0.251 C 
ATOM     36  H   UNL A   1      33.009  30.807  27.836  1.00  0.00     0.163 HD
ATOM     37  O   UNL A   1      34.634  32.061  29.137  1.00  0.00    -0.269 OA
BRANCH  35  38
ATOM     38  C   UNL A   1      36.148  30.300  28.807  1.00  0.00     0.039 A 
ATOM     39  C   UNL A   1      37.093  30.420  27.785  1.00  0.00     0.014 A 
ATOM     40  C   UNL A   1      36.460  29.629  29.991  1.00  0.00     0.014 A 
ATOM     41  C   UNL A   1      38.383  29.931  27.986  1.00  0.00     0.010 A 
ATOM     42  C   UNL A   1      37.768  29.220  30.222  1.00  0.00     0.010 A 
ATOM     43  C   UNL A   1      38.742  29.367  29.222  1.00  0.00    -0.014 A 
BRANCH  43  44
ATOM     44  C   UNL A   1      40.135  28.933  29.491  1.00  0.00     0.031 A 
ATOM     45  C   UNL A   1      41.068  29.830  30.254  1.00  0.00     0.074 A 
ATOM     46  C   UNL A   1      40.579  27.766  28.987  1.00  0.00     0.049 A 
ATOM     47  N   UNL A   1      42.334  29.659  30.540  1.00  0.00    -0.248 NA
ATOM     48  C   UNL A   1      40.512  31.106  30.732  1.00  0.00     0.031 C 
ATOM     49  C   UNL A   1      39.787  26.839  28.177  1.00  0.00     0.029 A 
ATOM     50  N   UNL A   1      41.810  27.165  29.071  1.00  0.00    -0.354 N 
ATOM     51  C   UNL A   1      42.727  30.808  31.211  1.00  0.00     0.074 A 
ATOM     52  C   UNL A   1      41.585  31.696  31.238  1.00  0.00     0.031 C 
ATOM     53  C   UNL A   1      40.542  25.775  27.861  1.00  0.00     0.029 A 
ATOM     54  C   UNL A   1      41.881  25.961  28.414  1.00  0.00     0.049 A 
ATOM     55  H   UNL A   1      42.570  27.559  29.557  1.00  0.00     0.167 HD
ATOM     56  C   UNL A   1      43.924  31.087  31.779  1.00  0.00     0.037 A 
ATOM     57  C   UNL A   1      42.911  25.107  28.271  1.00  0.00     0.037 A 
ATOM     58  C   UNL A   1      45.049  30.190  31.771  1.00  0.00     0.049 A 
ATOM     59  C   UNL A   1      44.229  25.435  28.916  1.00  0.00     0.074 A 
ATOM     60  C   UNL A   1      46.282  30.344  32.379  1.00  0.00     0.029 A 
ATOM     61  N   UNL A   1      45.077  28.967  31.114  1.00  0.00    -0.354 N 
ATOM     62  N   UNL A   1      44.566  26.486  29.622  1.00  0.00    -0.248 NA
ATOM     63  C   UNL A   1      45.309  24.452  28.750  1.00  0.00     0.031 C 
ATOM     64  C   UNL A   1      47.074  29.240  32.048  1.00  0.00     0.029 A 
ATOM     65  C   UNL A   1      46.316  28.369  31.279  1.00  0.00     0.049 A 
ATOM     66  H   UNL A   1      44.327  28.581  30.605  1.00  0.00     0.167 HD
ATOM     67  C   UNL A   1      45.885  26.284  30.005  1.00  0.00     0.074 A 
ATOM     68  C   UNL A   1      46.282  24.998  29.468  1.00  0.00     0.031 C 
ATOM     69  C   UNL A   1      46.694  27.089  30.737  1.00  0.00     0.037 A 
BRANCH  56  70
ATOM     70  C   UNL A   1      44.074  32.419  32.456  1.00  0.00     0.064 A 
ATOM     71  C   UNL A   1      43.770  32.594  33.816  1.00  0.00     0.173 A 
ATOM     72  C   UNL A   1      44.542  33.532  31.742  1.00  0.00     0.173 A 
ATOM     73  F   UNL A   1      43.306  31.565  34.542  1.00  0.00    -0.203 F 
ATOM     74  C   UNL A   1      43.891  33.841  34.424  1.00  0.00     0.198 A 
ATOM     75  C   UNL A   1      44.696  34.770  32.363  1.00  0.00     0.198 A 
ATOM     76  F   UNL A   1      44.853  33.421  30.442  1.00  0.00    -0.203 F 
ATOM     77  F   UNL A   1      43.536  33.996  35.707  1.00  0.00    -0.200 F 
ATOM     78  C   UNL A   1      44.359  34.926  33.699  1.00  0.00     0.200 A 
ATOM     79  F   UNL A   1      45.161  35.815  31.663  1.00  0.00    -0.200 F 
ATOM     80  F   UNL A   1      44.479  36.124  34.286  1.00  0.00    -0.200 F 
ENDBRANCH  56  70
BRANCH  57  81
ATOM     81  C   UNL A   1      42.723  23.843  27.511  1.00  0.00     0.064 A 
ATOM     82  C   UNL A   1      43.050  23.766  26.150  1.00  0.00     0.173 A 
ATOM     83  C   UNL A   1      42.224  22.686  28.129  1.00  0.00     0.173 A 
ATOM     84  F   UNL A   1      43.511  24.851  25.511  1.00  0.00    -0.203 F 
ATOM     85  C   UNL A   1      42.870  22.586  25.432  1.00  0.00     0.198 A 
ATOM     86  C   UNL A   1      42.071  21.499  27.416  1.00  0.00     0.198 A 
ATOM     87  F   UNL A   1      41.902  22.706  29.430  1.00  0.00    -0.203 F 
ATOM     88  F   UNL A   1      43.152  22.552  24.122  1.00  0.00    -0.200 F 
ATOM     89  C   UNL A   1      42.388  21.451  26.067  1.00  0.00     0.200 A 
ATOM     90  F   UNL A   1      41.619  20.401  28.037  1.00  0.00    -0.200 F 
ATOM     91  F   UNL A   1      42.222  20.315  25.377  1.00  0.00    -0.200 F 
ENDBRANCH  57  81
BRANCH  69  92
ATOM     92  C   UNL A   1      48.082  26.591  31.023  1.00  0.00     0.064 A 
ATOM     93  C   UNL A   1      49.166  26.914  30.193  1.00  0.00     0.173 A 
ATOM     94  C   UNL A   1      48.335  25.813  32.164  1.00  0.00     0.173 A 
ATOM     95  F   UNL A   1      48.973  27.641  29.082  1.00  0.00    -0.203 F 
ATOM     96  C   UNL A   1      50.448  26.455  30.481  1.00  0.00     0.198 A 
ATOM     97  C   UNL A   1      49.625  25.383  32.465  1.00  0.00     0.198 A 
ATOM     98  F   UNL A   1      47.335  25.483  32.994  1.00  0.00    -0.203 F 
ATOM     99  F   UNL A   1      51.460  26.734  29.649  1.00  0.00    -0.200 F 
ATOM    100  C   UNL A   1      50.678  25.698  31.620  1.00  0.00     0.200 A 
ATOM    101  F   UNL A   1      49.847  24.664  33.574  1.00  0.00    -0.200 F 
ATOM    102  F   UNL A   1      51.915  25.263  31.900  1.00  0.00    -0.200 F 
ENDBRANCH  69  92
ENDBRANCH  43  44
ENDBRANCH  35  38
ENDBRANCH  33  34
ENDBRANCH  32  33
ENDBRANCH   1  32
TORSDOF 16
ENDMDL
MODEL 2
REMARK VINA RESULT:     -13.1      3.505      8.292
REMARK SMILES CC1(C)[C@H](C(=O)N(Cc2ccccc2)Cc2ccccc2)CC[C@@]1(C)C(=O)NCCCCNC(=O)c1ccc(-c2c3nc(c(-c4c(F)c(F)c(F)c(F)c4F)c4ccc([nH]4)c(-c4c(F)c(F)c(F)c(F)c4F)c4nc(c(-c5c(F)c(F)c(F)c(F)c5F)c5ccc2[nH]5)C=C4)C=C3)cc1
REMARK SMILES IDX 30 1 29 2 28 3 26 4 27 5 24 7 1 8 2 9 3 10 4 11 22 12 23 13
REMARK SMILES IDX 25 14 5 15 6 16 7 17 8 18 9 19 10 20 14 21 11 22 13 23 12 24
REMARK SMILES IDX 15 25 16 26 17 27 21 28 18 29 20 30 19 31 31 32 32 33 33 34
REMARK SMILES IDX 34 35 35 37 36 38 37 39 98 40 38 41 97 42 39 43 40 44 41 45
REMARK SMILES IDX 91 46 42 47 96 48 90 49 92 50 43 51 95 52 89 53 88 54 44 56
REMARK SMILES IDX 76 57 56 58 75 59 57 60 60 61 74 62 93 63 58 64 59 65 73 67
REMARK SMILES IDX 94 68 61 69 45 70 46 71 54 72 47 73 48 74 52 75 55 76 49 77
REMARK SMILES IDX 50 78 53 79 51 80 77 81 78 82 86 83 79 84 80 85 84 86 87 87
REMARK SMILES IDX 81 88 82 89 85 90 83 91 62 92 63 93 71 94 64 95 65 96 69 97
REMARK SMILES IDX 72 98 66 99 67 100 70 101 68 102
REMARK H PARENT 28 6 33 36 92 55 60 66
REMARK Flexibility Score: inf
ROOT
ATOM      1  C   UNL A   1      31.890  30.344  26.741  1.00  0.00     0.023 C 
ENDROOT
BRANCH   1   2
ATOM      2  C   UNL A   1      32.376  29.764  25.419  1.00  0.00     0.116 C 
BRANCH   2   3
ATOM      3  N   UNL A   1      31.341  29.033  24.728  1.00  0.00    -0.356 N 
ATOM      4  C   UNL A   1      31.281  27.809  24.160  1.00  0.00     0.226 C 
ATOM      5  O   UNL A   1      30.154  27.506  23.744  1.00  0.00    -0.274 OA
ATOM      6  H   UNL A   1      30.497  29.534  24.654  1.00  0.00     0.163 HD
BRANCH   4   7
ATOM      7  C   UNL A   1      32.492  26.866  23.910  1.00  0.00     0.052 C 
ATOM      8  C   UNL A   1      31.911  26.139  26.373  1.00  0.00     0.013 C 
ATOM      9  C   UNL A   1      32.683  25.803  25.073  1.00  0.00    -0.010 C 
ATOM     10  C   UNL A   1      34.142  25.712  25.497  1.00  0.00     0.013 C 
ATOM     11  C   UNL A   1      32.118  24.486  24.466  1.00  0.00     0.085 C 
ATOM     12  C   UNL A   1      32.325  24.555  22.957  1.00  0.00     0.015 C 
ATOM     13  C   UNL A   1      32.458  26.040  22.599  1.00  0.00     0.018 C 
ATOM     14  C   UNL A   1      33.693  27.849  23.758  1.00  0.00     0.022 C 
BRANCH  11  15
ATOM     15  C   UNL A   1      32.277  23.087  25.125  1.00  0.00     0.226 C 
ATOM     16  O   UNL A   1      31.306  22.724  25.810  1.00  0.00    -0.275 OA
ATOM     17  N   UNL A   1      33.354  22.222  24.954  1.00  0.00    -0.334 N 
BRANCH  17  18
ATOM     18  C   UNL A   1      34.422  22.363  23.963  1.00  0.00     0.155 C 
BRANCH  18  19
ATOM     19  C   UNL A   1      35.859  22.372  24.450  1.00  0.00    -0.029 A 
ATOM     20  C   UNL A   1      36.635  21.213  24.577  1.00  0.00     0.005 A 
ATOM     21  C   UNL A   1      36.387  23.567  24.964  1.00  0.00     0.005 A 
ATOM     22  C   UNL A   1      37.871  21.226  25.225  1.00  0.00     0.000 A 
ATOM     23  C   UNL A   1      37.631  23.589  25.601  1.00  0.00     0.000 A 
ATOM     24  C   UNL A   1      38.366  22.415  25.744  1.00  0.00     0.000 A 
ENDBRANCH  18  19
ENDBRANCH  17  18
BRANCH  17  25
ATOM     25  C   UNL A   1      33.232  20.875  25.561  1.00  0.00     0.155 C 
BRANCH  25  26
ATOM     26  C   UNL A   1      33.273  19.719  24.582  1.00  0.00    -0.029 A 
ATOM     27  C   UNL A   1      32.335  19.625  23.544  1.00  0.00     0.005 A 
ATOM     28  C   UNL A   1      34.236  18.709  24.695  1.00  0.00     0.005 A 
ATOM     29  C   UNL A   1      32.309  18.511  22.703  1.00  0.00     0.000 A 
ATOM     30  C   UNL A   1      34.185  17.574  23.886  1.00  0.00     0.000 A 
ATOM     31  C   UNL A   1      33.214  17.471  22.895  1.00  0.00     0.000 A 
ENDBRANCH  25  26
ENDBRANCH  17  25
ENDBRANCH  11  15
ENDBRANCH   4   7
ENDBRANCH   2   3
ENDBRANCH   1   2
BRANCH   1  32
ATOM     32  C   UNL A   1      31.696  31.858  26.747  1.00  0.00     0.023 C 
BRANCH  32  33
ATOM     33  C   UNL A   1      32.813  32.651  27.413  1.00  0.00     0.116 C 
BRANCH  33  34
ATOM     34  N   UNL A   1      32.452  34.037  27.682  1.00  0.00    -0.352 N 
ATOM     35  C   UNL A   1      32.998  34.912  28.587  1.00  0.00     0.251 C 
ATOM     36  H   UNL A   1      31.712  34.395  27.139  1.00  0.00     0.163 HD
ATOM     37  O   UNL A   1      32.503  36.022  28.761  1.00  0.00    -0.269 OA
BRANCH  35  38
ATOM     38  C   UNL A   1      34.166  34.488  29.380  1.00  0.00     0.039 A 
ATOM     39  C   UNL A   1      33.959  33.985  30.666  1.00  0.00     0.014 A 
ATOM     40  C   UNL A   1      35.448  34.526  28.828  1.00  0.00     0.014 A 
ATOM     41  C   UNL A   1      35.034  33.446  31.372  1.00  0.00     0.010 A 
ATOM     42  C   UNL A   1      36.500  33.911  29.497  1.00  0.00     0.010 A 
ATOM     43  C   UNL A   1      36.303  33.365  30.775  1.00  0.00    -0.014 A 
BRANCH  43  44
ATOM     44  C   UNL A   1      37.436  32.704  31.468  1.00  0.00     0.031 A 
ATOM     45  C   UNL A   1      38.130  31.536  30.829  1.00  0.00     0.074 A 
ATOM     46  C   UNL A   1      37.791  33.111  32.702  1.00  0.00     0.049 A 
ATOM     47  N   UNL A   1      39.098  30.789  31.297  1.00  0.00    -0.248 NA
ATOM     48  C   UNL A   1      37.651  31.131  29.498  1.00  0.00     0.031 C 
ATOM     49  C   UNL A   1      37.151  34.193  33.453  1.00  0.00     0.029 A 
ATOM     50  N   UNL A   1      38.769  32.654  33.548  1.00  0.00    -0.354 N 
ATOM     51  C   UNL A   1      39.328  29.821  30.330  1.00  0.00     0.074 A 
ATOM     52  C   UNL A   1      38.360  30.035  29.276  1.00  0.00     0.031 C 
ATOM     53  C   UNL A   1      37.770  34.333  34.636  1.00  0.00     0.029 A 
ATOM     54  C   UNL A   1      38.825  33.330  34.743  1.00  0.00     0.049 A 
ATOM     55  H   UNL A   1      39.375  31.911  33.321  1.00  0.00     0.167 HD
ATOM     56  C   UNL A   1      40.279  28.856  30.310  1.00  0.00     0.037 A 
ATOM     57  C   UNL A   1      39.633  33.155  35.805  1.00  0.00     0.037 A 
ATOM     58  C   UNL A   1      41.255  28.664  31.349  1.00  0.00     0.049 A 
ATOM     59  C   UNL A   1      40.685  32.083  35.756  1.00  0.00     0.074 A 
ATOM     60  C   UNL A   1      42.305  27.765  31.392  1.00  0.00     0.029 A 
ATOM     61  N   UNL A   1      41.295  29.384  32.536  1.00  0.00    -0.354 N 
ATOM     62  N   UNL A   1      40.951  31.226  34.800  1.00  0.00    -0.248 NA
ATOM     63  C   UNL A   1      41.558  31.957  36.933  1.00  0.00     0.031 C 
ATOM     64  C   UNL A   1      42.950  27.905  32.625  1.00  0.00     0.029 A 
ATOM     65  C   UNL A   1      42.336  28.930  33.329  1.00  0.00     0.049 A 
ATOM     66  H   UNL A   1      40.674  30.109  32.778  1.00  0.00     0.167 HD
ATOM     67  C   UNL A   1      42.031  30.477  35.246  1.00  0.00     0.074 A 
ATOM     68  C   UNL A   1      42.385  30.993  36.552  1.00  0.00     0.031 C 
ATOM     69  C   UNL A   1      42.674  29.455  34.628  1.00  0.00     0.037 A 
BRANCH  56  70
ATOM     70  C   UNL A   1      40.305  27.938  29.121  1.00  0.00     0.064 A 
ATOM     71  C   UNL A   1      39.602  26.723  29.112  1.00  0.00     0.173 A 
ATOM     72  C   UNL A   1      41.030  28.284  27.971  1.00  0.00     0.173 A 
ATOM     73  F   UNL A   1      38.903  26.339  30.191  1.00  0.00    -0.203 F 
ATOM     74  C   UNL A   1      39.655  25.871  28.012  1.00  0.00     0.198 A 
ATOM     75  C   UNL A   1      41.052  27.445  26.859  1.00  0.00     0.198 A 
ATOM     76  F   UNL A   1      41.716  29.435  27.923  1.00  0.00    -0.203 F 
ATOM     77  F   UNL A   1      39.025  24.689  28.050  1.00  0.00    -0.200 F 
ATOM     78  C   UNL A   1      40.375  26.235  26.884  1.00  0.00     0.200 A 
ATOM     79  F   UNL A   1      41.739  27.805  25.764  1.00  0.00    -0.200 F 
ATOM     80  F   UNL A   1      40.423  25.417  25.825  1.00  0.00    -0.200 F 
ENDBRANCH  56  70
BRANCH  57  81
ATOM     81  C   UNL A   1      39.497  34.043  36.990  1.00  0.00     0.064 A 
ATOM     82  C   UNL A   1      38.755  33.640  38.109  1.00  0.00     0.173 A 
ATOM     83  C   UNL A   1      40.112  35.303  37.033  1.00  0.00     0.173 A 
ATOM     84  F   UNL A   1      38.132  32.452  38.106  1.00  0.00    -0.203 F 
ATOM     85  C   UNL A   1      38.620  34.470  39.220  1.00  0.00     0.198 A 
ATOM     86  C   UNL A   1      39.999  36.120  38.156  1.00  0.00     0.198 A 
ATOM     87  F   UNL A   1      40.838  35.732  35.991  1.00  0.00    -0.203 F 
ATOM     88  F   UNL A   1      37.871  34.077  40.260  1.00  0.00    -0.200 F 
ATOM     89  C   UNL A   1      39.248  35.706  39.246  1.00  0.00     0.200 A 
ATOM     90  F   UNL A   1      40.620  37.307  38.183  1.00  0.00    -0.200 F 
ATOM     91  F   UNL A   1      39.123  36.501  40.318  1.00  0.00    -0.200 F 
ENDBRANCH  57  81
BRANCH  69  92
ATOM     92  C   UNL A   1      43.842  28.844  35.346  1.00  0.00     0.064 A 
ATOM     93  C   UNL A   1      45.153  29.302  35.147  1.00  0.00     0.173 A 
ATOM     94  C   UNL A   1      43.641  27.811  36.276  1.00  0.00     0.173 A 
ATOM     95  F   UNL A   1      45.398  30.276  34.257  1.00  0.00    -0.203 F 
ATOM     96  C   UNL A   1      46.222  28.732  35.832  1.00  0.00     0.198 A 
ATOM     97  C   UNL A   1      44.710  27.266  36.983  1.00  0.00     0.198 A 
ATOM     98  F   UNL A   1      42.407  27.341  36.510  1.00  0.00    -0.203 F 
ATOM     99  F   UNL A   1      47.471  29.153  35.589  1.00  0.00    -0.200 F 
ATOM    100  C   UNL A   1      45.999  27.721  36.755  1.00  0.00     0.200 A 
ATOM    101  F   UNL A   1      44.490  26.299  37.884  1.00  0.00    -0.200 F 
ATOM    102  F   UNL A   1      47.029  27.179  37.419  1.00  0.00    -0.200 F 
ENDBRANCH  69  92
ENDBRANCH  43  44
ENDBRANCH  35  38
ENDBRANCH  33  34
ENDBRANCH  32  33
ENDBRANCH   1  32
TORSDOF 16
ENDMDL
MODEL 3
REMARK VINA RESULT:     -13.0      3.482      8.317
REMARK SMILES CC1(C)[C@H](C(=O)N(Cc2ccccc2)Cc2ccccc2)CC[C@@]1(C)C(=O)NCCCCNC(=O)c1ccc(-c2c3nc(c(-c4c(F)c(F)c(F)c(F)c4F)c4ccc([nH]4)c(-c4c(F)c(F)c(F)c(F)c4F)c4nc(c(-c5c(F)c(F)c(F)c(F)c5F)c5ccc2[nH]5)C=C4)C=C3)cc1
REMARK SMILES IDX 30 1 29 2 28 3 26 4 27 5 24 7 1 8 2 9 3 10 4 11 22 12 23 13
REMARK SMILES IDX 25 14 5 15 6 16 7 17 8 18 9 19 10 20 14 21 11 22 13 23 12 24
REMARK SMILES IDX 15 25 16 26 17 27 21 28 18 29 20 30 19 31 31 32 32 33 33 34
REMARK SMILES IDX 34 35 35 37 36 38 37 39 98 40 38 41 97 42 39 43 40 44 41 45
REMARK SMILES IDX 91 46 42 47 96 48 90 49 92 50 43 51 95 52 89 53 88 54 44 56
REMARK SMILES IDX 76 57 56 58 75 59 57 60 60 61 74 62 93 63 58 64 59 65 73 67
REMARK SMILES IDX 94 68 61 69 45 70 46 71 54 72 47 73 48 74 52 75 55 76 49 77
REMARK SMILES IDX 50 78 53 79 51 80 77 81 78 82 86 83 79 84 80 85 84 86 87 87
REMARK SMILES IDX 81 88 82 89 85 90 83 91 62 92 63 93 71 94 64 95 65 96 69 97
REMARK SMILES IDX 72 98 66 99 67 100 70 101 68 102
REMARK H PARENT 28 6 33 36 92 55 60 66
REMARK Flexibility Score: inf
ROOT
ATOM      1  C   UNL A   1      31.889  30.349  26.702  1.00  0.00     0.023 C 
ENDROOT
BRANCH   1   2
ATOM      2  C   UNL A   1      32.513  29.855  25.404  1.00  0.00     0.116 C 
BRANCH   2   3
ATOM      3  N   UNL A   1      31.547  29.228  24.534  1.00  0.00    -0.356 N 
ATOM      4  C   UNL A   1      31.484  28.030  23.916  1.00  0.00     0.226 C 
ATOM      5  O   UNL A   1      30.416  27.829  23.322  1.00  0.00    -0.274 OA
ATOM      6  H   UNL A   1      30.765  29.797  24.352  1.00  0.00     0.163 HD
BRANCH   4   7
ATOM      7  C   UNL A   1      32.645  26.999  23.818  1.00  0.00     0.052 C 
ATOM      8  C   UNL A   1      31.667  26.289  26.158  1.00  0.00     0.013 C 
ATOM      9  C   UNL A   1      32.588  25.910  24.972  1.00  0.00    -0.010 C 
ATOM     10  C   UNL A   1      33.962  25.702  25.595  1.00  0.00     0.013 C 
ATOM     11  C   UNL A   1      32.020  24.648  24.262  1.00  0.00     0.085 C 
ATOM     12  C   UNL A   1      32.443  24.719  22.799  1.00  0.00     0.015 C 
ATOM     13  C   UNL A   1      32.736  26.194  22.497  1.00  0.00     0.018 C 
ATOM     14  C   UNL A   1      33.925  27.889  23.859  1.00  0.00     0.022 C 
BRANCH  11  15
ATOM     15  C   UNL A   1      31.979  23.233  24.905  1.00  0.00     0.226 C 
ATOM     16  O   UNL A   1      30.899  22.941  25.446  1.00  0.00    -0.275 OA
ATOM     17  N   UNL A   1      32.998  22.286  24.858  1.00  0.00    -0.334 N 
BRANCH  17  18
ATOM     18  C   UNL A   1      34.197  22.352  24.021  1.00  0.00     0.155 C 
BRANCH  18  19
ATOM     19  C   UNL A   1      35.551  22.384  24.705  1.00  0.00    -0.029 A 
ATOM     20  C   UNL A   1      36.158  23.563  25.155  1.00  0.00     0.005 A 
ATOM     21  C   UNL A   1      36.315  21.207  24.737  1.00  0.00     0.005 A 
ATOM     22  C   UNL A   1      37.486  23.587  25.583  1.00  0.00     0.000 A 
ATOM     23  C   UNL A   1      37.641  21.222  25.178  1.00  0.00     0.000 A 
ATOM     24  C   UNL A   1      38.231  22.415  25.587  1.00  0.00     0.000 A 
ENDBRANCH  18  19
ENDBRANCH  17  18
BRANCH  17  25
ATOM     25  C   UNL A   1      32.691  20.946  25.413  1.00  0.00     0.155 C 
BRANCH  25  26
ATOM     26  C   UNL A   1      32.923  19.786  24.467  1.00  0.00    -0.029 A 
ATOM     27  C   UNL A   1      32.192  19.676  23.275  1.00  0.00     0.005 A 
ATOM     28  C   UNL A   1      33.859  18.788  24.762  1.00  0.00     0.005 A 
ATOM     29  C   UNL A   1      32.332  18.557  22.451  1.00  0.00     0.000 A 
ATOM     30  C   UNL A   1      33.968  17.648  23.965  1.00  0.00     0.000 A 
ATOM     31  C   UNL A   1      33.197  17.529  22.813  1.00  0.00     0.000 A 
ENDBRANCH  25  26
ENDBRANCH  17  25
ENDBRANCH  11  15
ENDBRANCH   4   7
ENDBRANCH   2   3
ENDBRANCH   1   2
BRANCH   1  32
ATOM     32  C   UNL A   1      31.654  31.856  26.770  1.00  0.00     0.023 C 
BRANCH  32  33
ATOM     33  C   UNL A   1      32.793  32.662  27.381  1.00  0.00     0.116 C 
BRANCH  33  34
ATOM     34  N   UNL A   1      32.433  34.046  27.659  1.00  0.00    -0.352 N 
ATOM     35  C   UNL A   1      32.976  34.913  28.574  1.00  0.00     0.251 C 
ATOM     36  H   UNL A   1      31.697  34.410  27.116  1.00  0.00     0.163 HD
ATOM     37  O   UNL A   1      32.482  36.022  28.755  1.00  0.00    -0.269 OA
BRANCH  35  38
ATOM     38  C   UNL A   1      34.139  34.480  29.370  1.00  0.00     0.039 A 
ATOM     39  C   UNL A   1      33.920  33.910  30.626  1.00  0.00     0.014 A 
ATOM     40  C   UNL A   1      35.430  34.578  28.848  1.00  0.00     0.014 A 
ATOM     41  C   UNL A   1      34.994  33.364  31.327  1.00  0.00     0.010 A 
ATOM     42  C   UNL A   1      36.485  33.958  29.508  1.00  0.00     0.010 A 
ATOM     43  C   UNL A   1      36.277  33.345  30.753  1.00  0.00    -0.014 A 
BRANCH  43  44
ATOM     44  C   UNL A   1      37.413  32.680  31.438  1.00  0.00     0.031 A 
ATOM     45  C   UNL A   1      38.105  31.516  30.788  1.00  0.00     0.074 A 
ATOM     46  C   UNL A   1      37.773  33.078  32.673  1.00  0.00     0.049 A 
ATOM     47  N   UNL A   1      39.075  30.767  31.247  1.00  0.00    -0.248 NA
ATOM     48  C   UNL A   1      37.621  31.121  29.456  1.00  0.00     0.031 C 
ATOM     49  C   UNL A   1      37.135  34.154  33.434  1.00  0.00     0.029 A 
ATOM     50  N   UNL A   1      38.755  32.616  33.512  1.00  0.00    -0.354 N 
ATOM     51  C   UNL A   1      39.301  29.805  30.272  1.00  0.00     0.074 A 
ATOM     52  C   UNL A   1      38.330  30.026  29.224  1.00  0.00     0.031 C 
ATOM     53  C   UNL A   1      37.759  34.287  34.615  1.00  0.00     0.029 A 
ATOM     54  C   UNL A   1      38.815  33.283  34.711  1.00  0.00     0.049 A 
ATOM     55  H   UNL A   1      39.360  31.875  33.277  1.00  0.00     0.167 HD
ATOM     56  C   UNL A   1      40.253  28.841  30.241  1.00  0.00     0.037 A 
ATOM     57  C   UNL A   1      39.627  33.102  35.769  1.00  0.00     0.037 A 
ATOM     58  C   UNL A   1      41.233  28.643  31.275  1.00  0.00     0.049 A 
ATOM     59  C   UNL A   1      40.680  32.030  35.708  1.00  0.00     0.074 A 
ATOM     60  C   UNL A   1      42.284  27.744  31.307  1.00  0.00     0.029 A 
ATOM     61  N   UNL A   1      41.277  29.354  32.467  1.00  0.00    -0.354 N 
ATOM     62  N   UNL A   1      40.942  31.181  34.745  1.00  0.00    -0.248 NA
ATOM     63  C   UNL A   1      41.557  31.898  36.880  1.00  0.00     0.031 C 
ATOM     64  C   UNL A   1      42.934  27.876  32.539  1.00  0.00     0.029 A 
ATOM     65  C   UNL A   1      42.322  28.895  33.253  1.00  0.00     0.049 A 
ATOM     66  H   UNL A   1      40.658  30.078  32.716  1.00  0.00     0.167 HD
ATOM     67  C   UNL A   1      42.025  30.429  35.181  1.00  0.00     0.074 A 
ATOM     68  C   UNL A   1      42.383  30.936  36.490  1.00  0.00     0.031 C 
ATOM     69  C   UNL A   1      42.665  29.412  34.554  1.00  0.00     0.037 A 
BRANCH  56  70
ATOM     70  C   UNL A   1      40.275  27.932  29.047  1.00  0.00     0.064 A 
ATOM     71  C   UNL A   1      40.995  28.255  27.886  1.00  0.00     0.173 A 
ATOM     72  C   UNL A   1      39.580  26.713  29.068  1.00  0.00     0.173 A 
ATOM     73  F   UNL A   1      41.666  29.414  27.808  1.00  0.00    -0.203 F 
ATOM     74  C   UNL A   1      40.986  27.412  26.777  1.00  0.00     0.198 A 
ATOM     75  C   UNL A   1      39.602  25.856  27.970  1.00  0.00     0.198 A 
ATOM     76  F   UNL A   1      38.880  26.351  30.152  1.00  0.00    -0.203 F 
ATOM     77  F   UNL A   1      41.631  27.772  25.659  1.00  0.00    -0.200 F 
ATOM     78  C   UNL A   1      40.295  26.211  26.822  1.00  0.00     0.200 A 
ATOM     79  F   UNL A   1      38.944  24.688  28.020  1.00  0.00    -0.200 F 
ATOM     80  F   UNL A   1      40.290  25.399  25.756  1.00  0.00    -0.200 F 
ENDBRANCH  56  70
BRANCH  57  81
ATOM     81  C   UNL A   1      39.496  33.981  36.960  1.00  0.00     0.064 A 
ATOM     82  C   UNL A   1      40.114  35.239  36.997  1.00  0.00     0.173 A 
ATOM     83  C   UNL A   1      38.744  33.590  38.078  1.00  0.00     0.173 A 
ATOM     84  F   UNL A   1      40.860  35.649  35.961  1.00  0.00    -0.203 F 
ATOM     85  C   UNL A   1      39.999  36.065  38.114  1.00  0.00     0.198 A 
ATOM     86  C   UNL A   1      38.607  34.429  39.182  1.00  0.00     0.198 A 
ATOM     87  F   UNL A   1      38.128  32.400  38.089  1.00  0.00    -0.203 F 
ATOM     88  F   UNL A   1      40.634  37.245  38.139  1.00  0.00    -0.200 F 
ATOM     89  C   UNL A   1      39.239  35.663  39.202  1.00  0.00     0.200 A 
ATOM     90  F   UNL A   1      37.860  34.043  40.225  1.00  0.00    -0.200 F 
ATOM     91  F   UNL A   1      39.123  36.461  40.272  1.00  0.00    -0.200 F 
ENDBRANCH  57  81
BRANCH  69  92
ATOM     92  C   UNL A   1      43.836  28.796  35.263  1.00  0.00     0.064 A 
ATOM     93  C   UNL A   1      43.680  27.719  36.148  1.00  0.00     0.173 A 
ATOM     94  C   UNL A   1      45.138  29.266  35.023  1.00  0.00     0.173 A 
ATOM     95  F   UNL A   1      42.456  27.244  36.423  1.00  0.00    -0.203 F 
ATOM     96  C   UNL A   1      44.780  27.153  36.787  1.00  0.00     0.198 A 
ATOM     97  C   UNL A   1      46.238  28.676  35.639  1.00  0.00     0.198 A 
ATOM     98  F   UNL A   1      45.343  30.289  34.180  1.00  0.00    -0.203 F 
ATOM     99  F   UNL A   1      44.602  26.157  37.666  1.00  0.00    -0.200 F 
ATOM    100  C   UNL A   1      46.057  27.625  36.526  1.00  0.00     0.200 A 
ATOM    101  F   UNL A   1      47.472  29.124  35.375  1.00  0.00    -0.200 F 
ATOM    102  F   UNL A   1      47.115  27.073  37.136  1.00  0.00    -0.200 F 
ENDBRANCH  69  92
ENDBRANCH  43  44
ENDBRANCH  35  38
ENDBRANCH  33  34
ENDBRANCH  32  33
ENDBRANCH   1  32
TORSDOF 16
ENDMDL
