MODEL 1
REMARK VINA RESULT:     -10.8      0.000      0.000
REMARK SMILES CC[N@@H+](C/C(Cl)=C/Cl)C[C@@H](C)C(=O)NCCCCNC(=O)c1ccc(-c2c3nc(c(-c4c(F)c(F)c(F)c(F)c4F)c4ccc([nH]4)c(-c4c(F)c(F)c(F)c(F)c4F)c4nc(c(-c5c(F)c(F)c(F)c(F)c5F)c5ccc2[nH]5)C=C4)C=C3)cc1
REMARK SMILES IDX 15 1 14 2 12 3 13 4 10 6 11 7 9 8 3 9 2 11 1 12 4 13 5 14
REMARK SMILES IDX 6 15 7 16 8 17 16 18 17 19 18 20 19 21 20 22 21 24 22 25
REMARK SMILES IDX 23 26 84 27 24 28 83 29 25 30 26 31 27 32 77 33 28 34 82 35
REMARK SMILES IDX 76 36 78 37 29 38 81 39 75 40 74 41 30 43 62 44 42 45 61 46
REMARK SMILES IDX 43 47 46 48 60 49 79 50 44 51 45 52 59 54 80 55 47 56 31 57
REMARK SMILES IDX 32 58 40 59 33 60 34 61 38 62 41 63 35 64 36 65 39 66 37 67
REMARK SMILES IDX 63 68 64 69 72 70 65 71 66 72 70 73 73 74 67 75 68 76 71 77
REMARK SMILES IDX 69 78 48 79 49 80 57 81 50 82 51 83 55 84 58 85 52 86 53 87
REMARK SMILES IDX 56 88 54 89
REMARK H PARENT 14 5 3 10 19 23 78 42 46 53
REMARK Flexibility Score: inf
ROOT
ATOM      1  C   UNL A   1      33.191  30.100  26.426  1.00  0.00     0.116 C 
ENDROOT
BRANCH   1   2
ATOM      2  N   UNL A   1      33.531  29.590  25.115  1.00  0.00    -0.356 N 
ATOM      3  C   UNL A   1      33.540  28.318  24.633  1.00  0.00     0.228 C 
ATOM      4  O   UNL A   1      33.940  28.157  23.478  1.00  0.00    -0.275 OA
ATOM      5  H   UNL A   1      33.802  30.277  24.464  1.00  0.00     0.163 HD
BRANCH   3   6
ATOM      6  C   UNL A   1      33.060  27.129  25.465  1.00  0.00     0.130 C 
ATOM      7  C   UNL A   1      34.013  25.947  25.303  1.00  0.00     0.024 C 
BRANCH   6   8
ATOM      8  C   UNL A   1      31.550  26.886  25.247  1.00  0.00     0.275 C 
BRANCH   8   9
ATOM      9  N   UNL A   1      30.991  26.755  23.899  1.00  0.00    -0.330 N 
ATOM     10  H   UNL A   1      31.577  27.457  23.448  1.00  0.00     0.348 HD
BRANCH   9  11
ATOM     11  C   UNL A   1      31.360  25.611  23.078  1.00  0.00     0.259 C 
ATOM     12  C   UNL A   1      31.894  25.983  21.697  1.00  0.00     0.071 C 
ENDBRANCH   9  11
BRANCH   9  13
ATOM     13  C   UNL A   1      29.629  27.266  23.708  1.00  0.00     0.312 C 
BRANCH  13  14
ATOM     14  C   UNL A   1      29.442  28.542  22.923  1.00  0.00     0.083 C 
ATOM     15  Cl  UNL A   1      30.921  29.326  22.452  1.00  0.00    -0.082 Cl
ATOM     16  C   UNL A   1      28.247  29.023  22.561  1.00  0.00     0.102 C 
ATOM     17  Cl  UNL A   1      27.963  30.470  21.688  1.00  0.00    -0.091 Cl
ENDBRANCH  13  14
ENDBRANCH   9  13
ENDBRANCH   8   9
ENDBRANCH   6   8
ENDBRANCH   3   6
ENDBRANCH   1   2
BRANCH   1  18
ATOM     18  C   UNL A   1      31.737  30.562  26.488  1.00  0.00     0.023 C 
BRANCH  18  19
ATOM     19  C   UNL A   1      31.565  32.075  26.614  1.00  0.00     0.023 C 
BRANCH  19  20
ATOM     20  C   UNL A   1      32.732  32.800  27.275  1.00  0.00     0.116 C 
BRANCH  20  21
ATOM     21  N   UNL A   1      32.421  34.171  27.648  1.00  0.00    -0.352 N 
ATOM     22  C   UNL A   1      33.018  34.948  28.612  1.00  0.00     0.251 C 
ATOM     23  H   UNL A   1      31.689  34.598  27.145  1.00  0.00     0.163 HD
ATOM     24  O   UNL A   1      32.583  36.056  28.888  1.00  0.00    -0.269 OA
BRANCH  22  25
ATOM     25  C   UNL A   1      34.177  34.397  29.341  1.00  0.00     0.039 A 
ATOM     26  C   UNL A   1      33.952  33.665  30.509  1.00  0.00     0.014 A 
ATOM     27  C   UNL A   1      35.469  34.548  28.830  1.00  0.00     0.014 A 
ATOM     28  C   UNL A   1      35.022  33.020  31.128  1.00  0.00     0.010 A 
ATOM     29  C   UNL A   1      36.519  33.847  29.407  1.00  0.00     0.010 A 
ATOM     30  C   UNL A   1      36.306  33.075  30.560  1.00  0.00    -0.014 A 
BRANCH  30  31
ATOM     31  C   UNL A   1      37.442  32.330  31.156  1.00  0.00     0.031 A 
ATOM     32  C   UNL A   1      37.951  32.707  32.518  1.00  0.00     0.074 A 
ATOM     33  C   UNL A   1      38.059  31.371  30.441  1.00  0.00     0.049 A 
ATOM     34  N   UNL A   1      38.977  32.235  33.179  1.00  0.00    -0.248 NA
ATOM     35  C   UNL A   1      37.226  33.780  33.219  1.00  0.00     0.031 C 
ATOM     36  C   UNL A   1      37.692  30.956  29.086  1.00  0.00     0.029 A 
ATOM     37  N   UNL A   1      39.135  30.578  30.751  1.00  0.00    -0.354 N 
ATOM     38  C   UNL A   1      39.030  32.962  34.360  1.00  0.00     0.074 A 
ATOM     39  C   UNL A   1      37.968  33.943  34.303  1.00  0.00     0.031 C 
ATOM     40  C   UNL A   1      38.516  29.974  28.689  1.00  0.00     0.029 A 
ATOM     41  C   UNL A   1      39.488  29.711  29.746  1.00  0.00     0.049 A 
ATOM     42  H   UNL A   1      39.609  30.625  31.612  1.00  0.00     0.167 HD
ATOM     43  C   UNL A   1      39.871  32.806  35.409  1.00  0.00     0.037 A 
ATOM     44  C   UNL A   1      40.488  28.812  29.683  1.00  0.00     0.037 A 
ATOM     45  C   UNL A   1      40.907  31.809  35.472  1.00  0.00     0.049 A 
ATOM     46  C   UNL A   1      41.404  28.652  30.867  1.00  0.00     0.074 A 
ATOM     47  C   UNL A   1      41.773  31.530  36.514  1.00  0.00     0.029 A 
ATOM     48  N   UNL A   1      41.214  30.926  34.447  1.00  0.00    -0.354 N 
ATOM     49  N   UNL A   1      41.400  29.296  32.009  1.00  0.00    -0.248 NA
ATOM     50  C   UNL A   1      42.456  27.632  30.756  1.00  0.00     0.031 C 
ATOM     51  C   UNL A   1      42.631  30.503  36.105  1.00  0.00     0.029 A 
ATOM     52  C   UNL A   1      42.269  30.111  34.826  1.00  0.00     0.049 A 
ATOM     53  H   UNL A   1      40.752  30.885  33.580  1.00  0.00     0.167 HD
ATOM     54  C   UNL A   1      42.427  28.745  32.761  1.00  0.00     0.074 A 
ATOM     55  C   UNL A   1      43.025  27.702  31.952  1.00  0.00     0.031 C 
ATOM     56  C   UNL A   1      42.842  29.073  34.009  1.00  0.00     0.037 A 
BRANCH  43  57
ATOM     57  C   UNL A   1      39.698  33.731  36.577  1.00  0.00     0.064 A 
ATOM     58  C   UNL A   1      40.330  34.983  36.623  1.00  0.00     0.173 A 
ATOM     59  C   UNL A   1      38.870  33.375  37.652  1.00  0.00     0.173 A 
ATOM     60  F   UNL A   1      41.144  35.364  35.625  1.00  0.00    -0.203 F 
ATOM     61  C   UNL A   1      40.164  35.831  37.714  1.00  0.00     0.198 A 
ATOM     62  C   UNL A   1      38.682  34.239  38.728  1.00  0.00     0.198 A 
ATOM     63  F   UNL A   1      38.239  32.191  37.657  1.00  0.00    -0.203 F 
ATOM     64  F   UNL A   1      40.820  36.999  37.757  1.00  0.00    -0.200 F 
ATOM     65  C   UNL A   1      39.335  35.461  38.762  1.00  0.00     0.200 A 
ATOM     66  F   UNL A   1      37.872  33.886  39.735  1.00  0.00    -0.200 F 
ATOM     67  F   UNL A   1      39.172  36.282  39.809  1.00  0.00    -0.200 F 
ENDBRANCH  43  57
BRANCH  44  68
ATOM     68  C   UNL A   1      40.657  27.973  28.469  1.00  0.00     0.064 A 
ATOM     69  C   UNL A   1      41.434  28.417  27.391  1.00  0.00     0.173 A 
ATOM     70  C   UNL A   1      40.047  26.714  28.361  1.00  0.00     0.173 A 
ATOM     71  F   UNL A   1      42.021  29.622  27.440  1.00  0.00    -0.203 F 
ATOM     72  C   UNL A   1      41.579  27.644  26.240  1.00  0.00     0.198 A 
ATOM     73  C   UNL A   1      40.214  25.931  27.219  1.00  0.00     0.198 A 
ATOM     74  F   UNL A   1      39.299  26.241  29.367  1.00  0.00    -0.203 F 
ATOM     75  F   UNL A   1      42.290  28.112  25.207  1.00  0.00    -0.200 F 
ATOM     76  C   UNL A   1      40.973  26.400  26.158  1.00  0.00     0.200 A 
ATOM     77  F   UNL A   1      39.638  24.723  27.150  1.00  0.00    -0.200 F 
ATOM     78  F   UNL A   1      41.113  25.656  25.052  1.00  0.00    -0.200 F 
ENDBRANCH  44  68
BRANCH  56  79
ATOM     79  C   UNL A   1      43.972  28.275  34.590  1.00  0.00     0.064 A 
ATOM     80  C   UNL A   1      45.302  28.705  34.491  1.00  0.00     0.173 A 
ATOM     81  C   UNL A   1      43.713  27.088  35.292  1.00  0.00     0.173 A 
ATOM     82  F   UNL A   1      45.601  29.827  33.817  1.00  0.00    -0.203 F 
ATOM     83  C   UNL A   1      46.337  27.963  35.054  1.00  0.00     0.198 A 
ATOM     84  C   UNL A   1      44.747  26.362  35.878  1.00  0.00     0.198 A 
ATOM     85  F   UNL A   1      42.456  26.637  35.419  1.00  0.00    -0.203 F 
ATOM     86  F   UNL A   1      47.605  28.369  34.911  1.00  0.00    -0.200 F 
ATOM     87  C   UNL A   1      46.057  26.798  35.753  1.00  0.00     0.200 A 
ATOM     88  F   UNL A   1      44.474  25.244  36.562  1.00  0.00    -0.200 F 
ATOM     89  F   UNL A   1      47.054  26.088  36.301  1.00  0.00    -0.200 F 
ENDBRANCH  56  79
ENDBRANCH  30  31
ENDBRANCH  22  25
ENDBRANCH  20  21
ENDBRANCH  19  20
ENDBRANCH  18  19
ENDBRANCH   1  18
TORSDOF 16
ENDMDL
MODEL 2
REMARK VINA RESULT:     -10.7      0.214      2.033
REMARK SMILES CC[N@@H+](C/C(Cl)=C/Cl)C[C@@H](C)C(=O)NCCCCNC(=O)c1ccc(-c2c3nc(c(-c4c(F)c(F)c(F)c(F)c4F)c4ccc([nH]4)c(-c4c(F)c(F)c(F)c(F)c4F)c4nc(c(-c5c(F)c(F)c(F)c(F)c5F)c5ccc2[nH]5)C=C4)C=C3)cc1
REMARK SMILES IDX 15 1 14 2 12 3 13 4 10 6 11 7 9 8 3 9 2 11 1 12 4 13 5 14
REMARK SMILES IDX 6 15 7 16 8 17 16 18 17 19 18 20 19 21 20 22 21 24 22 25
REMARK SMILES IDX 23 26 84 27 24 28 83 29 25 30 26 31 27 32 77 33 28 34 82 35
REMARK SMILES IDX 76 36 78 37 29 38 81 39 75 40 74 41 30 43 62 44 42 45 61 46
REMARK SMILES IDX 43 47 46 48 60 49 79 50 44 51 45 52 59 54 80 55 47 56 31 57
REMARK SMILES IDX 32 58 40 59 33 60 34 61 38 62 41 63 35 64 36 65 39 66 37 67
REMARK SMILES IDX 63 68 64 69 72 70 65 71 66 72 70 73 73 74 67 75 68 76 71 77
REMARK SMILES IDX 69 78 48 79 49 80 57 81 50 82 51 83 55 84 58 85 52 86 53 87
REMARK SMILES IDX 56 88 54 89
REMARK H PARENT 14 5 3 10 19 23 78 42 46 53
REMARK Flexibility Score: inf
ROOT
ATOM      1  C   UNL A   1      33.080  30.157  26.224  1.00  0.00     0.116 C 
ENDROOT
BRANCH   1   2
ATOM      2  N   UNL A   1      33.521  29.525  24.998  1.00  0.00    -0.356 N 
ATOM      3  C   UNL A   1      33.559  28.213  24.642  1.00  0.00     0.228 C 
ATOM      4  O   UNL A   1      34.049  27.943  23.543  1.00  0.00    -0.275 OA
ATOM      5  H   UNL A   1      33.847  30.148  24.309  1.00  0.00     0.163 HD
BRANCH   3   6
ATOM      6  C   UNL A   1      33.007  27.109  25.542  1.00  0.00     0.130 C 
ATOM      7  C   UNL A   1      33.962  25.917  25.570  1.00  0.00     0.024 C 
BRANCH   6   8
ATOM      8  C   UNL A   1      31.518  26.845  25.229  1.00  0.00     0.275 C 
BRANCH   8   9
ATOM      9  N   UNL A   1      31.042  26.733  23.847  1.00  0.00    -0.330 N 
ATOM     10  H   UNL A   1      31.613  27.480  23.454  1.00  0.00     0.348 HD
BRANCH   9  11
ATOM     11  C   UNL A   1      31.521  25.640  23.011  1.00  0.00     0.259 C 
ATOM     12  C   UNL A   1      31.185  24.252  23.549  1.00  0.00     0.071 C 
ENDBRANCH   9  11
BRANCH   9  13
ATOM     13  C   UNL A   1      29.667  27.175  23.594  1.00  0.00     0.312 C 
BRANCH  13  14
ATOM     14  C   UNL A   1      29.451  28.530  22.964  1.00  0.00     0.083 C 
ATOM     15  Cl  UNL A   1      30.901  29.309  22.406  1.00  0.00    -0.082 Cl
ATOM     16  C   UNL A   1      28.245  29.083  22.789  1.00  0.00     0.102 C 
ATOM     17  Cl  UNL A   1      27.930  30.620  22.099  1.00  0.00    -0.091 Cl
ENDBRANCH  13  14
ENDBRANCH   9  13
ENDBRANCH   8   9
ENDBRANCH   6   8
ENDBRANCH   3   6
ENDBRANCH   1   2
BRANCH   1  18
ATOM     18  C   UNL A   1      31.655  30.689  26.100  1.00  0.00     0.023 C 
BRANCH  18  19
ATOM     19  C   UNL A   1      31.398  31.980  26.875  1.00  0.00     0.023 C 
BRANCH  19  20
ATOM     20  C   UNL A   1      32.650  32.768  27.242  1.00  0.00     0.116 C 
BRANCH  20  21
ATOM     21  N   UNL A   1      32.380  34.159  27.572  1.00  0.00    -0.352 N 
ATOM     22  C   UNL A   1      33.002  34.947  28.511  1.00  0.00     0.251 C 
ATOM     23  H   UNL A   1      31.660  34.591  27.057  1.00  0.00     0.163 HD
ATOM     24  O   UNL A   1      32.600  36.076  28.752  1.00  0.00    -0.269 OA
BRANCH  22  25
ATOM     25  C   UNL A   1      34.145  34.386  29.255  1.00  0.00     0.039 A 
ATOM     26  C   UNL A   1      33.895  33.582  30.369  1.00  0.00     0.014 A 
ATOM     27  C   UNL A   1      35.452  34.600  28.808  1.00  0.00     0.014 A 
ATOM     28  C   UNL A   1      34.957  32.931  30.995  1.00  0.00     0.010 A 
ATOM     29  C   UNL A   1      36.498  33.895  29.388  1.00  0.00     0.010 A 
ATOM     30  C   UNL A   1      36.261  33.052  30.486  1.00  0.00    -0.014 A 
BRANCH  30  31
ATOM     31  C   UNL A   1      37.393  32.305  31.086  1.00  0.00     0.031 A 
ATOM     32  C   UNL A   1      37.887  32.669  32.456  1.00  0.00     0.074 A 
ATOM     33  C   UNL A   1      38.020  31.354  30.367  1.00  0.00     0.049 A 
ATOM     34  N   UNL A   1      38.907  32.193  33.123  1.00  0.00    -0.248 NA
ATOM     35  C   UNL A   1      37.152  33.732  33.161  1.00  0.00     0.031 C 
ATOM     36  C   UNL A   1      37.668  30.953  29.003  1.00  0.00     0.029 A 
ATOM     37  N   UNL A   1      39.095  30.562  30.680  1.00  0.00    -0.354 N 
ATOM     38  C   UNL A   1      38.946  32.907  34.312  1.00  0.00     0.074 A 
ATOM     39  C   UNL A   1      37.882  33.887  34.254  1.00  0.00     0.031 C 
ATOM     40  C   UNL A   1      38.499  29.977  28.605  1.00  0.00     0.029 A 
ATOM     41  C   UNL A   1      39.461  29.706  29.669  1.00  0.00     0.049 A 
ATOM     42  H   UNL A   1      39.560  30.601  31.546  1.00  0.00     0.167 HD
ATOM     43  C   UNL A   1      39.777  32.743  35.368  1.00  0.00     0.037 A 
ATOM     44  C   UNL A   1      40.464  28.810  29.607  1.00  0.00     0.037 A 
ATOM     45  C   UNL A   1      40.815  31.749  35.431  1.00  0.00     0.049 A 
ATOM     46  C   UNL A   1      41.368  28.640  30.799  1.00  0.00     0.074 A 
ATOM     47  C   UNL A   1      41.671  31.461  36.479  1.00  0.00     0.029 A 
ATOM     48  N   UNL A   1      41.135  30.877  34.400  1.00  0.00    -0.354 N 
ATOM     49  N   UNL A   1      41.350  29.272  31.947  1.00  0.00    -0.248 NA
ATOM     50  C   UNL A   1      42.424  27.625  30.689  1.00  0.00     0.031 C 
ATOM     51  C   UNL A   1      42.536  30.440  36.068  1.00  0.00     0.029 A 
ATOM     52  C   UNL A   1      42.188  30.061  34.781  1.00  0.00     0.049 A 
ATOM     53  H   UNL A   1      40.682  30.844  33.528  1.00  0.00     0.167 HD
ATOM     54  C   UNL A   1      42.372  28.717  32.704  1.00  0.00     0.074 A 
ATOM     55  C   UNL A   1      42.981  27.684  31.890  1.00  0.00     0.031 C 
ATOM     56  C   UNL A   1      42.773  29.033  33.960  1.00  0.00     0.037 A 
BRANCH  43  57
ATOM     57  C   UNL A   1      39.589  33.656  36.543  1.00  0.00     0.064 A 
ATOM     58  C   UNL A   1      38.789  33.289  37.636  1.00  0.00     0.173 A 
ATOM     59  C   UNL A   1      40.236  34.899  36.592  1.00  0.00     0.173 A 
ATOM     60  F   UNL A   1      38.137  32.116  37.632  1.00  0.00    -0.203 F 
ATOM     61  C   UNL A   1      38.619  34.146  38.720  1.00  0.00     0.198 A 
ATOM     62  C   UNL A   1      40.088  35.741  37.691  1.00  0.00     0.198 A 
ATOM     63  F   UNL A   1      41.016  35.297  35.575  1.00  0.00    -0.203 F 
ATOM     64  F   UNL A   1      37.808  33.795  39.728  1.00  0.00    -0.200 F 
ATOM     65  C   UNL A   1      39.273  35.368  38.750  1.00  0.00     0.200 A 
ATOM     66  F   UNL A   1      40.730  36.917  37.725  1.00  0.00    -0.200 F 
ATOM     67  F   UNL A   1      39.113  36.189  39.797  1.00  0.00    -0.200 F 
ENDBRANCH  43  57
BRANCH  44  68
ATOM     68  C   UNL A   1      40.648  27.984  28.387  1.00  0.00     0.064 A 
ATOM     69  C   UNL A   1      40.044  26.725  28.274  1.00  0.00     0.173 A 
ATOM     70  C   UNL A   1      41.431  28.433  27.313  1.00  0.00     0.173 A 
ATOM     71  F   UNL A   1      39.302  26.245  29.283  1.00  0.00    -0.203 F 
ATOM     72  C   UNL A   1      40.231  25.935  27.141  1.00  0.00     0.198 A 
ATOM     73  C   UNL A   1      41.597  27.652  26.169  1.00  0.00     0.198 A 
ATOM     74  F   UNL A   1      42.026  29.632  27.370  1.00  0.00    -0.203 F 
ATOM     75  F   UNL A   1      39.678  24.718  27.077  1.00  0.00    -0.200 F 
ATOM     76  C   UNL A   1      41.003  26.402  26.088  1.00  0.00     0.200 A 
ATOM     77  F   UNL A   1      42.332  28.113  25.148  1.00  0.00    -0.200 F 
ATOM     78  F   UNL A   1      41.181  25.644  24.997  1.00  0.00    -0.200 F 
ENDBRANCH  44  68
BRANCH  56  79
ATOM     79  C   UNL A   1      43.899  28.232  34.544  1.00  0.00     0.064 A 
ATOM     80  C   UNL A   1      43.672  27.011  35.193  1.00  0.00     0.173 A 
ATOM     81  C   UNL A   1      45.224  28.673  34.414  1.00  0.00     0.173 A 
ATOM     82  F   UNL A   1      42.420  26.554  35.356  1.00  0.00    -0.203 F 
ATOM     83  C   UNL A   1      44.731  26.269  35.712  1.00  0.00     0.198 A 
ATOM     84  C   UNL A   1      46.283  27.917  34.909  1.00  0.00     0.198 A 
ATOM     85  F   UNL A   1      45.494  29.833  33.796  1.00  0.00    -0.203 F 
ATOM     86  F   UNL A   1      44.488  25.126  36.366  1.00  0.00    -0.200 F 
ATOM     87  C   UNL A   1      46.034  26.719  35.562  1.00  0.00     0.200 A 
ATOM     88  F   UNL A   1      47.542  28.346  34.753  1.00  0.00    -0.200 F 
ATOM     89  F   UNL A   1      47.052  26.001  36.055  1.00  0.00    -0.200 F 
ENDBRANCH  56  79
ENDBRANCH  30  31
ENDBRANCH  22  25
ENDBRANCH  20  21
ENDBRANCH  19  20
ENDBRANCH  18  19
ENDBRANCH   1  18
TORSDOF 16
ENDMDL
MODEL 3
REMARK VINA RESULT:     -10.5      0.812      7.571
REMARK SMILES CC[N@@H+](C/C(Cl)=C/Cl)C[C@@H](C)C(=O)NCCCCNC(=O)c1ccc(-c2c3nc(c(-c4c(F)c(F)c(F)c(F)c4F)c4ccc([nH]4)c(-c4c(F)c(F)c(F)c(F)c4F)c4nc(c(-c5c(F)c(F)c(F)c(F)c5F)c5ccc2[nH]5)C=C4)C=C3)cc1
REMARK SMILES IDX 15 1 14 2 12 3 13 4 10 6 11 7 9 8 3 9 2 11 1 12 4 13 5 14
REMARK SMILES IDX 6 15 7 16 8 17 16 18 17 19 18 20 19 21 20 22 21 24 22 25
REMARK SMILES IDX 23 26 84 27 24 28 83 29 25 30 26 31 27 32 77 33 28 34 82 35
REMARK SMILES IDX 76 36 78 37 29 38 81 39 75 40 74 41 30 43 62 44 42 45 61 46
REMARK SMILES IDX 43 47 46 48 60 49 79 50 44 51 45 52 59 54 80 55 47 56 31 57
REMARK SMILES IDX 32 58 40 59 33 60 34 61 38 62 41 63 35 64 36 65 39 66 37 67
REMARK SMILES IDX 63 68 64 69 72 70 65 71 66 72 70 73 73 74 67 75 68 76 71 77
REMARK SMILES IDX 69 78 48 79 49 80 57 81 50 82 51 83 55 84 58 85 52 86 53 87
REMARK SMILES IDX 56 88 54 89
REMARK H PARENT 14 5 3 10 19 23 78 42 46 53
REMARK Flexibility Score: inf
ROOT
ATOM      1  C   UNL A   1      33.267  30.056  26.734  1.00  0.00     0.116 C 
ENDROOT
BRANCH   1   2
ATOM      2  N   UNL A   1      33.912  29.515  25.557  1.00  0.00    -0.356 N 
ATOM      3  C   UNL A   1      33.818  28.287  24.979  1.00  0.00     0.228 C 
ATOM      4  O   UNL A   1      34.538  28.068  24.002  1.00  0.00    -0.275 OA
ATOM      5  H   UNL A   1      34.520  30.139  25.098  1.00  0.00     0.163 HD
BRANCH   3   6
ATOM      6  C   UNL A   1      32.853  27.219  25.492  1.00  0.00     0.130 C 
ATOM      7  C   UNL A   1      33.596  25.910  25.749  1.00  0.00     0.024 C 
BRANCH   6   8
ATOM      8  C   UNL A   1      31.577  27.176  24.622  1.00  0.00     0.275 C 
BRANCH   8   9
ATOM      9  N   UNL A   1      31.579  27.683  23.248  1.00  0.00    -0.330 N 
ATOM     10  H   UNL A   1      32.590  27.748  23.136  1.00  0.00     0.348 HD
BRANCH   9  11
ATOM     11  C   UNL A   1      31.303  26.770  22.147  1.00  0.00     0.259 C 
ATOM     12  C   UNL A   1      31.461  25.295  22.507  1.00  0.00     0.071 C 
ENDBRANCH   9  11
BRANCH   9  13
ATOM     13  C   UNL A   1      31.120  29.063  23.063  1.00  0.00     0.312 C 
BRANCH  13  14
ATOM     14  C   UNL A   1      29.737  29.295  22.506  1.00  0.00     0.083 C 
ATOM     15  Cl  UNL A   1      28.516  28.226  23.131  1.00  0.00    -0.082 Cl
ATOM     16  C   UNL A   1      29.437  30.272  21.642  1.00  0.00     0.102 C 
ATOM     17  Cl  UNL A   1      27.896  30.579  20.959  1.00  0.00    -0.091 Cl
ENDBRANCH  13  14
ENDBRANCH   9  13
ENDBRANCH   8   9
ENDBRANCH   6   8
ENDBRANCH   3   6
ENDBRANCH   1   2
BRANCH   1  18
ATOM     18  C   UNL A   1      31.889  30.625  26.407  1.00  0.00     0.023 C 
BRANCH  18  19
ATOM     19  C   UNL A   1      31.565  31.934  27.126  1.00  0.00     0.023 C 
BRANCH  19  20
ATOM     20  C   UNL A   1      32.771  32.817  27.425  1.00  0.00     0.116 C 
BRANCH  20  21
ATOM     21  N   UNL A   1      32.419  34.204  27.687  1.00  0.00    -0.352 N 
ATOM     22  C   UNL A   1      32.984  35.069  28.594  1.00  0.00     0.251 C 
ATOM     23  H   UNL A   1      31.682  34.570  27.146  1.00  0.00     0.163 HD
ATOM     24  O   UNL A   1      32.516  36.183  28.779  1.00  0.00    -0.269 OA
BRANCH  22  25
ATOM     25  C   UNL A   1      34.148  34.608  29.375  1.00  0.00     0.039 A 
ATOM     26  C   UNL A   1      33.943  34.112  30.663  1.00  0.00     0.014 A 
ATOM     27  C   UNL A   1      35.424  34.605  28.803  1.00  0.00     0.014 A 
ATOM     28  C   UNL A   1      35.011  33.543  31.356  1.00  0.00     0.010 A 
ATOM     29  C   UNL A   1      36.469  33.974  29.465  1.00  0.00     0.010 A 
ATOM     30  C   UNL A   1      36.272  33.436  30.747  1.00  0.00    -0.014 A 
BRANCH  30  31
ATOM     31  C   UNL A   1      37.401  32.762  31.433  1.00  0.00     0.031 A 
ATOM     32  C   UNL A   1      38.081  31.592  30.782  1.00  0.00     0.074 A 
ATOM     33  C   UNL A   1      37.761  33.155  32.669  1.00  0.00     0.049 A 
ATOM     34  N   UNL A   1      39.030  30.821  31.247  1.00  0.00    -0.248 NA
ATOM     35  C   UNL A   1      37.610  31.221  29.437  1.00  0.00     0.031 C 
ATOM     36  C   UNL A   1      37.137  34.241  33.428  1.00  0.00     0.029 A 
ATOM     37  N   UNL A   1      38.732  32.677  33.512  1.00  0.00    -0.354 N 
ATOM     38  C   UNL A   1      39.257  29.868  30.263  1.00  0.00     0.074 A 
ATOM     39  C   UNL A   1      38.309  30.122  29.199  1.00  0.00     0.031 C 
ATOM     40  C   UNL A   1      37.753  34.358  34.615  1.00  0.00     0.029 A 
ATOM     41  C   UNL A   1      38.791  33.337  34.715  1.00  0.00     0.049 A 
ATOM     42  H   UNL A   1      39.330  31.931  33.277  1.00  0.00     0.167 HD
ATOM     43  C   UNL A   1      40.188  28.886  30.239  1.00  0.00     0.037 A 
ATOM     44  C   UNL A   1      39.590  33.135  35.780  1.00  0.00     0.037 A 
ATOM     45  C   UNL A   1      41.146  28.656  31.288  1.00  0.00     0.049 A 
ATOM     46  C   UNL A   1      40.625  32.043  35.723  1.00  0.00     0.074 A 
ATOM     47  C   UNL A   1      42.170  27.726  31.332  1.00  0.00     0.029 A 
ATOM     48  N   UNL A   1      41.198  29.367  32.478  1.00  0.00    -0.354 N 
ATOM     49  N   UNL A   1      40.877  31.194  34.758  1.00  0.00    -0.248 NA
ATOM     50  C   UNL A   1      41.491  31.891  36.901  1.00  0.00     0.031 C 
ATOM     51  C   UNL A   1      42.817  27.849  32.567  1.00  0.00     0.029 A 
ATOM     52  C   UNL A   1      42.226  28.885  33.272  1.00  0.00     0.049 A 
ATOM     53  H   UNL A   1      40.593  30.103  32.722  1.00  0.00     0.167 HD
ATOM     54  C   UNL A   1      41.945  30.423  35.198  1.00  0.00     0.074 A 
ATOM     55  C   UNL A   1      42.303  30.917  36.513  1.00  0.00     0.031 C 
ATOM     56  C   UNL A   1      42.572  29.397  34.572  1.00  0.00     0.037 A 
BRANCH  43  57
ATOM     57  C   UNL A   1      40.220  27.994  29.034  1.00  0.00     0.064 A 
ATOM     58  C   UNL A   1      40.958  28.332  27.889  1.00  0.00     0.173 A 
ATOM     59  C   UNL A   1      39.526  26.775  29.030  1.00  0.00     0.173 A 
ATOM     60  F   UNL A   1      41.628  29.494  27.837  1.00  0.00    -0.203 F 
ATOM     61  C   UNL A   1      40.977  27.497  26.775  1.00  0.00     0.198 A 
ATOM     62  C   UNL A   1      39.572  25.928  27.925  1.00  0.00     0.198 A 
ATOM     63  F   UNL A   1      38.808  26.401  30.100  1.00  0.00    -0.203 F 
ATOM     64  F   UNL A   1      41.648  27.867  25.675  1.00  0.00    -0.200 F 
ATOM     65  C   UNL A   1      40.289  26.293  26.797  1.00  0.00     0.200 A 
ATOM     66  F   UNL A   1      38.917  24.759  27.951  1.00  0.00    -0.200 F 
ATOM     67  F   UNL A   1      40.313  25.488  25.725  1.00  0.00    -0.200 F 
ENDBRANCH  43  57
BRANCH  44  68
ATOM     68  C   UNL A   1      39.464  34.005  36.978  1.00  0.00     0.064 A 
ATOM     69  C   UNL A   1      38.726  33.588  38.094  1.00  0.00     0.173 A 
ATOM     70  C   UNL A   1      40.075  35.266  37.032  1.00  0.00     0.173 A 
ATOM     71  F   UNL A   1      38.107  32.398  38.081  1.00  0.00    -0.203 F 
ATOM     72  C   UNL A   1      38.585  34.408  39.212  1.00  0.00     0.198 A 
ATOM     73  C   UNL A   1      39.955  36.074  38.162  1.00  0.00     0.198 A 
ATOM     74  F   UNL A   1      40.797  35.708  35.993  1.00  0.00    -0.203 F 
ATOM     75  F   UNL A   1      37.838  34.003  40.247  1.00  0.00    -0.200 F 
ATOM     76  C   UNL A   1      39.204  35.648  39.247  1.00  0.00     0.200 A 
ATOM     77  F   UNL A   1      40.566  37.266  38.197  1.00  0.00    -0.200 F 
ATOM     78  F   UNL A   1      39.071  36.435  40.323  1.00  0.00    -0.200 F 
ENDBRANCH  44  68
BRANCH  56  79
ATOM     79  C   UNL A   1      43.730  28.763  35.284  1.00  0.00     0.064 A 
ATOM     80  C   UNL A   1      45.047  29.199  35.078  1.00  0.00     0.173 A 
ATOM     81  C   UNL A   1      43.514  27.737  36.215  1.00  0.00     0.173 A 
ATOM     82  F   UNL A   1      45.306  30.168  34.186  1.00  0.00    -0.203 F 
ATOM     83  C   UNL A   1      46.109  28.614  35.762  1.00  0.00     0.198 A 
ATOM     84  C   UNL A   1      44.575  27.172  36.919  1.00  0.00     0.198 A 
ATOM     85  F   UNL A   1      42.272  27.288  36.453  1.00  0.00    -0.203 F 
ATOM     86  F   UNL A   1      47.363  29.016  35.518  1.00  0.00    -0.200 F 
ATOM     87  C   UNL A   1      45.871  27.608  36.687  1.00  0.00     0.200 A 
ATOM     88  F   UNL A   1      44.342  26.209  37.820  1.00  0.00    -0.200 F 
ATOM     89  F   UNL A   1      46.893  27.050  37.350  1.00  0.00    -0.200 F 
ENDBRANCH  56  79
ENDBRANCH  30  31
ENDBRANCH  22  25
ENDBRANCH  20  21
ENDBRANCH  19  20
ENDBRANCH  18  19
ENDBRANCH   1  18
TORSDOF 16
ENDMDL
