MODEL 1
REMARK VINA RESULT:     -12.8      0.000      0.000
REMARK SMILES COCc1c(C(=O)NCCCCNC(=O)c2ccc(-c3c4nc(c(-c5c(F)c(F)c(F)c(F)c5F)c5ccc([nH]5)c(-c5c(F)c(F)c(F)c(F)c5F)c5nc(c(-c6c(F)c(F)c(F)c(F)c6F)c6ccc3[nH]6)C=C5)C=C4)cc2)nnn1-c1ccc(S(C)(=O)=O)cc1
REMARK SMILES IDX 10 1 9 2 8 3 6 4 7 5 5 7 4 8 81 9 79 10 80 11 3 12 2 13 1 14
REMARK SMILES IDX 82 15 83 16 91 17 84 18 90 19 85 20 86 21 87 22 88 23 89 24
REMARK SMILES IDX 11 25 12 26 13 27 14 28 15 30 16 31 17 32 78 33 18 34 77 35
REMARK SMILES IDX 19 36 20 37 21 38 71 39 22 40 76 41 70 42 72 43 23 44 75 45
REMARK SMILES IDX 69 46 68 47 24 49 56 50 36 51 55 52 37 53 40 54 54 55 73 56
REMARK SMILES IDX 38 57 39 58 53 60 74 61 41 62 25 63 26 64 34 65 27 66 28 67
REMARK SMILES IDX 32 68 35 69 29 70 30 71 33 72 31 73 57 74 58 75 66 76 59 77
REMARK SMILES IDX 60 78 64 79 67 80 61 81 62 82 65 83 63 84 42 85 43 86 51 87
REMARK SMILES IDX 44 88 45 89 49 90 52 91 46 92 47 93 50 94 48 95
REMARK H PARENT 8 6 13 29 72 48 40 59
REMARK Flexibility Score: inf
ROOT
ATOM      1  C   UNL A   1      37.188  22.429  24.989  1.00  0.00     0.023 C 
ENDROOT
BRANCH   1   2
ATOM      2  C   UNL A   1      36.122  22.760  26.043  1.00  0.00     0.116 C 
BRANCH   2   3
ATOM      3  N   UNL A   1      35.082  21.752  26.106  1.00  0.00    -0.351 N 
ATOM      4  C   UNL A   1      33.708  21.766  26.126  1.00  0.00     0.273 C 
ATOM      5  O   UNL A   1      33.206  20.636  26.107  1.00  0.00    -0.267 OA
ATOM      6  H   UNL A   1      35.449  20.839  26.142  1.00  0.00     0.163 HD
BRANCH   4   7
ATOM      7  C   UNL A   1      32.837  22.952  26.124  1.00  0.00     0.176 A 
ATOM      8  C   UNL A   1      32.642  24.048  25.290  1.00  0.00     0.103 A 
ATOM      9  N   UNL A   1      31.654  24.785  25.926  1.00  0.00    -0.214 N 
ATOM     10  N   UNL A   1      32.081  23.180  27.272  1.00  0.00    -0.124 NA
ATOM     11  N   UNL A   1      31.431  24.326  27.161  1.00  0.00    -0.061 NA
BRANCH   8  12
ATOM     12  C   UNL A   1      33.268  24.604  24.071  1.00  0.00     0.218 C 
BRANCH  12  13
ATOM     13  O   UNL A   1      32.582  24.176  22.908  1.00  0.00    -0.378 OA
ATOM     14  C   UNL A   1      33.320  23.371  22.000  1.00  0.00     0.195 C 
ENDBRANCH  12  13
ENDBRANCH   8  12
BRANCH   9  15
ATOM     15  C   UNL A   1      30.969  25.903  25.414  1.00  0.00     0.067 A 
ATOM     16  C   UNL A   1      31.511  27.183  25.573  1.00  0.00     0.030 A 
ATOM     17  C   UNL A   1      29.865  25.677  24.582  1.00  0.00     0.030 A 
ATOM     18  C   UNL A   1      30.975  28.241  24.832  1.00  0.00     0.022 A 
ATOM     19  C   UNL A   1      29.308  26.740  23.877  1.00  0.00     0.022 A 
ATOM     20  C   UNL A   1      29.881  28.013  23.986  1.00  0.00     0.067 A 
BRANCH  20  21
ATOM     21  S   UNL A   1      29.284  29.326  22.943  1.00  0.00     0.175 S 
ATOM     22  C   UNL A   1      27.536  29.059  22.843  1.00  0.00     0.163 C 
ATOM     23  O   UNL A   1      29.522  30.562  23.662  1.00  0.00    -0.224 OA
ATOM     24  O   UNL A   1      29.836  29.114  21.619  1.00  0.00    -0.224 OA
ENDBRANCH  20  21
ENDBRANCH   9  15
ENDBRANCH   4   7
ENDBRANCH   2   3
ENDBRANCH   1   2
BRANCH   1  25
ATOM     25  C   UNL A   1      38.347  21.512  25.389  1.00  0.00     0.023 C 
BRANCH  25  26
ATOM     26  C   UNL A   1      39.275  22.027  26.482  1.00  0.00     0.116 C 
BRANCH  26  27
ATOM     27  N   UNL A   1      40.694  22.036  26.116  1.00  0.00    -0.352 N 
ATOM     28  C   UNL A   1      41.579  23.108  26.168  1.00  0.00     0.251 C 
ATOM     29  H   UNL A   1      41.064  21.183  25.794  1.00  0.00     0.163 HD
ATOM     30  O   UNL A   1      42.621  23.126  25.552  1.00  0.00    -0.269 OA
BRANCH  28  31
ATOM     31  C   UNL A   1      41.186  24.236  27.031  1.00  0.00     0.039 A 
ATOM     32  C   UNL A   1      41.870  24.516  28.214  1.00  0.00     0.014 A 
ATOM     33  C   UNL A   1      40.285  25.138  26.481  1.00  0.00     0.014 A 
ATOM     34  C   UNL A   1      41.745  25.790  28.771  1.00  0.00     0.010 A 
ATOM     35  C   UNL A   1      40.303  26.434  26.939  1.00  0.00     0.010 A 
ATOM     36  C   UNL A   1      41.003  26.777  28.099  1.00  0.00    -0.014 A 
BRANCH  36  37
ATOM     37  C   UNL A   1      41.039  28.179  28.541  1.00  0.00     0.031 A 
ATOM     38  C   UNL A   1      42.132  29.045  28.003  1.00  0.00     0.074 A 
ATOM     39  C   UNL A   1      40.048  28.776  29.244  1.00  0.00     0.049 A 
ATOM     40  N   UNL A   1      43.085  29.611  28.671  1.00  0.00    -0.248 NA
ATOM     41  C   UNL A   1      42.193  29.302  26.556  1.00  0.00     0.031 C 
ATOM     42  C   UNL A   1      38.747  28.214  29.629  1.00  0.00     0.029 A 
ATOM     43  N   UNL A   1      39.961  30.066  29.690  1.00  0.00    -0.354 N 
ATOM     44  C   UNL A   1      43.762  30.437  27.773  1.00  0.00     0.074 A 
ATOM     45  C   UNL A   1      43.250  30.115  26.465  1.00  0.00     0.031 C 
ATOM     46  C   UNL A   1      37.915  29.205  30.005  1.00  0.00     0.029 A 
ATOM     47  C   UNL A   1      38.697  30.418  30.127  1.00  0.00     0.049 A 
ATOM     48  H   UNL A   1      40.726  30.686  29.701  1.00  0.00     0.167 HD
ATOM     49  C   UNL A   1      44.518  31.483  28.214  1.00  0.00     0.037 A 
ATOM     50  C   UNL A   1      38.283  31.593  30.642  1.00  0.00     0.037 A 
ATOM     51  C   UNL A   1      44.718  31.427  29.637  1.00  0.00     0.049 A 
ATOM     52  C   UNL A   1      39.442  32.264  31.259  1.00  0.00     0.074 A 
ATOM     53  C   UNL A   1      45.578  30.820  30.522  1.00  0.00     0.029 A 
ATOM     54  N   UNL A   1      43.667  31.916  30.360  1.00  0.00    -0.354 N 
ATOM     55  N   UNL A   1      40.101  31.770  32.273  1.00  0.00    -0.248 NA
ATOM     56  C   UNL A   1      40.089  33.378  30.575  1.00  0.00     0.031 C 
ATOM     57  C   UNL A   1      44.921  30.825  31.792  1.00  0.00     0.029 A 
ATOM     58  C   UNL A   1      43.685  31.444  31.645  1.00  0.00     0.049 A 
ATOM     59  H   UNL A   1      42.984  32.528  30.003  1.00  0.00     0.167 HD
ATOM     60  C   UNL A   1      41.391  32.217  32.086  1.00  0.00     0.074 A 
ATOM     61  C   UNL A   1      41.291  33.333  31.158  1.00  0.00     0.031 C 
ATOM     62  C   UNL A   1      42.461  31.436  32.410  1.00  0.00     0.037 A 
BRANCH  49  63
ATOM     63  C   UNL A   1      44.724  32.797  27.492  1.00  0.00     0.064 A 
ATOM     64  C   UNL A   1      45.947  33.039  26.828  1.00  0.00     0.173 A 
ATOM     65  C   UNL A   1      43.922  33.934  27.718  1.00  0.00     0.173 A 
ATOM     66  F   UNL A   1      46.801  32.033  26.580  1.00  0.00    -0.203 F 
ATOM     67  C   UNL A   1      46.360  34.329  26.479  1.00  0.00     0.198 A 
ATOM     68  C   UNL A   1      44.314  35.214  27.322  1.00  0.00     0.198 A 
ATOM     69  F   UNL A   1      42.790  33.866  28.430  1.00  0.00    -0.203 F 
ATOM     70  F   UNL A   1      47.579  34.523  25.956  1.00  0.00    -0.200 F 
ATOM     71  C   UNL A   1      45.545  35.416  26.730  1.00  0.00     0.200 A 
ATOM     72  F   UNL A   1      43.522  36.260  27.595  1.00  0.00    -0.200 F 
ATOM     73  F   UNL A   1      45.960  36.660  26.449  1.00  0.00    -0.200 F 
ENDBRANCH  49  63
BRANCH  50  74
ATOM     74  C   UNL A   1      36.947  32.196  30.502  1.00  0.00     0.064 A 
ATOM     75  C   UNL A   1      35.983  32.099  31.510  1.00  0.00     0.173 A 
ATOM     76  C   UNL A   1      36.684  33.095  29.448  1.00  0.00     0.173 A 
ATOM     77  F   UNL A   1      36.180  31.282  32.555  1.00  0.00    -0.203 F 
ATOM     78  C   UNL A   1      34.825  32.882  31.483  1.00  0.00     0.198 A 
ATOM     79  C   UNL A   1      35.530  33.874  29.422  1.00  0.00     0.198 A 
ATOM     80  F   UNL A   1      37.587  33.289  28.475  1.00  0.00    -0.203 F 
ATOM     81  F   UNL A   1      33.945  32.805  32.490  1.00  0.00    -0.200 F 
ATOM     82  C   UNL A   1      34.608  33.778  30.446  1.00  0.00     0.200 A 
ATOM     83  F   UNL A   1      35.346  34.758  28.430  1.00  0.00    -0.200 F 
ATOM     84  F   UNL A   1      33.530  34.574  30.456  1.00  0.00    -0.200 F 
ENDBRANCH  50  74
BRANCH  62  85
ATOM     85  C   UNL A   1      42.267  30.385  33.452  1.00  0.00     0.064 A 
ATOM     86  C   UNL A   1      41.966  29.044  33.174  1.00  0.00     0.173 A 
ATOM     87  C   UNL A   1      42.452  30.743  34.794  1.00  0.00     0.173 A 
ATOM     88  F   UNL A   1      41.848  28.613  31.914  1.00  0.00    -0.203 F 
ATOM     89  C   UNL A   1      41.813  28.112  34.200  1.00  0.00     0.198 A 
ATOM     90  C   UNL A   1      42.330  29.805  35.815  1.00  0.00     0.198 A 
ATOM     91  F   UNL A   1      42.785  32.004  35.112  1.00  0.00    -0.203 F 
ATOM     92  F   UNL A   1      41.505  26.838  33.910  1.00  0.00    -0.200 F 
ATOM     93  C   UNL A   1      41.999  28.492  35.518  1.00  0.00     0.200 A 
ATOM     94  F   UNL A   1      42.548  30.171  37.085  1.00  0.00    -0.200 F 
ATOM     95  F   UNL A   1      41.876  27.592  36.503  1.00  0.00    -0.200 F 
ENDBRANCH  62  85
ENDBRANCH  36  37
ENDBRANCH  28  31
ENDBRANCH  26  27
ENDBRANCH  25  26
ENDBRANCH   1  25
TORSDOF 15
ENDMDL
MODEL 2
REMARK VINA RESULT:     -12.7      1.096      2.093
REMARK SMILES COCc1c(C(=O)NCCCCNC(=O)c2ccc(-c3c4nc(c(-c5c(F)c(F)c(F)c(F)c5F)c5ccc([nH]5)c(-c5c(F)c(F)c(F)c(F)c5F)c5nc(c(-c6c(F)c(F)c(F)c(F)c6F)c6ccc3[nH]6)C=C5)C=C4)cc2)nnn1-c1ccc(S(C)(=O)=O)cc1
REMARK SMILES IDX 10 1 9 2 8 3 6 4 7 5 5 7 4 8 81 9 79 10 80 11 3 12 2 13 1 14
REMARK SMILES IDX 82 15 83 16 91 17 84 18 90 19 85 20 86 21 87 22 88 23 89 24
REMARK SMILES IDX 11 25 12 26 13 27 14 28 15 30 16 31 17 32 78 33 18 34 77 35
REMARK SMILES IDX 19 36 20 37 21 38 71 39 22 40 76 41 70 42 72 43 23 44 75 45
REMARK SMILES IDX 69 46 68 47 24 49 56 50 36 51 55 52 37 53 40 54 54 55 73 56
REMARK SMILES IDX 38 57 39 58 53 60 74 61 41 62 25 63 26 64 34 65 27 66 28 67
REMARK SMILES IDX 32 68 35 69 29 70 30 71 33 72 31 73 57 74 58 75 66 76 59 77
REMARK SMILES IDX 60 78 64 79 67 80 61 81 62 82 65 83 63 84 42 85 43 86 51 87
REMARK SMILES IDX 44 88 45 89 49 90 52 91 46 92 47 93 50 94 48 95
REMARK H PARENT 8 6 13 29 72 48 40 59
REMARK Flexibility Score: inf
ROOT
ATOM      1  C   UNL A   1      37.362  23.324  25.339  1.00  0.00     0.023 C 
ENDROOT
BRANCH   1   2
ATOM      2  C   UNL A   1      36.117  23.173  24.453  1.00  0.00     0.116 C 
BRANCH   2   3
ATOM      3  N   UNL A   1      35.070  22.412  25.105  1.00  0.00    -0.351 N 
ATOM      4  C   UNL A   1      33.702  22.506  25.189  1.00  0.00     0.273 C 
ATOM      5  O   UNL A   1      33.182  21.570  25.808  1.00  0.00    -0.267 OA
ATOM      6  H   UNL A   1      35.425  21.642  25.607  1.00  0.00     0.163 HD
BRANCH   4   7
ATOM      7  C   UNL A   1      32.851  23.551  24.597  1.00  0.00     0.176 A 
ATOM      8  C   UNL A   1      31.989  24.531  25.079  1.00  0.00     0.103 A 
ATOM      9  N   UNL A   1      31.512  25.153  23.935  1.00  0.00    -0.214 N 
ATOM     10  N   UNL A   1      32.715  23.541  23.210  1.00  0.00    -0.124 NA
ATOM     11  N   UNL A   1      31.847  24.468  22.839  1.00  0.00    -0.061 NA
BRANCH   8  12
ATOM     12  C   UNL A   1      31.436  24.934  26.390  1.00  0.00     0.218 C 
BRANCH  12  13
ATOM     13  O   UNL A   1      31.193  23.804  27.208  1.00  0.00    -0.378 OA
ATOM     14  C   UNL A   1      30.032  23.043  26.904  1.00  0.00     0.195 C 
ENDBRANCH  12  13
ENDBRANCH   8  12
BRANCH   9  15
ATOM     15  C   UNL A   1      30.737  26.327  23.870  1.00  0.00     0.067 A 
ATOM     16  C   UNL A   1      31.363  27.563  23.680  1.00  0.00     0.030 A 
ATOM     17  C   UNL A   1      29.345  26.195  23.795  1.00  0.00     0.030 A 
ATOM     18  C   UNL A   1      30.580  28.673  23.344  1.00  0.00     0.022 A 
ATOM     19  C   UNL A   1      28.565  27.310  23.501  1.00  0.00     0.022 A 
ATOM     20  C   UNL A   1      29.188  28.538  23.251  1.00  0.00     0.067 A 
BRANCH  20  21
ATOM     21  S   UNL A   1      28.204  29.913  22.694  1.00  0.00     0.175 S 
ATOM     22  C   UNL A   1      29.000  31.340  23.375  1.00  0.00     0.163 C 
ATOM     23  O   UNL A   1      28.336  29.954  21.251  1.00  0.00    -0.224 OA
ATOM     24  O   UNL A   1      26.901  29.798  23.321  1.00  0.00    -0.224 OA
ENDBRANCH  20  21
ENDBRANCH   9  15
ENDBRANCH   4   7
ENDBRANCH   2   3
ENDBRANCH   1   2
BRANCH   1  25
ATOM     25  C   UNL A   1      38.276  22.109  25.524  1.00  0.00     0.023 C 
BRANCH  25  26
ATOM     26  C   UNL A   1      39.321  22.208  26.627  1.00  0.00     0.116 C 
BRANCH  26  27
ATOM     27  N   UNL A   1      40.705  22.257  26.147  1.00  0.00    -0.352 N 
ATOM     28  C   UNL A   1      41.558  23.355  26.122  1.00  0.00     0.251 C 
ATOM     29  H   UNL A   1      41.073  21.413  25.800  1.00  0.00     0.163 HD
ATOM     30  O   UNL A   1      42.546  23.400  25.422  1.00  0.00    -0.269 OA
BRANCH  28  31
ATOM     31  C   UNL A   1      41.202  24.477  27.008  1.00  0.00     0.039 A 
ATOM     32  C   UNL A   1      41.848  24.668  28.230  1.00  0.00     0.014 A 
ATOM     33  C   UNL A   1      40.392  25.457  26.453  1.00  0.00     0.014 A 
ATOM     34  C   UNL A   1      41.783  25.927  28.828  1.00  0.00     0.010 A 
ATOM     35  C   UNL A   1      40.476  26.733  26.960  1.00  0.00     0.010 A 
ATOM     36  C   UNL A   1      41.143  26.986  28.162  1.00  0.00    -0.014 A 
BRANCH  36  37
ATOM     37  C   UNL A   1      41.252  28.366  28.658  1.00  0.00     0.031 A 
ATOM     38  C   UNL A   1      42.438  29.164  28.221  1.00  0.00     0.074 A 
ATOM     39  C   UNL A   1      40.265  29.012  29.321  1.00  0.00     0.049 A 
ATOM     40  N   UNL A   1      43.386  29.635  28.966  1.00  0.00    -0.248 NA
ATOM     41  C   UNL A   1      42.609  29.464  26.791  1.00  0.00     0.031 C 
ATOM     42  C   UNL A   1      38.904  28.538  29.605  1.00  0.00     0.029 A 
ATOM     43  N   UNL A   1      40.245  30.290  29.810  1.00  0.00    -0.354 N 
ATOM     44  C   UNL A   1      44.176  30.437  28.143  1.00  0.00     0.074 A 
ATOM     45  C   UNL A   1      43.727  30.198  26.795  1.00  0.00     0.031 C 
ATOM     46  C   UNL A   1      38.126  29.575  29.967  1.00  0.00     0.029 A 
ATOM     47  C   UNL A   1      38.985  30.721  30.182  1.00  0.00     0.049 A 
ATOM     48  H   UNL A   1      41.051  30.850  29.890  1.00  0.00     0.167 HD
ATOM     49  C   UNL A   1      44.977  31.408  28.668  1.00  0.00     0.037 A 
ATOM     50  C   UNL A   1      38.626  31.907  30.714  1.00  0.00     0.037 A 
ATOM     51  C   UNL A   1      45.082  31.290  30.098  1.00  0.00     0.049 A 
ATOM     52  C   UNL A   1      39.789  32.468  31.425  1.00  0.00     0.074 A 
ATOM     53  C   UNL A   1      45.837  30.591  31.010  1.00  0.00     0.029 A 
ATOM     54  N   UNL A   1      44.025  31.832  30.773  1.00  0.00    -0.354 N 
ATOM     55  N   UNL A   1      40.344  31.893  32.459  1.00  0.00    -0.248 NA
ATOM     56  C   UNL A   1      40.558  33.552  30.825  1.00  0.00     0.031 C 
ATOM     57  C   UNL A   1      45.103  30.603  32.236  1.00  0.00     0.029 A 
ATOM     58  C   UNL A   1      43.928  31.319  32.038  1.00  0.00     0.049 A 
ATOM     59  H   UNL A   1      43.413  32.506  30.398  1.00  0.00     0.167 HD
ATOM     60  C   UNL A   1      41.673  32.246  32.367  1.00  0.00     0.074 A 
ATOM     61  C   UNL A   1      41.713  33.397  31.478  1.00  0.00     0.031 C 
ATOM     62  C   UNL A   1      42.660  31.377  32.726  1.00  0.00     0.037 A 
BRANCH  49  63
ATOM     63  C   UNL A   1      45.325  32.726  28.010  1.00  0.00     0.064 A 
ATOM     64  C   UNL A   1      44.297  33.656  27.738  1.00  0.00     0.173 A 
ATOM     65  C   UNL A   1      46.543  32.955  27.341  1.00  0.00     0.173 A 
ATOM     66  F   UNL A   1      43.087  33.523  28.303  1.00  0.00    -0.203 F 
ATOM     67  C   UNL A   1      44.462  34.696  26.816  1.00  0.00     0.198 A 
ATOM     68  C   UNL A   1      46.721  34.023  26.459  1.00  0.00     0.198 A 
ATOM     69  F   UNL A   1      47.564  32.093  27.423  1.00  0.00    -0.203 F 
ATOM     70  F   UNL A   1      43.423  35.483  26.503  1.00  0.00    -0.200 F 
ATOM     71  C   UNL A   1      45.672  34.875  26.174  1.00  0.00     0.200 A 
ATOM     72  F   UNL A   1      47.893  34.169  25.827  1.00  0.00    -0.200 F 
ATOM     73  F   UNL A   1      45.817  35.833  25.248  1.00  0.00    -0.200 F 
ENDBRANCH  49  63
BRANCH  50  74
ATOM     74  C   UNL A   1      37.349  32.613  30.515  1.00  0.00     0.064 A 
ATOM     75  C   UNL A   1      37.043  33.262  29.315  1.00  0.00     0.173 A 
ATOM     76  C   UNL A   1      36.299  32.452  31.442  1.00  0.00     0.173 A 
ATOM     77  F   UNL A   1      37.988  33.427  28.378  1.00  0.00    -0.203 F 
ATOM     78  C   UNL A   1      35.745  33.702  29.040  1.00  0.00     0.198 A 
ATOM     79  C   UNL A   1      35.007  32.891  31.168  1.00  0.00     0.198 A 
ATOM     80  F   UNL A   1      36.499  31.787  32.591  1.00  0.00    -0.203 F 
ATOM     81  F   UNL A   1      35.471  34.272  27.860  1.00  0.00    -0.200 F 
ATOM     82  C   UNL A   1      34.727  33.504  29.961  1.00  0.00     0.200 A 
ATOM     83  F   UNL A   1      34.025  32.667  32.053  1.00  0.00    -0.200 F 
ATOM     84  F   UNL A   1      33.470  33.868  29.669  1.00  0.00    -0.200 F 
ENDBRANCH  50  74
BRANCH  62  85
ATOM     85  C   UNL A   1      42.324  30.310  33.714  1.00  0.00     0.064 A 
ATOM     86  C   UNL A   1      41.852  29.035  33.370  1.00  0.00     0.173 A 
ATOM     87  C   UNL A   1      42.545  30.574  35.072  1.00  0.00     0.173 A 
ATOM     88  F   UNL A   1      41.688  28.686  32.089  1.00  0.00    -0.203 F 
ATOM     89  C   UNL A   1      41.573  28.081  34.347  1.00  0.00     0.198 A 
ATOM     90  C   UNL A   1      42.295  29.610  36.045  1.00  0.00     0.198 A 
ATOM     91  F   UNL A   1      43.038  31.763  35.454  1.00  0.00    -0.203 F 
ATOM     92  F   UNL A   1      41.103  26.875  33.994  1.00  0.00    -0.200 F 
ATOM     93  C   UNL A   1      41.797  28.368  35.683  1.00  0.00     0.200 A 
ATOM     94  F   UNL A   1      42.550  29.881  37.332  1.00  0.00    -0.200 F 
ATOM     95  F   UNL A   1      41.552  27.444  36.622  1.00  0.00    -0.200 F 
ENDBRANCH  62  85
ENDBRANCH  36  37
ENDBRANCH  28  31
ENDBRANCH  26  27
ENDBRANCH  25  26
ENDBRANCH   1  25
TORSDOF 15
ENDMDL
MODEL 3
REMARK VINA RESULT:     -12.7      6.002     10.301
REMARK SMILES COCc1c(C(=O)NCCCCNC(=O)c2ccc(-c3c4nc(c(-c5c(F)c(F)c(F)c(F)c5F)c5ccc([nH]5)c(-c5c(F)c(F)c(F)c(F)c5F)c5nc(c(-c6c(F)c(F)c(F)c(F)c6F)c6ccc3[nH]6)C=C5)C=C4)cc2)nnn1-c1ccc(S(C)(=O)=O)cc1
REMARK SMILES IDX 10 1 9 2 8 3 6 4 7 5 5 7 4 8 81 9 79 10 80 11 3 12 2 13 1 14
REMARK SMILES IDX 82 15 83 16 91 17 84 18 90 19 85 20 86 21 87 22 88 23 89 24
REMARK SMILES IDX 11 25 12 26 13 27 14 28 15 30 16 31 17 32 78 33 18 34 77 35
REMARK SMILES IDX 19 36 20 37 21 38 71 39 22 40 76 41 70 42 72 43 23 44 75 45
REMARK SMILES IDX 69 46 68 47 24 49 56 50 36 51 55 52 37 53 40 54 54 55 73 56
REMARK SMILES IDX 38 57 39 58 53 60 74 61 41 62 25 63 26 64 34 65 27 66 28 67
REMARK SMILES IDX 32 68 35 69 29 70 30 71 33 72 31 73 57 74 58 75 66 76 59 77
REMARK SMILES IDX 60 78 64 79 67 80 61 81 62 82 65 83 63 84 42 85 43 86 51 87
REMARK SMILES IDX 44 88 45 89 49 90 52 91 46 92 47 93 50 94 48 95
REMARK H PARENT 8 6 13 29 72 48 40 59
REMARK Flexibility Score: inf
ROOT
ATOM      1  C   UNL A   1      41.514  27.892  33.620  1.00  0.00     0.023 C 
ENDROOT
BRANCH   1   2
ATOM      2  C   UNL A   1      40.426  28.942  33.353  1.00  0.00     0.116 C 
BRANCH   2   3
ATOM      3  N   UNL A   1      40.683  29.703  32.147  1.00  0.00    -0.351 N 
ATOM      4  C   UNL A   1      39.989  30.633  31.412  1.00  0.00     0.273 C 
ATOM      5  O   UNL A   1      40.638  31.095  30.466  1.00  0.00    -0.267 OA
ATOM      6  H   UNL A   1      41.569  29.508  31.764  1.00  0.00     0.163 HD
BRANCH   4   7
ATOM      7  C   UNL A   1      38.627  31.126  31.672  1.00  0.00     0.176 A 
ATOM      8  C   UNL A   1      38.036  32.368  31.882  1.00  0.00     0.103 A 
ATOM      9  N   UNL A   1      36.694  32.075  32.078  1.00  0.00    -0.214 N 
ATOM     10  N   UNL A   1      37.645  30.167  31.912  1.00  0.00    -0.124 NA
ATOM     11  N   UNL A   1      36.506  30.761  32.226  1.00  0.00    -0.061 NA
BRANCH   8  12
ATOM     12  C   UNL A   1      38.488  33.767  32.044  1.00  0.00     0.218 C 
BRANCH  12  13
ATOM     13  O   UNL A   1      39.352  34.146  30.988  1.00  0.00    -0.378 OA
ATOM     14  C   UNL A   1      38.730  34.613  29.800  1.00  0.00     0.195 C 
ENDBRANCH  12  13
ENDBRANCH   8  12
BRANCH   9  15
ATOM     15  C   UNL A   1      35.631  32.993  32.164  1.00  0.00     0.067 A 
ATOM     16  C   UNL A   1      35.304  33.563  33.400  1.00  0.00     0.030 A 
ATOM     17  C   UNL A   1      35.065  33.461  30.972  1.00  0.00     0.030 A 
ATOM     18  C   UNL A   1      34.442  34.665  33.429  1.00  0.00     0.022 A 
ATOM     19  C   UNL A   1      34.176  34.532  31.009  1.00  0.00     0.022 A 
ATOM     20  C   UNL A   1      33.888  35.145  32.234  1.00  0.00     0.067 A 
BRANCH  20  21
ATOM     21  S   UNL A   1      32.901  36.626  32.252  1.00  0.00     0.175 S 
ATOM     22  C   UNL A   1      31.287  36.084  32.738  1.00  0.00     0.163 C 
ATOM     23  O   UNL A   1      33.441  37.467  33.302  1.00  0.00    -0.224 OA
ATOM     24  O   UNL A   1      32.809  37.104  30.886  1.00  0.00    -0.224 OA
ENDBRANCH  20  21
ENDBRANCH   9  15
ENDBRANCH   4   7
ENDBRANCH   2   3
ENDBRANCH   1   2
BRANCH   1  25
ATOM     25  C   UNL A   1      41.838  27.533  35.073  1.00  0.00     0.023 C 
BRANCH  25  26
ATOM     26  C   UNL A   1      41.899  26.048  35.408  1.00  0.00     0.116 C 
BRANCH  26  27
ATOM     27  N   UNL A   1      42.795  25.715  36.519  1.00  0.00    -0.352 N 
ATOM     28  C   UNL A   1      44.003  25.030  36.461  1.00  0.00     0.251 C 
ATOM     29  H   UNL A   1      42.506  26.012  37.412  1.00  0.00     0.163 HD
ATOM     30  O   UNL A   1      44.509  24.513  37.432  1.00  0.00    -0.269 OA
BRANCH  28  31
ATOM     31  C   UNL A   1      44.654  24.966  35.140  1.00  0.00     0.039 A 
ATOM     32  C   UNL A   1      44.584  23.816  34.353  1.00  0.00     0.014 A 
ATOM     33  C   UNL A   1      45.107  26.173  34.627  1.00  0.00     0.014 A 
ATOM     34  C   UNL A   1      44.844  23.929  32.986  1.00  0.00     0.010 A 
ATOM     35  C   UNL A   1      45.193  26.306  33.261  1.00  0.00     0.010 A 
ATOM     36  C   UNL A   1      45.092  25.192  32.422  1.00  0.00    -0.014 A 
BRANCH  36  37
ATOM     37  C   UNL A   1      45.146  25.370  30.964  1.00  0.00     0.031 A 
ATOM     38  C   UNL A   1      46.208  26.268  30.417  1.00  0.00     0.074 A 
ATOM     39  C   UNL A   1      44.427  24.634  30.085  1.00  0.00     0.049 A 
ATOM     40  N   UNL A   1      46.043  27.380  29.777  1.00  0.00    -0.248 NA
ATOM     41  C   UNL A   1      47.621  25.907  30.614  1.00  0.00     0.031 C 
ATOM     42  C   UNL A   1      43.543  23.495  30.368  1.00  0.00     0.029 A 
ATOM     43  N   UNL A   1      44.408  24.695  28.718  1.00  0.00    -0.354 N 
ATOM     44  C   UNL A   1      47.305  27.774  29.333  1.00  0.00     0.074 A 
ATOM     45  C   UNL A   1      48.251  26.900  29.979  1.00  0.00     0.031 C 
ATOM     46  C   UNL A   1      43.289  22.821  29.231  1.00  0.00     0.029 A 
ATOM     47  C   UNL A   1      43.778  23.617  28.124  1.00  0.00     0.049 A 
ATOM     48  H   UNL A   1      44.805  25.436  28.206  1.00  0.00     0.167 HD
ATOM     49  C   UNL A   1      47.444  28.638  28.286  1.00  0.00     0.037 A 
ATOM     50  C   UNL A   1      43.570  23.384  26.812  1.00  0.00     0.037 A 
ATOM     51  C   UNL A   1      46.189  29.243  27.931  1.00  0.00     0.049 A 
ATOM     52  C   UNL A   1      43.541  24.679  26.109  1.00  0.00     0.074 A 
ATOM     53  C   UNL A   1      45.427  30.317  28.328  1.00  0.00     0.029 A 
ATOM     54  N   UNL A   1      45.400  28.454  27.142  1.00  0.00    -0.354 N 
ATOM     55  N   UNL A   1      42.643  25.600  26.340  1.00  0.00    -0.248 NA
ATOM     56  C   UNL A   1      44.692  25.111  25.325  1.00  0.00     0.031 C 
ATOM     57  C   UNL A   1      44.097  30.060  27.875  1.00  0.00     0.029 A 
ATOM     58  C   UNL A   1      44.089  28.841  27.205  1.00  0.00     0.049 A 
ATOM     59  H   UNL A   1      45.732  27.703  26.600  1.00  0.00     0.167 HD
ATOM     60  C   UNL A   1      43.307  26.784  26.105  1.00  0.00     0.074 A 
ATOM     61  C   UNL A   1      44.476  26.429  25.316  1.00  0.00     0.031 C 
ATOM     62  C   UNL A   1      43.057  27.893  26.857  1.00  0.00     0.037 A 
BRANCH  49  63
ATOM     63  C   UNL A   1      48.573  28.639  27.279  1.00  0.00     0.064 A 
ATOM     64  C   UNL A   1      48.757  27.514  26.443  1.00  0.00     0.173 A 
ATOM     65  C   UNL A   1      49.661  29.532  27.342  1.00  0.00     0.173 A 
ATOM     66  F   UNL A   1      47.796  26.586  26.325  1.00  0.00    -0.203 F 
ATOM     67  C   UNL A   1      49.965  27.274  25.778  1.00  0.00     0.198 A 
ATOM     68  C   UNL A   1      50.846  29.315  26.636  1.00  0.00     0.198 A 
ATOM     69  F   UNL A   1      49.663  30.580  28.175  1.00  0.00    -0.203 F 
ATOM     70  F   UNL A   1      50.134  26.135  25.090  1.00  0.00    -0.200 F 
ATOM     71  C   UNL A   1      51.010  28.173  25.878  1.00  0.00     0.200 A 
ATOM     72  F   UNL A   1      51.858  30.185  26.763  1.00  0.00    -0.200 F 
ATOM     73  F   UNL A   1      52.186  27.919  25.289  1.00  0.00    -0.200 F 
ENDBRANCH  49  63
BRANCH  50  74
ATOM     74  C   UNL A   1      43.525  22.071  26.146  1.00  0.00     0.064 A 
ATOM     75  C   UNL A   1      44.678  21.451  25.657  1.00  0.00     0.173 A 
ATOM     76  C   UNL A   1      42.350  21.293  26.196  1.00  0.00     0.173 A 
ATOM     77  F   UNL A   1      45.837  22.125  25.605  1.00  0.00    -0.203 F 
ATOM     78  C   UNL A   1      44.668  20.109  25.264  1.00  0.00     0.198 A 
ATOM     79  C   UNL A   1      42.341  19.957  25.804  1.00  0.00     0.198 A 
ATOM     80  F   UNL A   1      41.218  21.799  26.708  1.00  0.00    -0.203 F 
ATOM     81  F   UNL A   1      45.801  19.527  24.850  1.00  0.00    -0.200 F 
ATOM     82  C   UNL A   1      43.503  19.361  25.351  1.00  0.00     0.200 A 
ATOM     83  F   UNL A   1      41.216  19.237  25.921  1.00  0.00    -0.200 F 
ATOM     84  F   UNL A   1      43.510  18.058  25.036  1.00  0.00    -0.200 F 
ENDBRANCH  50  74
BRANCH  62  85
ATOM     85  C   UNL A   1      41.724  28.001  27.519  1.00  0.00     0.064 A 
ATOM     86  C   UNL A   1      41.430  27.484  28.790  1.00  0.00     0.173 A 
ATOM     87  C   UNL A   1      40.713  28.711  26.860  1.00  0.00     0.173 A 
ATOM     88  F   UNL A   1      42.367  26.860  29.511  1.00  0.00    -0.203 F 
ATOM     89  C   UNL A   1      40.164  27.635  29.355  1.00  0.00     0.198 A 
ATOM     90  C   UNL A   1      39.459  28.887  27.437  1.00  0.00     0.198 A 
ATOM     91  F   UNL A   1      40.955  29.264  25.660  1.00  0.00    -0.203 F 
ATOM     92  F   UNL A   1      39.901  27.114  30.563  1.00  0.00    -0.200 F 
ATOM     93  C   UNL A   1      39.182  28.339  28.680  1.00  0.00     0.200 A 
ATOM     94  F   UNL A   1      38.524  29.601  26.795  1.00  0.00    -0.200 F 
ATOM     95  F   UNL A   1      37.972  28.506  29.231  1.00  0.00    -0.200 F 
ENDBRANCH  62  85
ENDBRANCH  36  37
ENDBRANCH  28  31
ENDBRANCH  26  27
ENDBRANCH  25  26
ENDBRANCH   1  25
TORSDOF 15
ENDMDL
