MODEL 1
REMARK VINA RESULT:     -13.3      0.000      0.000
REMARK SMILES O=C(NCCCCNC(=O)[C@H]1c2[nH]cnc2CC[N@H+]1Cc1ccoc1)c1ccc(-c2c3nc(c(-c4c(F)c(F)c(F)c(F)c4F)c4ccc([nH]4)c(-c4c(F)c(F)c(F)c(F)c4F)c4nc(c(-c5c(F)c(F)c(F)c(F)c5F)c5ccc2[nH]5)C=C4)C=C3)cc1
REMARK SMILES IDX 5 1 4 2 3 3 1 4 2 5 26 7 27 8 88 9 28 10 87 11 29 12 30 13
REMARK SMILES IDX 31 14 81 15 32 16 86 17 80 18 82 19 33 20 85 21 79 22 78 23
REMARK SMILES IDX 34 25 66 26 46 27 65 28 47 29 50 30 64 31 83 32 48 33 49 34
REMARK SMILES IDX 63 36 84 37 51 38 35 39 36 40 44 41 37 42 38 43 42 44 45 45
REMARK SMILES IDX 39 46 40 47 43 48 41 49 67 50 68 51 76 52 69 53 70 54 74 55
REMARK SMILES IDX 77 56 71 57 72 58 75 59 73 60 52 61 53 62 61 63 54 64 55 65
REMARK SMILES IDX 59 66 62 67 56 68 57 69 60 70 58 71 6 72 7 73 8 74 9 75
REMARK SMILES IDX 10 77 11 78 12 79 19 80 13 81 16 82 18 83 14 85 15 87 17 88
REMARK SMILES IDX 20 89 21 90 22 91 25 92 23 93 24 94
REMARK H PARENT 3 6 82 24 50 35 8 76 19 84 13 86
REMARK Flexibility Score: inf
ROOT
ATOM      1  C   UNL A   1      32.078  30.241  26.375  1.00  0.00     0.023 C 
ENDROOT
BRANCH   1   2
ATOM      2  C   UNL A   1      33.335  30.197  27.231  1.00  0.00     0.116 C 
BRANCH   2   3
ATOM      3  N   UNL A   1      33.915  31.505  27.470  1.00  0.00    -0.352 N 
ATOM      4  O   UNL A   1      35.179  33.218  28.018  1.00  0.00    -0.269 OA
ATOM      5  C   UNL A   1      35.113  31.985  27.905  1.00  0.00     0.251 C 
ATOM      6  H   UNL A   1      33.282  32.231  27.264  1.00  0.00     0.163 HD
BRANCH   5   7
ATOM      7  C   UNL A   1      36.312  31.184  28.276  1.00  0.00     0.039 A 
ATOM      8  C   UNL A   1      36.527  29.835  27.985  1.00  0.00     0.014 A 
ATOM      9  C   UNL A   1      37.336  31.896  28.934  1.00  0.00     0.014 A 
ATOM     10  C   UNL A   1      37.723  29.213  28.366  1.00  0.00     0.010 A 
ATOM     11  C   UNL A   1      38.528  31.285  29.308  1.00  0.00     0.010 A 
ATOM     12  C   UNL A   1      38.721  29.935  29.034  1.00  0.00    -0.014 A 
BRANCH  12  13
ATOM     13  C   UNL A   1      40.036  29.317  29.241  1.00  0.00     0.031 A 
ATOM     14  C   UNL A   1      40.385  29.066  30.677  1.00  0.00     0.074 A 
ATOM     15  C   UNL A   1      40.787  28.803  28.243  1.00  0.00     0.049 A 
ATOM     16  N   UNL A   1      41.445  29.426  31.328  1.00  0.00    -0.248 NA
ATOM     17  C   UNL A   1      39.382  28.384  31.515  1.00  0.00     0.031 C 
ATOM     18  C   UNL A   1      40.438  28.686  26.825  1.00  0.00     0.029 A 
ATOM     19  N   UNL A   1      41.998  28.170  28.308  1.00  0.00    -0.354 N 
ATOM     20  C   UNL A   1      41.316  28.892  32.611  1.00  0.00     0.074 A 
ATOM     21  C   UNL A   1      39.980  28.367  32.706  1.00  0.00     0.031 C 
ATOM     22  C   UNL A   1      41.300  27.839  26.217  1.00  0.00     0.029 A 
ATOM     23  C   UNL A   1      42.333  27.453  27.163  1.00  0.00     0.049 A 
ATOM     24  H   UNL A   1      42.584  28.219  29.097  1.00  0.00     0.167 HD
ATOM     25  C   UNL A   1      42.384  28.740  33.442  1.00  0.00     0.037 A 
ATOM     26  C   UNL A   1      43.345  26.558  27.023  1.00  0.00     0.037 A 
ATOM     27  C   UNL A   1      43.475  29.594  33.063  1.00  0.00     0.049 A 
ATOM     28  C   UNL A   1      44.308  26.789  28.127  1.00  0.00     0.074 A 
ATOM     29  C   UNL A   1      43.646  30.961  32.961  1.00  0.00     0.029 A 
ATOM     30  N   UNL A   1      44.530  29.043  32.382  1.00  0.00    -0.354 N 
ATOM     31  N   UNL A   1      45.059  27.848  28.231  1.00  0.00    -0.248 NA
ATOM     32  C   UNL A   1      44.121  26.027  29.351  1.00  0.00     0.031 C 
ATOM     33  C   UNL A   1      44.472  31.142  31.813  1.00  0.00     0.029 A 
ATOM     34  C   UNL A   1      44.802  29.878  31.329  1.00  0.00     0.049 A 
ATOM     35  H   UNL A   1      45.001  28.208  32.605  1.00  0.00     0.167 HD
ATOM     36  C   UNL A   1      45.069  28.132  29.587  1.00  0.00     0.074 A 
ATOM     37  C   UNL A   1      44.550  26.931  30.235  1.00  0.00     0.031 C 
ATOM     38  C   UNL A   1      45.231  29.411  30.034  1.00  0.00     0.037 A 
BRANCH  25  39
ATOM     39  C   UNL A   1      42.562  27.577  34.389  1.00  0.00     0.064 A 
ATOM     40  C   UNL A   1      43.061  26.351  33.905  1.00  0.00     0.173 A 
ATOM     41  C   UNL A   1      41.976  27.530  35.673  1.00  0.00     0.173 A 
ATOM     42  F   UNL A   1      43.614  26.272  32.685  1.00  0.00    -0.203 F 
ATOM     43  C   UNL A   1      42.919  25.159  34.623  1.00  0.00     0.198 A 
ATOM     44  C   UNL A   1      41.882  26.349  36.408  1.00  0.00     0.198 A 
ATOM     45  F   UNL A   1      41.369  28.592  36.216  1.00  0.00    -0.203 F 
ATOM     46  F   UNL A   1      43.297  23.999  34.070  1.00  0.00    -0.200 F 
ATOM     47  C   UNL A   1      42.325  25.160  35.872  1.00  0.00     0.200 A 
ATOM     48  F   UNL A   1      41.283  26.366  37.607  1.00  0.00    -0.200 F 
ATOM     49  F   UNL A   1      42.131  24.011  36.534  1.00  0.00    -0.200 F 
ENDBRANCH  25  39
BRANCH  26  50
ATOM     50  C   UNL A   1      43.389  25.321  26.202  1.00  0.00     0.064 A 
ATOM     51  C   UNL A   1      44.430  25.088  25.286  1.00  0.00     0.173 A 
ATOM     52  C   UNL A   1      42.572  24.216  26.511  1.00  0.00     0.173 A 
ATOM     53  F   UNL A   1      45.287  26.070  24.973  1.00  0.00    -0.203 F 
ATOM     54  C   UNL A   1      44.652  23.821  24.732  1.00  0.00     0.198 A 
ATOM     55  C   UNL A   1      42.791  22.956  25.953  1.00  0.00     0.198 A 
ATOM     56  F   UNL A   1      41.607  24.314  27.436  1.00  0.00    -0.203 F 
ATOM     57  F   UNL A   1      45.693  23.621  23.911  1.00  0.00    -0.200 F 
ATOM     58  C   UNL A   1      43.838  22.754  25.074  1.00  0.00     0.200 A 
ATOM     59  F   UNL A   1      42.020  21.923  26.324  1.00  0.00    -0.200 F 
ATOM     60  F   UNL A   1      44.088  21.527  24.594  1.00  0.00    -0.200 F 
ENDBRANCH  26  50
BRANCH  38  61
ATOM     61  C   UNL A   1      45.653  30.453  29.038  1.00  0.00     0.064 A 
ATOM     62  C   UNL A   1      46.990  30.710  28.684  1.00  0.00     0.173 A 
ATOM     63  C   UNL A   1      44.657  31.122  28.316  1.00  0.00     0.173 A 
ATOM     64  F   UNL A   1      47.998  30.038  29.253  1.00  0.00    -0.203 F 
ATOM     65  C   UNL A   1      47.310  31.629  27.685  1.00  0.00     0.198 A 
ATOM     66  C   UNL A   1      44.977  32.010  27.293  1.00  0.00     0.198 A 
ATOM     67  F   UNL A   1      43.362  30.876  28.571  1.00  0.00    -0.203 F 
ATOM     68  F   UNL A   1      48.593  31.868  27.377  1.00  0.00    -0.200 F 
ATOM     69  C   UNL A   1      46.302  32.272  26.986  1.00  0.00     0.200 A 
ATOM     70  F   UNL A   1      43.999  32.590  26.586  1.00  0.00    -0.200 F 
ATOM     71  F   UNL A   1      46.608  33.125  25.998  1.00  0.00    -0.200 F 
ENDBRANCH  38  61
ENDBRANCH  12  13
ENDBRANCH   5   7
ENDBRANCH   2   3
ENDBRANCH   1   2
BRANCH   1  72
ATOM     72  C   UNL A   1      31.681  28.903  25.736  1.00  0.00     0.023 C 
BRANCH  72  73
ATOM     73  C   UNL A   1      31.944  27.596  26.517  1.00  0.00     0.116 C 
BRANCH  73  74
ATOM     74  N   UNL A   1      30.821  26.684  26.691  1.00  0.00    -0.351 N 
ATOM     75  C   UNL A   1      30.358  25.606  25.974  1.00  0.00     0.284 C 
ATOM     76  H   UNL A   1      30.280  26.881  27.490  1.00  0.00     0.163 HD
ATOM     77  O   UNL A   1      29.678  24.808  26.639  1.00  0.00    -0.268 OA
BRANCH  75  78
ATOM     78  C   UNL A   1      30.674  25.354  24.455  1.00  0.00     0.324 C 
ATOM     79  C   UNL A   1      30.224  26.532  23.606  1.00  0.00     0.106 A 
ATOM     80  N   UNL A   1      32.104  25.080  24.133  1.00  0.00    -0.315 N 
ATOM     81  N   UNL A   1      29.162  27.382  23.785  1.00  0.00    -0.343 N 
ATOM     82  C   UNL A   1      30.904  27.075  22.535  1.00  0.00     0.074 A 
ATOM     83  C   UNL A   1      32.919  26.048  23.384  1.00  0.00     0.270 C 
ATOM     84  H   UNL A   1      31.732  24.485  23.391  1.00  0.00     0.349 HD
ATOM     85  C   UNL A   1      29.249  28.356  22.821  1.00  0.00     0.197 A 
ATOM     86  H   UNL A   1      28.465  27.307  24.477  1.00  0.00     0.167 HD
ATOM     87  N   UNL A   1      30.289  28.184  22.038  1.00  0.00    -0.241 NA
ATOM     88  C   UNL A   1      32.226  26.581  22.120  1.00  0.00     0.120 C 
BRANCH  80  89
ATOM     89  C   UNL A   1      32.879  24.175  24.939  1.00  0.00     0.303 C 
BRANCH  89  90
ATOM     90  C   UNL A   1      32.578  22.721  24.736  1.00  0.00     0.044 A 
ATOM     91  C   UNL A   1      32.969  21.811  23.706  1.00  0.00     0.051 A 
ATOM     92  C   UNL A   1      31.811  21.951  25.593  1.00  0.00     0.204 A 
ATOM     93  C   UNL A   1      32.494  20.571  24.056  1.00  0.00     0.195 A 
ATOM     94  O   UNL A   1      31.779  20.653  25.203  1.00  0.00    -0.472 OA
ENDBRANCH  89  90
ENDBRANCH  80  89
ENDBRANCH  75  78
ENDBRANCH  73  74
ENDBRANCH  72  73
ENDBRANCH   1  72
TORSDOF 13
ENDMDL
MODEL 2
REMARK VINA RESULT:     -13.3      1.121      2.768
REMARK SMILES O=C(NCCCCNC(=O)[C@H]1c2[nH]cnc2CC[N@H+]1Cc1ccoc1)c1ccc(-c2c3nc(c(-c4c(F)c(F)c(F)c(F)c4F)c4ccc([nH]4)c(-c4c(F)c(F)c(F)c(F)c4F)c4nc(c(-c5c(F)c(F)c(F)c(F)c5F)c5ccc2[nH]5)C=C4)C=C3)cc1
REMARK SMILES IDX 5 1 4 2 3 3 1 4 2 5 26 7 27 8 88 9 28 10 87 11 29 12 30 13
REMARK SMILES IDX 31 14 81 15 32 16 86 17 80 18 82 19 33 20 85 21 79 22 78 23
REMARK SMILES IDX 34 25 66 26 46 27 65 28 47 29 50 30 64 31 83 32 48 33 49 34
REMARK SMILES IDX 63 36 84 37 51 38 35 39 36 40 44 41 37 42 38 43 42 44 45 45
REMARK SMILES IDX 39 46 40 47 43 48 41 49 67 50 68 51 76 52 69 53 70 54 74 55
REMARK SMILES IDX 77 56 71 57 72 58 75 59 73 60 52 61 53 62 61 63 54 64 55 65
REMARK SMILES IDX 59 66 62 67 56 68 57 69 60 70 58 71 6 72 7 73 8 74 9 75
REMARK SMILES IDX 10 77 11 78 12 79 19 80 13 81 16 82 18 83 14 85 15 87 17 88
REMARK SMILES IDX 20 89 21 90 22 91 25 92 23 93 24 94
REMARK H PARENT 3 6 82 24 50 35 8 76 19 84 13 86
REMARK Flexibility Score: inf
ROOT
ATOM      1  C   UNL A   1      31.885  29.707  27.178  1.00  0.00     0.023 C 
ENDROOT
BRANCH   1   2
ATOM      2  C   UNL A   1      33.369  29.898  26.905  1.00  0.00     0.116 C 
BRANCH   2   3
ATOM      3  N   UNL A   1      33.860  31.208  27.285  1.00  0.00    -0.352 N 
ATOM      4  O   UNL A   1      34.995  32.931  28.048  1.00  0.00    -0.269 OA
ATOM      5  C   UNL A   1      35.005  31.710  27.826  1.00  0.00     0.251 C 
ATOM      6  H   UNL A   1      33.198  31.915  27.108  1.00  0.00     0.163 HD
BRANCH   5   7
ATOM      7  C   UNL A   1      36.228  30.944  28.193  1.00  0.00     0.039 A 
ATOM      8  C   UNL A   1      36.452  29.585  27.963  1.00  0.00     0.014 A 
ATOM      9  C   UNL A   1      37.265  31.701  28.777  1.00  0.00     0.014 A 
ATOM     10  C   UNL A   1      37.668  28.998  28.332  1.00  0.00     0.010 A 
ATOM     11  C   UNL A   1      38.478  31.125  29.137  1.00  0.00     0.010 A 
ATOM     12  C   UNL A   1      38.679  29.765  28.926  1.00  0.00    -0.014 A 
BRANCH  12  13
ATOM     13  C   UNL A   1      40.009  29.174  29.116  1.00  0.00     0.031 A 
ATOM     14  C   UNL A   1      40.403  28.977  30.548  1.00  0.00     0.074 A 
ATOM     15  C   UNL A   1      40.741  28.639  28.114  1.00  0.00     0.049 A 
ATOM     16  N   UNL A   1      41.474  29.375  31.157  1.00  0.00    -0.248 NA
ATOM     17  C   UNL A   1      39.434  28.308  31.436  1.00  0.00     0.031 C 
ATOM     18  C   UNL A   1      40.355  28.470  26.711  1.00  0.00     0.029 A 
ATOM     19  N   UNL A   1      41.963  28.027  28.165  1.00  0.00    -0.354 N 
ATOM     20  C   UNL A   1      41.389  28.881  32.460  1.00  0.00     0.074 A 
ATOM     21  C   UNL A   1      40.065  28.340  32.610  1.00  0.00     0.031 C 
ATOM     22  C   UNL A   1      41.213  27.616  26.108  1.00  0.00     0.029 A 
ATOM     23  C   UNL A   1      42.278  27.277  27.036  1.00  0.00     0.049 A 
ATOM     24  H   UNL A   1      42.570  28.112  28.936  1.00  0.00     0.167 HD
ATOM     25  C   UNL A   1      42.482  28.774  33.265  1.00  0.00     0.037 A 
ATOM     26  C   UNL A   1      43.301  26.394  26.897  1.00  0.00     0.037 A 
ATOM     27  C   UNL A   1      43.548  29.631  32.828  1.00  0.00     0.049 A 
ATOM     28  C   UNL A   1      44.290  26.676  27.965  1.00  0.00     0.074 A 
ATOM     29  C   UNL A   1      43.694  30.997  32.677  1.00  0.00     0.029 A 
ATOM     30  N   UNL A   1      44.593  29.074  32.136  1.00  0.00    -0.354 N 
ATOM     31  N   UNL A   1      45.026  27.750  28.014  1.00  0.00    -0.248 NA
ATOM     32  C   UNL A   1      44.149  25.953  29.218  1.00  0.00     0.031 C 
ATOM     33  C   UNL A   1      44.484  31.152  31.500  1.00  0.00     0.029 A 
ATOM     34  C   UNL A   1      44.822  29.877  31.049  1.00  0.00     0.049 A 
ATOM     35  H   UNL A   1      45.083  28.254  32.373  1.00  0.00     0.167 HD
ATOM     36  C   UNL A   1      45.069  28.078  29.359  1.00  0.00     0.074 A 
ATOM     37  C   UNL A   1      44.587  26.892  30.059  1.00  0.00     0.031 C 
ATOM     38  C   UNL A   1      45.222  29.374  29.759  1.00  0.00     0.037 A 
BRANCH  25  39
ATOM     39  C   UNL A   1      42.705  27.646  34.245  1.00  0.00     0.064 A 
ATOM     40  C   UNL A   1      43.200  26.409  33.786  1.00  0.00     0.173 A 
ATOM     41  C   UNL A   1      42.164  27.637  35.549  1.00  0.00     0.173 A 
ATOM     42  F   UNL A   1      43.711  26.293  32.550  1.00  0.00    -0.203 F 
ATOM     43  C   UNL A   1      43.095  25.241  34.549  1.00  0.00     0.198 A 
ATOM     44  C   UNL A   1      42.109  26.481  36.327  1.00  0.00     0.198 A 
ATOM     45  F   UNL A   1      41.566  28.712  36.077  1.00  0.00    -0.203 F 
ATOM     46  F   UNL A   1      43.466  24.066  34.022  1.00  0.00    -0.200 F 
ATOM     47  C   UNL A   1      42.545  25.278  35.817  1.00  0.00     0.200 A 
ATOM     48  F   UNL A   1      41.551  26.535  37.545  1.00  0.00    -0.200 F 
ATOM     49  F   UNL A   1      42.386  24.152  36.524  1.00  0.00    -0.200 F 
ENDBRANCH  25  39
BRANCH  26  50
ATOM     50  C   UNL A   1      43.341  25.131  26.116  1.00  0.00     0.064 A 
ATOM     51  C   UNL A   1      44.367  24.879  25.187  1.00  0.00     0.173 A 
ATOM     52  C   UNL A   1      42.543  24.029  26.477  1.00  0.00     0.173 A 
ATOM     53  F   UNL A   1      45.207  25.859  24.825  1.00  0.00    -0.203 F 
ATOM     54  C   UNL A   1      44.592  23.597  24.671  1.00  0.00     0.198 A 
ATOM     55  C   UNL A   1      42.765  22.753  25.956  1.00  0.00     0.198 A 
ATOM     56  F   UNL A   1      41.596  24.147  27.417  1.00  0.00    -0.203 F 
ATOM     57  F   UNL A   1      45.619  23.380  23.836  1.00  0.00    -0.200 F 
ATOM     58  C   UNL A   1      43.797  22.533  25.064  1.00  0.00     0.200 A 
ATOM     59  F   UNL A   1      42.012  21.726  26.376  1.00  0.00    -0.200 F 
ATOM     60  F   UNL A   1      44.050  21.294  24.620  1.00  0.00    -0.200 F 
ENDBRANCH  26  50
BRANCH  38  61
ATOM     61  C   UNL A   1      45.600  30.389  28.718  1.00  0.00     0.064 A 
ATOM     62  C   UNL A   1      44.675  31.059  27.896  1.00  0.00     0.173 A 
ATOM     63  C   UNL A   1      46.937  30.799  28.646  1.00  0.00     0.173 A 
ATOM     64  F   UNL A   1      43.364  30.801  27.976  1.00  0.00    -0.203 F 
ATOM     65  C   UNL A   1      45.083  32.057  27.012  1.00  0.00     0.198 A 
ATOM     66  C   UNL A   1      47.336  31.822  27.791  1.00  0.00     0.198 A 
ATOM     67  F   UNL A   1      47.856  30.235  29.447  1.00  0.00    -0.203 F 
ATOM     68  F   UNL A   1      44.184  32.669  26.228  1.00  0.00    -0.200 F 
ATOM     69  C   UNL A   1      46.412  32.442  26.967  1.00  0.00     0.200 A 
ATOM     70  F   UNL A   1      48.613  32.227  27.788  1.00  0.00    -0.200 F 
ATOM     71  F   UNL A   1      46.798  33.431  26.148  1.00  0.00    -0.200 F 
ENDBRANCH  38  61
ENDBRANCH  12  13
ENDBRANCH   5   7
ENDBRANCH   2   3
ENDBRANCH   1   2
BRANCH   1  72
ATOM     72  C   UNL A   1      31.473  28.278  27.560  1.00  0.00     0.023 C 
BRANCH  72  73
ATOM     73  C   UNL A   1      31.900  27.109  26.645  1.00  0.00     0.116 C 
BRANCH  73  74
ATOM     74  N   UNL A   1      31.281  25.812  26.885  1.00  0.00    -0.351 N 
ATOM     75  C   UNL A   1      31.601  24.527  26.513  1.00  0.00     0.284 C 
ATOM     76  H   UNL A   1      30.462  25.867  27.429  1.00  0.00     0.163 HD
ATOM     77  O   UNL A   1      31.130  23.652  27.256  1.00  0.00    -0.268 OA
BRANCH  75  78
ATOM     78  C   UNL A   1      32.512  24.165  25.284  1.00  0.00     0.324 C 
ATOM     79  C   UNL A   1      33.533  23.104  25.662  1.00  0.00     0.106 A 
ATOM     80  N   UNL A   1      31.790  23.691  24.067  1.00  0.00    -0.315 N 
ATOM     81  N   UNL A   1      34.162  22.886  26.861  1.00  0.00    -0.343 N 
ATOM     82  C   UNL A   1      33.929  22.037  24.883  1.00  0.00     0.074 A 
ATOM     83  C   UNL A   1      31.889  22.295  23.615  1.00  0.00     0.270 C 
ATOM     84  H   UNL A   1      32.546  24.143  23.550  1.00  0.00     0.349 HD
ATOM     85  C   UNL A   1      34.901  21.736  26.734  1.00  0.00     0.197 A 
ATOM     86  H   UNL A   1      34.097  23.452  27.665  1.00  0.00     0.167 HD
ATOM     87  N   UNL A   1      34.791  21.208  25.536  1.00  0.00    -0.241 NA
ATOM     88  C   UNL A   1      33.332  21.770  23.565  1.00  0.00     0.120 C 
BRANCH  80  89
ATOM     89  C   UNL A   1      30.608  24.366  23.603  1.00  0.00     0.303 C 
BRANCH  89  90
ATOM     90  C   UNL A   1      30.806  25.794  23.197  1.00  0.00     0.044 A 
ATOM     91  C   UNL A   1      30.045  26.970  23.480  1.00  0.00     0.051 A 
ATOM     92  C   UNL A   1      31.854  26.251  22.416  1.00  0.00     0.204 A 
ATOM     93  C   UNL A   1      30.723  28.034  22.938  1.00  0.00     0.195 A 
ATOM     94  O   UNL A   1      31.823  27.599  22.280  1.00  0.00    -0.472 OA
ENDBRANCH  89  90
ENDBRANCH  80  89
ENDBRANCH  75  78
ENDBRANCH  73  74
ENDBRANCH  72  73
ENDBRANCH   1  72
TORSDOF 13
ENDMDL
MODEL 3
REMARK VINA RESULT:     -13.2      1.511      3.200
REMARK SMILES O=C(NCCCCNC(=O)[C@H]1c2[nH]cnc2CC[N@H+]1Cc1ccoc1)c1ccc(-c2c3nc(c(-c4c(F)c(F)c(F)c(F)c4F)c4ccc([nH]4)c(-c4c(F)c(F)c(F)c(F)c4F)c4nc(c(-c5c(F)c(F)c(F)c(F)c5F)c5ccc2[nH]5)C=C4)C=C3)cc1
REMARK SMILES IDX 5 1 4 2 3 3 1 4 2 5 26 7 27 8 88 9 28 10 87 11 29 12 30 13
REMARK SMILES IDX 31 14 81 15 32 16 86 17 80 18 82 19 33 20 85 21 79 22 78 23
REMARK SMILES IDX 34 25 66 26 46 27 65 28 47 29 50 30 64 31 83 32 48 33 49 34
REMARK SMILES IDX 63 36 84 37 51 38 35 39 36 40 44 41 37 42 38 43 42 44 45 45
REMARK SMILES IDX 39 46 40 47 43 48 41 49 67 50 68 51 76 52 69 53 70 54 74 55
REMARK SMILES IDX 77 56 71 57 72 58 75 59 73 60 52 61 53 62 61 63 54 64 55 65
REMARK SMILES IDX 59 66 62 67 56 68 57 69 60 70 58 71 6 72 7 73 8 74 9 75
REMARK SMILES IDX 10 77 11 78 12 79 19 80 13 81 16 82 18 83 14 85 15 87 17 88
REMARK SMILES IDX 20 89 21 90 22 91 25 92 23 93 24 94
REMARK H PARENT 3 6 82 24 50 35 8 76 19 84 13 86
REMARK Flexibility Score: inf
ROOT
ATOM      1  C   UNL A   1      33.245  29.400  26.096  1.00  0.00     0.023 C 
ENDROOT
BRANCH   1   2
ATOM      2  C   UNL A   1      33.195  30.082  27.455  1.00  0.00     0.116 C 
BRANCH   2   3
ATOM      3  N   UNL A   1      33.820  31.391  27.464  1.00  0.00    -0.352 N 
ATOM      4  O   UNL A   1      35.160  33.122  27.672  1.00  0.00    -0.269 OA
ATOM      5  C   UNL A   1      35.059  31.887  27.738  1.00  0.00     0.251 C 
ATOM      6  H   UNL A   1      33.189  32.102  27.207  1.00  0.00     0.163 HD
BRANCH   5   7
ATOM      7  C   UNL A   1      36.265  31.107  28.128  1.00  0.00     0.039 A 
ATOM      8  C   UNL A   1      36.476  29.745  27.904  1.00  0.00     0.014 A 
ATOM      9  C   UNL A   1      37.301  31.852  28.727  1.00  0.00     0.014 A 
ATOM     10  C   UNL A   1      37.679  29.143  28.294  1.00  0.00     0.010 A 
ATOM     11  C   UNL A   1      38.501  31.262  29.109  1.00  0.00     0.010 A 
ATOM     12  C   UNL A   1      38.689  29.899  28.904  1.00  0.00    -0.014 A 
BRANCH  12  13
ATOM     13  C   UNL A   1      40.008  29.293  29.118  1.00  0.00     0.031 A 
ATOM     14  C   UNL A   1      40.365  29.073  30.556  1.00  0.00     0.074 A 
ATOM     15  C   UNL A   1      40.759  28.763  28.127  1.00  0.00     0.049 A 
ATOM     16  N   UNL A   1      41.425  29.452  31.196  1.00  0.00    -0.248 NA
ATOM     17  C   UNL A   1      39.369  28.402  31.412  1.00  0.00     0.031 C 
ATOM     18  C   UNL A   1      40.404  28.616  26.713  1.00  0.00     0.029 A 
ATOM     19  N   UNL A   1      41.973  28.138  28.199  1.00  0.00    -0.354 N 
ATOM     20  C   UNL A   1      41.305  28.942  32.489  1.00  0.00     0.074 A 
ATOM     21  C   UNL A   1      39.972  28.413  32.601  1.00  0.00     0.031 C 
ATOM     22  C   UNL A   1      41.268  27.762  26.119  1.00  0.00     0.029 A 
ATOM     23  C   UNL A   1      42.307  27.400  27.068  1.00  0.00     0.049 A 
ATOM     24  H   UNL A   1      42.562  28.207  28.985  1.00  0.00     0.167 HD
ATOM     25  C   UNL A   1      42.377  28.814  33.319  1.00  0.00     0.037 A 
ATOM     26  C   UNL A   1      43.324  26.508  26.942  1.00  0.00     0.037 A 
ATOM     27  C   UNL A   1      43.462  29.666  32.919  1.00  0.00     0.049 A 
ATOM     28  C   UNL A   1      44.290  26.766  28.036  1.00  0.00     0.074 A 
ATOM     29  C   UNL A   1      43.625  31.032  32.789  1.00  0.00     0.029 A 
ATOM     30  N   UNL A   1      44.517  29.107  32.244  1.00  0.00    -0.354 N 
ATOM     31  N   UNL A   1      45.035  27.831  28.116  1.00  0.00    -0.248 NA
ATOM     32  C   UNL A   1      44.112  26.028  29.276  1.00  0.00     0.031 C 
ATOM     33  C   UNL A   1      44.445  31.194  31.634  1.00  0.00     0.029 A 
ATOM     34  C   UNL A   1      44.780  29.921  31.174  1.00  0.00     0.049 A 
ATOM     35  H   UNL A   1      44.993  28.279  32.482  1.00  0.00     0.167 HD
ATOM     36  C   UNL A   1      45.050  28.142  29.466  1.00  0.00     0.074 A 
ATOM     37  C   UNL A   1      44.539  26.952  30.140  1.00  0.00     0.031 C 
ATOM     38  C   UNL A   1      45.206  29.431  29.887  1.00  0.00     0.037 A 
BRANCH  25  39
ATOM     39  C   UNL A   1      42.565  27.671  34.289  1.00  0.00     0.064 A 
ATOM     40  C   UNL A   1      43.081  26.442  33.830  1.00  0.00     0.173 A 
ATOM     41  C   UNL A   1      41.975  27.641  35.571  1.00  0.00     0.173 A 
ATOM     42  F   UNL A   1      43.640  26.347  32.613  1.00  0.00    -0.203 F 
ATOM     43  C   UNL A   1      42.950  25.262  34.570  1.00  0.00     0.198 A 
ATOM     44  C   UNL A   1      41.893  26.472  36.328  1.00  0.00     0.198 A 
ATOM     45  F   UNL A   1      41.354  28.705  36.092  1.00  0.00    -0.203 F 
ATOM     46  F   UNL A   1      43.344  24.097  34.040  1.00  0.00    -0.200 F 
ATOM     47  C   UNL A   1      42.352  25.279  35.816  1.00  0.00     0.200 A 
ATOM     48  F   UNL A   1      41.289  26.505  37.524  1.00  0.00    -0.200 F 
ATOM     49  F   UNL A   1      42.169  24.141  36.499  1.00  0.00    -0.200 F 
ENDBRANCH  25  39
BRANCH  26  50
ATOM     50  C   UNL A   1      43.371  25.255  26.145  1.00  0.00     0.064 A 
ATOM     51  C   UNL A   1      44.415  25.005  25.236  1.00  0.00     0.173 A 
ATOM     52  C   UNL A   1      42.555  24.156  26.474  1.00  0.00     0.173 A 
ATOM     53  F   UNL A   1      45.271  25.982  24.905  1.00  0.00    -0.203 F 
ATOM     54  C   UNL A   1      44.640  23.728  24.707  1.00  0.00     0.198 A 
ATOM     55  C   UNL A   1      42.777  22.885  25.942  1.00  0.00     0.198 A 
ATOM     56  F   UNL A   1      41.589  24.270  27.395  1.00  0.00    -0.203 F 
ATOM     57  F   UNL A   1      45.683  23.513  23.893  1.00  0.00    -0.200 F 
ATOM     58  C   UNL A   1      43.827  22.667  25.069  1.00  0.00     0.200 A 
ATOM     59  F   UNL A   1      42.007  21.859  26.331  1.00  0.00    -0.200 F 
ATOM     60  F   UNL A   1      44.079  21.431  24.614  1.00  0.00    -0.200 F 
ENDBRANCH  26  50
BRANCH  38  61
ATOM     61  C   UNL A   1      45.619  30.456  28.868  1.00  0.00     0.064 A 
ATOM     62  C   UNL A   1      44.721  31.140  28.029  1.00  0.00     0.173 A 
ATOM     63  C   UNL A   1      46.960  30.859  28.839  1.00  0.00     0.173 A 
ATOM     64  F   UNL A   1      43.407  30.889  28.069  1.00  0.00    -0.203 F 
ATOM     65  C   UNL A   1      45.159  32.146  27.168  1.00  0.00     0.198 A 
ATOM     66  C   UNL A   1      47.388  31.889  28.008  1.00  0.00     0.198 A 
ATOM     67  F   UNL A   1      47.853  30.280  29.659  1.00  0.00    -0.203 F 
ATOM     68  F   UNL A   1      44.285  32.772  26.366  1.00  0.00    -0.200 F 
ATOM     69  C   UNL A   1      46.491  32.524  27.165  1.00  0.00     0.200 A 
ATOM     70  F   UNL A   1      48.667  32.286  28.045  1.00  0.00    -0.200 F 
ATOM     71  F   UNL A   1      46.905  33.519  26.368  1.00  0.00    -0.200 F 
ENDBRANCH  38  61
ENDBRANCH  12  13
ENDBRANCH   5   7
ENDBRANCH   2   3
ENDBRANCH   1   2
BRANCH   1  72
ATOM     72  C   UNL A   1      34.013  28.071  26.065  1.00  0.00     0.023 C 
BRANCH  72  73
ATOM     73  C   UNL A   1      33.572  26.978  25.067  1.00  0.00     0.116 C 
BRANCH  73  74
ATOM     74  N   UNL A   1      34.008  27.121  23.684  1.00  0.00    -0.351 N 
ATOM     75  C   UNL A   1      33.341  27.294  22.494  1.00  0.00     0.284 C 
ATOM     76  H   UNL A   1      34.987  27.088  23.579  1.00  0.00     0.163 HD
ATOM     77  O   UNL A   1      34.022  27.825  21.603  1.00  0.00    -0.268 OA
BRANCH  75  78
ATOM     78  C   UNL A   1      31.837  26.901  22.260  1.00  0.00     0.324 C 
ATOM     79  C   UNL A   1      31.574  25.474  22.711  1.00  0.00     0.106 A 
ATOM     80  N   UNL A   1      30.832  27.782  22.923  1.00  0.00    -0.315 N 
ATOM     81  N   UNL A   1      32.408  24.385  22.692  1.00  0.00    -0.343 N 
ATOM     82  C   UNL A   1      30.455  25.021  23.378  1.00  0.00     0.074 A 
ATOM     83  C   UNL A   1      30.017  27.300  24.048  1.00  0.00     0.270 C 
ATOM     84  H   UNL A   1      30.243  27.568  22.117  1.00  0.00     0.349 HD
ATOM     85  C   UNL A   1      31.751  23.354  23.317  1.00  0.00     0.197 A 
ATOM     86  H   UNL A   1      33.311  24.349  22.300  1.00  0.00     0.167 HD
ATOM     87  N   UNL A   1      30.555  23.708  23.729  1.00  0.00    -0.241 NA
ATOM     88  C   UNL A   1      29.374  25.928  23.792  1.00  0.00     0.120 C 
BRANCH  80  89
ATOM     89  C   UNL A   1      30.965  29.214  22.878  1.00  0.00     0.303 C 
BRANCH  89  90
ATOM     90  C   UNL A   1      29.678  29.971  22.767  1.00  0.00     0.044 A 
ATOM     91  C   UNL A   1      29.015  30.845  23.684  1.00  0.00     0.051 A 
ATOM     92  C   UNL A   1      28.848  29.955  21.659  1.00  0.00     0.204 A 
ATOM     93  C   UNL A   1      27.909  31.346  23.041  1.00  0.00     0.195 A 
ATOM     94  O   UNL A   1      27.799  30.799  21.808  1.00  0.00    -0.472 OA
ENDBRANCH  89  90
ENDBRANCH  80  89
ENDBRANCH  75  78
ENDBRANCH  73  74
ENDBRANCH  72  73
ENDBRANCH   1  72
TORSDOF 13
ENDMDL
