MODEL 1
REMARK VINA RESULT:     -13.2      0.000      0.000
REMARK SMILES O=C(COc1ccc(-c2cc3cc(Br)ccc3oc2=O)cc1)NCCCCNC(=O)c1ccc(-c2c3nc(c(-c4c(F)c(F)c(F)c(F)c4F)c4ccc([nH]4)c(-c4c(F)c(F)c(F)c(F)c4F)c4nc(c(-c5c(F)c(F)c(F)c(F)c5F)c5ccc2[nH]5)C=C4)C=C3)cc1
REMARK SMILES IDX 25 1 24 2 23 3 1 4 2 5 3 7 4 8 5 9 6 10 22 11 7 12 21 13
REMARK SMILES IDX 8 14 9 15 10 16 19 17 11 18 18 19 20 20 12 21 17 22 13 23
REMARK SMILES IDX 16 24 14 25 15 26 26 27 27 28 28 29 29 30 30 32 31 33 32 34
REMARK SMILES IDX 93 35 33 36 92 37 34 38 35 39 36 40 86 41 37 42 91 43 85 44
REMARK SMILES IDX 87 45 38 46 90 47 84 48 83 49 39 51 71 52 51 53 70 54 52 55
REMARK SMILES IDX 55 56 69 57 88 58 53 59 54 60 68 62 89 63 56 64 40 65 41 66
REMARK SMILES IDX 49 67 42 68 43 69 47 70 50 71 44 72 45 73 48 74 46 75 72 76
REMARK SMILES IDX 73 77 81 78 74 79 75 80 79 81 82 82 76 83 77 84 80 85 78 86
REMARK SMILES IDX 57 87 58 88 66 89 59 90 60 91 64 92 67 93 61 94 62 95 65 96
REMARK SMILES IDX 63 97
REMARK H PARENT 23 6 28 31 87 50 55 61
REMARK Flexibility Score: inf
ROOT
ATOM      1  C   UNL A   1      37.083  20.793  24.672  1.00  0.00     0.023 C 
ENDROOT
BRANCH   1   2
ATOM      2  C   UNL A   1      37.018  21.911  25.712  1.00  0.00     0.116 C 
BRANCH   2   3
ATOM      3  N   UNL A   1      35.752  21.983  26.416  1.00  0.00    -0.353 N 
ATOM      4  O   UNL A   1      35.325  24.166  25.855  1.00  0.00    -0.271 OA
ATOM      5  C   UNL A   1      34.953  23.105  26.353  1.00  0.00     0.257 C 
ATOM      6  H   UNL A   1      35.456  21.211  26.950  1.00  0.00     0.163 HD
BRANCH   5   7
ATOM      7  C   UNL A   1      33.537  22.935  26.928  1.00  0.00     0.329 C 
BRANCH   7   8
ATOM      8  O   UNL A   1      32.544  22.324  26.115  1.00  0.00    -0.484 OA
BRANCH   8   9
ATOM      9  C   UNL A   1      32.007  23.071  25.102  1.00  0.00     0.120 A 
ATOM     10  C   UNL A   1      32.536  22.838  23.831  1.00  0.00     0.047 A 
ATOM     11  C   UNL A   1      31.067  24.082  25.259  1.00  0.00     0.047 A 
ATOM     12  C   UNL A   1      32.230  23.691  22.763  1.00  0.00     0.013 A 
ATOM     13  C   UNL A   1      30.747  24.921  24.188  1.00  0.00     0.013 A 
ATOM     14  C   UNL A   1      31.399  24.802  22.954  1.00  0.00    -0.011 A 
BRANCH  14  15
ATOM     15  C   UNL A   1      31.430  25.900  21.931  1.00  0.00     0.068 A 
ATOM     16  C   UNL A   1      31.073  27.191  22.155  1.00  0.00     0.028 A 
ATOM     17  C   UNL A   1      32.770  25.971  21.232  1.00  0.00     0.344 A 
ATOM     18  C   UNL A   1      31.989  27.844  23.117  1.00  0.00     0.019 A 
ATOM     19  O   UNL A   1      33.759  26.588  22.021  1.00  0.00    -0.422 OA
ATOM     20  O   UNL A   1      32.992  25.454  20.146  1.00  0.00    -0.246 OA
ATOM     21  C   UNL A   1      31.547  28.689  24.131  1.00  0.00     0.027 A 
ATOM     22  C   UNL A   1      33.328  27.416  23.086  1.00  0.00     0.138 A 
ATOM     23  C   UNL A   1      32.435  29.013  25.158  1.00  0.00     0.018 A 
ATOM     24  C   UNL A   1      34.210  27.732  24.108  1.00  0.00     0.049 A 
ATOM     25  Br  UNL A   1      31.831  30.075  26.602  1.00  0.00    -0.051 Br
ATOM     26  C   UNL A   1      33.748  28.520  25.165  1.00  0.00     0.019 A 
ENDBRANCH  14  15
ENDBRANCH   8   9
ENDBRANCH   7   8
ENDBRANCH   5   7
ENDBRANCH   2   3
ENDBRANCH   1   2
BRANCH   1  27
ATOM     27  C   UNL A   1      38.068  19.670  24.996  1.00  0.00     0.023 C 
BRANCH  27  28
ATOM     28  C   UNL A   1      39.310  20.090  25.773  1.00  0.00     0.116 C 
BRANCH  28  29
ATOM     29  N   UNL A   1      40.310  19.040  25.869  1.00  0.00    -0.352 N 
ATOM     30  C   UNL A   1      41.665  19.135  26.101  1.00  0.00     0.251 C 
ATOM     31  H   UNL A   1      39.969  18.123  25.749  1.00  0.00     0.163 HD
ATOM     32  O   UNL A   1      42.373  18.141  26.013  1.00  0.00    -0.269 OA
BRANCH  30  33
ATOM     33  C   UNL A   1      42.274  20.446  26.425  1.00  0.00     0.039 A 
ATOM     34  C   UNL A   1      42.841  21.197  25.391  1.00  0.00     0.014 A 
ATOM     35  C   UNL A   1      42.290  20.937  27.732  1.00  0.00     0.014 A 
ATOM     36  C   UNL A   1      43.353  22.471  25.656  1.00  0.00     0.010 A 
ATOM     37  C   UNL A   1      42.727  22.238  27.981  1.00  0.00     0.010 A 
ATOM     38  C   UNL A   1      43.261  23.020  26.945  1.00  0.00    -0.014 A 
BRANCH  38  39
ATOM     39  C   UNL A   1      43.704  24.413  27.225  1.00  0.00     0.031 A 
ATOM     40  C   UNL A   1      42.727  25.433  27.741  1.00  0.00     0.074 A 
ATOM     41  C   UNL A   1      44.972  24.777  26.952  1.00  0.00     0.049 A 
ATOM     42  N   UNL A   1      42.909  26.708  27.982  1.00  0.00    -0.248 NA
ATOM     43  C   UNL A   1      41.355  24.967  27.996  1.00  0.00     0.031 C 
ATOM     44  C   UNL A   1      46.006  23.895  26.409  1.00  0.00     0.029 A 
ATOM     45  N   UNL A   1      45.606  25.988  27.086  1.00  0.00    -0.354 N 
ATOM     46  C   UNL A   1      41.678  27.195  28.402  1.00  0.00     0.074 A 
ATOM     47  C   UNL A   1      40.743  26.093  28.329  1.00  0.00     0.031 C 
ATOM     48  C   UNL A   1      47.150  24.585  26.281  1.00  0.00     0.029 A 
ATOM     49  C   UNL A   1      46.922  25.968  26.688  1.00  0.00     0.049 A 
ATOM     50  H   UNL A   1      45.161  26.794  27.433  1.00  0.00     0.167 HD
ATOM     51  C   UNL A   1      41.360  28.441  28.829  1.00  0.00     0.037 A 
ATOM     52  C   UNL A   1      47.838  26.955  26.647  1.00  0.00     0.037 A 
ATOM     53  C   UNL A   1      42.298  29.531  28.917  1.00  0.00     0.049 A 
ATOM     54  C   UNL A   1      47.452  28.337  27.103  1.00  0.00     0.074 A 
ATOM     55  C   UNL A   1      42.088  30.812  29.397  1.00  0.00     0.029 A 
ATOM     56  N   UNL A   1      43.622  29.471  28.508  1.00  0.00    -0.354 N 
ATOM     57  N   UNL A   1      46.305  28.766  27.569  1.00  0.00    -0.248 NA
ATOM     58  C   UNL A   1      48.494  29.371  27.033  1.00  0.00     0.031 C 
ATOM     59  C   UNL A   1      43.265  31.545  29.220  1.00  0.00     0.029 A 
ATOM     60  C   UNL A   1      44.231  30.703  28.693  1.00  0.00     0.049 A 
ATOM     61  H   UNL A   1      44.064  28.672  28.139  1.00  0.00     0.167 HD
ATOM     62  C   UNL A   1      46.495  30.106  27.878  1.00  0.00     0.074 A 
ATOM     63  C   UNL A   1      47.873  30.416  27.561  1.00  0.00     0.031 C 
ATOM     64  C   UNL A   1      45.606  30.999  28.381  1.00  0.00     0.037 A 
BRANCH  51  65
ATOM     65  C   UNL A   1      39.935  28.699  29.228  1.00  0.00     0.064 A 
ATOM     66  C   UNL A   1      38.977  29.145  28.304  1.00  0.00     0.173 A 
ATOM     67  C   UNL A   1      39.511  28.459  30.545  1.00  0.00     0.173 A 
ATOM     68  F   UNL A   1      39.329  29.397  27.034  1.00  0.00    -0.203 F 
ATOM     69  C   UNL A   1      37.658  29.373  28.691  1.00  0.00     0.198 A 
ATOM     70  C   UNL A   1      38.184  28.654  30.919  1.00  0.00     0.198 A 
ATOM     71  F   UNL A   1      40.381  28.025  31.468  1.00  0.00    -0.203 F 
ATOM     72  F   UNL A   1      36.775  29.850  27.802  1.00  0.00    -0.200 F 
ATOM     73  C   UNL A   1      37.260  29.120  29.994  1.00  0.00     0.200 A 
ATOM     74  F   UNL A   1      37.798  28.394  32.175  1.00  0.00    -0.200 F 
ATOM     75  F   UNL A   1      35.989  29.331  30.362  1.00  0.00    -0.200 F 
ENDBRANCH  51  65
BRANCH  52  76
ATOM     76  C   UNL A   1      49.219  26.670  26.173  1.00  0.00     0.064 A 
ATOM     77  C   UNL A   1      50.189  26.160  27.050  1.00  0.00     0.173 A 
ATOM     78  C   UNL A   1      49.604  26.911  24.847  1.00  0.00     0.173 A 
ATOM     79  F   UNL A   1      49.877  25.933  28.334  1.00  0.00    -0.203 F 
ATOM     80  C   UNL A   1      51.495  25.926  26.623  1.00  0.00     0.198 A 
ATOM     81  C   UNL A   1      50.901  26.646  24.412  1.00  0.00     0.198 A 
ATOM     82  F   UNL A   1      48.715  27.395  23.966  1.00  0.00    -0.203 F 
ATOM     83  F   UNL A   1      52.414  25.489  27.494  1.00  0.00    -0.200 F 
ATOM     84  C   UNL A   1      51.848  26.164  25.303  1.00  0.00     0.200 A 
ATOM     85  F   UNL A   1      51.234  26.863  23.133  1.00  0.00    -0.200 F 
ATOM     86  F   UNL A   1      53.103  25.936  24.892  1.00  0.00    -0.200 F 
ENDBRANCH  52  76
BRANCH  64  87
ATOM     87  C   UNL A   1      46.106  32.388  28.663  1.00  0.00     0.064 A 
ATOM     88  C   UNL A   1      46.020  33.414  27.709  1.00  0.00     0.173 A 
ATOM     89  C   UNL A   1      46.643  32.706  29.920  1.00  0.00     0.173 A 
ATOM     90  F   UNL A   1      45.529  33.161  26.487  1.00  0.00    -0.203 F 
ATOM     91  C   UNL A   1      46.482  34.697  27.995  1.00  0.00     0.198 A 
ATOM     92  C   UNL A   1      47.069  33.999  30.214  1.00  0.00     0.198 A 
ATOM     93  F   UNL A   1      46.741  31.765  30.872  1.00  0.00    -0.203 F 
ATOM     94  F   UNL A   1      46.440  35.647  27.051  1.00  0.00    -0.200 F 
ATOM     95  C   UNL A   1      46.997  34.990  29.249  1.00  0.00     0.200 A 
ATOM     96  F   UNL A   1      47.551  34.283  31.432  1.00  0.00    -0.200 F 
ATOM     97  F   UNL A   1      47.430  36.228  29.524  1.00  0.00    -0.200 F 
ENDBRANCH  64  87
ENDBRANCH  38  39
ENDBRANCH  30  33
ENDBRANCH  28  29
ENDBRANCH  27  28
ENDBRANCH   1  27
TORSDOF 14
ENDMDL
MODEL 2
REMARK VINA RESULT:     -13.2      1.061      7.103
REMARK SMILES O=C(COc1ccc(-c2cc3cc(Br)ccc3oc2=O)cc1)NCCCCNC(=O)c1ccc(-c2c3nc(c(-c4c(F)c(F)c(F)c(F)c4F)c4ccc([nH]4)c(-c4c(F)c(F)c(F)c(F)c4F)c4nc(c(-c5c(F)c(F)c(F)c(F)c5F)c5ccc2[nH]5)C=C4)C=C3)cc1
REMARK SMILES IDX 25 1 24 2 23 3 1 4 2 5 3 7 4 8 5 9 6 10 22 11 7 12 21 13
REMARK SMILES IDX 8 14 9 15 10 16 19 17 11 18 18 19 20 20 12 21 17 22 13 23
REMARK SMILES IDX 16 24 14 25 15 26 26 27 27 28 28 29 29 30 30 32 31 33 32 34
REMARK SMILES IDX 93 35 33 36 92 37 34 38 35 39 36 40 86 41 37 42 91 43 85 44
REMARK SMILES IDX 87 45 38 46 90 47 84 48 83 49 39 51 71 52 51 53 70 54 52 55
REMARK SMILES IDX 55 56 69 57 88 58 53 59 54 60 68 62 89 63 56 64 40 65 41 66
REMARK SMILES IDX 49 67 42 68 43 69 47 70 50 71 44 72 45 73 48 74 46 75 72 76
REMARK SMILES IDX 73 77 81 78 74 79 75 80 79 81 82 82 76 83 77 84 80 85 78 86
REMARK SMILES IDX 57 87 58 88 66 89 59 90 60 91 64 92 67 93 61 94 62 95 65 96
REMARK SMILES IDX 63 97
REMARK H PARENT 23 6 28 31 87 50 55 61
REMARK Flexibility Score: inf
ROOT
ATOM      1  C   UNL A   1      37.480  21.185  24.576  1.00  0.00     0.023 C 
ENDROOT
BRANCH   1   2
ATOM      2  C   UNL A   1      36.876  21.950  25.752  1.00  0.00     0.116 C 
BRANCH   2   3
ATOM      3  N   UNL A   1      35.658  21.358  26.272  1.00  0.00    -0.353 N 
ATOM      4  O   UNL A   1      34.635  23.358  26.736  1.00  0.00    -0.271 OA
ATOM      5  C   UNL A   1      34.582  22.134  26.648  1.00  0.00     0.257 C 
ATOM      6  H   UNL A   1      35.599  20.379  26.358  1.00  0.00     0.163 HD
BRANCH   5   7
ATOM      7  C   UNL A   1      33.282  21.360  26.927  1.00  0.00     0.329 C 
BRANCH   7   8
ATOM      8  O   UNL A   1      32.536  20.866  25.823  1.00  0.00    -0.484 OA
BRANCH   8   9
ATOM      9  C   UNL A   1      32.031  21.780  24.940  1.00  0.00     0.120 A 
ATOM     10  C   UNL A   1      32.619  21.789  23.673  1.00  0.00     0.047 A 
ATOM     11  C   UNL A   1      31.068  22.737  25.235  1.00  0.00     0.047 A 
ATOM     12  C   UNL A   1      32.345  22.820  22.766  1.00  0.00     0.013 A 
ATOM     13  C   UNL A   1      30.779  23.754  24.322  1.00  0.00     0.013 A 
ATOM     14  C   UNL A   1      31.486  23.870  23.118  1.00  0.00    -0.011 A 
BRANCH  14  15
ATOM     15  C   UNL A   1      31.542  25.137  22.316  1.00  0.00     0.068 A 
ATOM     16  C   UNL A   1      31.143  26.359  22.751  1.00  0.00     0.028 A 
ATOM     17  C   UNL A   1      32.914  25.354  21.714  1.00  0.00     0.344 A 
ATOM     18  C   UNL A   1      31.994  26.838  23.864  1.00  0.00     0.019 A 
ATOM     19  O   UNL A   1      33.846  25.831  22.654  1.00  0.00    -0.422 OA
ATOM     20  O   UNL A   1      33.203  25.048  20.566  1.00  0.00    -0.246 OA
ATOM     21  C   UNL A   1      31.482  27.477  24.989  1.00  0.00     0.027 A 
ATOM     22  C   UNL A   1      33.342  26.443  23.828  1.00  0.00     0.138 A 
ATOM     23  C   UNL A   1      32.309  27.621  26.105  1.00  0.00     0.018 A 
ATOM     24  C   UNL A   1      34.165  26.580  24.937  1.00  0.00     0.049 A 
ATOM     25  Br  UNL A   1      31.607  28.391  27.684  1.00  0.00    -0.051 Br
ATOM     26  C   UNL A   1      33.631  27.154  26.093  1.00  0.00     0.019 A 
ENDBRANCH  14  15
ENDBRANCH   8   9
ENDBRANCH   7   8
ENDBRANCH   5   7
ENDBRANCH   2   3
ENDBRANCH   1   2
BRANCH   1  27
ATOM     27  C   UNL A   1      38.230  19.908  24.956  1.00  0.00     0.023 C 
BRANCH  27  28
ATOM     28  C   UNL A   1      39.281  20.065  26.049  1.00  0.00     0.116 C 
BRANCH  28  29
ATOM     29  N   UNL A   1      40.374  19.113  25.935  1.00  0.00    -0.352 N 
ATOM     30  C   UNL A   1      41.733  19.321  26.022  1.00  0.00     0.251 C 
ATOM     31  H   UNL A   1      40.103  18.180  25.769  1.00  0.00     0.163 HD
ATOM     32  O   UNL A   1      42.510  18.412  25.765  1.00  0.00    -0.269 OA
BRANCH  30  33
ATOM     33  C   UNL A   1      42.259  20.655  26.396  1.00  0.00     0.039 A 
ATOM     34  C   UNL A   1      42.627  21.541  25.380  1.00  0.00     0.014 A 
ATOM     35  C   UNL A   1      42.390  21.036  27.734  1.00  0.00     0.014 A 
ATOM     36  C   UNL A   1      43.053  22.833  25.703  1.00  0.00     0.010 A 
ATOM     37  C   UNL A   1      42.737  22.348  28.052  1.00  0.00     0.010 A 
ATOM     38  C   UNL A   1      43.070  23.262  27.040  1.00  0.00    -0.014 A 
BRANCH  38  39
ATOM     39  C   UNL A   1      43.419  24.664  27.396  1.00  0.00     0.031 A 
ATOM     40  C   UNL A   1      44.857  25.101  27.448  1.00  0.00     0.074 A 
ATOM     41  C   UNL A   1      42.443  25.529  27.737  1.00  0.00     0.049 A 
ATOM     42  N   UNL A   1      45.360  26.258  27.798  1.00  0.00    -0.248 NA
ATOM     43  C   UNL A   1      45.867  24.096  27.082  1.00  0.00     0.031 C 
ATOM     44  C   UNL A   1      41.013  25.219  27.769  1.00  0.00     0.029 A 
ATOM     45  N   UNL A   1      42.506  26.843  28.131  1.00  0.00    -0.354 N 
ATOM     46  C   UNL A   1      46.738  26.117  27.709  1.00  0.00     0.074 A 
ATOM     47  C   UNL A   1      46.996  24.745  27.326  1.00  0.00     0.031 C 
ATOM     48  C   UNL A   1      40.333  26.316  28.134  1.00  0.00     0.029 A 
ATOM     49  C   UNL A   1      41.278  27.395  28.407  1.00  0.00     0.049 A 
ATOM     50  H   UNL A   1      43.350  27.342  28.209  1.00  0.00     0.167 HD
ATOM     51  C   UNL A   1      47.701  27.049  27.908  1.00  0.00     0.037 A 
ATOM     52  C   UNL A   1      40.951  28.628  28.841  1.00  0.00     0.037 A 
ATOM     53  C   UNL A   1      47.441  28.418  28.272  1.00  0.00     0.049 A 
ATOM     54  C   UNL A   1      42.042  29.638  29.079  1.00  0.00     0.074 A 
ATOM     55  C   UNL A   1      48.344  29.454  28.434  1.00  0.00     0.029 A 
ATOM     56  N   UNL A   1      46.183  28.940  28.540  1.00  0.00    -0.354 N 
ATOM     57  N   UNL A   1      43.337  29.513  28.917  1.00  0.00    -0.248 NA
ATOM     58  C   UNL A   1      41.624  30.964  29.553  1.00  0.00     0.031 C 
ATOM     59  C   UNL A   1      47.642  30.586  28.860  1.00  0.00     0.029 A 
ATOM     60  C   UNL A   1      46.292  30.276  28.899  1.00  0.00     0.049 A 
ATOM     61  H   UNL A   1      45.339  28.438  28.485  1.00  0.00     0.167 HD
ATOM     62  C   UNL A   1      43.883  30.749  29.237  1.00  0.00     0.074 A 
ATOM     63  C   UNL A   1      42.777  31.616  29.587  1.00  0.00     0.031 C 
ATOM     64  C   UNL A   1      45.184  31.131  29.238  1.00  0.00     0.037 A 
BRANCH  51  65
ATOM     65  C   UNL A   1      49.132  26.621  27.743  1.00  0.00     0.064 A 
ATOM     66  C   UNL A   1      49.730  26.510  26.478  1.00  0.00     0.173 A 
ATOM     67  C   UNL A   1      49.929  26.355  28.867  1.00  0.00     0.173 A 
ATOM     68  F   UNL A   1      49.013  26.745  25.368  1.00  0.00    -0.203 F 
ATOM     69  C   UNL A   1      51.060  26.118  26.344  1.00  0.00     0.198 A 
ATOM     70  C   UNL A   1      51.268  25.997  28.731  1.00  0.00     0.198 A 
ATOM     71  F   UNL A   1      49.413  26.452  30.102  1.00  0.00    -0.203 F 
ATOM     72  F   UNL A   1      51.592  25.967  25.122  1.00  0.00    -0.200 F 
ATOM     73  C   UNL A   1      51.830  25.869  27.469  1.00  0.00     0.200 A 
ATOM     74  F   UNL A   1      52.015  25.774  29.821  1.00  0.00    -0.200 F 
ATOM     75  F   UNL A   1      53.112  25.502  27.339  1.00  0.00    -0.200 F 
ENDBRANCH  51  65
BRANCH  52  76
ATOM     76  C   UNL A   1      39.524  28.986  29.062  1.00  0.00     0.064 A 
ATOM     77  C   UNL A   1      38.941  28.862  30.332  1.00  0.00     0.173 A 
ATOM     78  C   UNL A   1      38.712  29.443  28.015  1.00  0.00     0.173 A 
ATOM     79  F   UNL A   1      39.669  28.408  31.362  1.00  0.00    -0.203 F 
ATOM     80  C   UNL A   1      37.595  29.159  30.539  1.00  0.00     0.198 A 
ATOM     81  C   UNL A   1      37.375  29.771  28.230  1.00  0.00     0.198 A 
ATOM     82  F   UNL A   1      39.221  29.583  26.782  1.00  0.00    -0.203 F 
ATOM     83  F   UNL A   1      37.050  28.981  31.750  1.00  0.00    -0.200 F 
ATOM     84  C   UNL A   1      36.815  29.619  29.489  1.00  0.00     0.200 A 
ATOM     85  F   UNL A   1      36.629  30.229  27.215  1.00  0.00    -0.200 F 
ATOM     86  F   UNL A   1      35.521  29.908  29.689  1.00  0.00    -0.200 F 
ENDBRANCH  52  76
BRANCH  64  87
ATOM     87  C   UNL A   1      45.485  32.561  29.588  1.00  0.00     0.064 A 
ATOM     88  C   UNL A   1      45.522  33.571  28.615  1.00  0.00     0.173 A 
ATOM     89  C   UNL A   1      45.701  32.933  30.925  1.00  0.00     0.173 A 
ATOM     90  F   UNL A   1      45.337  33.268  27.321  1.00  0.00    -0.203 F 
ATOM     91  C   UNL A   1      45.794  34.892  28.963  1.00  0.00     0.198 A 
ATOM     92  C   UNL A   1      45.937  34.260  31.273  1.00  0.00     0.198 A 
ATOM     93  F   UNL A   1      45.669  32.010  31.898  1.00  0.00    -0.203 F 
ATOM     94  F   UNL A   1      45.878  35.829  28.009  1.00  0.00    -0.200 F 
ATOM     95  C   UNL A   1      45.993  35.237  30.291  1.00  0.00     0.200 A 
ATOM     96  F   UNL A   1      46.111  34.593  32.560  1.00  0.00    -0.200 F 
ATOM     97  F   UNL A   1      46.244  36.511  30.624  1.00  0.00    -0.200 F 
ENDBRANCH  64  87
ENDBRANCH  38  39
ENDBRANCH  30  33
ENDBRANCH  28  29
ENDBRANCH  27  28
ENDBRANCH   1  27
TORSDOF 14
ENDMDL
MODEL 3
REMARK VINA RESULT:     -13.1      6.485     10.954
REMARK SMILES O=C(COc1ccc(-c2cc3cc(Br)ccc3oc2=O)cc1)NCCCCNC(=O)c1ccc(-c2c3nc(c(-c4c(F)c(F)c(F)c(F)c4F)c4ccc([nH]4)c(-c4c(F)c(F)c(F)c(F)c4F)c4nc(c(-c5c(F)c(F)c(F)c(F)c5F)c5ccc2[nH]5)C=C4)C=C3)cc1
REMARK SMILES IDX 25 1 24 2 23 3 1 4 2 5 3 7 4 8 5 9 6 10 22 11 7 12 21 13
REMARK SMILES IDX 8 14 9 15 10 16 19 17 11 18 18 19 20 20 12 21 17 22 13 23
REMARK SMILES IDX 16 24 14 25 15 26 26 27 27 28 28 29 29 30 30 32 31 33 32 34
REMARK SMILES IDX 93 35 33 36 92 37 34 38 35 39 36 40 86 41 37 42 91 43 85 44
REMARK SMILES IDX 87 45 38 46 90 47 84 48 83 49 39 51 71 52 51 53 70 54 52 55
REMARK SMILES IDX 55 56 69 57 88 58 53 59 54 60 68 62 89 63 56 64 40 65 41 66
REMARK SMILES IDX 49 67 42 68 43 69 47 70 50 71 44 72 45 73 48 74 46 75 72 76
REMARK SMILES IDX 73 77 81 78 74 79 75 80 79 81 82 82 76 83 77 84 80 85 78 86
REMARK SMILES IDX 57 87 58 88 66 89 59 90 60 91 64 92 67 93 61 94 62 95 65 96
REMARK SMILES IDX 63 97
REMARK H PARENT 23 6 28 31 87 50 55 61
REMARK Flexibility Score: inf
ROOT
ATOM      1  C   UNL A   1      34.818  33.765  28.962  1.00  0.00     0.023 C 
ENDROOT
BRANCH   1   2
ATOM      2  C   UNL A   1      34.716  32.295  29.366  1.00  0.00     0.116 C 
BRANCH   2   3
ATOM      3  N   UNL A   1      34.032  31.466  28.392  1.00  0.00    -0.353 N 
ATOM      4  O   UNL A   1      35.887  30.245  27.819  1.00  0.00    -0.271 OA
ATOM      5  C   UNL A   1      34.674  30.429  27.749  1.00  0.00     0.257 C 
ATOM      6  H   UNL A   1      33.087  31.649  28.186  1.00  0.00     0.163 HD
BRANCH   5   7
ATOM      7  C   UNL A   1      33.759  29.486  26.950  1.00  0.00     0.329 C 
BRANCH   7   8
ATOM      8  O   UNL A   1      34.318  28.298  26.405  1.00  0.00    -0.484 OA
BRANCH   8   9
ATOM      9  C   UNL A   1      33.453  27.355  25.922  1.00  0.00     0.120 A 
ATOM     10  C   UNL A   1      32.244  27.231  26.610  1.00  0.00     0.047 A 
ATOM     11  C   UNL A   1      33.723  26.471  24.884  1.00  0.00     0.047 A 
ATOM     12  C   UNL A   1      31.382  26.158  26.351  1.00  0.00     0.013 A 
ATOM     13  C   UNL A   1      32.854  25.412  24.613  1.00  0.00     0.013 A 
ATOM     14  C   UNL A   1      31.724  25.181  25.408  1.00  0.00    -0.011 A 
BRANCH  14  15
ATOM     15  C   UNL A   1      31.009  23.862  25.456  1.00  0.00     0.068 A 
ATOM     16  C   UNL A   1      31.480  22.695  24.948  1.00  0.00     0.028 A 
ATOM     17  C   UNL A   1      30.547  23.531  26.859  1.00  0.00     0.344 A 
ATOM     18  C   UNL A   1      32.692  22.245  25.670  1.00  0.00     0.019 A 
ATOM     19  O   UNL A   1      31.594  23.067  27.676  1.00  0.00    -0.422 OA
ATOM     20  O   UNL A   1      29.413  23.744  27.263  1.00  0.00    -0.246 OA
ATOM     21  C   UNL A   1      33.804  21.711  25.025  1.00  0.00     0.027 A 
ATOM     22  C   UNL A   1      32.752  22.562  27.037  1.00  0.00     0.138 A 
ATOM     23  C   UNL A   1      34.996  21.596  25.742  1.00  0.00     0.018 A 
ATOM     24  C   UNL A   1      33.937  22.454  27.752  1.00  0.00     0.049 A 
ATOM     25  Br  UNL A   1      36.549  20.972  24.862  1.00  0.00    -0.051 Br
ATOM     26  C   UNL A   1      35.074  21.988  27.087  1.00  0.00     0.019 A 
ENDBRANCH  14  15
ENDBRANCH   8   9
ENDBRANCH   7   8
ENDBRANCH   5   7
ENDBRANCH   2   3
ENDBRANCH   1   2
BRANCH   1  27
ATOM     27  C   UNL A   1      33.488  34.516  28.923  1.00  0.00     0.023 C 
BRANCH  27  28
ATOM     28  C   UNL A   1      33.506  35.916  29.527  1.00  0.00     0.116 C 
BRANCH  28  29
ATOM     29  N   UNL A   1      32.542  36.091  30.601  1.00  0.00    -0.352 N 
ATOM     30  C   UNL A   1      32.589  35.649  31.905  1.00  0.00     0.251 C 
ATOM     31  H   UNL A   1      31.734  36.601  30.360  1.00  0.00     0.163 HD
ATOM     32  O   UNL A   1      31.614  35.780  32.632  1.00  0.00    -0.269 OA
BRANCH  30  33
ATOM     33  C   UNL A   1      33.808  34.984  32.422  1.00  0.00     0.039 A 
ATOM     34  C   UNL A   1      33.701  33.686  32.928  1.00  0.00     0.014 A 
ATOM     35  C   UNL A   1      35.048  35.628  32.409  1.00  0.00     0.014 A 
ATOM     36  C   UNL A   1      34.848  33.007  33.351  1.00  0.00     0.010 A 
ATOM     37  C   UNL A   1      36.200  34.923  32.755  1.00  0.00     0.010 A 
ATOM     38  C   UNL A   1      36.114  33.604  33.227  1.00  0.00    -0.014 A 
BRANCH  38  39
ATOM     39  C   UNL A   1      37.355  32.860  33.572  1.00  0.00     0.031 A 
ATOM     40  C   UNL A   1      38.086  33.152  34.854  1.00  0.00     0.074 A 
ATOM     41  C   UNL A   1      37.862  31.966  32.700  1.00  0.00     0.049 A 
ATOM     42  N   UNL A   1      39.214  32.655  35.297  1.00  0.00    -0.248 NA
ATOM     43  C   UNL A   1      37.483  34.155  35.745  1.00  0.00     0.031 C 
ATOM     44  C   UNL A   1      37.274  31.623  31.405  1.00  0.00     0.029 A 
ATOM     45  N   UNL A   1      38.992  31.189  32.768  1.00  0.00    -0.354 N 
ATOM     46  C   UNL A   1      39.461  33.292  36.506  1.00  0.00     0.074 A 
ATOM     47  C   UNL A   1      38.396  34.252  36.701  1.00  0.00     0.031 C 
ATOM     48  C   UNL A   1      38.030  30.686  30.812  1.00  0.00     0.029 A 
ATOM     49  C   UNL A   1      39.182  30.396  31.662  1.00  0.00     0.049 A 
ATOM     50  H   UNL A   1      39.608  31.199  33.535  1.00  0.00     0.167 HD
ATOM     51  C   UNL A   1      40.472  33.083  37.384  1.00  0.00     0.037 A 
ATOM     52  C   UNL A   1      40.176  29.538  31.360  1.00  0.00     0.037 A 
ATOM     53  C   UNL A   1      41.521  32.114  37.195  1.00  0.00     0.049 A 
ATOM     54  C   UNL A   1      41.301  29.341  32.342  1.00  0.00     0.074 A 
ATOM     55  C   UNL A   1      42.553  31.782  38.055  1.00  0.00     0.029 A 
ATOM     56  N   UNL A   1      41.677  31.327  36.063  1.00  0.00    -0.354 N 
ATOM     57  N   UNL A   1      41.482  29.894  33.516  1.00  0.00    -0.248 NA
ATOM     58  C   UNL A   1      42.357  28.395  31.957  1.00  0.00     0.031 C 
ATOM     59  C   UNL A   1      43.369  30.841  37.419  1.00  0.00     0.029 A 
ATOM     60  C   UNL A   1      42.809  30.535  36.189  1.00  0.00     0.049 A 
ATOM     61  H   UNL A   1      41.075  31.330  35.284  1.00  0.00     0.167 HD
ATOM     62  C   UNL A   1      42.651  29.341  34.024  1.00  0.00     0.074 A 
ATOM     63  C   UNL A   1      43.128  28.396  33.035  1.00  0.00     0.031 C 
ATOM     64  C   UNL A   1      43.271  29.592  35.203  1.00  0.00     0.037 A 
BRANCH  51  65
ATOM     65  C   UNL A   1      40.499  33.922  38.629  1.00  0.00     0.064 A 
ATOM     66  C   UNL A   1      39.801  33.547  39.789  1.00  0.00     0.173 A 
ATOM     67  C   UNL A   1      41.266  35.096  38.679  1.00  0.00     0.173 A 
ATOM     68  F   UNL A   1      39.046  32.439  39.795  1.00  0.00    -0.203 F 
ATOM     69  C   UNL A   1      39.843  34.334  40.938  1.00  0.00     0.198 A 
ATOM     70  C   UNL A   1      41.333  35.862  39.841  1.00  0.00     0.198 A 
ATOM     71  F   UNL A   1      41.960  35.498  37.604  1.00  0.00    -0.203 F 
ATOM     72  F   UNL A   1      39.124  33.984  42.014  1.00  0.00    -0.200 F 
ATOM     73  C   UNL A   1      40.614  35.486  40.966  1.00  0.00     0.200 A 
ATOM     74  F   UNL A   1      42.093  36.965  39.871  1.00  0.00    -0.200 F 
ATOM     75  F   UNL A   1      40.661  36.236  42.075  1.00  0.00    -0.200 F 
ENDBRANCH  51  65
BRANCH  52  76
ATOM     76  C   UNL A   1      40.146  28.782  30.079  1.00  0.00     0.064 A 
ATOM     77  C   UNL A   1      39.522  27.528  29.999  1.00  0.00     0.173 A 
ATOM     78  C   UNL A   1      40.747  29.285  28.917  1.00  0.00     0.173 A 
ATOM     79  F   UNL A   1      38.952  26.993  31.088  1.00  0.00    -0.203 F 
ATOM     80  C   UNL A   1      39.522  26.797  28.813  1.00  0.00     0.198 A 
ATOM     81  C   UNL A   1      40.719  28.568  27.722  1.00  0.00     0.198 A 
ATOM     82  F   UNL A   1      41.355  30.481  28.938  1.00  0.00    -0.203 F 
ATOM     83  F   UNL A   1      38.965  25.579  28.779  1.00  0.00    -0.200 F 
ATOM     84  C   UNL A   1      40.116  27.321  27.674  1.00  0.00     0.200 A 
ATOM     85  F   UNL A   1      41.280  29.084  26.621  1.00  0.00    -0.200 F 
ATOM     86  F   UNL A   1      40.113  26.619  26.532  1.00  0.00    -0.200 F 
ENDBRANCH  52  76
BRANCH  64  87
ATOM     87  C   UNL A   1      44.511  28.803  35.514  1.00  0.00     0.064 A 
ATOM     88  C   UNL A   1      44.458  27.568  36.176  1.00  0.00     0.173 A 
ATOM     89  C   UNL A   1      45.771  29.275  35.109  1.00  0.00     0.173 A 
ATOM     90  F   UNL A   1      43.282  27.078  36.598  1.00  0.00    -0.203 F 
ATOM     91  C   UNL A   1      45.620  26.849  36.446  1.00  0.00     0.198 A 
ATOM     92  C   UNL A   1      46.926  28.537  35.349  1.00  0.00     0.198 A 
ATOM     93  F   UNL A   1      45.879  30.448  34.465  1.00  0.00    -0.203 F 
ATOM     94  F   UNL A   1      45.550  25.697  37.127  1.00  0.00    -0.200 F 
ATOM     95  C   UNL A   1      46.852  27.330  36.026  1.00  0.00     0.200 A 
ATOM     96  F   UNL A   1      48.112  28.995  34.926  1.00  0.00    -0.200 F 
ATOM     97  F   UNL A   1      47.967  26.631  36.278  1.00  0.00    -0.200 F 
ENDBRANCH  64  87
ENDBRANCH  38  39
ENDBRANCH  30  33
ENDBRANCH  28  29
ENDBRANCH  27  28
ENDBRANCH   1  27
TORSDOF 14
ENDMDL
