MODEL 1
REMARK VINA RESULT:     -12.8      0.000      0.000
REMARK SMILES C=CCS(=O)(=O)Nc1ccc(C)cc1C(=O)NCCCCNC(=O)c1ccc(-c2c3nc(c(-c4c(F)c(F)c(F)c(F)c4F)c4ccc([nH]4)c(-c4c(F)c(F)c(F)c(F)c4F)c4nc(c(-c5c(F)c(F)c(F)c(F)c5F)c5ccc2[nH]5)C=C4)C=C3)cc1
REMARK SMILES IDX 18 1 17 2 15 3 16 4 14 6 8 7 9 8 10 9 13 10 11 11 12 12 7 13
REMARK SMILES IDX 4 15 5 16 6 17 3 18 2 19 1 20 19 21 20 22 21 23 22 24 23 25
REMARK SMILES IDX 24 27 25 28 26 29 87 30 27 31 86 32 28 33 29 34 30 35 80 36
REMARK SMILES IDX 31 37 85 38 79 39 81 40 32 41 84 42 78 43 77 44 33 46 65 47
REMARK SMILES IDX 45 48 64 49 46 50 49 51 63 52 82 53 47 54 48 55 62 57 83 58
REMARK SMILES IDX 50 59 34 60 35 61 43 62 36 63 37 64 41 65 44 66 38 67 39 68
REMARK SMILES IDX 42 69 40 70 66 71 67 72 75 73 68 74 69 75 73 76 76 77 70 78
REMARK SMILES IDX 71 79 74 80 72 81 51 82 52 83 60 84 53 85 54 86 58 87 61 88
REMARK SMILES IDX 55 89 56 90 59 91 57 92
REMARK H PARENT 17 5 7 14 22 26 81 45 49 56
REMARK Flexibility Score: inf
ROOT
ATOM      1  C   UNL A   1      32.078  27.782  26.908  1.00  0.00     0.116 C 
ENDROOT
BRANCH   1   2
ATOM      2  N   UNL A   1      31.103  26.856  26.393  1.00  0.00    -0.352 N 
ATOM      3  C   UNL A   1      31.271  25.585  25.901  1.00  0.00     0.253 C 
ATOM      4  O   UNL A   1      30.242  25.002  25.546  1.00  0.00    -0.269 OA
ATOM      5  H   UNL A   1      30.175  27.182  26.394  1.00  0.00     0.163 HD
BRANCH   3   6
ATOM      6  C   UNL A   1      32.579  24.866  25.713  1.00  0.00     0.064 A 
ATOM      7  C   UNL A   1      33.705  25.256  24.958  1.00  0.00     0.061 A 
ATOM      8  C   UNL A   1      34.939  24.628  25.198  1.00  0.00     0.028 A 
ATOM      9  C   UNL A   1      35.048  23.524  26.042  1.00  0.00     0.005 A 
ATOM     10  C   UNL A   1      32.715  23.736  26.559  1.00  0.00     0.019 A 
ATOM     11  C   UNL A   1      33.924  23.041  26.701  1.00  0.00    -0.050 A 
ATOM     12  C   UNL A   1      34.026  21.865  27.627  1.00  0.00     0.044 C 
BRANCH   7  13
ATOM     13  N   UNL A   1      33.718  26.357  24.037  1.00  0.00    -0.282 N 
ATOM     14  H   UNL A   1      33.969  27.256  24.352  1.00  0.00     0.180 HD
BRANCH  13  15
ATOM     15  S   UNL A   1      33.300  26.120  22.402  1.00  0.00     0.236 S 
ATOM     16  O   UNL A   1      33.763  24.787  22.094  1.00  0.00    -0.206 OA
ATOM     17  O   UNL A   1      33.868  27.249  21.682  1.00  0.00    -0.206 OA
BRANCH  15  18
ATOM     18  C   UNL A   1      31.479  26.219  22.212  1.00  0.00     0.186 C 
BRANCH  18  19
ATOM     19  C   UNL A   1      30.982  27.631  22.382  1.00  0.00    -0.017 C 
ATOM     20  C   UNL A   1      30.041  28.007  23.259  1.00  0.00     0.005 C 
ENDBRANCH  18  19
ENDBRANCH  15  18
ENDBRANCH  13  15
ENDBRANCH   7  13
ENDBRANCH   3   6
ENDBRANCH   1   2
BRANCH   1  21
ATOM     21  C   UNL A   1      31.916  29.234  26.477  1.00  0.00     0.023 C 
BRANCH  21  22
ATOM     22  C   UNL A   1      32.641  30.294  27.289  1.00  0.00     0.023 C 
BRANCH  22  23
ATOM     23  C   UNL A   1      34.150  30.371  27.125  1.00  0.00     0.116 C 
BRANCH  23  24
ATOM     24  N   UNL A   1      34.844  31.366  27.928  1.00  0.00    -0.352 N 
ATOM     25  C   UNL A   1      35.952  31.235  28.760  1.00  0.00     0.251 C 
ATOM     26  H   UNL A   1      34.471  32.274  27.874  1.00  0.00     0.163 HD
ATOM     27  O   UNL A   1      36.324  32.195  29.412  1.00  0.00    -0.269 OA
BRANCH  25  28
ATOM     28  C   UNL A   1      36.781  29.992  28.751  1.00  0.00     0.039 A 
ATOM     29  C   UNL A   1      36.875  29.242  29.937  1.00  0.00     0.014 A 
ATOM     30  C   UNL A   1      37.619  29.676  27.694  1.00  0.00     0.014 A 
ATOM     31  C   UNL A   1      37.974  28.407  30.145  1.00  0.00     0.010 A 
ATOM     32  C   UNL A   1      38.779  28.988  27.946  1.00  0.00     0.010 A 
ATOM     33  C   UNL A   1      38.988  28.409  29.198  1.00  0.00    -0.014 A 
BRANCH  33  34
ATOM     34  C   UNL A   1      40.351  27.941  29.401  1.00  0.00     0.031 A 
ATOM     35  C   UNL A   1      40.750  26.615  28.896  1.00  0.00     0.074 A 
ATOM     36  C   UNL A   1      41.276  28.868  29.729  1.00  0.00     0.049 A 
ATOM     37  N   UNL A   1      41.913  26.088  29.059  1.00  0.00    -0.248 NA
ATOM     38  C   UNL A   1      39.829  25.751  28.170  1.00  0.00     0.031 C 
ATOM     39  C   UNL A   1      42.722  28.807  29.532  1.00  0.00     0.029 A 
ATOM     40  N   UNL A   1      41.086  30.016  30.516  1.00  0.00    -0.354 N 
ATOM     41  C   UNL A   1      42.000  24.989  28.235  1.00  0.00     0.074 A 
ATOM     42  C   UNL A   1      40.647  24.769  27.785  1.00  0.00     0.031 C 
ATOM     43  C   UNL A   1      43.310  29.645  30.402  1.00  0.00     0.029 A 
ATOM     44  C   UNL A   1      42.267  30.122  31.292  1.00  0.00     0.049 A 
ATOM     45  H   UNL A   1      40.304  30.614  30.525  1.00  0.00     0.167 HD
ATOM     46  C   UNL A   1      43.241  24.494  27.952  1.00  0.00     0.037 A 
ATOM     47  C   UNL A   1      42.209  29.861  32.634  1.00  0.00     0.037 A 
ATOM     48  C   UNL A   1      44.245  25.095  28.845  1.00  0.00     0.049 A 
ATOM     49  C   UNL A   1      43.003  28.643  33.077  1.00  0.00     0.074 A 
ATOM     50  C   UNL A   1      45.226  26.065  28.720  1.00  0.00     0.029 A 
ATOM     51  N   UNL A   1      44.102  24.882  30.206  1.00  0.00    -0.354 N 
ATOM     52  N   UNL A   1      43.643  27.836  32.274  1.00  0.00    -0.248 NA
ATOM     53  C   UNL A   1      43.052  28.191  34.468  1.00  0.00     0.031 C 
ATOM     54  C   UNL A   1      45.621  26.468  30.035  1.00  0.00     0.029 A 
ATOM     55  C   UNL A   1      44.894  25.730  30.952  1.00  0.00     0.049 A 
ATOM     56  H   UNL A   1      43.504  24.205  30.596  1.00  0.00     0.167 HD
ATOM     57  C   UNL A   1      44.117  26.766  32.984  1.00  0.00     0.074 A 
ATOM     58  C   UNL A   1      43.725  27.033  34.355  1.00  0.00     0.031 C 
ATOM     59  C   UNL A   1      44.759  25.711  32.402  1.00  0.00     0.037 A 
BRANCH  46  60
ATOM     60  C   UNL A   1      43.605  23.608  26.769  1.00  0.00     0.064 A 
ATOM     61  C   UNL A   1      43.154  22.267  26.724  1.00  0.00     0.173 A 
ATOM     62  C   UNL A   1      44.447  23.959  25.694  1.00  0.00     0.173 A 
ATOM     63  F   UNL A   1      42.292  21.789  27.630  1.00  0.00    -0.203 F 
ATOM     64  C   UNL A   1      43.575  21.356  25.745  1.00  0.00     0.198 A 
ATOM     65  C   UNL A   1      44.880  23.047  24.726  1.00  0.00     0.198 A 
ATOM     66  F   UNL A   1      44.877  25.203  25.494  1.00  0.00    -0.203 F 
ATOM     67  F   UNL A   1      43.126  20.093  25.778  1.00  0.00    -0.200 F 
ATOM     68  C   UNL A   1      44.454  21.741  24.758  1.00  0.00     0.200 A 
ATOM     69  F   UNL A   1      45.718  23.456  23.761  1.00  0.00    -0.200 F 
ATOM     70  F   UNL A   1      44.875  20.867  23.834  1.00  0.00    -0.200 F 
ENDBRANCH  46  60
BRANCH  47  71
ATOM     71  C   UNL A   1      40.911  30.298  33.228  1.00  0.00     0.064 A 
ATOM     72  C   UNL A   1      40.672  31.681  33.364  1.00  0.00     0.173 A 
ATOM     73  C   UNL A   1      39.803  29.444  33.269  1.00  0.00     0.173 A 
ATOM     74  F   UNL A   1      41.701  32.544  33.333  1.00  0.00    -0.203 F 
ATOM     75  C   UNL A   1      39.376  32.192  33.394  1.00  0.00     0.198 A 
ATOM     76  C   UNL A   1      38.508  29.961  33.329  1.00  0.00     0.198 A 
ATOM     77  F   UNL A   1      39.957  28.120  33.124  1.00  0.00    -0.203 F 
ATOM     78  F   UNL A   1      39.179  33.518  33.394  1.00  0.00    -0.200 F 
ATOM     79  C   UNL A   1      38.294  31.330  33.347  1.00  0.00     0.200 A 
ATOM     80  F   UNL A   1      37.459  29.127  33.259  1.00  0.00    -0.200 F 
ATOM     81  F   UNL A   1      37.047  31.817  33.275  1.00  0.00    -0.200 F 
ENDBRANCH  47  71
BRANCH  59  82
ATOM     82  C   UNL A   1      45.296  24.549  33.190  1.00  0.00     0.064 A 
ATOM     83  C   UNL A   1      44.496  23.445  33.525  1.00  0.00     0.173 A 
ATOM     84  C   UNL A   1      46.600  24.558  33.728  1.00  0.00     0.173 A 
ATOM     85  F   UNL A   1      43.223  23.371  33.111  1.00  0.00    -0.203 F 
ATOM     86  C   UNL A   1      44.985  22.397  34.307  1.00  0.00     0.198 A 
ATOM     87  C   UNL A   1      47.065  23.539  34.557  1.00  0.00     0.198 A 
ATOM     88  F   UNL A   1      47.471  25.536  33.441  1.00  0.00    -0.203 F 
ATOM     89  F   UNL A   1      44.208  21.333  34.554  1.00  0.00    -0.200 F 
ATOM     90  C   UNL A   1      46.264  22.450  34.834  1.00  0.00     0.200 A 
ATOM     91  F   UNL A   1      48.300  23.617  35.077  1.00  0.00    -0.200 F 
ATOM     92  F   UNL A   1      46.723  21.454  35.603  1.00  0.00    -0.200 F 
ENDBRANCH  59  82
ENDBRANCH  33  34
ENDBRANCH  25  28
ENDBRANCH  23  24
ENDBRANCH  22  23
ENDBRANCH  21  22
ENDBRANCH   1  21
TORSDOF 15
ENDMDL
MODEL 2
REMARK VINA RESULT:     -12.4      1.341      2.023
REMARK SMILES C=CCS(=O)(=O)Nc1ccc(C)cc1C(=O)NCCCCNC(=O)c1ccc(-c2c3nc(c(-c4c(F)c(F)c(F)c(F)c4F)c4ccc([nH]4)c(-c4c(F)c(F)c(F)c(F)c4F)c4nc(c(-c5c(F)c(F)c(F)c(F)c5F)c5ccc2[nH]5)C=C4)C=C3)cc1
REMARK SMILES IDX 18 1 17 2 15 3 16 4 14 6 8 7 9 8 10 9 13 10 11 11 12 12 7 13
REMARK SMILES IDX 4 15 5 16 6 17 3 18 2 19 1 20 19 21 20 22 21 23 22 24 23 25
REMARK SMILES IDX 24 27 25 28 26 29 87 30 27 31 86 32 28 33 29 34 30 35 80 36
REMARK SMILES IDX 31 37 85 38 79 39 81 40 32 41 84 42 78 43 77 44 33 46 65 47
REMARK SMILES IDX 45 48 64 49 46 50 49 51 63 52 82 53 47 54 48 55 62 57 83 58
REMARK SMILES IDX 50 59 34 60 35 61 43 62 36 63 37 64 41 65 44 66 38 67 39 68
REMARK SMILES IDX 42 69 40 70 66 71 67 72 75 73 68 74 69 75 73 76 76 77 70 78
REMARK SMILES IDX 71 79 74 80 72 81 51 82 52 83 60 84 53 85 54 86 58 87 61 88
REMARK SMILES IDX 55 89 56 90 59 91 57 92
REMARK H PARENT 17 5 7 14 22 26 81 45 49 56
REMARK Flexibility Score: inf
ROOT
ATOM      1  C   UNL A   1      33.282  29.228  25.229  1.00  0.00     0.116 C 
ENDROOT
BRANCH   1   2
ATOM      2  N   UNL A   1      33.899  29.141  23.931  1.00  0.00    -0.352 N 
ATOM      3  C   UNL A   1      33.793  28.166  22.970  1.00  0.00     0.253 C 
ATOM      4  O   UNL A   1      34.421  28.365  21.925  1.00  0.00    -0.269 OA
ATOM      5  H   UNL A   1      34.485  29.895  23.695  1.00  0.00     0.163 HD
BRANCH   3   6
ATOM      6  C   UNL A   1      33.030  26.875  23.089  1.00  0.00     0.064 A 
ATOM      7  C   UNL A   1      31.741  26.559  22.610  1.00  0.00     0.061 A 
ATOM      8  C   UNL A   1      31.362  25.210  22.511  1.00  0.00     0.028 A 
ATOM      9  C   UNL A   1      32.157  24.184  23.022  1.00  0.00     0.005 A 
ATOM     10  C   UNL A   1      33.817  25.814  23.608  1.00  0.00     0.019 A 
ATOM     11  C   UNL A   1      33.378  24.482  23.614  1.00  0.00    -0.050 A 
ATOM     12  C   UNL A   1      34.256  23.391  24.152  1.00  0.00     0.044 C 
BRANCH   7  13
ATOM     13  N   UNL A   1      30.817  27.522  22.083  1.00  0.00    -0.282 N 
ATOM     14  H   UNL A   1      30.824  27.732  21.121  1.00  0.00     0.180 HD
BRANCH  13  15
ATOM     15  S   UNL A   1      29.708  28.306  23.112  1.00  0.00     0.236 S 
ATOM     16  O   UNL A   1      30.519  28.874  24.164  1.00  0.00    -0.206 OA
ATOM     17  O   UNL A   1      28.709  27.305  23.452  1.00  0.00    -0.206 OA
BRANCH  15  18
ATOM     18  C   UNL A   1      28.847  29.636  22.188  1.00  0.00     0.186 C 
BRANCH  18  19
ATOM     19  C   UNL A   1      27.664  30.165  22.956  1.00  0.00    -0.017 C 
ATOM     20  C   UNL A   1      27.567  31.409  23.446  1.00  0.00     0.005 C 
ENDBRANCH  18  19
ENDBRANCH  15  18
ENDBRANCH  13  15
ENDBRANCH   7  13
ENDBRANCH   3   6
ENDBRANCH   1   2
BRANCH   1  21
ATOM     21  C   UNL A   1      33.993  28.495  26.360  1.00  0.00     0.023 C 
BRANCH  21  22
ATOM     22  C   UNL A   1      34.464  29.318  27.546  1.00  0.00     0.023 C 
BRANCH  22  23
ATOM     23  C   UNL A   1      34.658  30.808  27.313  1.00  0.00     0.116 C 
BRANCH  23  24
ATOM     24  N   UNL A   1      35.241  31.568  28.408  1.00  0.00    -0.352 N 
ATOM     25  C   UNL A   1      36.260  31.232  29.294  1.00  0.00     0.251 C 
ATOM     26  H   UNL A   1      34.852  32.462  28.543  1.00  0.00     0.163 HD
ATOM     27  O   UNL A   1      36.540  31.997  30.200  1.00  0.00    -0.269 OA
BRANCH  25  28
ATOM     28  C   UNL A   1      37.117  30.029  29.062  1.00  0.00     0.039 A 
ATOM     29  C   UNL A   1      37.135  29.022  30.043  1.00  0.00     0.014 A 
ATOM     30  C   UNL A   1      38.043  29.974  28.034  1.00  0.00     0.014 A 
ATOM     31  C   UNL A   1      38.233  28.167  30.141  1.00  0.00     0.010 A 
ATOM     32  C   UNL A   1      39.195  29.252  28.213  1.00  0.00     0.010 A 
ATOM     33  C   UNL A   1      39.319  28.396  29.307  1.00  0.00    -0.014 A 
BRANCH  33  34
ATOM     34  C   UNL A   1      40.672  27.899  29.507  1.00  0.00     0.031 A 
ATOM     35  C   UNL A   1      41.046  26.572  28.986  1.00  0.00     0.074 A 
ATOM     36  C   UNL A   1      41.614  28.804  29.847  1.00  0.00     0.049 A 
ATOM     37  N   UNL A   1      42.198  26.020  29.145  1.00  0.00    -0.248 NA
ATOM     38  C   UNL A   1      40.110  25.734  28.248  1.00  0.00     0.031 C 
ATOM     39  C   UNL A   1      43.059  28.718  29.650  1.00  0.00     0.029 A 
ATOM     40  N   UNL A   1      41.445  29.946  30.646  1.00  0.00    -0.354 N 
ATOM     41  C   UNL A   1      42.265  24.930  28.307  1.00  0.00     0.074 A 
ATOM     42  C   UNL A   1      40.909  24.741  27.853  1.00  0.00     0.031 C 
ATOM     43  C   UNL A   1      43.661  29.533  30.531  1.00  0.00     0.029 A 
ATOM     44  C   UNL A   1      42.626  30.020  31.426  1.00  0.00     0.049 A 
ATOM     45  H   UNL A   1      40.674  30.558  30.662  1.00  0.00     0.167 HD
ATOM     46  C   UNL A   1      43.497  24.413  28.021  1.00  0.00     0.037 A 
ATOM     47  C   UNL A   1      42.562  29.744  32.764  1.00  0.00     0.037 A 
ATOM     48  C   UNL A   1      44.511  24.984  28.922  1.00  0.00     0.049 A 
ATOM     49  C   UNL A   1      43.331  28.506  33.194  1.00  0.00     0.074 A 
ATOM     50  C   UNL A   1      45.510  25.937  28.810  1.00  0.00     0.029 A 
ATOM     51  N   UNL A   1      44.361  24.759  30.280  1.00  0.00    -0.354 N 
ATOM     52  N   UNL A   1      43.956  27.696  32.383  1.00  0.00    -0.248 NA
ATOM     53  C   UNL A   1      43.369  28.036  34.579  1.00  0.00     0.031 C 
ATOM     54  C   UNL A   1      45.911  26.317  30.130  1.00  0.00     0.029 A 
ATOM     55  C   UNL A   1      45.169  25.582  31.038  1.00  0.00     0.049 A 
ATOM     56  H   UNL A   1      43.750  24.089  30.661  1.00  0.00     0.167 HD
ATOM     57  C   UNL A   1      44.408  26.609  33.080  1.00  0.00     0.074 A 
ATOM     58  C   UNL A   1      44.019  26.868  34.454  1.00  0.00     0.031 C 
ATOM     59  C   UNL A   1      45.031  25.549  32.486  1.00  0.00     0.037 A 
BRANCH  46  60
ATOM     60  C   UNL A   1      43.845  23.535  26.827  1.00  0.00     0.064 A 
ATOM     61  C   UNL A   1      43.336  22.217  26.747  1.00  0.00     0.173 A 
ATOM     62  C   UNL A   1      44.725  23.868  25.777  1.00  0.00     0.173 A 
ATOM     63  F   UNL A   1      42.435  21.761  27.625  1.00  0.00    -0.203 F 
ATOM     64  C   UNL A   1      43.736  21.307  25.759  1.00  0.00     0.198 A 
ATOM     65  C   UNL A   1      45.136  22.956  24.800  1.00  0.00     0.198 A 
ATOM     66  F   UNL A   1      45.215  25.095  25.611  1.00  0.00    -0.203 F 
ATOM     67  F   UNL A   1      43.231  20.065  25.758  1.00  0.00    -0.200 F 
ATOM     68  C   UNL A   1      44.652  21.670  24.797  1.00  0.00     0.200 A 
ATOM     69  F   UNL A   1      46.012  23.345  23.861  1.00  0.00    -0.200 F 
ATOM     70  F   UNL A   1      45.053  20.796  23.865  1.00  0.00    -0.200 F 
ENDBRANCH  46  60
BRANCH  47  71
ATOM     71  C   UNL A   1      41.272  30.199  33.362  1.00  0.00     0.064 A 
ATOM     72  C   UNL A   1      41.085  31.581  33.574  1.00  0.00     0.173 A 
ATOM     73  C   UNL A   1      40.129  29.391  33.335  1.00  0.00     0.173 A 
ATOM     74  F   UNL A   1      42.148  32.401  33.611  1.00  0.00    -0.203 F 
ATOM     75  C   UNL A   1      39.811  32.142  33.613  1.00  0.00     0.198 A 
ATOM     76  C   UNL A   1      38.855  29.956  33.403  1.00  0.00     0.198 A 
ATOM     77  F   UNL A   1      40.233  28.072  33.115  1.00  0.00    -0.203 F 
ATOM     78  F   UNL A   1      39.667  33.473  33.687  1.00  0.00    -0.200 F 
ATOM     79  C   UNL A   1      38.696  31.330  33.498  1.00  0.00     0.200 A 
ATOM     80  F   UNL A   1      37.775  29.172  33.268  1.00  0.00    -0.200 F 
ATOM     81  F   UNL A   1      37.471  31.871  33.434  1.00  0.00    -0.200 F 
ENDBRANCH  47  71
BRANCH  59  82
ATOM     82  C   UNL A   1      45.545  24.368  33.261  1.00  0.00     0.064 A 
ATOM     83  C   UNL A   1      44.727  23.268  33.569  1.00  0.00     0.173 A 
ATOM     84  C   UNL A   1      46.841  24.351  33.815  1.00  0.00     0.173 A 
ATOM     85  F   UNL A   1      43.458  23.216  33.138  1.00  0.00    -0.203 F 
ATOM     86  C   UNL A   1      45.194  22.201  34.339  1.00  0.00     0.198 A 
ATOM     87  C   UNL A   1      47.284  23.313  34.633  1.00  0.00     0.198 A 
ATOM     88  F   UNL A   1      47.728  25.323  33.555  1.00  0.00    -0.203 F 
ATOM     89  F   UNL A   1      44.401  21.143  34.559  1.00  0.00    -0.200 F 
ATOM     90  C   UNL A   1      46.466  22.230  34.883  1.00  0.00     0.200 A 
ATOM     91  F   UNL A   1      48.513  23.368  35.169  1.00  0.00    -0.200 F 
ATOM     92  F   UNL A   1      46.904  21.216  35.640  1.00  0.00    -0.200 F 
ENDBRANCH  59  82
ENDBRANCH  33  34
ENDBRANCH  25  28
ENDBRANCH  23  24
ENDBRANCH  22  23
ENDBRANCH  21  22
ENDBRANCH   1  21
TORSDOF 15
ENDMDL
MODEL 3
REMARK VINA RESULT:     -12.3      1.233      2.569
REMARK SMILES C=CCS(=O)(=O)Nc1ccc(C)cc1C(=O)NCCCCNC(=O)c1ccc(-c2c3nc(c(-c4c(F)c(F)c(F)c(F)c4F)c4ccc([nH]4)c(-c4c(F)c(F)c(F)c(F)c4F)c4nc(c(-c5c(F)c(F)c(F)c(F)c5F)c5ccc2[nH]5)C=C4)C=C3)cc1
REMARK SMILES IDX 18 1 17 2 15 3 16 4 14 6 8 7 9 8 10 9 13 10 11 11 12 12 7 13
REMARK SMILES IDX 4 15 5 16 6 17 3 18 2 19 1 20 19 21 20 22 21 23 22 24 23 25
REMARK SMILES IDX 24 27 25 28 26 29 87 30 27 31 86 32 28 33 29 34 30 35 80 36
REMARK SMILES IDX 31 37 85 38 79 39 81 40 32 41 84 42 78 43 77 44 33 46 65 47
REMARK SMILES IDX 45 48 64 49 46 50 49 51 63 52 82 53 47 54 48 55 62 57 83 58
REMARK SMILES IDX 50 59 34 60 35 61 43 62 36 63 37 64 41 65 44 66 38 67 39 68
REMARK SMILES IDX 42 69 40 70 66 71 67 72 75 73 68 74 69 75 73 76 76 77 70 78
REMARK SMILES IDX 71 79 74 80 72 81 51 82 52 83 60 84 53 85 54 86 58 87 61 88
REMARK SMILES IDX 55 89 56 90 59 91 57 92
REMARK H PARENT 17 5 7 14 22 26 81 45 49 56
REMARK Flexibility Score: inf
ROOT
ATOM      1  C   UNL A   1      33.912  28.782  25.217  1.00  0.00     0.116 C 
ENDROOT
BRANCH   1   2
ATOM      2  N   UNL A   1      34.224  28.589  23.825  1.00  0.00    -0.352 N 
ATOM      3  C   UNL A   1      33.543  27.890  22.860  1.00  0.00     0.253 C 
ATOM      4  O   UNL A   1      34.034  27.914  21.726  1.00  0.00    -0.269 OA
ATOM      5  H   UNL A   1      35.051  29.025  23.518  1.00  0.00     0.163 HD
BRANCH   3   6
ATOM      6  C   UNL A   1      32.297  27.071  23.062  1.00  0.00     0.064 A 
ATOM      7  C   UNL A   1      32.173  25.749  23.537  1.00  0.00     0.061 A 
ATOM      8  C   UNL A   1      30.920  25.299  23.984  1.00  0.00     0.028 A 
ATOM      9  C   UNL A   1      29.765  26.065  23.824  1.00  0.00     0.005 A 
ATOM     10  C   UNL A   1      31.107  27.826  22.902  1.00  0.00     0.019 A 
ATOM     11  C   UNL A   1      29.843  27.324  23.241  1.00  0.00    -0.050 A 
ATOM     12  C   UNL A   1      28.615  28.169  23.077  1.00  0.00     0.044 C 
BRANCH   7  13
ATOM     13  N   UNL A   1      33.278  24.851  23.723  1.00  0.00    -0.282 N 
ATOM     14  H   UNL A   1      33.832  24.919  24.534  1.00  0.00     0.180 HD
BRANCH  13  15
ATOM     15  S   UNL A   1      33.636  23.667  22.551  1.00  0.00     0.236 S 
ATOM     16  O   UNL A   1      35.049  23.412  22.705  1.00  0.00    -0.206 OA
ATOM     17  O   UNL A   1      33.148  24.202  21.289  1.00  0.00    -0.206 OA
BRANCH  15  18
ATOM     18  C   UNL A   1      32.675  22.145  22.901  1.00  0.00     0.186 C 
BRANCH  18  19
ATOM     19  C   UNL A   1      32.765  21.758  24.354  1.00  0.00    -0.017 C 
ATOM     20  C   UNL A   1      31.737  21.785  25.215  1.00  0.00     0.005 C 
ENDBRANCH  18  19
ENDBRANCH  15  18
ENDBRANCH  13  15
ENDBRANCH   7  13
ENDBRANCH   3   6
ENDBRANCH   1   2
BRANCH   1  21
ATOM     21  C   UNL A   1      32.781  29.756  25.523  1.00  0.00     0.023 C 
BRANCH  21  22
ATOM     22  C   UNL A   1      32.863  30.547  26.817  1.00  0.00     0.023 C 
BRANCH  22  23
ATOM     23  C   UNL A   1      34.001  30.200  27.762  1.00  0.00     0.116 C 
BRANCH  23  24
ATOM     24  N   UNL A   1      34.842  31.302  28.203  1.00  0.00    -0.352 N 
ATOM     25  C   UNL A   1      36.127  31.294  28.739  1.00  0.00     0.251 C 
ATOM     26  H   UNL A   1      34.438  32.194  28.108  1.00  0.00     0.163 HD
ATOM     27  O   UNL A   1      36.620  32.339  29.122  1.00  0.00    -0.269 OA
BRANCH  25  28
ATOM     28  C   UNL A   1      36.966  30.058  28.709  1.00  0.00     0.039 A 
ATOM     29  C   UNL A   1      37.004  29.246  29.857  1.00  0.00     0.014 A 
ATOM     30  C   UNL A   1      37.863  29.803  27.683  1.00  0.00     0.014 A 
ATOM     31  C   UNL A   1      38.097  28.409  30.080  1.00  0.00     0.010 A 
ATOM     32  C   UNL A   1      39.014  29.110  27.961  1.00  0.00     0.010 A 
ATOM     33  C   UNL A   1      39.161  28.467  29.190  1.00  0.00    -0.014 A 
BRANCH  33  34
ATOM     34  C   UNL A   1      40.515  27.997  29.442  1.00  0.00     0.031 A 
ATOM     35  C   UNL A   1      40.934  26.676  28.939  1.00  0.00     0.074 A 
ATOM     36  C   UNL A   1      41.426  28.921  29.815  1.00  0.00     0.049 A 
ATOM     37  N   UNL A   1      42.090  26.148  29.142  1.00  0.00    -0.248 NA
ATOM     38  C   UNL A   1      40.043  25.819  28.169  1.00  0.00     0.031 C 
ATOM     39  C   UNL A   1      42.878  28.862  29.673  1.00  0.00     0.029 A 
ATOM     40  N   UNL A   1      41.204  30.061  30.604  1.00  0.00    -0.354 N 
ATOM     41  C   UNL A   1      42.210  25.057  28.311  1.00  0.00     0.074 A 
ATOM     42  C   UNL A   1      40.875  24.841  27.807  1.00  0.00     0.031 C 
ATOM     43  C   UNL A   1      43.431  29.691  30.574  1.00  0.00     0.029 A 
ATOM     44  C   UNL A   1      42.354  30.160  31.428  1.00  0.00     0.049 A 
ATOM     45  H   UNL A   1      40.422  30.658  30.589  1.00  0.00     0.167 HD
ATOM     46  C   UNL A   1      43.461  24.565  28.072  1.00  0.00     0.037 A 
ATOM     47  C   UNL A   1      42.245  29.885  32.763  1.00  0.00     0.037 A 
ATOM     48  C   UNL A   1      44.429  25.157  29.009  1.00  0.00     0.049 A 
ATOM     49  C   UNL A   1      43.021  28.663  33.225  1.00  0.00     0.074 A 
ATOM     50  C   UNL A   1      45.413  26.129  28.933  1.00  0.00     0.029 A 
ATOM     51  N   UNL A   1      44.233  24.931  30.362  1.00  0.00    -0.354 N 
ATOM     52  N   UNL A   1      43.692  27.864  32.440  1.00  0.00    -0.248 NA
ATOM     53  C   UNL A   1      43.016  28.197  34.612  1.00  0.00     0.031 C 
ATOM     54  C   UNL A   1      45.757  26.519  30.266  1.00  0.00     0.029 A 
ATOM     55  C   UNL A   1      44.995  25.771  31.147  1.00  0.00     0.049 A 
ATOM     56  H   UNL A   1      43.621  24.250  30.721  1.00  0.00     0.167 HD
ATOM     57  C   UNL A   1      44.138  26.787  33.157  1.00  0.00     0.074 A 
ATOM     58  C   UNL A   1      43.693  27.041  34.514  1.00  0.00     0.031 C 
ATOM     59  C   UNL A   1      44.804  25.738  32.589  1.00  0.00     0.037 A 
BRANCH  46  60
ATOM     60  C   UNL A   1      43.871  23.691  26.895  1.00  0.00     0.064 A 
ATOM     61  C   UNL A   1      43.386  22.365  26.796  1.00  0.00     0.173 A 
ATOM     62  C   UNL A   1      44.787  24.037  25.880  1.00  0.00     0.173 A 
ATOM     63  F   UNL A   1      42.457  21.895  27.638  1.00  0.00    -0.203 F 
ATOM     64  C   UNL A   1      43.840  21.461  25.826  1.00  0.00     0.198 A 
ATOM     65  C   UNL A   1      45.252  23.131  24.922  1.00  0.00     0.198 A 
ATOM     66  F   UNL A   1      45.263  25.272  25.732  1.00  0.00    -0.203 F 
ATOM     67  F   UNL A   1      43.355  20.211  25.806  1.00  0.00    -0.200 F 
ATOM     68  C   UNL A   1      44.789  21.837  24.901  1.00  0.00     0.200 A 
ATOM     69  F   UNL A   1      46.158  23.533  24.018  1.00  0.00    -0.200 F 
ATOM     70  F   UNL A   1      45.240  20.969  23.988  1.00  0.00    -0.200 F 
ENDBRANCH  46  60
BRANCH  47  71
ATOM     71  C   UNL A   1      40.924  30.316  33.311  1.00  0.00     0.064 A 
ATOM     72  C   UNL A   1      40.680  31.697  33.453  1.00  0.00     0.173 A 
ATOM     73  C   UNL A   1      39.815  29.462  33.298  1.00  0.00     0.173 A 
ATOM     74  F   UNL A   1      41.709  32.560  33.474  1.00  0.00    -0.203 F 
ATOM     75  C   UNL A   1      39.384  32.209  33.438  1.00  0.00     0.198 A 
ATOM     76  C   UNL A   1      38.519  29.979  33.312  1.00  0.00     0.198 A 
ATOM     77  F   UNL A   1      39.974  28.140  33.143  1.00  0.00    -0.203 F 
ATOM     78  F   UNL A   1      39.187  33.535  33.446  1.00  0.00    -0.200 F 
ATOM     79  C   UNL A   1      38.305  31.349  33.338  1.00  0.00     0.200 A 
ATOM     80  F   UNL A   1      37.473  29.147  33.191  1.00  0.00    -0.200 F 
ATOM     81  F   UNL A   1      37.061  31.837  33.223  1.00  0.00    -0.200 F 
ENDBRANCH  47  71
BRANCH  59  82
ATOM     82  C   UNL A   1      45.311  24.569  33.386  1.00  0.00     0.064 A 
ATOM     83  C   UNL A   1      46.645  24.484  33.816  1.00  0.00     0.173 A 
ATOM     84  C   UNL A   1      44.502  23.443  33.648  1.00  0.00     0.173 A 
ATOM     85  F   UNL A   1      47.510  25.478  33.565  1.00  0.00    -0.203 F 
ATOM     86  C   UNL A   1      47.123  23.368  34.506  1.00  0.00     0.198 A 
ATOM     87  C   UNL A   1      44.997  22.306  34.282  1.00  0.00     0.198 A 
ATOM     88  F   UNL A   1      43.200  23.425  33.325  1.00  0.00    -0.203 F 
ATOM     89  F   UNL A   1      48.386  23.353  34.952  1.00  0.00    -0.200 F 
ATOM     90  C   UNL A   1      46.304  22.274  34.726  1.00  0.00     0.200 A 
ATOM     91  F   UNL A   1      44.196  21.247  34.469  1.00  0.00    -0.200 F 
ATOM     92  F   UNL A   1      46.771  21.195  35.367  1.00  0.00    -0.200 F 
ENDBRANCH  59  82
ENDBRANCH  33  34
ENDBRANCH  25  28
ENDBRANCH  23  24
ENDBRANCH  22  23
ENDBRANCH  21  22
ENDBRANCH   1  21
TORSDOF 15
ENDMDL
