MODEL 1
REMARK VINA RESULT:     -13.9      0.000      0.000
REMARK SMILES O=C(NCCCCNC(=O)[C@@H]1[C@@H](C(=O)Nc2nc(-c3ccc(F)cc3)cs2)[C@H]2C=C[C@@H]1O2)c1ccc(-c2c3nc(c(-c4c(F)c(F)c(F)c(F)c4F)c4ccc([nH]4)c(-c4c(F)c(F)c(F)c(F)c4F)c4nc(c(-c5c(F)c(F)c(F)c(F)c5F)c5ccc2[nH]5)C=C4)C=C3)cc1
REMARK SMILES IDX 6 1 5 2 4 3 3 4 1 5 2 6 33 8 34 9 95 10 35 11 94 12 36 13
REMARK SMILES IDX 37 14 38 15 88 16 39 17 93 18 87 19 89 20 40 21 92 22 86 23
REMARK SMILES IDX 85 24 41 26 73 27 53 28 72 29 54 30 57 31 71 32 90 33 55 34
REMARK SMILES IDX 56 35 70 37 91 38 58 39 42 40 43 41 51 42 44 43 45 44 49 45
REMARK SMILES IDX 52 46 46 47 47 48 50 49 48 50 74 51 75 52 83 53 76 54 77 55
REMARK SMILES IDX 81 56 84 57 78 58 79 59 82 60 80 61 59 62 60 63 68 64 61 65
REMARK SMILES IDX 62 66 66 67 69 68 63 69 64 70 67 71 65 72 7 73 8 74 9 75
REMARK SMILES IDX 10 77 11 78 12 79 31 80 28 81 30 82 32 83 29 84 13 85 14 86
REMARK SMILES IDX 15 87 16 89 17 90 27 91 18 92 26 93 19 94 20 95 25 96 21 97
REMARK SMILES IDX 24 98 22 99 23 100
REMARK H PARENT 3 7 89 25 57 36 8 76 15 88
REMARK Flexibility Score: inf
ROOT
ATOM      1  C   UNL A   1      31.583  30.739  26.322  1.00  0.00     0.023 C 
ENDROOT
BRANCH   1   2
ATOM      2  C   UNL A   1      31.447  32.234  26.625  1.00  0.00     0.023 C 
BRANCH   2   3
ATOM      3  C   UNL A   1      32.618  32.832  27.391  1.00  0.00     0.116 C 
BRANCH   3   4
ATOM      4  N   UNL A   1      32.413  34.238  27.690  1.00  0.00    -0.352 N 
ATOM      5  O   UNL A   1      32.647  36.127  28.906  1.00  0.00    -0.269 OA
ATOM      6  C   UNL A   1      33.037  34.999  28.648  1.00  0.00     0.251 C 
ATOM      7  H   UNL A   1      31.745  34.704  27.136  1.00  0.00     0.163 HD
BRANCH   6   8
ATOM      8  C   UNL A   1      34.185  34.421  29.376  1.00  0.00     0.039 A 
ATOM      9  C   UNL A   1      33.983  33.721  30.569  1.00  0.00     0.014 A 
ATOM     10  C   UNL A   1      35.469  34.575  28.849  1.00  0.00     0.014 A 
ATOM     11  C   UNL A   1      35.076  33.242  31.280  1.00  0.00     0.010 A 
ATOM     12  C   UNL A   1      36.561  34.034  29.530  1.00  0.00     0.010 A 
ATOM     13  C   UNL A   1      36.370  33.367  30.749  1.00  0.00    -0.014 A 
BRANCH  13  14
ATOM     14  C   UNL A   1      37.494  32.667  31.414  1.00  0.00     0.031 A 
ATOM     15  C   UNL A   1      38.186  31.504  30.768  1.00  0.00     0.074 A 
ATOM     16  C   UNL A   1      37.873  33.103  32.630  1.00  0.00     0.049 A 
ATOM     17  N   UNL A   1      39.163  30.771  31.238  1.00  0.00    -0.248 NA
ATOM     18  C   UNL A   1      37.727  31.107  29.428  1.00  0.00     0.031 C 
ATOM     19  C   UNL A   1      37.251  34.216  33.352  1.00  0.00     0.029 A 
ATOM     20  N   UNL A   1      38.866  32.676  33.473  1.00  0.00    -0.354 N 
ATOM     21  C   UNL A   1      39.428  29.821  30.262  1.00  0.00     0.074 A 
ATOM     22  C   UNL A   1      38.501  30.058  29.176  1.00  0.00     0.031 C 
ATOM     23  C   UNL A   1      37.891  34.401  34.515  1.00  0.00     0.029 A 
ATOM     24  C   UNL A   1      38.926  33.383  34.649  1.00  0.00     0.049 A 
ATOM     25  H   UNL A   1      39.476  31.933  33.257  1.00  0.00     0.167 HD
ATOM     26  C   UNL A   1      40.369  28.848  30.281  1.00  0.00     0.037 A 
ATOM     27  C   UNL A   1      39.708  33.214  35.730  1.00  0.00     0.037 A 
ATOM     28  C   UNL A   1      41.303  28.643  31.358  1.00  0.00     0.049 A 
ATOM     29  C   UNL A   1      40.717  32.104  35.730  1.00  0.00     0.074 A 
ATOM     30  C   UNL A   1      42.341  27.729  31.431  1.00  0.00     0.029 A 
ATOM     31  N   UNL A   1      41.309  29.354  32.547  1.00  0.00    -0.354 N 
ATOM     32  N   UNL A   1      40.989  31.242  34.782  1.00  0.00    -0.248 NA
ATOM     33  C   UNL A   1      41.519  31.933  36.949  1.00  0.00     0.031 C 
ATOM     34  C   UNL A   1      42.945  27.855  32.685  1.00  0.00     0.029 A 
ATOM     35  C   UNL A   1      42.311  28.874  33.377  1.00  0.00     0.049 A 
ATOM     36  H   UNL A   1      40.695  30.089  32.771  1.00  0.00     0.167 HD
ATOM     37  C   UNL A   1      41.988  30.424  35.286  1.00  0.00     0.074 A 
ATOM     38  C   UNL A   1      42.295  30.910  36.616  1.00  0.00     0.031 C 
ATOM     39  C   UNL A   1      42.590  29.362  34.703  1.00  0.00     0.037 A 
BRANCH  26  40
ATOM     40  C   UNL A   1      40.460  27.917  29.110  1.00  0.00     0.064 A 
ATOM     41  C   UNL A   1      41.219  28.273  27.984  1.00  0.00     0.173 A 
ATOM     42  C   UNL A   1      39.689  26.751  29.042  1.00  0.00     0.173 A 
ATOM     43  F   UNL A   1      41.966  29.387  27.997  1.00  0.00    -0.203 F 
ATOM     44  C   UNL A   1      41.180  27.505  26.823  1.00  0.00     0.198 A 
ATOM     45  C   UNL A   1      39.666  25.975  27.885  1.00  0.00     0.198 A 
ATOM     46  F   UNL A   1      38.949  26.368  30.094  1.00  0.00    -0.203 F 
ATOM     47  F   UNL A   1      41.879  27.887  25.744  1.00  0.00    -0.200 F 
ATOM     48  C   UNL A   1      40.401  26.360  26.773  1.00  0.00     0.200 A 
ATOM     49  F   UNL A   1      38.920  24.862  27.841  1.00  0.00    -0.200 F 
ATOM     50  F   UNL A   1      40.353  25.628  25.651  1.00  0.00    -0.200 F 
ENDBRANCH  26  40
BRANCH  27  51
ATOM     51  C   UNL A   1      39.535  34.107  36.904  1.00  0.00     0.064 A 
ATOM     52  C   UNL A   1      40.172  35.357  36.962  1.00  0.00     0.173 A 
ATOM     53  C   UNL A   1      38.766  33.714  38.004  1.00  0.00     0.173 A 
ATOM     54  F   UNL A   1      40.925  35.775  35.934  1.00  0.00    -0.203 F 
ATOM     55  C   UNL A   1      40.063  36.168  38.087  1.00  0.00     0.198 A 
ATOM     56  C   UNL A   1      38.634  34.539  39.119  1.00  0.00     0.198 A 
ATOM     57  F   UNL A   1      38.124  32.536  37.986  1.00  0.00    -0.203 F 
ATOM     58  F   UNL A   1      40.714  37.338  38.134  1.00  0.00    -0.200 F 
ATOM     59  C   UNL A   1      39.290  35.760  39.164  1.00  0.00     0.200 A 
ATOM     60  F   UNL A   1      37.868  34.152  40.149  1.00  0.00    -0.200 F 
ATOM     61  F   UNL A   1      39.176  36.546  40.244  1.00  0.00    -0.200 F 
ENDBRANCH  27  51
BRANCH  39  62
ATOM     62  C   UNL A   1      43.629  28.636  35.500  1.00  0.00     0.064 A 
ATOM     63  C   UNL A   1      44.991  28.917  35.324  1.00  0.00     0.173 A 
ATOM     64  C   UNL A   1      43.274  27.607  36.383  1.00  0.00     0.173 A 
ATOM     65  F   UNL A   1      45.378  29.890  34.484  1.00  0.00    -0.203 F 
ATOM     66  C   UNL A   1      45.963  28.179  35.991  1.00  0.00     0.198 A 
ATOM     67  C   UNL A   1      44.248  26.887  37.067  1.00  0.00     0.198 A 
ATOM     68  F   UNL A   1      41.981  27.315  36.594  1.00  0.00    -0.203 F 
ATOM     69  F   UNL A   1      47.261  28.442  35.783  1.00  0.00    -0.200 F 
ATOM     70  C   UNL A   1      45.592  27.166  36.862  1.00  0.00     0.200 A 
ATOM     71  F   UNL A   1      43.887  25.923  37.924  1.00  0.00    -0.200 F 
ATOM     72  F   UNL A   1      46.530  26.459  37.508  1.00  0.00    -0.200 F 
ENDBRANCH  39  62
ENDBRANCH  13  14
ENDBRANCH   6   8
ENDBRANCH   3   4
ENDBRANCH   2   3
ENDBRANCH   1   2
BRANCH   1  73
ATOM     73  C   UNL A   1      32.972  30.169  26.600  1.00  0.00     0.116 C 
BRANCH  73  74
ATOM     74  N   UNL A   1      33.586  29.700  25.371  1.00  0.00    -0.356 N 
ATOM     75  C   UNL A   1      33.217  28.684  24.545  1.00  0.00     0.227 C 
ATOM     76  H   UNL A   1      34.393  30.192  25.093  1.00  0.00     0.163 HD
ATOM     77  O   UNL A   1      34.037  28.301  23.712  1.00  0.00    -0.275 OA
BRANCH  75  78
ATOM     78  C   UNL A   1      31.812  28.147  24.632  1.00  0.00     0.127 C 
ATOM     79  C   UNL A   1      31.733  26.582  24.742  1.00  0.00     0.127 C 
ATOM     80  C   UNL A   1      31.121  28.426  23.288  1.00  0.00     0.155 C 
ATOM     81  C   UNL A   1      30.827  26.288  23.538  1.00  0.00     0.155 C 
ATOM     82  C   UNL A   1      29.646  28.246  23.474  1.00  0.00     0.004 C 
ATOM     83  O   UNL A   1      31.405  27.208  22.565  1.00  0.00    -0.365 OA
ATOM     84  C   UNL A   1      29.466  26.931  23.638  1.00  0.00     0.004 C 
BRANCH  79  85
ATOM     85  C   UNL A   1      31.378  26.230  26.189  1.00  0.00     0.233 C 
ATOM     86  O   UNL A   1      30.869  27.119  26.893  1.00  0.00    -0.274 OA
ATOM     87  N   UNL A   1      31.487  25.025  26.791  1.00  0.00    -0.302 N 
ATOM     88  H   UNL A   1      30.974  24.915  27.624  1.00  0.00     0.172 HD
BRANCH  87  89
ATOM     89  C   UNL A   1      32.212  23.950  26.399  1.00  0.00     0.189 A 
ATOM     90  N   UNL A   1      33.500  23.782  26.465  1.00  0.00    -0.220 NA
ATOM     91  S   UNL A   1      31.315  22.683  25.691  1.00  0.00    -0.105 S 
ATOM     92  C   UNL A   1      33.849  22.653  25.755  1.00  0.00     0.084 A 
ATOM     93  C   UNL A   1      32.796  21.933  25.227  1.00  0.00     0.097 A 
BRANCH  92  94
ATOM     94  C   UNL A   1      35.244  22.344  25.543  1.00  0.00     0.001 A 
ATOM     95  C   UNL A   1      35.623  21.048  25.181  1.00  0.00     0.013 A 
ATOM     96  C   UNL A   1      36.224  23.309  25.823  1.00  0.00     0.013 A 
ATOM     97  C   UNL A   1      36.977  20.719  25.091  1.00  0.00     0.040 A 
ATOM     98  C   UNL A   1      37.576  22.974  25.740  1.00  0.00     0.040 A 
ATOM     99  C   UNL A   1      37.939  21.683  25.374  1.00  0.00     0.123 A 
ATOM    100  F   UNL A   1      39.236  21.359  25.307  1.00  0.00    -0.207 F 
ENDBRANCH  92  94
ENDBRANCH  87  89
ENDBRANCH  79  85
ENDBRANCH  75  78
ENDBRANCH  73  74
ENDBRANCH   1  73
TORSDOF 14
ENDMDL
MODEL 2
REMARK VINA RESULT:     -13.8      1.254      1.931
REMARK SMILES O=C(NCCCCNC(=O)[C@@H]1[C@@H](C(=O)Nc2nc(-c3ccc(F)cc3)cs2)[C@H]2C=C[C@@H]1O2)c1ccc(-c2c3nc(c(-c4c(F)c(F)c(F)c(F)c4F)c4ccc([nH]4)c(-c4c(F)c(F)c(F)c(F)c4F)c4nc(c(-c5c(F)c(F)c(F)c(F)c5F)c5ccc2[nH]5)C=C4)C=C3)cc1
REMARK SMILES IDX 6 1 5 2 4 3 3 4 1 5 2 6 33 8 34 9 95 10 35 11 94 12 36 13
REMARK SMILES IDX 37 14 38 15 88 16 39 17 93 18 87 19 89 20 40 21 92 22 86 23
REMARK SMILES IDX 85 24 41 26 73 27 53 28 72 29 54 30 57 31 71 32 90 33 55 34
REMARK SMILES IDX 56 35 70 37 91 38 58 39 42 40 43 41 51 42 44 43 45 44 49 45
REMARK SMILES IDX 52 46 46 47 47 48 50 49 48 50 74 51 75 52 83 53 76 54 77 55
REMARK SMILES IDX 81 56 84 57 78 58 79 59 82 60 80 61 59 62 60 63 68 64 61 65
REMARK SMILES IDX 62 66 66 67 69 68 63 69 64 70 67 71 65 72 7 73 8 74 9 75
REMARK SMILES IDX 10 77 11 78 12 79 31 80 28 81 30 82 32 83 29 84 13 85 14 86
REMARK SMILES IDX 15 87 16 89 17 90 27 91 18 92 26 93 19 94 20 95 25 96 21 97
REMARK SMILES IDX 24 98 22 99 23 100
REMARK H PARENT 3 7 89 25 57 36 8 76 15 88
REMARK Flexibility Score: inf
ROOT
ATOM      1  C   UNL A   1      31.622  30.780  26.126  1.00  0.00     0.023 C 
ENDROOT
BRANCH   1   2
ATOM      2  C   UNL A   1      31.403  32.163  26.746  1.00  0.00     0.023 C 
BRANCH   2   3
ATOM      3  C   UNL A   1      32.652  32.791  27.347  1.00  0.00     0.116 C 
BRANCH   3   4
ATOM      4  N   UNL A   1      32.472  34.204  27.626  1.00  0.00    -0.352 N 
ATOM      5  O   UNL A   1      32.739  36.106  28.816  1.00  0.00    -0.269 OA
ATOM      6  C   UNL A   1      33.109  34.968  28.574  1.00  0.00     0.251 C 
ATOM      7  H   UNL A   1      31.813  34.674  27.066  1.00  0.00     0.163 HD
BRANCH   6   8
ATOM      8  C   UNL A   1      34.247  34.380  29.310  1.00  0.00     0.039 A 
ATOM      9  C   UNL A   1      34.027  33.657  30.487  1.00  0.00     0.014 A 
ATOM     10  C   UNL A   1      35.539  34.547  28.808  1.00  0.00     0.014 A 
ATOM     11  C   UNL A   1      35.110  33.167  31.206  1.00  0.00     0.010 A 
ATOM     12  C   UNL A   1      36.622  33.997  29.497  1.00  0.00     0.010 A 
ATOM     13  C   UNL A   1      36.413  33.306  30.700  1.00  0.00    -0.014 A 
BRANCH  13  14
ATOM     14  C   UNL A   1      37.527  32.597  31.370  1.00  0.00     0.031 A 
ATOM     15  C   UNL A   1      38.218  31.434  30.725  1.00  0.00     0.074 A 
ATOM     16  C   UNL A   1      37.899  33.026  32.592  1.00  0.00     0.049 A 
ATOM     17  N   UNL A   1      39.188  30.694  31.199  1.00  0.00    -0.248 NA
ATOM     18  C   UNL A   1      37.768  31.046  29.379  1.00  0.00     0.031 C 
ATOM     19  C   UNL A   1      37.277  34.139  33.314  1.00  0.00     0.029 A 
ATOM     20  N   UNL A   1      38.883  32.590  33.440  1.00  0.00    -0.354 N 
ATOM     21  C   UNL A   1      39.456  29.746  30.221  1.00  0.00     0.074 A 
ATOM     22  C   UNL A   1      38.538  29.994  29.128  1.00  0.00     0.031 C 
ATOM     23  C   UNL A   1      37.909  34.315  34.482  1.00  0.00     0.029 A 
ATOM     24  C   UNL A   1      38.938  33.291  34.620  1.00  0.00     0.049 A 
ATOM     25  H   UNL A   1      39.491  31.845  33.226  1.00  0.00     0.167 HD
ATOM     26  C   UNL A   1      40.391  28.768  30.242  1.00  0.00     0.037 A 
ATOM     27  C   UNL A   1      39.710  33.113  35.707  1.00  0.00     0.037 A 
ATOM     28  C   UNL A   1      41.315  28.554  31.326  1.00  0.00     0.049 A 
ATOM     29  C   UNL A   1      40.714  31.998  35.709  1.00  0.00     0.074 A 
ATOM     30  C   UNL A   1      42.348  27.634  31.403  1.00  0.00     0.029 A 
ATOM     31  N   UNL A   1      41.316  29.259  32.519  1.00  0.00    -0.354 N 
ATOM     32  N   UNL A   1      40.988  31.138  34.759  1.00  0.00    -0.248 NA
ATOM     33  C   UNL A   1      41.504  31.817  36.934  1.00  0.00     0.031 C 
ATOM     34  C   UNL A   1      42.943  27.751  32.662  1.00  0.00     0.029 A 
ATOM     35  C   UNL A   1      42.308  28.771  33.354  1.00  0.00     0.049 A 
ATOM     36  H   UNL A   1      40.704  29.997  32.740  1.00  0.00     0.167 HD
ATOM     37  C   UNL A   1      41.979  30.313  35.268  1.00  0.00     0.074 A 
ATOM     38  C   UNL A   1      42.278  30.791  36.602  1.00  0.00     0.031 C 
ATOM     39  C   UNL A   1      42.579  29.250  34.684  1.00  0.00     0.037 A 
BRANCH  26  40
ATOM     40  C   UNL A   1      40.486  27.843  29.068  1.00  0.00     0.064 A 
ATOM     41  C   UNL A   1      41.282  28.185  27.963  1.00  0.00     0.173 A 
ATOM     42  C   UNL A   1      39.687  26.697  28.974  1.00  0.00     0.173 A 
ATOM     43  F   UNL A   1      42.057  29.279  28.001  1.00  0.00    -0.203 F 
ATOM     44  C   UNL A   1      41.251  27.426  26.796  1.00  0.00     0.198 A 
ATOM     45  C   UNL A   1      39.672  25.929  27.812  1.00  0.00     0.198 A 
ATOM     46  F   UNL A   1      38.913  26.328  30.006  1.00  0.00    -0.203 F 
ATOM     47  F   UNL A   1      41.986  27.796  25.737  1.00  0.00    -0.200 F 
ATOM     48  C   UNL A   1      40.444  26.301  26.720  1.00  0.00     0.200 A 
ATOM     49  F   UNL A   1      38.900  24.836  27.742  1.00  0.00    -0.200 F 
ATOM     50  F   UNL A   1      40.404  25.578  25.593  1.00  0.00    -0.200 F 
ENDBRANCH  26  40
BRANCH  27  51
ATOM     51  C   UNL A   1      39.533  34.001  36.883  1.00  0.00     0.064 A 
ATOM     52  C   UNL A   1      40.191  35.239  36.961  1.00  0.00     0.173 A 
ATOM     53  C   UNL A   1      38.737  33.615  37.967  1.00  0.00     0.173 A 
ATOM     54  F   UNL A   1      40.969  35.650  35.949  1.00  0.00    -0.203 F 
ATOM     55  C   UNL A   1      40.076  36.044  38.089  1.00  0.00     0.198 A 
ATOM     56  C   UNL A   1      38.600  34.436  39.085  1.00  0.00     0.198 A 
ATOM     57  F   UNL A   1      38.074  32.450  37.930  1.00  0.00    -0.203 F 
ATOM     58  F   UNL A   1      40.748  37.203  38.155  1.00  0.00    -0.200 F 
ATOM     59  C   UNL A   1      39.277  35.644  39.150  1.00  0.00     0.200 A 
ATOM     60  F   UNL A   1      37.809  34.056  40.098  1.00  0.00    -0.200 F 
ATOM     61  F   UNL A   1      39.158  36.425  40.232  1.00  0.00    -0.200 F 
ENDBRANCH  27  51
BRANCH  39  62
ATOM     62  C   UNL A   1      43.608  28.515  35.486  1.00  0.00     0.064 A 
ATOM     63  C   UNL A   1      43.229  27.511  36.388  1.00  0.00     0.173 A 
ATOM     64  C   UNL A   1      44.964  28.861  35.413  1.00  0.00     0.173 A 
ATOM     65  F   UNL A   1      41.941  27.151  36.496  1.00  0.00    -0.203 F 
ATOM     66  C   UNL A   1      44.170  26.894  37.205  1.00  0.00     0.198 A 
ATOM     67  C   UNL A   1      45.907  28.224  36.214  1.00  0.00     0.198 A 
ATOM     68  F   UNL A   1      45.374  29.805  34.552  1.00  0.00    -0.203 F 
ATOM     69  F   UNL A   1      43.782  25.960  38.085  1.00  0.00    -0.200 F 
ATOM     70  C   UNL A   1      45.507  27.249  37.117  1.00  0.00     0.200 A 
ATOM     71  F   UNL A   1      47.202  28.554  36.113  1.00  0.00    -0.200 F 
ATOM     72  F   UNL A   1      46.414  26.649  37.901  1.00  0.00    -0.200 F 
ENDBRANCH  39  62
ENDBRANCH  13  14
ENDBRANCH   6   8
ENDBRANCH   3   4
ENDBRANCH   2   3
ENDBRANCH   1   2
BRANCH   1  73
ATOM     73  C   UNL A   1      32.932  30.112  26.537  1.00  0.00     0.116 C 
BRANCH  73  74
ATOM     74  N   UNL A   1      33.650  29.636  25.367  1.00  0.00    -0.356 N 
ATOM     75  C   UNL A   1      33.453  28.516  24.621  1.00  0.00     0.227 C 
ATOM     76  H   UNL A   1      34.392  30.212  25.070  1.00  0.00     0.163 HD
ATOM     77  O   UNL A   1      34.348  28.186  23.844  1.00  0.00    -0.275 OA
BRANCH  75  78
ATOM     78  C   UNL A   1      32.132  27.798  24.717  1.00  0.00     0.127 C 
ATOM     79  C   UNL A   1      32.247  26.235  24.612  1.00  0.00     0.127 C 
ATOM     80  C   UNL A   1      31.312  28.160  23.469  1.00  0.00     0.155 C 
ATOM     81  C   UNL A   1      31.292  25.988  23.435  1.00  0.00     0.155 C 
ATOM     82  C   UNL A   1      29.887  27.771  23.716  1.00  0.00     0.004 C 
ATOM     83  O   UNL A   1      31.681  27.094  22.567  1.00  0.00    -0.365 OA
ATOM     84  C   UNL A   1      29.877  26.435  23.706  1.00  0.00     0.004 C 
BRANCH  79  85
ATOM     85  C   UNL A   1      32.048  25.654  26.014  1.00  0.00     0.233 C 
ATOM     86  O   UNL A   1      31.533  26.386  26.876  1.00  0.00    -0.274 OA
ATOM     87  N   UNL A   1      32.306  24.392  26.424  1.00  0.00    -0.302 N 
ATOM     88  H   UNL A   1      31.877  24.121  27.268  1.00  0.00     0.172 HD
BRANCH  87  89
ATOM     89  C   UNL A   1      33.078  23.453  25.827  1.00  0.00     0.189 A 
ATOM     90  N   UNL A   1      32.712  22.304  25.338  1.00  0.00    -0.220 NA
ATOM     91  S   UNL A   1      34.743  23.816  25.752  1.00  0.00    -0.105 S 
ATOM     92  C   UNL A   1      33.833  21.563  25.031  1.00  0.00     0.084 A 
ATOM     93  C   UNL A   1      35.041  22.204  25.219  1.00  0.00     0.097 A 
BRANCH  92  94
ATOM     94  C   UNL A   1      33.688  20.184  24.624  1.00  0.00     0.001 A 
ATOM     95  C   UNL A   1      34.752  19.292  24.798  1.00  0.00     0.013 A 
ATOM     96  C   UNL A   1      32.533  19.774  23.942  1.00  0.00     0.013 A 
ATOM     97  C   UNL A   1      34.656  17.992  24.299  1.00  0.00     0.040 A 
ATOM     98  C   UNL A   1      32.445  18.476  23.438  1.00  0.00     0.040 A 
ATOM     99  C   UNL A   1      33.506  17.598  23.621  1.00  0.00     0.123 A 
ATOM    100  F   UNL A   1      33.427  16.357  23.126  1.00  0.00    -0.207 F 
ENDBRANCH  92  94
ENDBRANCH  87  89
ENDBRANCH  79  85
ENDBRANCH  75  78
ENDBRANCH  73  74
ENDBRANCH   1  73
TORSDOF 14
ENDMDL
MODEL 3
REMARK VINA RESULT:     -13.8      1.534      2.444
REMARK SMILES O=C(NCCCCNC(=O)[C@@H]1[C@@H](C(=O)Nc2nc(-c3ccc(F)cc3)cs2)[C@H]2C=C[C@@H]1O2)c1ccc(-c2c3nc(c(-c4c(F)c(F)c(F)c(F)c4F)c4ccc([nH]4)c(-c4c(F)c(F)c(F)c(F)c4F)c4nc(c(-c5c(F)c(F)c(F)c(F)c5F)c5ccc2[nH]5)C=C4)C=C3)cc1
REMARK SMILES IDX 6 1 5 2 4 3 3 4 1 5 2 6 33 8 34 9 95 10 35 11 94 12 36 13
REMARK SMILES IDX 37 14 38 15 88 16 39 17 93 18 87 19 89 20 40 21 92 22 86 23
REMARK SMILES IDX 85 24 41 26 73 27 53 28 72 29 54 30 57 31 71 32 90 33 55 34
REMARK SMILES IDX 56 35 70 37 91 38 58 39 42 40 43 41 51 42 44 43 45 44 49 45
REMARK SMILES IDX 52 46 46 47 47 48 50 49 48 50 74 51 75 52 83 53 76 54 77 55
REMARK SMILES IDX 81 56 84 57 78 58 79 59 82 60 80 61 59 62 60 63 68 64 61 65
REMARK SMILES IDX 62 66 66 67 69 68 63 69 64 70 67 71 65 72 7 73 8 74 9 75
REMARK SMILES IDX 10 77 11 78 12 79 31 80 28 81 30 82 32 83 29 84 13 85 14 86
REMARK SMILES IDX 15 87 16 89 17 90 27 91 18 92 26 93 19 94 20 95 25 96 21 97
REMARK SMILES IDX 24 98 22 99 23 100
REMARK H PARENT 3 7 89 25 57 36 8 76 15 88
REMARK Flexibility Score: inf
ROOT
ATOM      1  C   UNL A   1      31.776  30.185  26.436  1.00  0.00     0.023 C 
ENDROOT
BRANCH   1   2
ATOM      2  C   UNL A   1      31.593  31.701  26.550  1.00  0.00     0.023 C 
BRANCH   2   3
ATOM      3  C   UNL A   1      32.819  32.449  27.055  1.00  0.00     0.116 C 
BRANCH   3   4
ATOM      4  N   UNL A   1      32.502  33.809  27.454  1.00  0.00    -0.352 N 
ATOM      5  O   UNL A   1      32.566  35.608  28.818  1.00  0.00    -0.269 OA
ATOM      6  C   UNL A   1      33.045  34.536  28.486  1.00  0.00     0.251 C 
ATOM      7  H   UNL A   1      31.814  34.266  26.920  1.00  0.00     0.163 HD
BRANCH   6   8
ATOM      8  C   UNL A   1      34.217  33.988  29.199  1.00  0.00     0.039 A 
ATOM      9  C   UNL A   1      34.043  33.070  30.239  1.00  0.00     0.014 A 
ATOM     10  C   UNL A   1      35.496  34.392  28.811  1.00  0.00     0.014 A 
ATOM     11  C   UNL A   1      35.148  32.615  30.948  1.00  0.00     0.010 A 
ATOM     12  C   UNL A   1      36.611  33.882  29.480  1.00  0.00     0.010 A 
ATOM     13  C   UNL A   1      36.442  32.992  30.552  1.00  0.00    -0.014 A 
BRANCH  13  14
ATOM     14  C   UNL A   1      37.610  32.334  31.182  1.00  0.00     0.031 A 
ATOM     15  C   UNL A   1      38.345  31.220  30.499  1.00  0.00     0.074 A 
ATOM     16  C   UNL A   1      37.991  32.762  32.400  1.00  0.00     0.049 A 
ATOM     17  N   UNL A   1      39.364  30.525  30.934  1.00  0.00    -0.248 NA
ATOM     18  C   UNL A   1      37.880  30.830  29.158  1.00  0.00     0.031 C 
ATOM     19  C   UNL A   1      37.330  33.829  33.157  1.00  0.00     0.029 A 
ATOM     20  N   UNL A   1      39.019  32.366  33.216  1.00  0.00    -0.354 N 
ATOM     21  C   UNL A   1      39.657  29.610  29.934  1.00  0.00     0.074 A 
ATOM     22  C   UNL A   1      38.699  29.825  28.870  1.00  0.00     0.031 C 
ATOM     23  C   UNL A   1      37.982  34.019  34.312  1.00  0.00     0.029 A 
ATOM     24  C   UNL A   1      39.067  33.050  34.406  1.00  0.00     0.049 A 
ATOM     25  H   UNL A   1      39.659  31.658  32.973  1.00  0.00     0.167 HD
ATOM     26  C   UNL A   1      40.643  28.683  29.914  1.00  0.00     0.037 A 
ATOM     27  C   UNL A   1      39.876  32.896  35.469  1.00  0.00     0.037 A 
ATOM     28  C   UNL A   1      41.606  28.501  30.970  1.00  0.00     0.049 A 
ATOM     29  C   UNL A   1      40.937  31.837  35.426  1.00  0.00     0.074 A 
ATOM     30  C   UNL A   1      42.687  27.637  31.004  1.00  0.00     0.029 A 
ATOM     31  N   UNL A   1      41.600  29.186  32.174  1.00  0.00    -0.354 N 
ATOM     32  N   UNL A   1      41.232  31.009  34.455  1.00  0.00    -0.248 NA
ATOM     33  C   UNL A   1      41.769  31.679  36.627  1.00  0.00     0.031 C 
ATOM     34  C   UNL A   1      43.308  27.765  32.250  1.00  0.00     0.029 A 
ATOM     35  C   UNL A   1      42.639  28.738  32.976  1.00  0.00     0.049 A 
ATOM     36  H   UNL A   1      40.955  29.886  32.425  1.00  0.00     0.167 HD
ATOM     37  C   UNL A   1      42.278  30.230  34.923  1.00  0.00     0.074 A 
ATOM     38  C   UNL A   1      42.586  30.702  36.258  1.00  0.00     0.031 C 
ATOM     39  C   UNL A   1      42.919  29.210  34.306  1.00  0.00     0.037 A 
BRANCH  26  40
ATOM     40  C   UNL A   1      40.756  27.783  28.722  1.00  0.00     0.064 A 
ATOM     41  C   UNL A   1      41.554  28.157  27.629  1.00  0.00     0.173 A 
ATOM     42  C   UNL A   1      39.971  26.630  28.600  1.00  0.00     0.173 A 
ATOM     43  F   UNL A   1      42.317  29.259  27.695  1.00  0.00    -0.203 F 
ATOM     44  C   UNL A   1      41.540  27.421  26.447  1.00  0.00     0.198 A 
ATOM     45  C   UNL A   1      39.972  25.886  27.421  1.00  0.00     0.198 A 
ATOM     46  F   UNL A   1      39.195  26.231  29.618  1.00  0.00    -0.203 F 
ATOM     47  F   UNL A   1      42.277  27.821  25.401  1.00  0.00    -0.200 F 
ATOM     48  C   UNL A   1      40.746  26.289  26.343  1.00  0.00     0.200 A 
ATOM     49  F   UNL A   1      39.213  24.786  27.324  1.00  0.00    -0.200 F 
ATOM     50  F   UNL A   1      40.722  25.589  25.200  1.00  0.00    -0.200 F 
ENDBRANCH  26  40
BRANCH  27  51
ATOM     51  C   UNL A   1      39.683  33.755  36.665  1.00  0.00     0.064 A 
ATOM     52  C   UNL A   1      38.860  33.344  37.726  1.00  0.00     0.173 A 
ATOM     53  C   UNL A   1      40.281  35.017  36.753  1.00  0.00     0.173 A 
ATOM     54  F   UNL A   1      38.261  32.145  37.684  1.00  0.00    -0.203 F 
ATOM     55  C   UNL A   1      38.627  34.174  38.818  1.00  0.00     0.198 A 
ATOM     56  C   UNL A   1      40.069  35.836  37.860  1.00  0.00     0.198 A 
ATOM     57  F   UNL A   1      41.089  35.445  35.772  1.00  0.00    -0.203 F 
ATOM     58  F   UNL A   1      37.805  33.773  39.798  1.00  0.00    -0.200 F 
ATOM     59  C   UNL A   1      39.235  35.418  38.887  1.00  0.00     0.200 A 
ATOM     60  F   UNL A   1      40.676  37.028  37.934  1.00  0.00    -0.200 F 
ATOM     61  F   UNL A   1      39.019  36.213  39.944  1.00  0.00    -0.200 F 
ENDBRANCH  27  51
BRANCH  39  62
ATOM     62  C   UNL A   1      44.006  28.519  35.069  1.00  0.00     0.064 A 
ATOM     63  C   UNL A   1      43.734  27.361  35.812  1.00  0.00     0.173 A 
ATOM     64  C   UNL A   1      45.302  29.050  35.122  1.00  0.00     0.173 A 
ATOM     65  F   UNL A   1      42.506  26.820  35.795  1.00  0.00    -0.203 F 
ATOM     66  C   UNL A   1      44.718  26.771  36.598  1.00  0.00     0.198 A 
ATOM     67  C   UNL A   1      46.290  28.443  35.891  1.00  0.00     0.198 A 
ATOM     68  F   UNL A   1      45.611  30.147  34.414  1.00  0.00    -0.203 F 
ATOM     69  F   UNL A   1      44.428  25.684  37.327  1.00  0.00    -0.200 F 
ATOM     70  C   UNL A   1      45.994  27.311  36.636  1.00  0.00     0.200 A 
ATOM     71  F   UNL A   1      47.529  28.954  35.910  1.00  0.00    -0.200 F 
ATOM     72  F   UNL A   1      46.943  26.738  37.391  1.00  0.00    -0.200 F 
ENDBRANCH  39  62
ENDBRANCH  13  14
ENDBRANCH   6   8
ENDBRANCH   3   4
ENDBRANCH   2   3
ENDBRANCH   1   2
BRANCH   1  73
ATOM     73  C   UNL A   1      31.450  29.618  25.057  1.00  0.00     0.116 C 
BRANCH  73  74
ATOM     74  N   UNL A   1      32.626  29.640  24.206  1.00  0.00    -0.356 N 
ATOM     75  C   UNL A   1      33.369  28.609  23.719  1.00  0.00     0.227 C 
ATOM     76  H   UNL A   1      32.933  30.538  23.940  1.00  0.00     0.163 HD
ATOM     77  O   UNL A   1      34.471  28.877  23.244  1.00  0.00    -0.275 OA
BRANCH  75  78
ATOM     78  C   UNL A   1      32.775  27.225  23.707  1.00  0.00     0.127 C 
ATOM     79  C   UNL A   1      33.751  26.108  24.227  1.00  0.00     0.127 C 
ATOM     80  C   UNL A   1      32.555  26.823  22.240  1.00  0.00     0.155 C 
ATOM     81  C   UNL A   1      33.733  25.169  23.012  1.00  0.00     0.155 C 
ATOM     82  C   UNL A   1      31.642  25.637  22.211  1.00  0.00     0.004 C 
ATOM     83  O   UNL A   1      33.800  26.154  21.939  1.00  0.00    -0.365 OA
ATOM     84  C   UNL A   1      32.363  24.621  22.696  1.00  0.00     0.004 C 
BRANCH  79  85
ATOM     85  C   UNL A   1      33.295  25.703  25.631  1.00  0.00     0.233 C 
ATOM     86  O   UNL A   1      32.813  26.586  26.360  1.00  0.00    -0.274 OA
ATOM     87  N   UNL A   1      33.288  24.461  26.166  1.00  0.00    -0.302 N 
ATOM     88  H   UNL A   1      32.725  24.343  26.965  1.00  0.00     0.172 HD
BRANCH  87  89
ATOM     89  C   UNL A   1      33.956  23.360  25.747  1.00  0.00     0.189 A 
ATOM     90  N   UNL A   1      33.468  22.276  25.219  1.00  0.00    -0.220 NA
ATOM     91  S   UNL A   1      35.645  23.394  25.988  1.00  0.00    -0.105 S 
ATOM     92  C   UNL A   1      34.457  21.318  25.149  1.00  0.00     0.084 A 
ATOM     93  C   UNL A   1      35.711  21.727  25.555  1.00  0.00     0.097 A 
BRANCH  92  94
ATOM     94  C   UNL A   1      34.120  19.971  24.748  1.00  0.00     0.001 A 
ATOM     95  C   UNL A   1      35.096  18.970  24.784  1.00  0.00     0.013 A 
ATOM     96  C   UNL A   1      32.856  19.699  24.207  1.00  0.00     0.013 A 
ATOM     97  C   UNL A   1      34.806  17.699  24.287  1.00  0.00     0.040 A 
ATOM     98  C   UNL A   1      32.572  18.428  23.704  1.00  0.00     0.040 A 
ATOM     99  C   UNL A   1      33.549  17.441  23.750  1.00  0.00     0.123 A 
ATOM    100  F   UNL A   1      33.281  16.226  23.255  1.00  0.00    -0.207 F 
ENDBRANCH  92  94
ENDBRANCH  87  89
ENDBRANCH  79  85
ENDBRANCH  75  78
ENDBRANCH  73  74
ENDBRANCH   1  73
TORSDOF 14
ENDMDL
