MODEL 1
REMARK VINA RESULT:     -13.3      0.000      0.000
REMARK SMILES Cc1cccc(C[C@H](C(=O)NCCCCNC(=O)c2ccc(-c3c4nc(c(-c5c(F)c(F)c(F)c(F)c5F)c5ccc([nH]5)c(-c5c(F)c(F)c(F)c(F)c5F)c5nc(c(-c6c(F)c(F)c(F)c(F)c6F)c6ccc3[nH]6)C=C5)C=C4)cc2)[C@@H]2CCCC[C@@H]2O)c1
REMARK SMILES IDX 13 1 12 2 11 3 9 4 10 5 8 7 7 8 6 9 1 10 2 11 3 12 89 13
REMARK SMILES IDX 4 14 5 15 82 16 83 17 87 18 84 19 86 20 85 21 88 22 14 24
REMARK SMILES IDX 15 25 16 26 17 27 18 29 19 30 20 31 81 32 21 33 80 34 22 35
REMARK SMILES IDX 23 36 24 37 74 38 25 39 79 40 73 41 75 42 26 43 78 44 72 45
REMARK SMILES IDX 71 46 27 48 59 49 39 50 58 51 40 52 43 53 57 54 76 55 41 56
REMARK SMILES IDX 42 57 56 59 77 60 44 61 28 62 29 63 37 64 30 65 31 66 35 67
REMARK SMILES IDX 38 68 32 69 33 70 36 71 34 72 60 73 61 74 69 75 62 76 63 77
REMARK SMILES IDX 67 78 70 79 64 80 65 81 68 82 66 83 45 84 46 85 54 86 47 87
REMARK SMILES IDX 48 88 52 89 55 90 49 91 50 92 53 93 51 94
REMARK H PARENT 11 6 88 23 16 28 75 47 43 58
REMARK Flexibility Score: inf
ROOT
ATOM      1  C   UNL A   1      36.620  23.996  26.157  1.00  0.00     0.023 C 
ENDROOT
BRANCH   1   2
ATOM      2  C   UNL A   1      35.192  23.579  25.741  1.00  0.00     0.116 C 
BRANCH   2   3
ATOM      3  N   UNL A   1      34.990  23.462  24.296  1.00  0.00    -0.356 N 
ATOM      4  C   UNL A   1      34.254  24.178  23.389  1.00  0.00     0.223 C 
ATOM      5  O   UNL A   1      34.120  23.651  22.278  1.00  0.00    -0.275 OA
ATOM      6  H   UNL A   1      35.485  22.714  23.893  1.00  0.00     0.163 HD
BRANCH   4   7
ATOM      7  C   UNL A   1      33.602  25.552  23.701  1.00  0.00     0.088 C 
BRANCH   7   8
ATOM      8  C   UNL A   1      34.302  26.354  24.784  1.00  0.00     0.049 C 
BRANCH   8   9
ATOM      9  C   UNL A   1      33.509  26.948  25.912  1.00  0.00    -0.047 A 
ATOM     10  C   UNL A   1      33.732  30.441  27.251  1.00  0.00     0.044 C 
ATOM     11  C   UNL A   1      33.210  29.062  27.016  1.00  0.00    -0.051 A 
ATOM     12  C   UNL A   1      31.882  28.712  27.251  1.00  0.00     0.003 A 
ATOM     13  C   UNL A   1      34.040  28.141  26.409  1.00  0.00     0.007 A 
ATOM     14  C   UNL A   1      31.388  27.454  26.937  1.00  0.00     0.001 A 
ATOM     15  C   UNL A   1      32.213  26.560  26.276  1.00  0.00     0.004 A 
ENDBRANCH   8   9
ENDBRANCH   7   8
BRANCH   7  16
ATOM     16  C   UNL A   1      33.278  26.418  22.404  1.00  0.00     0.030 C 
ATOM     17  C   UNL A   1      33.653  27.923  22.374  1.00  0.00     0.007 C 
ATOM     18  C   UNL A   1      31.788  26.311  22.024  1.00  0.00     0.118 C 
ATOM     19  C   UNL A   1      32.726  28.893  23.120  1.00  0.00     0.001 C 
ATOM     20  C   UNL A   1      30.907  27.080  23.007  1.00  0.00     0.032 C 
ATOM     21  C   UNL A   1      31.238  28.568  23.023  1.00  0.00     0.003 C 
BRANCH  18  22
ATOM     22  O   UNL A   1      31.377  24.948  21.987  1.00  0.00    -0.393 OA
ATOM     23  H   UNL A   1      31.371  24.637  21.070  1.00  0.00     0.210 HD
ENDBRANCH  18  22
ENDBRANCH   7  16
ENDBRANCH   4   7
ENDBRANCH   2   3
ENDBRANCH   1   2
BRANCH   1  24
ATOM     24  C   UNL A   1      37.752  23.325  25.362  1.00  0.00     0.023 C 
BRANCH  24  25
ATOM     25  C   UNL A   1      38.486  22.203  26.126  1.00  0.00     0.116 C 
BRANCH  25  26
ATOM     26  N   UNL A   1      39.926  22.357  26.275  1.00  0.00    -0.352 N 
ATOM     27  C   UNL A   1      40.713  23.474  26.523  1.00  0.00     0.251 C 
ATOM     28  H   UNL A   1      40.433  21.518  26.182  1.00  0.00     0.163 HD
ATOM     29  O   UNL A   1      41.927  23.355  26.450  1.00  0.00    -0.269 OA
BRANCH  27  30
ATOM     30  C   UNL A   1      40.147  24.775  27.000  1.00  0.00     0.039 A 
ATOM     31  C   UNL A   1      40.403  25.920  26.221  1.00  0.00     0.014 A 
ATOM     32  C   UNL A   1      39.506  24.934  28.223  1.00  0.00     0.014 A 
ATOM     33  C   UNL A   1      40.268  27.202  26.771  1.00  0.00     0.010 A 
ATOM     34  C   UNL A   1      39.411  26.205  28.787  1.00  0.00     0.010 A 
ATOM     35  C   UNL A   1      39.891  27.335  28.104  1.00  0.00    -0.014 A 
BRANCH  35  36
ATOM     36  C   UNL A   1      40.162  28.545  28.896  1.00  0.00     0.031 A 
ATOM     37  C   UNL A   1      39.129  29.584  29.109  1.00  0.00     0.074 A 
ATOM     38  C   UNL A   1      41.343  28.710  29.544  1.00  0.00     0.049 A 
ATOM     39  N   UNL A   1      39.409  30.820  29.374  1.00  0.00    -0.248 NA
ATOM     40  C   UNL A   1      37.696  29.325  29.023  1.00  0.00     0.031 C 
ATOM     41  C   UNL A   1      41.627  29.641  30.641  1.00  0.00     0.029 A 
ATOM     42  N   UNL A   1      42.598  28.146  29.255  1.00  0.00    -0.354 N 
ATOM     43  C   UNL A   1      38.245  31.429  29.766  1.00  0.00     0.074 A 
ATOM     44  C   UNL A   1      37.195  30.485  29.456  1.00  0.00     0.031 C 
ATOM     45  C   UNL A   1      42.954  29.812  30.739  1.00  0.00     0.029 A 
ATOM     46  C   UNL A   1      43.555  29.116  29.618  1.00  0.00     0.049 A 
ATOM     47  H   UNL A   1      42.774  27.254  28.877  1.00  0.00     0.167 HD
ATOM     48  C   UNL A   1      38.276  32.607  30.449  1.00  0.00     0.037 A 
ATOM     49  C   UNL A   1      44.444  29.652  28.742  1.00  0.00     0.037 A 
ATOM     50  C   UNL A   1      39.630  33.070  30.720  1.00  0.00     0.049 A 
ATOM     51  C   UNL A   1      44.440  31.152  28.724  1.00  0.00     0.074 A 
ATOM     52  C   UNL A   1      40.432  33.011  31.848  1.00  0.00     0.029 A 
ATOM     53  N   UNL A   1      40.466  33.440  29.670  1.00  0.00    -0.354 N 
ATOM     54  N   UNL A   1      43.429  31.877  29.109  1.00  0.00    -0.248 NA
ATOM     55  C   UNL A   1      45.559  31.951  28.246  1.00  0.00     0.031 C 
ATOM     56  C   UNL A   1      41.745  33.391  31.486  1.00  0.00     0.029 A 
ATOM     57  C   UNL A   1      41.748  33.679  30.133  1.00  0.00     0.049 A 
ATOM     58  H   UNL A   1      40.185  33.520  28.730  1.00  0.00     0.167 HD
ATOM     59  C   UNL A   1      43.727  33.205  28.941  1.00  0.00     0.074 A 
ATOM     60  C   UNL A   1      45.079  33.195  28.414  1.00  0.00     0.031 C 
ATOM     61  C   UNL A   1      42.805  34.166  29.253  1.00  0.00     0.037 A 
BRANCH  48  62
ATOM     62  C   UNL A   1      37.037  33.146  31.114  1.00  0.00     0.064 A 
ATOM     63  C   UNL A   1      36.776  32.949  32.485  1.00  0.00     0.173 A 
ATOM     64  C   UNL A   1      36.035  33.830  30.401  1.00  0.00     0.173 A 
ATOM     65  F   UNL A   1      37.672  32.376  33.295  1.00  0.00    -0.203 F 
ATOM     66  C   UNL A   1      35.560  33.310  33.069  1.00  0.00     0.198 A 
ATOM     67  C   UNL A   1      34.799  34.146  30.974  1.00  0.00     0.198 A 
ATOM     68  F   UNL A   1      36.231  34.194  29.123  1.00  0.00    -0.203 F 
ATOM     69  F   UNL A   1      35.356  33.079  34.374  1.00  0.00    -0.200 F 
ATOM     70  C   UNL A   1      34.559  33.874  32.306  1.00  0.00     0.200 A 
ATOM     71  F   UNL A   1      33.835  34.693  30.219  1.00  0.00    -0.200 F 
ATOM     72  F   UNL A   1      33.369  34.159  32.853  1.00  0.00    -0.200 F 
ENDBRANCH  48  62
BRANCH  49  73
ATOM     73  C   UNL A   1      44.766  28.804  27.573  1.00  0.00     0.064 A 
ATOM     74  C   UNL A   1      45.787  27.847  27.678  1.00  0.00     0.173 A 
ATOM     75  C   UNL A   1      43.872  28.688  26.502  1.00  0.00     0.173 A 
ATOM     76  F   UNL A   1      46.651  27.895  28.704  1.00  0.00    -0.203 F 
ATOM     77  C   UNL A   1      45.862  26.773  26.790  1.00  0.00     0.198 A 
ATOM     78  C   UNL A   1      43.939  27.601  25.628  1.00  0.00     0.198 A 
ATOM     79  F   UNL A   1      42.865  29.562  26.365  1.00  0.00    -0.203 F 
ATOM     80  F   UNL A   1      46.788  25.819  26.973  1.00  0.00    -0.200 F 
ATOM     81  C   UNL A   1      44.916  26.632  25.790  1.00  0.00     0.200 A 
ATOM     82  F   UNL A   1      43.002  27.451  24.680  1.00  0.00    -0.200 F 
ATOM     83  F   UNL A   1      44.916  25.539  25.013  1.00  0.00    -0.200 F 
ENDBRANCH  49  73
BRANCH  61  84
ATOM     84  C   UNL A   1      42.818  35.646  28.900  1.00  0.00     0.064 A 
ATOM     85  C   UNL A   1      42.154  36.230  27.809  1.00  0.00     0.173 A 
ATOM     86  C   UNL A   1      43.448  36.580  29.770  1.00  0.00     0.173 A 
ATOM     87  F   UNL A   1      41.426  35.507  26.954  1.00  0.00    -0.203 F 
ATOM     88  C   UNL A   1      42.156  37.611  27.581  1.00  0.00     0.198 A 
ATOM     89  C   UNL A   1      43.403  37.959  29.569  1.00  0.00     0.198 A 
ATOM     90  F   UNL A   1      44.107  36.195  30.873  1.00  0.00    -0.203 F 
ATOM     91  F   UNL A   1      41.529  38.101  26.501  1.00  0.00    -0.200 F 
ATOM     92  C   UNL A   1      42.766  38.476  28.465  1.00  0.00     0.200 A 
ATOM     93  F   UNL A   1      43.963  38.780  30.468  1.00  0.00    -0.200 F 
ATOM     94  F   UNL A   1      42.719  39.799  28.268  1.00  0.00    -0.200 F 
ENDBRANCH  61  84
ENDBRANCH  35  36
ENDBRANCH  27  30
ENDBRANCH  25  26
ENDBRANCH  24  25
ENDBRANCH   1  24
TORSDOF 15
ENDMDL
MODEL 2
REMARK VINA RESULT:     -13.3      3.992     10.046
REMARK SMILES Cc1cccc(C[C@H](C(=O)NCCCCNC(=O)c2ccc(-c3c4nc(c(-c5c(F)c(F)c(F)c(F)c5F)c5ccc([nH]5)c(-c5c(F)c(F)c(F)c(F)c5F)c5nc(c(-c6c(F)c(F)c(F)c(F)c6F)c6ccc3[nH]6)C=C5)C=C4)cc2)[C@@H]2CCCC[C@@H]2O)c1
REMARK SMILES IDX 13 1 12 2 11 3 9 4 10 5 8 7 7 8 6 9 1 10 2 11 3 12 89 13
REMARK SMILES IDX 4 14 5 15 82 16 83 17 87 18 84 19 86 20 85 21 88 22 14 24
REMARK SMILES IDX 15 25 16 26 17 27 18 29 19 30 20 31 81 32 21 33 80 34 22 35
REMARK SMILES IDX 23 36 24 37 74 38 25 39 79 40 73 41 75 42 26 43 78 44 72 45
REMARK SMILES IDX 71 46 27 48 59 49 39 50 58 51 40 52 43 53 57 54 76 55 41 56
REMARK SMILES IDX 42 57 56 59 77 60 44 61 28 62 29 63 37 64 30 65 31 66 35 67
REMARK SMILES IDX 38 68 32 69 33 70 36 71 34 72 60 73 61 74 69 75 62 76 63 77
REMARK SMILES IDX 67 78 70 79 64 80 65 81 68 82 66 83 45 84 46 85 54 86 47 87
REMARK SMILES IDX 48 88 52 89 55 90 49 91 50 92 53 93 51 94
REMARK H PARENT 11 6 88 23 16 28 75 47 43 58
REMARK Flexibility Score: inf
ROOT
ATOM      1  C   UNL A   1      34.038  28.901  25.451  1.00  0.00     0.023 C 
ENDROOT
BRANCH   1   2
ATOM      2  C   UNL A   1      33.281  27.689  24.867  1.00  0.00     0.116 C 
BRANCH   2   3
ATOM      3  N   UNL A   1      32.165  27.216  25.688  1.00  0.00    -0.356 N 
ATOM      4  C   UNL A   1      31.763  25.973  26.101  1.00  0.00     0.223 C 
ATOM      5  O   UNL A   1      30.628  25.916  26.590  1.00  0.00    -0.275 OA
ATOM      6  H   UNL A   1      31.584  27.941  26.010  1.00  0.00     0.163 HD
BRANCH   4   7
ATOM      7  C   UNL A   1      32.635  24.696  25.968  1.00  0.00     0.088 C 
BRANCH   7   8
ATOM      8  C   UNL A   1      34.127  24.929  26.129  1.00  0.00     0.049 C 
BRANCH   8   9
ATOM      9  C   UNL A   1      35.088  24.385  25.110  1.00  0.00    -0.047 A 
ATOM     10  C   UNL A   1      38.178  22.366  25.755  1.00  0.00     0.044 C 
ATOM     11  C   UNL A   1      37.051  23.002  25.011  1.00  0.00    -0.051 A 
ATOM     12  C   UNL A   1      36.629  22.553  23.761  1.00  0.00     0.003 A 
ATOM     13  C   UNL A   1      36.311  23.977  25.649  1.00  0.00     0.007 A 
ATOM     14  C   UNL A   1      35.518  23.091  23.124  1.00  0.00     0.001 A 
ATOM     15  C   UNL A   1      34.751  24.026  23.799  1.00  0.00     0.004 A 
ENDBRANCH   8   9
ENDBRANCH   7   8
BRANCH   7  16
ATOM     16  C   UNL A   1      32.107  23.464  26.827  1.00  0.00     0.030 C 
ATOM     17  C   UNL A   1      33.116  22.596  27.625  1.00  0.00     0.007 C 
ATOM     18  C   UNL A   1      31.262  22.506  25.964  1.00  0.00     0.118 C 
ATOM     19  C   UNL A   1      33.925  21.557  26.835  1.00  0.00     0.001 C 
ATOM     20  C   UNL A   1      32.138  21.716  24.993  1.00  0.00     0.032 C 
ATOM     21  C   UNL A   1      33.156  20.847  25.724  1.00  0.00     0.003 C 
BRANCH  18  22
ATOM     22  O   UNL A   1      30.278  23.229  25.231  1.00  0.00    -0.393 OA
ATOM     23  H   UNL A   1      29.423  23.158  25.682  1.00  0.00     0.210 HD
ENDBRANCH  18  22
ENDBRANCH   7  16
ENDBRANCH   4   7
ENDBRANCH   2   3
ENDBRANCH   1   2
BRANCH   1  24
ATOM     24  C   UNL A   1      33.149  29.970  26.108  1.00  0.00     0.023 C 
BRANCH  24  25
ATOM     25  C   UNL A   1      33.330  30.096  27.635  1.00  0.00     0.116 C 
BRANCH  25  26
ATOM     26  N   UNL A   1      34.170  31.191  28.098  1.00  0.00    -0.352 N 
ATOM     27  C   UNL A   1      35.456  31.209  28.623  1.00  0.00     0.251 C 
ATOM     28  H   UNL A   1      33.751  32.080  28.029  1.00  0.00     0.163 HD
ATOM     29  O   UNL A   1      35.880  32.259  29.082  1.00  0.00    -0.269 OA
BRANCH  27  30
ATOM     30  C   UNL A   1      36.385  30.038  28.532  1.00  0.00     0.039 A 
ATOM     31  C   UNL A   1      36.654  29.329  29.718  1.00  0.00     0.014 A 
ATOM     32  C   UNL A   1      37.089  29.702  27.383  1.00  0.00     0.014 A 
ATOM     33  C   UNL A   1      37.781  28.501  29.814  1.00  0.00     0.010 A 
ATOM     34  C   UNL A   1      38.235  28.913  27.487  1.00  0.00     0.010 A 
ATOM     35  C   UNL A   1      38.644  28.397  28.727  1.00  0.00    -0.014 A 
BRANCH  35  36
ATOM     36  C   UNL A   1      40.042  27.960  28.854  1.00  0.00     0.031 A 
ATOM     37  C   UNL A   1      40.502  26.653  28.330  1.00  0.00     0.074 A 
ATOM     38  C   UNL A   1      40.990  28.781  29.373  1.00  0.00     0.049 A 
ATOM     39  N   UNL A   1      41.538  26.028  28.790  1.00  0.00    -0.248 NA
ATOM     40  C   UNL A   1      39.824  25.932  27.259  1.00  0.00     0.031 C 
ATOM     41  C   UNL A   1      42.444  28.655  29.232  1.00  0.00     0.029 A 
ATOM     42  N   UNL A   1      40.837  29.859  30.264  1.00  0.00    -0.354 N 
ATOM     43  C   UNL A   1      41.823  25.009  27.919  1.00  0.00     0.074 A 
ATOM     44  C   UNL A   1      40.687  24.938  27.027  1.00  0.00     0.031 C 
ATOM     45  C   UNL A   1      43.043  29.378  30.190  1.00  0.00     0.029 A 
ATOM     46  C   UNL A   1      41.997  29.871  31.065  1.00  0.00     0.049 A 
ATOM     47  H   UNL A   1      40.074  30.479  30.318  1.00  0.00     0.167 HD
ATOM     48  C   UNL A   1      43.047  24.413  27.927  1.00  0.00     0.037 A 
ATOM     49  C   UNL A   1      41.973  29.740  32.417  1.00  0.00     0.037 A 
ATOM     50  C   UNL A   1      43.958  25.001  28.900  1.00  0.00     0.049 A 
ATOM     51  C   UNL A   1      42.874  28.657  32.932  1.00  0.00     0.074 A 
ATOM     52  C   UNL A   1      44.996  25.911  28.780  1.00  0.00     0.029 A 
ATOM     53  N   UNL A   1      43.690  24.898  30.262  1.00  0.00    -0.354 N 
ATOM     54  N   UNL A   1      43.273  27.647  32.214  1.00  0.00    -0.248 NA
ATOM     55  C   UNL A   1      43.372  28.611  34.299  1.00  0.00     0.031 C 
ATOM     56  C   UNL A   1      45.384  26.323  30.076  1.00  0.00     0.029 A 
ATOM     57  C   UNL A   1      44.580  25.667  30.990  1.00  0.00     0.049 A 
ATOM     58  H   UNL A   1      42.967  24.355  30.652  1.00  0.00     0.167 HD
ATOM     59  C   UNL A   1      44.058  26.822  32.979  1.00  0.00     0.074 A 
ATOM     60  C   UNL A   1      44.100  27.482  34.271  1.00  0.00     0.031 C 
ATOM     61  C   UNL A   1      44.576  25.673  32.449  1.00  0.00     0.037 A 
BRANCH  48  62
ATOM     62  C   UNL A   1      43.463  23.488  26.813  1.00  0.00     0.064 A 
ATOM     63  C   UNL A   1      43.092  22.130  26.789  1.00  0.00     0.173 A 
ATOM     64  C   UNL A   1      44.295  23.907  25.757  1.00  0.00     0.173 A 
ATOM     65  F   UNL A   1      42.250  21.615  27.692  1.00  0.00    -0.203 F 
ATOM     66  C   UNL A   1      43.604  21.236  25.846  1.00  0.00     0.198 A 
ATOM     67  C   UNL A   1      44.846  23.003  24.844  1.00  0.00     0.198 A 
ATOM     68  F   UNL A   1      44.602  25.204  25.601  1.00  0.00    -0.203 F 
ATOM     69  F   UNL A   1      43.234  19.948  25.882  1.00  0.00    -0.200 F 
ATOM     70  C   UNL A   1      44.509  21.666  24.896  1.00  0.00     0.200 A 
ATOM     71  F   UNL A   1      45.725  23.435  23.928  1.00  0.00    -0.200 F 
ATOM     72  F   UNL A   1      45.049  20.794  24.033  1.00  0.00    -0.200 F 
ENDBRANCH  48  62
BRANCH  49  73
ATOM     73  C   UNL A   1      40.710  30.155  33.068  1.00  0.00     0.064 A 
ATOM     74  C   UNL A   1      40.507  31.509  33.374  1.00  0.00     0.173 A 
ATOM     75  C   UNL A   1      39.592  29.312  33.069  1.00  0.00     0.173 A 
ATOM     76  F   UNL A   1      41.541  32.365  33.356  1.00  0.00    -0.203 F 
ATOM     77  C   UNL A   1      39.226  32.013  33.598  1.00  0.00     0.198 A 
ATOM     78  C   UNL A   1      38.310  29.824  33.273  1.00  0.00     0.198 A 
ATOM     79  F   UNL A   1      39.725  28.014  32.762  1.00  0.00    -0.203 F 
ATOM     80  F   UNL A   1      39.050  33.329  33.791  1.00  0.00    -0.200 F 
ATOM     81  C   UNL A   1      38.126  31.177  33.510  1.00  0.00     0.200 A 
ATOM     82  F   UNL A   1      37.245  29.018  33.156  1.00  0.00    -0.200 F 
ATOM     83  F   UNL A   1      36.888  31.682  33.606  1.00  0.00    -0.200 F 
ENDBRANCH  49  73
BRANCH  61  84
ATOM     84  C   UNL A   1      45.229  24.503  33.172  1.00  0.00     0.064 A 
ATOM     85  C   UNL A   1      46.547  24.477  33.656  1.00  0.00     0.173 A 
ATOM     86  C   UNL A   1      44.458  23.356  33.510  1.00  0.00     0.173 A 
ATOM     87  F   UNL A   1      47.374  25.517  33.517  1.00  0.00    -0.203 F 
ATOM     88  C   UNL A   1      47.063  23.389  34.371  1.00  0.00     0.198 A 
ATOM     89  C   UNL A   1      44.959  22.298  34.268  1.00  0.00     0.198 A 
ATOM     90  F   UNL A   1      43.173  23.228  33.148  1.00  0.00    -0.203 F 
ATOM     91  F   UNL A   1      48.341  23.414  34.777  1.00  0.00    -0.200 F 
ATOM     92  C   UNL A   1      46.268  22.308  34.689  1.00  0.00     0.200 A 
ATOM     93  F   UNL A   1      44.152  21.281  34.604  1.00  0.00    -0.200 F 
ATOM     94  F   UNL A   1      46.753  21.295  35.417  1.00  0.00    -0.200 F 
ENDBRANCH  61  84
ENDBRANCH  35  36
ENDBRANCH  27  30
ENDBRANCH  25  26
ENDBRANCH  24  25
ENDBRANCH   1  24
TORSDOF 15
ENDMDL
MODEL 3
REMARK VINA RESULT:     -13.2      0.270      1.612
REMARK SMILES Cc1cccc(C[C@H](C(=O)NCCCCNC(=O)c2ccc(-c3c4nc(c(-c5c(F)c(F)c(F)c(F)c5F)c5ccc([nH]5)c(-c5c(F)c(F)c(F)c(F)c5F)c5nc(c(-c6c(F)c(F)c(F)c(F)c6F)c6ccc3[nH]6)C=C5)C=C4)cc2)[C@@H]2CCCC[C@@H]2O)c1
REMARK SMILES IDX 13 1 12 2 11 3 9 4 10 5 8 7 7 8 6 9 1 10 2 11 3 12 89 13
REMARK SMILES IDX 4 14 5 15 82 16 83 17 87 18 84 19 86 20 85 21 88 22 14 24
REMARK SMILES IDX 15 25 16 26 17 27 18 29 19 30 20 31 81 32 21 33 80 34 22 35
REMARK SMILES IDX 23 36 24 37 74 38 25 39 79 40 73 41 75 42 26 43 78 44 72 45
REMARK SMILES IDX 71 46 27 48 59 49 39 50 58 51 40 52 43 53 57 54 76 55 41 56
REMARK SMILES IDX 42 57 56 59 77 60 44 61 28 62 29 63 37 64 30 65 31 66 35 67
REMARK SMILES IDX 38 68 32 69 33 70 36 71 34 72 60 73 61 74 69 75 62 76 63 77
REMARK SMILES IDX 67 78 70 79 64 80 65 81 68 82 66 83 45 84 46 85 54 86 47 87
REMARK SMILES IDX 48 88 52 89 55 90 49 91 50 92 53 93 51 94
REMARK H PARENT 11 6 88 23 16 28 75 47 43 58
REMARK Flexibility Score: inf
ROOT
ATOM      1  C   UNL A   1      36.658  24.002  25.987  1.00  0.00     0.023 C 
ENDROOT
BRANCH   1   2
ATOM      2  C   UNL A   1      35.223  23.569  25.616  1.00  0.00     0.116 C 
BRANCH   2   3
ATOM      3  N   UNL A   1      34.971  23.472  24.177  1.00  0.00    -0.356 N 
ATOM      4  C   UNL A   1      34.211  24.206  23.305  1.00  0.00     0.223 C 
ATOM      5  O   UNL A   1      34.035  23.694  22.192  1.00  0.00    -0.275 OA
ATOM      6  H   UNL A   1      35.444  22.724  23.748  1.00  0.00     0.163 HD
BRANCH   4   7
ATOM      7  C   UNL A   1      33.584  25.582  23.655  1.00  0.00     0.088 C 
BRANCH   7   8
ATOM      8  C   UNL A   1      34.299  26.341  24.759  1.00  0.00     0.049 C 
BRANCH   8   9
ATOM      9  C   UNL A   1      33.514  26.933  25.895  1.00  0.00    -0.047 A 
ATOM     10  C   UNL A   1      33.762  30.418  27.251  1.00  0.00     0.044 C 
ATOM     11  C   UNL A   1      33.232  29.043  27.012  1.00  0.00    -0.051 A 
ATOM     12  C   UNL A   1      31.904  28.699  27.252  1.00  0.00     0.003 A 
ATOM     13  C   UNL A   1      34.055  28.121  26.395  1.00  0.00     0.007 A 
ATOM     14  C   UNL A   1      31.401  27.444  26.933  1.00  0.00     0.001 A 
ATOM     15  C   UNL A   1      32.218  26.549  26.264  1.00  0.00     0.004 A 
ENDBRANCH   8   9
ENDBRANCH   7   8
BRANCH   7  16
ATOM     16  C   UNL A   1      33.275  26.489  22.383  1.00  0.00     0.030 C 
ATOM     17  C   UNL A   1      33.677  27.988  22.394  1.00  0.00     0.007 C 
ATOM     18  C   UNL A   1      31.783  26.419  22.001  1.00  0.00     0.118 C 
ATOM     19  C   UNL A   1      32.767  28.953  23.168  1.00  0.00     0.001 C 
ATOM     20  C   UNL A   1      30.916  27.176  23.006  1.00  0.00     0.032 C 
ATOM     21  C   UNL A   1      31.274  28.657  23.063  1.00  0.00     0.003 C 
BRANCH  18  22
ATOM     22  O   UNL A   1      31.349  25.065  21.927  1.00  0.00    -0.393 OA
ATOM     23  H   UNL A   1      30.615  24.995  21.298  1.00  0.00     0.210 HD
ENDBRANCH  18  22
ENDBRANCH   7  16
ENDBRANCH   4   7
ENDBRANCH   2   3
ENDBRANCH   1   2
BRANCH   1  24
ATOM     24  C   UNL A   1      37.778  23.244  25.255  1.00  0.00     0.023 C 
BRANCH  24  25
ATOM     25  C   UNL A   1      38.509  22.198  26.122  1.00  0.00     0.116 C 
BRANCH  25  26
ATOM     26  N   UNL A   1      39.945  22.379  26.279  1.00  0.00    -0.352 N 
ATOM     27  C   UNL A   1      40.711  23.511  26.525  1.00  0.00     0.251 C 
ATOM     28  H   UNL A   1      40.468  21.548  26.194  1.00  0.00     0.163 HD
ATOM     29  O   UNL A   1      41.927  23.413  26.460  1.00  0.00    -0.269 OA
BRANCH  27  30
ATOM     30  C   UNL A   1      40.119  24.804  26.991  1.00  0.00     0.039 A 
ATOM     31  C   UNL A   1      40.425  25.963  26.250  1.00  0.00     0.014 A 
ATOM     32  C   UNL A   1      39.405  24.942  28.174  1.00  0.00     0.014 A 
ATOM     33  C   UNL A   1      40.259  27.235  26.816  1.00  0.00     0.010 A 
ATOM     34  C   UNL A   1      39.278  26.203  28.756  1.00  0.00     0.010 A 
ATOM     35  C   UNL A   1      39.801  27.344  28.125  1.00  0.00    -0.014 A 
BRANCH  35  36
ATOM     36  C   UNL A   1      40.024  28.538  28.954  1.00  0.00     0.031 A 
ATOM     37  C   UNL A   1      38.979  29.571  29.132  1.00  0.00     0.074 A 
ATOM     38  C   UNL A   1      41.168  28.692  29.669  1.00  0.00     0.049 A 
ATOM     39  N   UNL A   1      39.240  30.802  29.437  1.00  0.00    -0.248 NA
ATOM     40  C   UNL A   1      37.554  29.311  28.962  1.00  0.00     0.031 C 
ATOM     41  C   UNL A   1      41.390  29.601  30.799  1.00  0.00     0.029 A 
ATOM     42  N   UNL A   1      42.439  28.136  29.438  1.00  0.00    -0.354 N 
ATOM     43  C   UNL A   1      38.055  31.401  29.776  1.00  0.00     0.074 A 
ATOM     44  C   UNL A   1      37.026  30.462  29.391  1.00  0.00     0.031 C 
ATOM     45  C   UNL A   1      42.708  29.772  30.972  1.00  0.00     0.029 A 
ATOM     46  C   UNL A   1      43.372  29.100  29.871  1.00  0.00     0.049 A 
ATOM     47  H   UNL A   1      42.638  27.252  29.052  1.00  0.00     0.167 HD
ATOM     48  C   UNL A   1      38.046  32.564  30.484  1.00  0.00     0.037 A 
ATOM     49  C   UNL A   1      44.305  29.655  29.056  1.00  0.00     0.037 A 
ATOM     50  C   UNL A   1      39.382  33.025  30.837  1.00  0.00     0.049 A 
ATOM     51  C   UNL A   1      44.299  31.155  29.068  1.00  0.00     0.074 A 
ATOM     52  C   UNL A   1      40.121  32.944  32.006  1.00  0.00     0.029 A 
ATOM     53  N   UNL A   1      40.273  33.417  29.843  1.00  0.00    -0.354 N 
ATOM     54  N   UNL A   1      43.266  31.870  29.412  1.00  0.00    -0.248 NA
ATOM     55  C   UNL A   1      45.440  31.966  28.668  1.00  0.00     0.031 C 
ATOM     56  C   UNL A   1      41.452  33.334  31.724  1.00  0.00     0.029 A 
ATOM     57  C   UNL A   1      41.527  33.648  30.379  1.00  0.00     0.049 A 
ATOM     58  H   UNL A   1      40.043  33.515  28.890  1.00  0.00     0.167 HD
ATOM     59  C   UNL A   1      43.570  33.202  29.288  1.00  0.00     0.074 A 
ATOM     60  C   UNL A   1      44.948  33.205  28.835  1.00  0.00     0.031 C 
ATOM     61  C   UNL A   1      42.629  34.155  29.568  1.00  0.00     0.037 A 
BRANCH  48  62
ATOM     62  C   UNL A   1      36.771  33.088  31.092  1.00  0.00     0.064 A 
ATOM     63  C   UNL A   1      35.843  33.844  30.349  1.00  0.00     0.173 A 
ATOM     64  C   UNL A   1      36.452  32.906  32.450  1.00  0.00     0.173 A 
ATOM     65  F   UNL A   1      35.986  34.036  29.033  1.00  0.00    -0.203 F 
ATOM     66  C   UNL A   1      34.741  34.463  30.944  1.00  0.00     0.198 A 
ATOM     67  C   UNL A   1      35.378  33.565  33.056  1.00  0.00     0.198 A 
ATOM     68  F   UNL A   1      37.190  32.093  33.223  1.00  0.00    -0.203 F 
ATOM     69  F   UNL A   1      33.902  35.190  30.194  1.00  0.00    -0.200 F 
ATOM     70  C   UNL A   1      34.530  34.353  32.304  1.00  0.00     0.200 A 
ATOM     71  F   UNL A   1      35.186  33.451  34.378  1.00  0.00    -0.200 F 
ATOM     72  F   UNL A   1      33.511  35.001  32.885  1.00  0.00    -0.200 F 
ENDBRANCH  48  62
BRANCH  49  73
ATOM     73  C   UNL A   1      44.694  28.831  27.890  1.00  0.00     0.064 A 
ATOM     74  C   UNL A   1      45.696  27.861  28.035  1.00  0.00     0.173 A 
ATOM     75  C   UNL A   1      43.868  28.750  26.762  1.00  0.00     0.173 A 
ATOM     76  F   UNL A   1      46.494  27.875  29.115  1.00  0.00    -0.203 F 
ATOM     77  C   UNL A   1      45.818  26.808  27.129  1.00  0.00     0.198 A 
ATOM     78  C   UNL A   1      43.980  27.684  25.868  1.00  0.00     0.198 A 
ATOM     79  F   UNL A   1      42.880  29.639  26.583  1.00  0.00    -0.203 F 
ATOM     80  F   UNL A   1      46.720  25.840  27.347  1.00  0.00    -0.200 F 
ATOM     81  C   UNL A   1      44.936  26.701  26.067  1.00  0.00     0.200 A 
ATOM     82  F   UNL A   1      43.104  27.567  24.859  1.00  0.00    -0.200 F 
ATOM     83  F   UNL A   1      44.975  25.627  25.265  1.00  0.00    -0.200 F 
ENDBRANCH  49  73
BRANCH  61  84
ATOM     84  C   UNL A   1      42.658  35.642  29.247  1.00  0.00     0.064 A 
ATOM     85  C   UNL A   1      43.369  36.617  29.964  1.00  0.00     0.173 A 
ATOM     86  C   UNL A   1      42.020  36.129  28.072  1.00  0.00     0.173 A 
ATOM     87  F   UNL A   1      44.109  36.312  31.033  1.00  0.00    -0.203 F 
ATOM     88  C   UNL A   1      43.403  37.962  29.573  1.00  0.00     0.198 A 
ATOM     89  C   UNL A   1      42.099  37.457  27.656  1.00  0.00     0.198 A 
ATOM     90  F   UNL A   1      41.318  35.327  27.257  1.00  0.00    -0.203 F 
ATOM     91  F   UNL A   1      44.074  38.849  30.322  1.00  0.00    -0.200 F 
ATOM     92  C   UNL A   1      42.782  38.379  28.414  1.00  0.00     0.200 A 
ATOM     93  F   UNL A   1      41.527  37.828  26.501  1.00  0.00    -0.200 F 
ATOM     94  F   UNL A   1      42.862  39.656  28.019  1.00  0.00    -0.200 F 
ENDBRANCH  61  84
ENDBRANCH  35  36
ENDBRANCH  27  30
ENDBRANCH  25  26
ENDBRANCH  24  25
ENDBRANCH   1  24
TORSDOF 15
ENDMDL
