MODEL 1
REMARK VINA RESULT:     -13.5      0.000      0.000
REMARK SMILES CCc1sc(NC(=O)[C@H]2CC(C)=C(C)C[C@H]2C(=O)NCCCCNC(=O)c2ccc(-c3c4nc(c(-c5c(F)c(F)c(F)c(F)c5F)c5ccc([nH]5)c(-c5c(F)c(F)c(F)c(F)c5F)c5nc(c(-c6c(F)c(F)c(F)c(F)c6F)c6ccc3[nH]6)C=C5)C=C4)cc2)nc1-c1ccccc1
REMARK SMILES IDX 21 1 20 2 19 3 17 4 18 5 16 7 9 8 10 9 11 10 15 11 12 12
REMARK SMILES IDX 13 13 14 14 7 15 6 16 8 18 5 19 3 20 4 21 91 22 90 23 2 24
REMARK SMILES IDX 1 25 92 26 93 27 97 28 94 29 96 30 95 31 22 32 23 33 24 34
REMARK SMILES IDX 25 35 26 37 27 38 28 39 89 40 29 41 88 42 30 43 31 44 32 45
REMARK SMILES IDX 82 46 33 47 87 48 81 49 83 50 34 51 86 52 80 53 79 54 35 56
REMARK SMILES IDX 67 57 47 58 66 59 48 60 51 61 65 62 84 63 49 64 50 65 64 67
REMARK SMILES IDX 85 68 52 69 36 70 37 71 45 72 38 73 39 74 43 75 46 76 40 77
REMARK SMILES IDX 41 78 44 79 42 80 68 81 69 82 77 83 70 84 71 85 75 86 78 87
REMARK SMILES IDX 72 88 73 89 76 90 74 91 53 92 54 93 62 94 55 95 56 96 60 97
REMARK SMILES IDX 63 98 57 99 58 100 61 101 59 102
REMARK H PARENT 19 6 6 17 24 36 83 55 51 66
REMARK Flexibility Score: inf
ROOT
ATOM      1  C   UNL A   1      31.049  31.885  25.902  1.00  0.00     0.023 C 
ENDROOT
BRANCH   1   2
ATOM      2  C   UNL A   1      31.074  30.461  25.365  1.00  0.00     0.116 C 
BRANCH   2   3
ATOM      3  N   UNL A   1      32.297  29.770  25.691  1.00  0.00    -0.356 N 
ATOM      4  C   UNL A   1      32.848  28.650  25.166  1.00  0.00     0.224 C 
ATOM      5  O   UNL A   1      33.934  28.296  25.635  1.00  0.00    -0.275 OA
ATOM      6  H   UNL A   1      32.818  30.181  26.418  1.00  0.00     0.163 HD
BRANCH   4   7
ATOM      7  C   UNL A   1      32.199  27.828  24.052  1.00  0.00     0.095 C 
ATOM      8  C   UNL A   1      31.189  26.752  24.492  1.00  0.00     0.095 C 
ATOM      9  C   UNL A   1      29.709  27.153  24.313  1.00  0.00     0.045 C 
ATOM     10  C   UNL A   1      29.378  28.153  23.230  1.00  0.00    -0.074 C 
ATOM     11  C   UNL A   1      31.799  28.662  22.826  1.00  0.00     0.045 C 
ATOM     12  C   UNL A   1      27.894  28.385  23.071  1.00  0.00     0.039 C 
ATOM     13  C   UNL A   1      30.324  28.838  22.556  1.00  0.00    -0.074 C 
ATOM     14  C   UNL A   1      29.995  29.915  21.553  1.00  0.00     0.039 C 
BRANCH   8  15
ATOM     15  C   UNL A   1      31.431  26.258  25.931  1.00  0.00     0.230 C 
ATOM     16  N   UNL A   1      32.425  25.424  26.309  1.00  0.00    -0.302 N 
ATOM     17  H   UNL A   1      32.651  25.508  27.264  1.00  0.00     0.172 HD
ATOM     18  O   UNL A   1      30.708  26.644  26.858  1.00  0.00    -0.274 OA
BRANCH  16  19
ATOM     19  C   UNL A   1      33.185  24.494  25.668  1.00  0.00     0.190 A 
ATOM     20  C   UNL A   1      34.659  23.258  24.203  1.00  0.00     0.034 A 
ATOM     21  S   UNL A   1      34.568  24.870  24.769  1.00  0.00    -0.101 S 
ATOM     22  C   UNL A   1      33.625  22.529  24.770  1.00  0.00     0.087 A 
ATOM     23  N   UNL A   1      32.784  23.248  25.599  1.00  0.00    -0.220 NA
BRANCH  20  24
ATOM     24  C   UNL A   1      35.712  22.883  23.210  1.00  0.00     0.046 C 
ATOM     25  C   UNL A   1      36.948  22.304  23.883  1.00  0.00     0.010 C 
ENDBRANCH  20  24
BRANCH  22  26
ATOM     26  C   UNL A   1      33.338  21.147  24.432  1.00  0.00     0.001 A 
ATOM     27  C   UNL A   1      34.034  20.097  25.038  1.00  0.00     0.010 A 
ATOM     28  C   UNL A   1      32.399  20.870  23.430  1.00  0.00     0.010 A 
ATOM     29  C   UNL A   1      33.833  18.784  24.607  1.00  0.00     0.001 A 
ATOM     30  C   UNL A   1      32.201  19.557  23.000  1.00  0.00     0.001 A 
ATOM     31  C   UNL A   1      32.927  18.518  23.580  1.00  0.00     0.000 A 
ENDBRANCH  22  26
ENDBRANCH  16  19
ENDBRANCH   8  15
ENDBRANCH   4   7
ENDBRANCH   2   3
ENDBRANCH   1   2
BRANCH   1  32
ATOM     32  C   UNL A   1      31.692  32.045  27.272  1.00  0.00     0.023 C 
BRANCH  32  33
ATOM     33  C   UNL A   1      32.908  32.951  27.265  1.00  0.00     0.116 C 
BRANCH  33  34
ATOM     34  N   UNL A   1      32.585  34.320  27.647  1.00  0.00    -0.352 N 
ATOM     35  C   UNL A   1      33.062  35.048  28.705  1.00  0.00     0.251 C 
ATOM     36  H   UNL A   1      31.938  34.784  27.067  1.00  0.00     0.163 HD
ATOM     37  O   UNL A   1      32.562  36.120  29.011  1.00  0.00    -0.269 OA
BRANCH  35  38
ATOM     38  C   UNL A   1      34.183  34.493  29.483  1.00  0.00     0.039 A 
ATOM     39  C   UNL A   1      33.910  33.801  30.662  1.00  0.00     0.014 A 
ATOM     40  C   UNL A   1      35.493  34.616  29.007  1.00  0.00     0.014 A 
ATOM     41  C   UNL A   1      34.957  33.187  31.342  1.00  0.00     0.010 A 
ATOM     42  C   UNL A   1      36.515  33.915  29.627  1.00  0.00     0.010 A 
ATOM     43  C   UNL A   1      36.259  33.214  30.812  1.00  0.00    -0.014 A 
BRANCH  43  44
ATOM     44  C   UNL A   1      37.364  32.512  31.501  1.00  0.00     0.031 A 
ATOM     45  C   UNL A   1      38.061  31.361  30.835  1.00  0.00     0.074 A 
ATOM     46  C   UNL A   1      37.704  32.893  32.746  1.00  0.00     0.049 A 
ATOM     47  N   UNL A   1      39.081  30.659  31.255  1.00  0.00    -0.248 NA
ATOM     48  C   UNL A   1      37.519  30.914  29.541  1.00  0.00     0.031 C 
ATOM     49  C   UNL A   1      37.025  33.929  33.526  1.00  0.00     0.029 A 
ATOM     50  N   UNL A   1      38.705  32.455  33.572  1.00  0.00    -0.354 N 
ATOM     51  C   UNL A   1      39.289  29.685  30.288  1.00  0.00     0.074 A 
ATOM     52  C   UNL A   1      38.251  29.840  29.296  1.00  0.00     0.031 C 
ATOM     53  C   UNL A   1      37.656  34.075  34.702  1.00  0.00     0.029 A 
ATOM     54  C   UNL A   1      38.765  33.130  34.765  1.00  0.00     0.049 A 
ATOM     55  H   UNL A   1      39.323  31.727  33.332  1.00  0.00     0.167 HD
ATOM     56  C   UNL A   1      40.280  28.764  30.221  1.00  0.00     0.037 A 
ATOM     57  C   UNL A   1      39.630  33.007  35.787  1.00  0.00     0.037 A 
ATOM     58  C   UNL A   1      41.321  28.638  31.207  1.00  0.00     0.049 A 
ATOM     59  C   UNL A   1      40.761  32.025  35.662  1.00  0.00     0.074 A 
ATOM     60  C   UNL A   1      42.424  27.805  31.198  1.00  0.00     0.029 A 
ATOM     61  N   UNL A   1      41.379  29.368  32.387  1.00  0.00    -0.354 N 
ATOM     62  N   UNL A   1      41.022  31.185  34.689  1.00  0.00    -0.248 NA
ATOM     63  C   UNL A   1      41.729  31.993  36.763  1.00  0.00     0.031 C 
ATOM     64  C   UNL A   1      43.120  27.990  32.400  1.00  0.00     0.029 A 
ATOM     65  C   UNL A   1      42.484  28.984  33.129  1.00  0.00     0.049 A 
ATOM     66  H   UNL A   1      40.730  30.058  32.656  1.00  0.00     0.167 HD
ATOM     67  C   UNL A   1      42.191  30.531  35.053  1.00  0.00     0.074 A 
ATOM     68  C   UNL A   1      42.603  31.099  36.322  1.00  0.00     0.031 C 
ATOM     69  C   UNL A   1      42.861  29.547  34.402  1.00  0.00     0.037 A 
BRANCH  56  70
ATOM     70  C   UNL A   1      40.273  27.826  29.047  1.00  0.00     0.064 A 
ATOM     71  C   UNL A   1      40.979  28.109  27.866  1.00  0.00     0.173 A 
ATOM     72  C   UNL A   1      39.549  26.625  29.102  1.00  0.00     0.173 A 
ATOM     73  F   UNL A   1      41.676  29.250  27.752  1.00  0.00    -0.203 F 
ATOM     74  C   UNL A   1      40.925  27.248  26.772  1.00  0.00     0.198 A 
ATOM     75  C   UNL A   1      39.527  25.750  28.019  1.00  0.00     0.198 A 
ATOM     76  F   UNL A   1      38.858  26.302  30.205  1.00  0.00    -0.203 F 
ATOM     77  F   UNL A   1      41.552  27.575  25.634  1.00  0.00    -0.200 F 
ATOM     78  C   UNL A   1      40.205  26.067  26.852  1.00  0.00     0.200 A 
ATOM     79  F   UNL A   1      38.838  24.603  28.103  1.00  0.00    -0.200 F 
ATOM     80  F   UNL A   1      40.153  25.239  25.799  1.00  0.00    -0.200 F 
ENDBRANCH  56  70
BRANCH  57  81
ATOM     81  C   UNL A   1      39.479  33.875  36.982  1.00  0.00     0.064 A 
ATOM     82  C   UNL A   1      40.005  35.174  37.006  1.00  0.00     0.173 A 
ATOM     83  C   UNL A   1      38.773  33.436  38.112  1.00  0.00     0.173 A 
ATOM     84  F   UNL A   1      40.700  35.634  35.955  1.00  0.00    -0.203 F 
ATOM     85  C   UNL A   1      39.842  35.996  38.119  1.00  0.00     0.198 A 
ATOM     86  C   UNL A   1      38.587  34.270  39.213  1.00  0.00     0.198 A 
ATOM     87  F   UNL A   1      38.240  32.206  38.135  1.00  0.00    -0.203 F 
ATOM     88  F   UNL A   1      40.386  37.222  38.129  1.00  0.00    -0.200 F 
ATOM     89  C   UNL A   1      39.126  35.547  39.218  1.00  0.00     0.200 A 
ATOM     90  F   UNL A   1      37.878  33.838  40.265  1.00  0.00    -0.200 F 
ATOM     91  F   UNL A   1      38.958  36.344  40.282  1.00  0.00    -0.200 F 
ENDBRANCH  57  81
BRANCH  69  92
ATOM     92  C   UNL A   1      44.112  29.035  35.057  1.00  0.00     0.064 A 
ATOM     93  C   UNL A   1      44.072  28.026  36.030  1.00  0.00     0.173 A 
ATOM     94  C   UNL A   1      45.366  29.559  34.704  1.00  0.00     0.173 A 
ATOM     95  F   UNL A   1      42.898  27.501  36.411  1.00  0.00    -0.203 F 
ATOM     96  C   UNL A   1      45.235  27.594  36.661  1.00  0.00     0.198 A 
ATOM     97  C   UNL A   1      46.530  29.098  35.311  1.00  0.00     0.198 A 
ATOM     98  F   UNL A   1      45.461  30.518  33.772  1.00  0.00    -0.203 F 
ATOM     99  F   UNL A   1      45.165  26.680  37.639  1.00  0.00    -0.200 F 
ATOM    100  C   UNL A   1      46.463  28.127  36.298  1.00  0.00     0.200 A 
ATOM    101  F   UNL A   1      47.717  29.603  34.948  1.00  0.00    -0.200 F 
ATOM    102  F   UNL A   1      47.581  27.713  36.910  1.00  0.00    -0.200 F 
ENDBRANCH  69  92
ENDBRANCH  43  44
ENDBRANCH  35  38
ENDBRANCH  33  34
ENDBRANCH  32  33
ENDBRANCH   1  32
TORSDOF 15
ENDMDL
MODEL 2
REMARK VINA RESULT:     -13.5      5.455     11.268
REMARK SMILES CCc1sc(NC(=O)[C@H]2CC(C)=C(C)C[C@H]2C(=O)NCCCCNC(=O)c2ccc(-c3c4nc(c(-c5c(F)c(F)c(F)c(F)c5F)c5ccc([nH]5)c(-c5c(F)c(F)c(F)c(F)c5F)c5nc(c(-c6c(F)c(F)c(F)c(F)c6F)c6ccc3[nH]6)C=C5)C=C4)cc2)nc1-c1ccccc1
REMARK SMILES IDX 21 1 20 2 19 3 17 4 18 5 16 7 9 8 10 9 11 10 15 11 12 12
REMARK SMILES IDX 13 13 14 14 7 15 6 16 8 18 5 19 3 20 4 21 91 22 90 23 2 24
REMARK SMILES IDX 1 25 92 26 93 27 97 28 94 29 96 30 95 31 22 32 23 33 24 34
REMARK SMILES IDX 25 35 26 37 27 38 28 39 89 40 29 41 88 42 30 43 31 44 32 45
REMARK SMILES IDX 82 46 33 47 87 48 81 49 83 50 34 51 86 52 80 53 79 54 35 56
REMARK SMILES IDX 67 57 47 58 66 59 48 60 51 61 65 62 84 63 49 64 50 65 64 67
REMARK SMILES IDX 85 68 52 69 36 70 37 71 45 72 38 73 39 74 43 75 46 76 40 77
REMARK SMILES IDX 41 78 44 79 42 80 68 81 69 82 77 83 70 84 71 85 75 86 78 87
REMARK SMILES IDX 72 88 73 89 76 90 74 91 53 92 54 93 62 94 55 95 56 96 60 97
REMARK SMILES IDX 63 98 57 99 58 100 61 101 59 102
REMARK H PARENT 19 6 6 17 24 36 83 55 51 66
REMARK Flexibility Score: inf
ROOT
ATOM      1  C   UNL A   1      37.335  19.417  25.077  1.00  0.00     0.023 C 
ENDROOT
BRANCH   1   2
ATOM      2  C   UNL A   1      36.185  20.346  24.713  1.00  0.00     0.116 C 
BRANCH   2   3
ATOM      3  N   UNL A   1      36.325  21.654  25.306  1.00  0.00    -0.356 N 
ATOM      4  C   UNL A   1      35.391  22.554  25.694  1.00  0.00     0.224 C 
ATOM      5  O   UNL A   1      35.808  23.600  26.201  1.00  0.00    -0.275 OA
ATOM      6  H   UNL A   1      37.255  21.940  25.453  1.00  0.00     0.163 HD
BRANCH   4   7
ATOM      7  C   UNL A   1      33.886  22.337  25.531  1.00  0.00     0.095 C 
ATOM      8  C   UNL A   1      33.296  22.636  24.140  1.00  0.00     0.095 C 
ATOM      9  C   UNL A   1      33.017  21.383  23.282  1.00  0.00     0.045 C 
ATOM     10  C   UNL A   1      32.727  20.087  24.002  1.00  0.00    -0.074 C 
ATOM     11  C   UNL A   1      33.370  21.065  26.220  1.00  0.00     0.045 C 
ATOM     12  C   UNL A   1      32.360  18.959  23.069  1.00  0.00     0.039 C 
ATOM     13  C   UNL A   1      32.887  19.941  25.334  1.00  0.00    -0.074 C 
ATOM     14  C   UNL A   1      32.705  18.622  26.040  1.00  0.00     0.039 C 
BRANCH   8  15
ATOM     15  C   UNL A   1      34.136  23.648  23.339  1.00  0.00     0.230 C 
ATOM     16  N   UNL A   1      34.217  24.971  23.602  1.00  0.00    -0.302 N 
ATOM     17  H   UNL A   1      35.042  25.380  23.252  1.00  0.00     0.172 HD
ATOM     18  O   UNL A   1      34.834  23.272  22.388  1.00  0.00    -0.274 OA
BRANCH  16  19
ATOM     19  C   UNL A   1      33.415  25.867  24.241  1.00  0.00     0.190 A 
ATOM     20  C   UNL A   1      32.057  27.124  25.797  1.00  0.00     0.034 A 
ATOM     21  S   UNL A   1      33.443  26.125  25.912  1.00  0.00    -0.101 S 
ATOM     22  C   UNL A   1      31.682  27.211  24.466  1.00  0.00     0.087 A 
ATOM     23  N   UNL A   1      32.460  26.481  23.586  1.00  0.00    -0.220 NA
BRANCH  20  24
ATOM     24  C   UNL A   1      31.444  27.681  27.042  1.00  0.00     0.046 C 
ATOM     25  C   UNL A   1      31.914  29.101  27.322  1.00  0.00     0.010 C 
ENDBRANCH  20  24
BRANCH  22  26
ATOM     26  C   UNL A   1      30.485  27.896  24.013  1.00  0.00     0.001 A 
ATOM     27  C   UNL A   1      29.313  27.188  23.729  1.00  0.00     0.010 A 
ATOM     28  C   UNL A   1      30.531  29.278  23.789  1.00  0.00     0.010 A 
ATOM     29  C   UNL A   1      28.215  27.847  23.173  1.00  0.00     0.001 A 
ATOM     30  C   UNL A   1      29.433  29.934  23.232  1.00  0.00     0.001 A 
ATOM     31  C   UNL A   1      28.281  29.215  22.914  1.00  0.00     0.000 A 
ENDBRANCH  22  26
ENDBRANCH  16  19
ENDBRANCH   8  15
ENDBRANCH   4   7
ENDBRANCH   2   3
ENDBRANCH   1   2
BRANCH   1  32
ATOM     32  C   UNL A   1      38.715  20.021  24.866  1.00  0.00     0.023 C 
BRANCH  32  33
ATOM     33  C   UNL A   1      39.567  20.032  26.121  1.00  0.00     0.116 C 
BRANCH  33  34
ATOM     34  N   UNL A   1      40.583  18.987  26.112  1.00  0.00    -0.352 N 
ATOM     35  C   UNL A   1      41.947  19.120  26.125  1.00  0.00     0.251 C 
ATOM     36  H   UNL A   1      40.245  18.062  26.095  1.00  0.00     0.163 HD
ATOM     37  O   UNL A   1      42.677  18.160  25.925  1.00  0.00    -0.269 OA
BRANCH  35  38
ATOM     38  C   UNL A   1      42.514  20.458  26.362  1.00  0.00     0.039 A 
ATOM     39  C   UNL A   1      43.051  21.165  25.287  1.00  0.00     0.014 A 
ATOM     40  C   UNL A   1      42.459  21.024  27.640  1.00  0.00     0.014 A 
ATOM     41  C   UNL A   1      43.491  22.469  25.488  1.00  0.00     0.010 A 
ATOM     42  C   UNL A   1      42.798  22.357  27.813  1.00  0.00     0.010 A 
ATOM     43  C   UNL A   1      43.338  23.083  26.744  1.00  0.00    -0.014 A 
BRANCH  43  44
ATOM     44  C   UNL A   1      43.750  24.489  26.947  1.00  0.00     0.031 A 
ATOM     45  C   UNL A   1      42.758  25.504  27.436  1.00  0.00     0.074 A 
ATOM     46  C   UNL A   1      45.011  24.850  26.647  1.00  0.00     0.049 A 
ATOM     47  N   UNL A   1      42.943  26.767  27.724  1.00  0.00    -0.248 NA
ATOM     48  C   UNL A   1      41.365  25.054  27.588  1.00  0.00     0.031 C 
ATOM     49  C   UNL A   1      46.025  23.968  26.067  1.00  0.00     0.029 A 
ATOM     50  N   UNL A   1      45.653  26.051  26.788  1.00  0.00    -0.354 N 
ATOM     51  C   UNL A   1      41.693  27.259  28.075  1.00  0.00     0.074 A 
ATOM     52  C   UNL A   1      40.747  26.182  27.897  1.00  0.00     0.031 C 
ATOM     53  C   UNL A   1      47.176  24.648  25.941  1.00  0.00     0.029 A 
ATOM     54  C   UNL A   1      46.972  26.014  26.409  1.00  0.00     0.049 A 
ATOM     55  H   UNL A   1      45.213  26.863  27.130  1.00  0.00     0.167 HD
ATOM     56  C   UNL A   1      41.373  28.491  28.534  1.00  0.00     0.037 A 
ATOM     57  C   UNL A   1      47.912  26.975  26.450  1.00  0.00     0.037 A 
ATOM     58  C   UNL A   1      42.333  29.546  28.727  1.00  0.00     0.049 A 
ATOM     59  C   UNL A   1      47.550  28.315  27.026  1.00  0.00     0.074 A 
ATOM     60  C   UNL A   1      42.139  30.803  29.270  1.00  0.00     0.029 A 
ATOM     61  N   UNL A   1      43.673  29.463  28.373  1.00  0.00    -0.354 N 
ATOM     62  N   UNL A   1      46.390  28.740  27.467  1.00  0.00    -0.248 NA
ATOM     63  C   UNL A   1      48.632  29.299  27.132  1.00  0.00     0.031 C 
ATOM     64  C   UNL A   1      43.350  31.502  29.192  1.00  0.00     0.029 A 
ATOM     65  C   UNL A   1      44.313  30.659  28.658  1.00  0.00     0.049 A 
ATOM     66  H   UNL A   1      44.105  28.672  27.978  1.00  0.00     0.167 HD
ATOM     67  C   UNL A   1      46.603  30.036  27.914  1.00  0.00     0.074 A 
ATOM     68  C   UNL A   1      48.013  30.313  27.721  1.00  0.00     0.031 C 
ATOM     69  C   UNL A   1      45.714  30.920  28.435  1.00  0.00     0.037 A 
BRANCH  56  70
ATOM     70  C   UNL A   1      39.927  28.757  28.850  1.00  0.00     0.064 A 
ATOM     71  C   UNL A   1      39.397  28.545  30.133  1.00  0.00     0.173 A 
ATOM     72  C   UNL A   1      39.058  29.229  27.854  1.00  0.00     0.173 A 
ATOM     73  F   UNL A   1      40.178  28.079  31.119  1.00  0.00    -0.203 F 
ATOM     74  C   UNL A   1      38.044  28.755  30.396  1.00  0.00     0.198 A 
ATOM     75  C   UNL A   1      37.715  29.472  28.130  1.00  0.00     0.198 A 
ATOM     76  F   UNL A   1      39.510  29.451  26.612  1.00  0.00    -0.203 F 
ATOM     77  F   UNL A   1      37.550  28.480  31.611  1.00  0.00    -0.200 F 
ATOM     78  C   UNL A   1      37.207  29.224  29.396  1.00  0.00     0.200 A 
ATOM     79  F   UNL A   1      36.909  29.937  27.165  1.00  0.00    -0.200 F 
ATOM     80  F   UNL A   1      35.906  29.425  29.649  1.00  0.00    -0.200 F 
ENDBRANCH  56  70
BRANCH  57  81
ATOM     81  C   UNL A   1      49.287  26.674  25.979  1.00  0.00     0.064 A 
ATOM     82  C   UNL A   1      50.216  26.034  26.812  1.00  0.00     0.173 A 
ATOM     83  C   UNL A   1      49.690  26.986  24.672  1.00  0.00     0.173 A 
ATOM     84  F   UNL A   1      49.881  25.727  28.074  1.00  0.00    -0.203 F 
ATOM     85  C   UNL A   1      51.498  25.731  26.361  1.00  0.00     0.198 A 
ATOM     86  C   UNL A   1      50.964  26.657  24.213  1.00  0.00     0.198 A 
ATOM     87  F   UNL A   1      48.836  27.588  23.831  1.00  0.00    -0.203 F 
ATOM     88  F   UNL A   1      52.378  25.150  27.190  1.00  0.00    -0.200 F 
ATOM     89  C   UNL A   1      51.869  26.034  25.059  1.00  0.00     0.200 A 
ATOM     90  F   UNL A   1      51.311  26.935  22.949  1.00  0.00    -0.200 F 
ATOM     91  F   UNL A   1      53.098  25.729  24.623  1.00  0.00    -0.200 F 
ENDBRANCH  57  81
BRANCH  69  92
ATOM     92  C   UNL A   1      46.253  32.264  28.833  1.00  0.00     0.064 A 
ATOM     93  C   UNL A   1      46.731  32.510  30.129  1.00  0.00     0.173 A 
ATOM     94  C   UNL A   1      46.293  33.317  27.907  1.00  0.00     0.173 A 
ATOM     95  F   UNL A   1      46.703  31.539  31.055  1.00  0.00    -0.203 F 
ATOM     96  C   UNL A   1      47.184  33.773  30.496  1.00  0.00     0.198 A 
ATOM     97  C   UNL A   1      46.781  34.569  28.268  1.00  0.00     0.198 A 
ATOM     98  F   UNL A   1      45.858  33.133  26.652  1.00  0.00    -0.203 F 
ATOM     99  F   UNL A   1      47.570  34.004  31.759  1.00  0.00    -0.200 F 
ATOM    100  C   UNL A   1      47.213  34.801  29.565  1.00  0.00     0.200 A 
ATOM    101  F   UNL A   1      46.823  35.556  27.362  1.00  0.00    -0.200 F 
ATOM    102  F   UNL A   1      47.647  36.018  29.921  1.00  0.00    -0.200 F 
ENDBRANCH  69  92
ENDBRANCH  43  44
ENDBRANCH  35  38
ENDBRANCH  33  34
ENDBRANCH  32  33
ENDBRANCH   1  32
TORSDOF 15
ENDMDL
MODEL 3
REMARK VINA RESULT:     -13.3      0.797      7.151
REMARK SMILES CCc1sc(NC(=O)[C@H]2CC(C)=C(C)C[C@H]2C(=O)NCCCCNC(=O)c2ccc(-c3c4nc(c(-c5c(F)c(F)c(F)c(F)c5F)c5ccc([nH]5)c(-c5c(F)c(F)c(F)c(F)c5F)c5nc(c(-c6c(F)c(F)c(F)c(F)c6F)c6ccc3[nH]6)C=C5)C=C4)cc2)nc1-c1ccccc1
REMARK SMILES IDX 21 1 20 2 19 3 17 4 18 5 16 7 9 8 10 9 11 10 15 11 12 12
REMARK SMILES IDX 13 13 14 14 7 15 6 16 8 18 5 19 3 20 4 21 91 22 90 23 2 24
REMARK SMILES IDX 1 25 92 26 93 27 97 28 94 29 96 30 95 31 22 32 23 33 24 34
REMARK SMILES IDX 25 35 26 37 27 38 28 39 89 40 29 41 88 42 30 43 31 44 32 45
REMARK SMILES IDX 82 46 33 47 87 48 81 49 83 50 34 51 86 52 80 53 79 54 35 56
REMARK SMILES IDX 67 57 47 58 66 59 48 60 51 61 65 62 84 63 49 64 50 65 64 67
REMARK SMILES IDX 85 68 52 69 36 70 37 71 45 72 38 73 39 74 43 75 46 76 40 77
REMARK SMILES IDX 41 78 44 79 42 80 68 81 69 82 77 83 70 84 71 85 75 86 78 87
REMARK SMILES IDX 72 88 73 89 76 90 74 91 53 92 54 93 62 94 55 95 56 96 60 97
REMARK SMILES IDX 63 98 57 99 58 100 61 101 59 102
REMARK H PARENT 19 6 6 17 24 36 83 55 51 66
REMARK Flexibility Score: inf
ROOT
ATOM      1  C   UNL A   1      31.009  31.746  25.861  1.00  0.00     0.023 C 
ENDROOT
BRANCH   1   2
ATOM      2  C   UNL A   1      31.048  30.300  25.386  1.00  0.00     0.116 C 
BRANCH   2   3
ATOM      3  N   UNL A   1      32.318  29.668  25.646  1.00  0.00    -0.356 N 
ATOM      4  C   UNL A   1      32.890  28.573  25.093  1.00  0.00     0.224 C 
ATOM      5  O   UNL A   1      34.016  28.272  25.501  1.00  0.00    -0.275 OA
ATOM      6  H   UNL A   1      32.859  30.108  26.340  1.00  0.00     0.163 HD
BRANCH   4   7
ATOM      7  C   UNL A   1      32.218  27.715  24.020  1.00  0.00     0.095 C 
ATOM      8  C   UNL A   1      31.222  26.652  24.516  1.00  0.00     0.095 C 
ATOM      9  C   UNL A   1      29.737  27.044  24.356  1.00  0.00     0.045 C 
ATOM     10  C   UNL A   1      29.379  28.009  23.251  1.00  0.00    -0.074 C 
ATOM     11  C   UNL A   1      31.789  28.510  22.777  1.00  0.00     0.045 C 
ATOM     12  C   UNL A   1      27.892  28.234  23.118  1.00  0.00     0.039 C 
ATOM     13  C   UNL A   1      30.308  28.675  22.535  1.00  0.00    -0.074 C 
ATOM     14  C   UNL A   1      29.955  29.720  21.507  1.00  0.00     0.039 C 
BRANCH   8  15
ATOM     15  C   UNL A   1      31.497  26.203  25.963  1.00  0.00     0.230 C 
ATOM     16  N   UNL A   1      32.516  25.404  26.348  1.00  0.00    -0.302 N 
ATOM     17  H   UNL A   1      32.754  25.519  27.297  1.00  0.00     0.172 HD
ATOM     18  O   UNL A   1      30.778  26.597  26.890  1.00  0.00    -0.274 OA
BRANCH  16  19
ATOM     19  C   UNL A   1      33.290  24.475  25.720  1.00  0.00     0.190 A 
ATOM     20  C   UNL A   1      34.840  23.254  24.324  1.00  0.00     0.034 A 
ATOM     21  S   UNL A   1      34.774  24.829  24.992  1.00  0.00    -0.101 S 
ATOM     22  C   UNL A   1      33.718  22.551  24.733  1.00  0.00     0.087 A 
ATOM     23  N   UNL A   1      32.834  23.262  25.523  1.00  0.00    -0.220 NA
BRANCH  20  24
ATOM     24  C   UNL A   1      35.969  22.885  23.416  1.00  0.00     0.046 C 
ATOM     25  C   UNL A   1      37.006  22.022  24.120  1.00  0.00     0.010 C 
ENDBRANCH  20  24
BRANCH  22  26
ATOM     26  C   UNL A   1      33.397  21.214  24.271  1.00  0.00     0.001 A 
ATOM     27  C   UNL A   1      32.549  21.013  23.177  1.00  0.00     0.010 A 
ATOM     28  C   UNL A   1      33.888  20.109  24.978  1.00  0.00     0.010 A 
ATOM     29  C   UNL A   1      32.150  19.722  22.828  1.00  0.00     0.001 A 
ATOM     30  C   UNL A   1      33.487  18.819  24.628  1.00  0.00     0.001 A 
ATOM     31  C   UNL A   1      32.609  18.628  23.562  1.00  0.00     0.000 A 
ENDBRANCH  22  26
ENDBRANCH  16  19
ENDBRANCH   8  15
ENDBRANCH   4   7
ENDBRANCH   2   3
ENDBRANCH   1   2
BRANCH   1  32
ATOM     32  C   UNL A   1      31.647  31.972  27.223  1.00  0.00     0.023 C 
BRANCH  32  33
ATOM     33  C   UNL A   1      32.844  32.903  27.183  1.00  0.00     0.116 C 
BRANCH  33  34
ATOM     34  N   UNL A   1      32.517  34.248  27.641  1.00  0.00    -0.352 N 
ATOM     35  C   UNL A   1      33.042  34.941  28.700  1.00  0.00     0.251 C 
ATOM     36  H   UNL A   1      31.829  34.722  27.120  1.00  0.00     0.163 HD
ATOM     37  O   UNL A   1      32.540  35.989  29.080  1.00  0.00    -0.269 OA
BRANCH  35  38
ATOM     38  C   UNL A   1      34.217  34.379  29.387  1.00  0.00     0.039 A 
ATOM     39  C   UNL A   1      34.024  33.603  30.529  1.00  0.00     0.014 A 
ATOM     40  C   UNL A   1      35.497  34.581  28.862  1.00  0.00     0.014 A 
ATOM     41  C   UNL A   1      35.122  32.984  31.119  1.00  0.00     0.010 A 
ATOM     42  C   UNL A   1      36.570  33.879  29.387  1.00  0.00     0.010 A 
ATOM     43  C   UNL A   1      36.396  33.093  30.533  1.00  0.00    -0.014 A 
BRANCH  43  44
ATOM     44  C   UNL A   1      37.555  32.389  31.123  1.00  0.00     0.031 A 
ATOM     45  C   UNL A   1      38.025  32.734  32.506  1.00  0.00     0.074 A 
ATOM     46  C   UNL A   1      38.204  31.468  30.386  1.00  0.00     0.049 A 
ATOM     47  N   UNL A   1      38.985  32.192  33.211  1.00  0.00    -0.248 NA
ATOM     48  C   UNL A   1      37.355  33.861  33.175  1.00  0.00     0.031 C 
ATOM     49  C   UNL A   1      37.896  31.131  28.995  1.00  0.00     0.029 A 
ATOM     50  N   UNL A   1      39.253  30.648  30.705  1.00  0.00    -0.354 N 
ATOM     51  C   UNL A   1      39.040  32.919  34.392  1.00  0.00     0.074 A 
ATOM     52  C   UNL A   1      38.068  33.982  34.283  1.00  0.00     0.031 C 
ATOM     53  C   UNL A   1      38.712  30.145  28.593  1.00  0.00     0.029 A 
ATOM     54  C   UNL A   1      39.611  29.798  29.688  1.00  0.00     0.049 A 
ATOM     55  H   UNL A   1      39.707  30.666  31.578  1.00  0.00     0.167 HD
ATOM     56  C   UNL A   1      39.812  32.697  35.481  1.00  0.00     0.037 A 
ATOM     57  C   UNL A   1      40.552  28.837  29.654  1.00  0.00     0.037 A 
ATOM     58  C   UNL A   1      40.760  31.618  35.582  1.00  0.00     0.049 A 
ATOM     59  C   UNL A   1      41.351  28.564  30.897  1.00  0.00     0.074 A 
ATOM     60  C   UNL A   1      41.530  31.242  36.667  1.00  0.00     0.029 A 
ATOM     61  N   UNL A   1      41.069  30.745  34.548  1.00  0.00    -0.354 N 
ATOM     62  N   UNL A   1      41.316  29.181  32.054  1.00  0.00    -0.248 NA
ATOM     63  C   UNL A   1      42.300  27.448  30.836  1.00  0.00     0.031 C 
ATOM     64  C   UNL A   1      42.348  30.176  36.272  1.00  0.00     0.029 A 
ATOM     65  C   UNL A   1      42.042  29.848  34.959  1.00  0.00     0.049 A 
ATOM     66  H   UNL A   1      40.657  30.760  33.654  1.00  0.00     0.167 HD
ATOM     67  C   UNL A   1      42.229  28.521  32.865  1.00  0.00     0.074 A 
ATOM     68  C   UNL A   1      42.775  27.436  32.074  1.00  0.00     0.031 C 
ATOM     69  C   UNL A   1      42.588  28.789  34.146  1.00  0.00     0.037 A 
BRANCH  56  70
ATOM     70  C   UNL A   1      39.662  33.643  36.639  1.00  0.00     0.064 A 
ATOM     71  C   UNL A   1      38.812  33.363  37.722  1.00  0.00     0.173 A 
ATOM     72  C   UNL A   1      40.377  34.850  36.667  1.00  0.00     0.173 A 
ATOM     73  F   UNL A   1      38.092  32.231  37.741  1.00  0.00    -0.203 F 
ATOM     74  C   UNL A   1      38.653  34.272  38.765  1.00  0.00     0.198 A 
ATOM     75  C   UNL A   1      40.242  35.740  37.730  1.00  0.00     0.198 A 
ATOM     76  F   UNL A   1      41.204  35.170  35.662  1.00  0.00    -0.203 F 
ATOM     77  F   UNL A   1      37.785  34.011  39.752  1.00  0.00    -0.200 F 
ATOM     78  C   UNL A   1      39.372  35.457  38.771  1.00  0.00     0.200 A 
ATOM     79  F   UNL A   1      40.948  36.880  37.739  1.00  0.00    -0.200 F 
ATOM     80  F   UNL A   1      39.218  36.331  39.775  1.00  0.00    -0.200 F 
ENDBRANCH  56  70
BRANCH  57  81
ATOM     81  C   UNL A   1      40.738  28.041  28.415  1.00  0.00     0.064 A 
ATOM     82  C   UNL A   1      41.586  28.482  27.389  1.00  0.00     0.173 A 
ATOM     83  C   UNL A   1      40.101  26.803  28.247  1.00  0.00     0.173 A 
ATOM     84  F   UNL A   1      42.207  29.666  27.498  1.00  0.00    -0.203 F 
ATOM     85  C   UNL A   1      41.779  27.722  26.238  1.00  0.00     0.198 A 
ATOM     86  C   UNL A   1      40.316  26.031  27.107  1.00  0.00     0.198 A 
ATOM     87  F   UNL A   1      39.289  26.330  29.204  1.00  0.00    -0.203 F 
ATOM     88  F   UNL A   1      42.568  28.184  25.257  1.00  0.00    -0.200 F 
ATOM     89  C   UNL A   1      41.150  26.493  26.101  1.00  0.00     0.200 A 
ATOM     90  F   UNL A   1      39.722  24.836  26.988  1.00  0.00    -0.200 F 
ATOM     91  F   UNL A   1      41.348  25.757  24.999  1.00  0.00    -0.200 F 
ENDBRANCH  57  81
BRANCH  69  92
ATOM     92  C   UNL A   1      43.615  27.884  34.763  1.00  0.00     0.064 A 
ATOM     93  C   UNL A   1      44.981  28.202  34.745  1.00  0.00     0.173 A 
ATOM     94  C   UNL A   1      43.228  26.685  35.381  1.00  0.00     0.173 A 
ATOM     95  F   UNL A   1      45.404  29.331  34.155  1.00  0.00    -0.203 F 
ATOM     96  C   UNL A   1      45.926  27.331  35.280  1.00  0.00     0.198 A 
ATOM     97  C   UNL A   1      44.172  25.834  35.947  1.00  0.00     0.198 A 
ATOM     98  F   UNL A   1      41.933  26.338  35.435  1.00  0.00    -0.203 F 
ATOM     99  F   UNL A   1      47.231  27.622  35.188  1.00  0.00    -0.200 F 
ATOM    100  C   UNL A   1      45.520  26.150  35.884  1.00  0.00     0.200 A 
ATOM    101  F   UNL A   1      43.777  24.702  36.545  1.00  0.00    -0.200 F 
ATOM    102  F   UNL A   1      46.431  25.311  36.396  1.00  0.00    -0.200 F 
ENDBRANCH  69  92
ENDBRANCH  43  44
ENDBRANCH  35  38
ENDBRANCH  33  34
ENDBRANCH  32  33
ENDBRANCH   1  32
TORSDOF 15
ENDMDL
