MODEL 1
REMARK VINA RESULT:      -9.0      0.000      0.000
REMARK SMILES CC(C)C[C@H](NC(=O)[C@H](C)NC(=O)[C@@H](NC(=O)CNC(=O)OCc1ccccc1)C(C)C)C(=O)NCCCCNC(=O)c1ccc(-c2c3nc(c(-c4c(F)c(F)c(F)c(F)c4F)c4ccc([nH]4)c(-c4c(F)c(F)c(F)c(F)c4F)c4nc(c(-c5c(F)c(F)c(F)c(F)c5F)c5ccc2[nH]5)C=C4)C=C3)cc1
REMARK SMILES IDX 6 1 7 2 8 3 5 5 4 6 2 7 1 8 3 9 33 10 34 11 35 12 36 14
REMARK SMILES IDX 37 15 38 16 39 17 40 18 41 19 42 21 43 22 44 23 105 24 45 25
REMARK SMILES IDX 104 26 46 27 47 28 48 29 98 30 49 31 103 32 97 33 99 34
REMARK SMILES IDX 50 35 102 36 96 37 95 38 51 40 83 41 63 42 82 43 64 44 67 45
REMARK SMILES IDX 81 46 100 47 65 48 66 49 80 51 101 52 68 53 52 54 53 55
REMARK SMILES IDX 61 56 54 57 55 58 59 59 62 60 56 61 57 62 60 63 58 64 84 65
REMARK SMILES IDX 85 66 93 67 86 68 87 69 91 70 94 71 88 72 89 73 92 74 90 75
REMARK SMILES IDX 69 76 70 77 78 78 71 79 72 80 76 81 79 82 73 83 74 84 77 85
REMARK SMILES IDX 75 86 9 87 10 88 11 89 12 90 13 92 14 93 15 94 16 95 17 97
REMARK SMILES IDX 18 98 19 99 20 100 21 102 22 103 23 104 24 105 25 106 29 107
REMARK SMILES IDX 26 108 28 109 27 110 30 111 31 112 32 113
REMARK H PARENT 6 4 35 13 40 20 99 39 67 50 11 91 15 96 19 101
REMARK Flexibility Score: inf
ROOT
ATOM      1  N   UNL A   1      42.355  28.732  26.680  1.00  0.00    -0.343 N 
ATOM      2  C   UNL A   1      43.696  28.960  26.839  1.00  0.00     0.242 C 
ATOM      3  O   UNL A   1      44.131  30.052  26.461  1.00  0.00    -0.273 OA
ATOM      4  H   UNL A   1      41.955  28.945  25.805  1.00  0.00     0.164 HD
ENDROOT
BRANCH   1   5
ATOM      5  C   UNL A   1      41.477  28.195  27.715  1.00  0.00     0.171 C 
BRANCH   5   6
ATOM      6  C   UNL A   1      41.527  26.656  27.737  1.00  0.00     0.038 C 
BRANCH   6   7
ATOM      7  C   UNL A   1      40.229  26.034  27.180  1.00  0.00    -0.015 C 
ATOM      8  C   UNL A   1      40.508  25.008  26.074  1.00  0.00     0.007 C 
ATOM      9  C   UNL A   1      39.442  25.362  28.302  1.00  0.00     0.007 C 
ENDBRANCH   6   7
ENDBRANCH   5   6
BRANCH   5  10
ATOM     10  C   UNL A   1      41.640  28.835  29.103  1.00  0.00     0.242 C 
ATOM     11  O   UNL A   1      42.529  28.451  29.868  1.00  0.00    -0.273 OA
ATOM     12  N   UNL A   1      40.862  29.858  29.532  1.00  0.00    -0.354 N 
ATOM     13  H   UNL A   1      41.077  30.185  30.436  1.00  0.00     0.163 HD
BRANCH  12  14
ATOM     14  C   UNL A   1      39.768  30.549  28.886  1.00  0.00     0.116 C 
BRANCH  14  15
ATOM     15  C   UNL A   1      38.452  29.799  29.067  1.00  0.00     0.023 C 
BRANCH  15  16
ATOM     16  C   UNL A   1      37.239  30.442  28.384  1.00  0.00     0.023 C 
BRANCH  16  17
ATOM     17  C   UNL A   1      35.881  30.049  28.954  1.00  0.00     0.116 C 
BRANCH  17  18
ATOM     18  N   UNL A   1      35.111  31.193  29.412  1.00  0.00    -0.352 N 
ATOM     19  C   UNL A   1      35.270  31.946  30.549  1.00  0.00     0.251 C 
ATOM     20  H   UNL A   1      34.370  31.467  28.824  1.00  0.00     0.163 HD
ATOM     21  O   UNL A   1      34.434  32.791  30.856  1.00  0.00    -0.269 OA
BRANCH  19  22
ATOM     22  C   UNL A   1      36.438  31.713  31.422  1.00  0.00     0.039 A 
ATOM     23  C   UNL A   1      37.577  32.502  31.249  1.00  0.00     0.014 A 
ATOM     24  C   UNL A   1      36.402  30.735  32.419  1.00  0.00     0.014 A 
ATOM     25  C   UNL A   1      38.655  32.358  32.124  1.00  0.00     0.010 A 
ATOM     26  C   UNL A   1      37.442  30.649  33.339  1.00  0.00     0.010 A 
ATOM     27  C   UNL A   1      38.581  31.458  33.200  1.00  0.00    -0.014 A 
BRANCH  27  28
ATOM     28  C   UNL A   1      39.682  31.355  34.191  1.00  0.00     0.031 A 
ATOM     29  C   UNL A   1      40.670  30.224  34.108  1.00  0.00     0.074 A 
ATOM     30  C   UNL A   1      39.756  32.243  35.200  1.00  0.00     0.049 A 
ATOM     31  N   UNL A   1      41.660  29.928  34.913  1.00  0.00    -0.248 NA
ATOM     32  C   UNL A   1      40.507  29.286  32.987  1.00  0.00     0.031 C 
ATOM     33  C   UNL A   1      38.829  33.354  35.419  1.00  0.00     0.029 A 
ATOM     34  N   UNL A   1      40.647  32.347  36.240  1.00  0.00    -0.354 N 
ATOM     35  C   UNL A   1      42.229  28.770  34.399  1.00  0.00     0.074 A 
ATOM     36  C   UNL A   1      41.435  28.381  33.254  1.00  0.00     0.031 C 
ATOM     37  C   UNL A   1      39.210  34.039  36.508  1.00  0.00     0.029 A 
ATOM     38  C   UNL A   1      40.383  33.393  37.090  1.00  0.00     0.049 A 
ATOM     39  H   UNL A   1      41.404  31.729  36.365  1.00  0.00     0.167 HD
ATOM     40  C   UNL A   1      43.329  28.107  34.828  1.00  0.00     0.037 A 
ATOM     41  C   UNL A   1      41.008  33.782  38.218  1.00  0.00     0.037 A 
ATOM     42  C   UNL A   1      44.122  28.505  35.962  1.00  0.00     0.049 A 
ATOM     43  C   UNL A   1      42.216  33.015  38.686  1.00  0.00     0.074 A 
ATOM     44  C   UNL A   1      45.282  27.930  36.449  1.00  0.00     0.029 A 
ATOM     45  N   UNL A   1      43.830  29.579  36.791  1.00  0.00    -0.354 N 
ATOM     46  N   UNL A   1      42.788  31.963  38.152  1.00  0.00    -0.248 NA
ATOM     47  C   UNL A   1      42.873  33.497  39.910  1.00  0.00     0.031 C 
ATOM     48  C   UNL A   1      45.662  28.620  37.605  1.00  0.00     0.029 A 
ATOM     49  C   UNL A   1      44.774  29.666  37.802  1.00  0.00     0.049 A 
ATOM     50  H   UNL A   1      43.066  30.189  36.678  1.00  0.00     0.167 HD
ATOM     51  C   UNL A   1      43.884  31.674  38.955  1.00  0.00     0.074 A 
ATOM     52  C   UNL A   1      43.908  32.674  40.002  1.00  0.00     0.031 C 
ATOM     53  C   UNL A   1      44.789  30.671  38.835  1.00  0.00     0.037 A 
BRANCH  40  54
ATOM     54  C   UNL A   1      43.741  26.879  34.066  1.00  0.00     0.064 A 
ATOM     55  C   UNL A   1      44.614  26.953  32.968  1.00  0.00     0.173 A 
ATOM     56  C   UNL A   1      43.283  25.611  34.452  1.00  0.00     0.173 A 
ATOM     57  F   UNL A   1      45.074  28.141  32.549  1.00  0.00    -0.203 F 
ATOM     58  C   UNL A   1      44.984  25.808  32.267  1.00  0.00     0.198 A 
ATOM     59  C   UNL A   1      43.683  24.464  33.770  1.00  0.00     0.198 A 
ATOM     60  F   UNL A   1      42.451  25.481  35.497  1.00  0.00    -0.203 F 
ATOM     61  F   UNL A   1      45.772  25.911  31.187  1.00  0.00    -0.200 F 
ATOM     62  C   UNL A   1      44.525  24.564  32.673  1.00  0.00     0.200 A 
ATOM     63  F   UNL A   1      43.251  23.262  34.174  1.00  0.00    -0.200 F 
ATOM     64  F   UNL A   1      44.888  23.463  32.002  1.00  0.00    -0.200 F 
ENDBRANCH  40  54
BRANCH  41  65
ATOM     65  C   UNL A   1      40.513  34.962  38.974  1.00  0.00     0.064 A 
ATOM     66  C   UNL A   1      39.466  34.841  39.898  1.00  0.00     0.173 A 
ATOM     67  C   UNL A   1      41.071  36.235  38.785  1.00  0.00     0.173 A 
ATOM     68  F   UNL A   1      38.887  33.649  40.100  1.00  0.00    -0.203 F 
ATOM     69  C   UNL A   1      38.980  35.951  40.587  1.00  0.00     0.198 A 
ATOM     70  C   UNL A   1      40.606  37.339  39.499  1.00  0.00     0.198 A 
ATOM     71  F   UNL A   1      42.079  36.406  37.917  1.00  0.00    -0.203 F 
ATOM     72  F   UNL A   1      37.945  35.815  41.427  1.00  0.00    -0.200 F 
ATOM     73  C   UNL A   1      39.555  37.198  40.391  1.00  0.00     0.200 A 
ATOM     74  F   UNL A   1      41.176  38.539  39.319  1.00  0.00    -0.200 F 
ATOM     75  F   UNL A   1      39.091  38.264  41.057  1.00  0.00    -0.200 F 
ENDBRANCH  41  65
BRANCH  53  76
ATOM     76  C   UNL A   1      45.906  30.627  39.839  1.00  0.00     0.064 A 
ATOM     77  C   UNL A   1      45.808  29.880  41.023  1.00  0.00     0.173 A 
ATOM     78  C   UNL A   1      47.107  31.310  39.592  1.00  0.00     0.173 A 
ATOM     79  F   UNL A   1      44.676  29.220  41.313  1.00  0.00    -0.203 F 
ATOM     80  C   UNL A   1      46.860  29.842  41.935  1.00  0.00     0.198 A 
ATOM     81  C   UNL A   1      48.169  31.241  40.489  1.00  0.00     0.198 A 
ATOM     82  F   UNL A   1      47.257  32.033  38.472  1.00  0.00    -0.203 F 
ATOM     83  F   UNL A   1      46.724  29.166  43.084  1.00  0.00    -0.200 F 
ATOM     84  C   UNL A   1      48.042  30.515  41.664  1.00  0.00     0.200 A 
ATOM     85  F   UNL A   1      49.317  31.877  40.217  1.00  0.00    -0.200 F 
ATOM     86  F   UNL A   1      49.056  30.469  42.537  1.00  0.00    -0.200 F 
ENDBRANCH  53  76
ENDBRANCH  27  28
ENDBRANCH  19  22
ENDBRANCH  17  18
ENDBRANCH  16  17
ENDBRANCH  15  16
ENDBRANCH  14  15
ENDBRANCH  12  14
ENDBRANCH   5  10
ENDBRANCH   1   5
BRANCH   2  87
ATOM     87  C   UNL A   1      44.654  27.806  27.238  1.00  0.00     0.168 C 
ATOM     88  C   UNL A   1      45.693  28.021  28.325  1.00  0.00     0.041 C 
BRANCH  87  89
ATOM     89  N   UNL A   1      45.343  27.307  26.060  1.00  0.00    -0.343 N 
ATOM     90  C   UNL A   1      45.505  26.022  25.652  1.00  0.00     0.243 C 
ATOM     91  H   UNL A   1      45.746  27.992  25.480  1.00  0.00     0.164 HD
ATOM     92  O   UNL A   1      46.298  25.826  24.724  1.00  0.00    -0.273 OA
BRANCH  90  93
ATOM     93  C   UNL A   1      44.591  24.860  26.159  1.00  0.00     0.174 C 
BRANCH  93  94
ATOM     94  N   UNL A   1      44.092  23.934  25.106  1.00  0.00    -0.343 N 
ATOM     95  C   UNL A   1      44.527  22.868  24.379  1.00  0.00     0.240 C 
ATOM     96  H   UNL A   1      43.166  24.162  24.859  1.00  0.00     0.164 HD
ATOM     97  O   UNL A   1      43.802  22.549  23.427  1.00  0.00    -0.273 OA
BRANCH  95  98
ATOM     98  C   UNL A   1      45.837  22.085  24.606  1.00  0.00     0.219 C 
BRANCH  98  99
ATOM     99  N   UNL A   1      45.905  20.807  23.923  1.00  0.00    -0.312 N 
ATOM    100  C   UNL A   1      45.459  19.601  24.389  1.00  0.00     0.407 C 
ATOM    101  H   UNL A   1      46.317  20.807  23.030  1.00  0.00     0.167 HD
ATOM    102  O   UNL A   1      45.806  18.570  23.841  1.00  0.00    -0.225 OA
BRANCH 100 103
ATOM    103  O   UNL A   1      44.700  19.709  25.510  1.00  0.00    -0.445 OA
BRANCH 103 104
ATOM    104  C   UNL A   1      43.328  19.284  25.410  1.00  0.00     0.270 C 
BRANCH 104 105
ATOM    105  C   UNL A   1      42.358  20.186  26.117  1.00  0.00    -0.011 A 
ATOM    106  C   UNL A   1      42.842  21.153  27.011  1.00  0.00     0.007 A 
ATOM    107  C   UNL A   1      40.978  20.053  25.934  1.00  0.00     0.007 A 
ATOM    108  C   UNL A   1      41.962  21.935  27.752  1.00  0.00     0.000 A 
ATOM    109  C   UNL A   1      40.097  20.849  26.668  1.00  0.00     0.000 A 
ATOM    110  C   UNL A   1      40.589  21.776  27.586  1.00  0.00     0.000 A 
ENDBRANCH 104 105
ENDBRANCH 103 104
ENDBRANCH 100 103
ENDBRANCH  98  99
ENDBRANCH  95  98
ENDBRANCH  93  94
BRANCH  93 111
ATOM    111  C   UNL A   1      45.185  24.186  27.403  1.00  0.00     0.015 C 
ATOM    112  C   UNL A   1      46.657  24.514  27.686  1.00  0.00     0.010 C 
ATOM    113  C   UNL A   1      44.353  24.501  28.649  1.00  0.00     0.010 C 
ENDBRANCH  93 111
ENDBRANCH  90  93
ENDBRANCH  87  89
ENDBRANCH   2  87
TORSDOF 24
ENDMDL
MODEL 2
REMARK VINA RESULT:      -8.5      1.030      6.978
REMARK SMILES CC(C)C[C@H](NC(=O)[C@H](C)NC(=O)[C@@H](NC(=O)CNC(=O)OCc1ccccc1)C(C)C)C(=O)NCCCCNC(=O)c1ccc(-c2c3nc(c(-c4c(F)c(F)c(F)c(F)c4F)c4ccc([nH]4)c(-c4c(F)c(F)c(F)c(F)c4F)c4nc(c(-c5c(F)c(F)c(F)c(F)c5F)c5ccc2[nH]5)C=C4)C=C3)cc1
REMARK SMILES IDX 6 1 7 2 8 3 5 5 4 6 2 7 1 8 3 9 33 10 34 11 35 12 36 14
REMARK SMILES IDX 37 15 38 16 39 17 40 18 41 19 42 21 43 22 44 23 105 24 45 25
REMARK SMILES IDX 104 26 46 27 47 28 48 29 98 30 49 31 103 32 97 33 99 34
REMARK SMILES IDX 50 35 102 36 96 37 95 38 51 40 83 41 63 42 82 43 64 44 67 45
REMARK SMILES IDX 81 46 100 47 65 48 66 49 80 51 101 52 68 53 52 54 53 55
REMARK SMILES IDX 61 56 54 57 55 58 59 59 62 60 56 61 57 62 60 63 58 64 84 65
REMARK SMILES IDX 85 66 93 67 86 68 87 69 91 70 94 71 88 72 89 73 92 74 90 75
REMARK SMILES IDX 69 76 70 77 78 78 71 79 72 80 76 81 79 82 73 83 74 84 77 85
REMARK SMILES IDX 75 86 9 87 10 88 11 89 12 90 13 92 14 93 15 94 16 95 17 97
REMARK SMILES IDX 18 98 19 99 20 100 21 102 22 103 23 104 24 105 25 106 29 107
REMARK SMILES IDX 26 108 28 109 27 110 30 111 31 112 32 113
REMARK H PARENT 6 4 35 13 40 20 99 39 67 50 11 91 15 96 19 101
REMARK Flexibility Score: inf
ROOT
ATOM      1  N   UNL A   1      42.422  28.026  27.014  1.00  0.00    -0.343 N 
ATOM      2  C   UNL A   1      43.587  28.712  26.799  1.00  0.00     0.242 C 
ATOM      3  O   UNL A   1      43.506  29.790  26.201  1.00  0.00    -0.273 OA
ATOM      4  H   UNL A   1      41.807  27.918  26.252  1.00  0.00     0.164 HD
ENDROOT
BRANCH   1   5
ATOM      5  C   UNL A   1      42.027  27.443  28.293  1.00  0.00     0.171 C 
BRANCH   5   6
ATOM      6  C   UNL A   1      42.882  26.206  28.622  1.00  0.00     0.038 C 
BRANCH   6   7
ATOM      7  C   UNL A   1      42.151  24.894  28.264  1.00  0.00    -0.015 C 
ATOM      8  C   UNL A   1      42.473  23.766  29.251  1.00  0.00     0.007 C 
ATOM      9  C   UNL A   1      40.642  25.123  28.235  1.00  0.00     0.007 C 
ENDBRANCH   6   7
ENDBRANCH   5   6
BRANCH   5  10
ATOM     10  C   UNL A   1      41.916  28.441  29.456  1.00  0.00     0.242 C 
ATOM     11  O   UNL A   1      42.866  28.611  30.227  1.00  0.00    -0.273 OA
ATOM     12  N   UNL A   1      40.813  29.199  29.667  1.00  0.00    -0.354 N 
ATOM     13  H   UNL A   1      40.875  29.807  30.439  1.00  0.00     0.163 HD
BRANCH  12  14
ATOM     14  C   UNL A   1      39.560  29.265  28.949  1.00  0.00     0.116 C 
BRANCH  14  15
ATOM     15  C   UNL A   1      38.376  29.371  29.905  1.00  0.00     0.023 C 
BRANCH  15  16
ATOM     16  C   UNL A   1      37.019  29.611  29.234  1.00  0.00     0.023 C 
BRANCH  16  17
ATOM     17  C   UNL A   1      35.870  29.948  30.178  1.00  0.00     0.116 C 
BRANCH  17  18
ATOM     18  N   UNL A   1      35.459  31.339  30.091  1.00  0.00    -0.352 N 
ATOM     19  C   UNL A   1      35.837  32.405  30.869  1.00  0.00     0.251 C 
ATOM     20  H   UNL A   1      34.820  31.547  29.372  1.00  0.00     0.163 HD
ATOM     21  O   UNL A   1      35.276  33.490  30.750  1.00  0.00    -0.269 OA
BRANCH  19  22
ATOM     22  C   UNL A   1      36.901  32.231  31.879  1.00  0.00     0.039 A 
ATOM     23  C   UNL A   1      36.593  31.590  33.081  1.00  0.00     0.014 A 
ATOM     24  C   UNL A   1      38.202  32.679  31.631  1.00  0.00     0.014 A 
ATOM     25  C   UNL A   1      37.606  31.336  34.006  1.00  0.00     0.010 A 
ATOM     26  C   UNL A   1      39.224  32.353  32.517  1.00  0.00     0.010 A 
ATOM     27  C   UNL A   1      38.936  31.679  33.715  1.00  0.00    -0.014 A 
BRANCH  27  28
ATOM     28  C   UNL A   1      40.039  31.337  34.650  1.00  0.00     0.031 A 
ATOM     29  C   UNL A   1      40.421  32.289  35.749  1.00  0.00     0.074 A 
ATOM     30  C   UNL A   1      40.735  30.198  34.470  1.00  0.00     0.049 A 
ATOM     31  N   UNL A   1      41.391  32.198  36.623  1.00  0.00    -0.248 NA
ATOM     32  C   UNL A   1      39.622  33.519  35.864  1.00  0.00     0.031 C 
ATOM     33  C   UNL A   1      40.495  29.218  33.410  1.00  0.00     0.029 A 
ATOM     34  N   UNL A   1      41.797  29.677  35.168  1.00  0.00    -0.354 N 
ATOM     35  C   UNL A   1      41.323  33.359  37.383  1.00  0.00     0.074 A 
ATOM     36  C   UNL A   1      40.259  34.167  36.826  1.00  0.00     0.031 C 
ATOM     37  C   UNL A   1      41.366  28.206  33.541  1.00  0.00     0.029 A 
ATOM     38  C   UNL A   1      42.254  28.483  34.665  1.00  0.00     0.049 A 
ATOM     39  H   UNL A   1      42.193  30.117  35.955  1.00  0.00     0.167 HD
ATOM     40  C   UNL A   1      42.062  33.706  38.463  1.00  0.00     0.037 A 
ATOM     41  C   UNL A   1      43.280  27.705  35.060  1.00  0.00     0.037 A 
ATOM     42  C   UNL A   1      43.111  32.893  39.020  1.00  0.00     0.049 A 
ATOM     43  C   UNL A   1      44.101  28.124  36.251  1.00  0.00     0.074 A 
ATOM     44  C   UNL A   1      43.886  33.132  40.141  1.00  0.00     0.029 A 
ATOM     45  N   UNL A   1      43.537  31.683  38.491  1.00  0.00    -0.354 N 
ATOM     46  N   UNL A   1      43.982  29.189  37.005  1.00  0.00    -0.248 NA
ATOM     47  C   UNL A   1      45.193  27.226  36.651  1.00  0.00     0.031 C 
ATOM     48  C   UNL A   1      44.818  32.096  40.259  1.00  0.00     0.029 A 
ATOM     49  C   UNL A   1      44.582  31.178  39.248  1.00  0.00     0.049 A 
ATOM     50  H   UNL A   1      43.154  31.248  37.696  1.00  0.00     0.167 HD
ATOM     51  C   UNL A   1      44.961  29.077  37.983  1.00  0.00     0.074 A 
ATOM     52  C   UNL A   1      45.654  27.830  37.737  1.00  0.00     0.031 C 
ATOM     53  C   UNL A   1      45.259  29.931  38.994  1.00  0.00     0.037 A 
BRANCH  40  54
ATOM     54  C   UNL A   1      41.760  35.026  39.116  1.00  0.00     0.064 A 
ATOM     55  C   UNL A   1      40.828  35.134  40.161  1.00  0.00     0.173 A 
ATOM     56  C   UNL A   1      42.428  36.192  38.714  1.00  0.00     0.173 A 
ATOM     57  F   UNL A   1      40.152  34.053  40.579  1.00  0.00    -0.203 F 
ATOM     58  C   UNL A   1      40.554  36.364  40.754  1.00  0.00     0.198 A 
ATOM     59  C   UNL A   1      42.177  37.414  39.332  1.00  0.00     0.198 A 
ATOM     60  F   UNL A   1      43.332  36.146  37.723  1.00  0.00    -0.203 F 
ATOM     61  F   UNL A   1      39.619  36.451  41.711  1.00  0.00    -0.200 F 
ATOM     62  C   UNL A   1      41.234  37.501  40.345  1.00  0.00     0.200 A 
ATOM     63  F   UNL A   1      42.846  38.508  38.946  1.00  0.00    -0.200 F 
ATOM     64  F   UNL A   1      40.974  38.683  40.921  1.00  0.00    -0.200 F 
ENDBRANCH  40  54
BRANCH  41  65
ATOM     65  C   UNL A   1      43.580  26.445  34.332  1.00  0.00     0.064 A 
ATOM     66  C   UNL A   1      44.262  26.461  33.107  1.00  0.00     0.173 A 
ATOM     67  C   UNL A   1      43.188  25.197  34.840  1.00  0.00     0.173 A 
ATOM     68  F   UNL A   1      44.641  27.630  32.569  1.00  0.00    -0.203 F 
ATOM     69  C   UNL A   1      44.519  25.284  32.408  1.00  0.00     0.198 A 
ATOM     70  C   UNL A   1      43.474  24.017  34.157  1.00  0.00     0.198 A 
ATOM     71  F   UNL A   1      42.538  25.123  36.012  1.00  0.00    -0.203 F 
ATOM     72  F   UNL A   1      45.127  25.334  31.216  1.00  0.00    -0.200 F 
ATOM     73  C   UNL A   1      44.131  24.062  32.937  1.00  0.00     0.200 A 
ATOM     74  F   UNL A   1      43.112  22.837  34.679  1.00  0.00    -0.200 F 
ATOM     75  F   UNL A   1      44.382  22.929  32.266  1.00  0.00    -0.200 F 
ENDBRANCH  41  65
BRANCH  53  76
ATOM     76  C   UNL A   1      46.358  29.527  39.936  1.00  0.00     0.064 A 
ATOM     77  C   UNL A   1      47.687  29.935  39.742  1.00  0.00     0.173 A 
ATOM     78  C   UNL A   1      46.069  28.753  41.071  1.00  0.00     0.173 A 
ATOM     79  F   UNL A   1      48.018  30.663  38.665  1.00  0.00    -0.203 F 
ATOM     80  C   UNL A   1      48.689  29.560  40.633  1.00  0.00     0.198 A 
ATOM     81  C   UNL A   1      47.067  28.410  41.979  1.00  0.00     0.198 A 
ATOM     82  F   UNL A   1      44.815  28.343  41.309  1.00  0.00    -0.203 F 
ATOM     83  F   UNL A   1      49.959  29.916  40.399  1.00  0.00    -0.200 F 
ATOM     84  C   UNL A   1      48.378  28.806  41.755  1.00  0.00     0.200 A 
ATOM     85  F   UNL A   1      46.761  27.696  43.071  1.00  0.00    -0.200 F 
ATOM     86  F   UNL A   1      49.341  28.454  42.616  1.00  0.00    -0.200 F 
ENDBRANCH  53  76
ENDBRANCH  27  28
ENDBRANCH  19  22
ENDBRANCH  17  18
ENDBRANCH  16  17
ENDBRANCH  15  16
ENDBRANCH  14  15
ENDBRANCH  12  14
ENDBRANCH   5  10
ENDBRANCH   1   5
BRANCH   2  87
ATOM     87  C   UNL A   1      44.961  28.044  27.069  1.00  0.00     0.168 C 
ATOM     88  C   UNL A   1      46.012  28.768  27.892  1.00  0.00     0.041 C 
BRANCH  87  89
ATOM     89  N   UNL A   1      45.576  27.655  25.810  1.00  0.00    -0.343 N 
ATOM     90  C   UNL A   1      45.791  26.406  25.320  1.00  0.00     0.243 C 
ATOM     91  H   UNL A   1      45.878  28.395  25.236  1.00  0.00     0.164 HD
ATOM     92  O   UNL A   1      46.510  26.315  24.319  1.00  0.00    -0.273 OA
BRANCH  90  93
ATOM     93  C   UNL A   1      45.009  25.156  25.839  1.00  0.00     0.174 C 
BRANCH  93  94
ATOM     94  N   UNL A   1      44.620  24.168  24.796  1.00  0.00    -0.343 N 
ATOM     95  C   UNL A   1      45.131  23.069  24.175  1.00  0.00     0.240 C 
ATOM     96  H   UNL A   1      43.721  24.371  24.449  1.00  0.00     0.164 HD
ATOM     97  O   UNL A   1      44.503  22.690  23.177  1.00  0.00    -0.273 OA
BRANCH  95  98
ATOM     98  C   UNL A   1      46.418  22.316  24.570  1.00  0.00     0.219 C 
BRANCH  98  99
ATOM     99  N   UNL A   1      46.509  20.962  24.057  1.00  0.00    -0.312 N 
ATOM    100  C   UNL A   1      45.883  19.852  24.551  1.00  0.00     0.407 C 
ATOM    101  H   UNL A   1      47.085  20.827  23.270  1.00  0.00     0.167 HD
ATOM    102  O   UNL A   1      46.241  18.742  24.199  1.00  0.00    -0.225 OA
BRANCH 100 103
ATOM    103  O   UNL A   1      44.933  20.142  25.478  1.00  0.00    -0.445 OA
BRANCH 103 104
ATOM    104  C   UNL A   1      43.752  19.321  25.479  1.00  0.00     0.270 C 
BRANCH 104 105
ATOM    105  C   UNL A   1      42.496  20.058  25.842  1.00  0.00    -0.011 A 
ATOM    106  C   UNL A   1      41.315  19.337  26.071  1.00  0.00     0.007 A 
ATOM    107  C   UNL A   1      42.470  21.455  25.916  1.00  0.00     0.007 A 
ATOM    108  C   UNL A   1      40.116  19.999  26.313  1.00  0.00     0.000 A 
ATOM    109  C   UNL A   1      41.269  22.117  26.173  1.00  0.00     0.000 A 
ATOM    110  C   UNL A   1      40.092  21.391  26.355  1.00  0.00     0.000 A 
ENDBRANCH 104 105
ENDBRANCH 103 104
ENDBRANCH 100 103
ENDBRANCH  98  99
ENDBRANCH  95  98
ENDBRANCH  93  94
BRANCH  93 111
ATOM    111  C   UNL A   1      45.669  24.568  27.093  1.00  0.00     0.015 C 
ATOM    112  C   UNL A   1      45.269  23.125  27.427  1.00  0.00     0.010 C 
ATOM    113  C   UNL A   1      47.195  24.658  27.006  1.00  0.00     0.010 C 
ENDBRANCH  93 111
ENDBRANCH  90  93
ENDBRANCH  87  89
ENDBRANCH   2  87
TORSDOF 24
ENDMDL
MODEL 3
REMARK VINA RESULT:      -7.9      6.178     14.133
REMARK SMILES CC(C)C[C@H](NC(=O)[C@H](C)NC(=O)[C@@H](NC(=O)CNC(=O)OCc1ccccc1)C(C)C)C(=O)NCCCCNC(=O)c1ccc(-c2c3nc(c(-c4c(F)c(F)c(F)c(F)c4F)c4ccc([nH]4)c(-c4c(F)c(F)c(F)c(F)c4F)c4nc(c(-c5c(F)c(F)c(F)c(F)c5F)c5ccc2[nH]5)C=C4)C=C3)cc1
REMARK SMILES IDX 6 1 7 2 8 3 5 5 4 6 2 7 1 8 3 9 33 10 34 11 35 12 36 14
REMARK SMILES IDX 37 15 38 16 39 17 40 18 41 19 42 21 43 22 44 23 105 24 45 25
REMARK SMILES IDX 104 26 46 27 47 28 48 29 98 30 49 31 103 32 97 33 99 34
REMARK SMILES IDX 50 35 102 36 96 37 95 38 51 40 83 41 63 42 82 43 64 44 67 45
REMARK SMILES IDX 81 46 100 47 65 48 66 49 80 51 101 52 68 53 52 54 53 55
REMARK SMILES IDX 61 56 54 57 55 58 59 59 62 60 56 61 57 62 60 63 58 64 84 65
REMARK SMILES IDX 85 66 93 67 86 68 87 69 91 70 94 71 88 72 89 73 92 74 90 75
REMARK SMILES IDX 69 76 70 77 78 78 71 79 72 80 76 81 79 82 73 83 74 84 77 85
REMARK SMILES IDX 75 86 9 87 10 88 11 89 12 90 13 92 14 93 15 94 16 95 17 97
REMARK SMILES IDX 18 98 19 99 20 100 21 102 22 103 23 104 24 105 25 106 29 107
REMARK SMILES IDX 26 108 28 109 27 110 30 111 31 112 32 113
REMARK H PARENT 6 4 35 13 40 20 99 39 67 50 11 91 15 96 19 101
REMARK Flexibility Score: inf
ROOT
ATOM      1  N   UNL A   1      41.836  30.182  33.141  1.00  0.00    -0.343 N 
ATOM      2  C   UNL A   1      42.298  31.468  33.056  1.00  0.00     0.242 C 
ATOM      3  O   UNL A   1      43.042  31.862  33.960  1.00  0.00    -0.273 OA
ATOM      4  H   UNL A   1      41.467  29.885  34.004  1.00  0.00     0.164 HD
ENDROOT
BRANCH   1   5
ATOM      5  C   UNL A   1      41.851  29.221  32.043  1.00  0.00     0.171 C 
BRANCH   5   6
ATOM      6  C   UNL A   1      42.624  27.948  32.434  1.00  0.00     0.038 C 
BRANCH   6   7
ATOM      7  C   UNL A   1      42.823  27.847  33.962  1.00  0.00    -0.015 C 
ATOM      8  C   UNL A   1      41.807  26.902  34.615  1.00  0.00     0.007 C 
ATOM      9  C   UNL A   1      44.236  27.364  34.278  1.00  0.00     0.007 C 
ENDBRANCH   6   7
ENDBRANCH   5   6
BRANCH   5  10
ATOM     10  C   UNL A   1      40.481  28.937  31.408  1.00  0.00     0.242 C 
ATOM     11  O   UNL A   1      39.485  28.767  32.118  1.00  0.00    -0.273 OA
ATOM     12  N   UNL A   1      40.290  28.902  30.067  1.00  0.00    -0.354 N 
ATOM     13  H   UNL A   1      39.362  28.722  29.789  1.00  0.00     0.163 HD
BRANCH  12  14
ATOM     14  C   UNL A   1      41.220  29.083  28.974  1.00  0.00     0.116 C 
BRANCH  14  15
ATOM     15  C   UNL A   1      40.994  28.051  27.874  1.00  0.00     0.023 C 
BRANCH  15  16
ATOM     16  C   UNL A   1      40.252  26.784  28.316  1.00  0.00     0.023 C 
BRANCH  16  17
ATOM     17  C   UNL A   1      40.508  25.544  27.465  1.00  0.00     0.116 C 
BRANCH  17  18
ATOM     18  N   UNL A   1      40.906  24.392  28.255  1.00  0.00    -0.352 N 
ATOM     19  C   UNL A   1      42.158  24.027  28.686  1.00  0.00     0.251 C 
ATOM     20  H   UNL A   1      40.176  23.786  28.518  1.00  0.00     0.163 HD
ATOM     21  O   UNL A   1      42.337  22.938  29.222  1.00  0.00    -0.269 OA
BRANCH  19  22
ATOM     22  C   UNL A   1      43.299  24.941  28.472  1.00  0.00     0.039 A 
ATOM     23  C   UNL A   1      43.976  24.899  27.252  1.00  0.00     0.014 A 
ATOM     24  C   UNL A   1      43.683  25.850  29.462  1.00  0.00     0.014 A 
ATOM     25  C   UNL A   1      44.996  25.817  26.998  1.00  0.00     0.010 A 
ATOM     26  C   UNL A   1      44.643  26.816  29.177  1.00  0.00     0.010 A 
ATOM     27  C   UNL A   1      45.311  26.808  27.942  1.00  0.00    -0.014 A 
BRANCH  27  28
ATOM     28  C   UNL A   1      46.333  27.846  27.653  1.00  0.00     0.031 A 
ATOM     29  C   UNL A   1      45.925  29.284  27.490  1.00  0.00     0.074 A 
ATOM     30  C   UNL A   1      47.619  27.485  27.476  1.00  0.00     0.049 A 
ATOM     31  N   UNL A   1      46.657  30.323  27.176  1.00  0.00    -0.248 NA
ATOM     32  C   UNL A   1      44.499  29.591  27.679  1.00  0.00     0.031 C 
ATOM     33  C   UNL A   1      48.132  26.117  27.557  1.00  0.00     0.029 A 
ATOM     34  N   UNL A   1      48.729  28.237  27.180  1.00  0.00    -0.354 N 
ATOM     35  C   UNL A   1      45.781  31.399  27.123  1.00  0.00     0.074 A 
ATOM     36  C   UNL A   1      44.455  30.878  27.373  1.00  0.00     0.031 C 
ATOM     37  C   UNL A   1      49.456  26.130  27.340  1.00  0.00     0.029 A 
ATOM     38  C   UNL A   1      49.880  27.498  27.062  1.00  0.00     0.049 A 
ATOM     39  H   UNL A   1      48.702  29.215  27.064  1.00  0.00     0.167 HD
ATOM     40  C   UNL A   1      46.061  32.707  26.913  1.00  0.00     0.037 A 
ATOM     41  C   UNL A   1      51.135  27.879  26.753  1.00  0.00     0.037 A 
ATOM     42  C   UNL A   1      47.385  33.222  26.676  1.00  0.00     0.049 A 
ATOM     43  C   UNL A   1      51.416  29.336  26.501  1.00  0.00     0.074 A 
ATOM     44  C   UNL A   1      47.781  34.536  26.499  1.00  0.00     0.029 A 
ATOM     45  N   UNL A   1      48.529  32.444  26.575  1.00  0.00    -0.354 N 
ATOM     46  N   UNL A   1      50.592  30.355  26.524  1.00  0.00    -0.248 NA
ATOM     47  C   UNL A   1      52.807  29.697  26.191  1.00  0.00     0.031 C 
ATOM     48  C   UNL A   1      49.154  34.548  26.237  1.00  0.00     0.029 A 
ATOM     49  C   UNL A   1      49.627  33.248  26.314  1.00  0.00     0.049 A 
ATOM     50  H   UNL A   1      48.557  31.465  26.676  1.00  0.00     0.167 HD
ATOM     51  C   UNL A   1      51.365  31.478  26.261  1.00  0.00     0.074 A 
ATOM     52  C   UNL A   1      52.728  31.017  26.099  1.00  0.00     0.031 C 
ATOM     53  C   UNL A   1      50.980  32.775  26.161  1.00  0.00     0.037 A 
BRANCH  40  54
ATOM     54  C   UNL A   1      44.912  33.675  26.929  1.00  0.00     0.064 A 
ATOM     55  C   UNL A   1      44.596  34.423  28.075  1.00  0.00     0.173 A 
ATOM     56  C   UNL A   1      44.134  33.880  25.781  1.00  0.00     0.173 A 
ATOM     57  F   UNL A   1      45.300  34.259  29.205  1.00  0.00    -0.203 F 
ATOM     58  C   UNL A   1      43.524  35.313  28.078  1.00  0.00     0.198 A 
ATOM     59  C   UNL A   1      43.085  34.797  25.777  1.00  0.00     0.198 A 
ATOM     60  F   UNL A   1      44.394  33.197  24.655  1.00  0.00    -0.203 F 
ATOM     61  F   UNL A   1      43.207  35.972  29.202  1.00  0.00    -0.200 F 
ATOM     62  C   UNL A   1      42.775  35.505  26.928  1.00  0.00     0.200 A 
ATOM     63  F   UNL A   1      42.372  34.992  24.659  1.00  0.00    -0.200 F 
ATOM     64  F   UNL A   1      41.749  36.367  26.931  1.00  0.00    -0.200 F 
ENDBRANCH  40  54
BRANCH  41  65
ATOM     65  C   UNL A   1      52.221  26.867  26.678  1.00  0.00     0.064 A 
ATOM     66  C   UNL A   1      52.358  26.033  25.560  1.00  0.00     0.173 A 
ATOM     67  C   UNL A   1      53.143  26.708  27.724  1.00  0.00     0.173 A 
ATOM     68  F   UNL A   1      51.490  26.132  24.542  1.00  0.00    -0.203 F 
ATOM     69  C   UNL A   1      53.358  25.064  25.500  1.00  0.00     0.198 A 
ATOM     70  C   UNL A   1      54.163  25.761  27.649  1.00  0.00     0.198 A 
ATOM     71  F   UNL A   1      53.063  27.484  28.815  1.00  0.00    -0.203 F 
ATOM     72  F   UNL A   1      53.433  24.247  24.441  1.00  0.00    -0.200 F 
ATOM     73  C   UNL A   1      54.263  24.934  26.541  1.00  0.00     0.200 A 
ATOM     74  F   UNL A   1      55.046  25.650  28.650  1.00  0.00    -0.200 F 
ATOM     75  F   UNL A   1      55.228  24.005  26.481  1.00  0.00    -0.200 F 
ENDBRANCH  41  65
BRANCH  53  76
ATOM     76  C   UNL A   1      52.053  33.795  25.903  1.00  0.00     0.064 A 
ATOM     77  C   UNL A   1      52.735  34.433  26.950  1.00  0.00     0.173 A 
ATOM     78  C   UNL A   1      52.429  34.109  24.588  1.00  0.00     0.173 A 
ATOM     79  F   UNL A   1      52.403  34.179  28.225  1.00  0.00    -0.203 F 
ATOM     80  C   UNL A   1      53.735  35.367  26.689  1.00  0.00     0.198 A 
ATOM     81  C   UNL A   1      53.453  35.017  24.331  1.00  0.00     0.198 A 
ATOM     82  F   UNL A   1      51.815  33.522  23.550  1.00  0.00    -0.203 F 
ATOM     83  F   UNL A   1      54.336  36.003  27.704  1.00  0.00    -0.200 F 
ATOM     84  C   UNL A   1      54.099  35.652  25.382  1.00  0.00     0.200 A 
ATOM     85  F   UNL A   1      53.815  35.276  23.068  1.00  0.00    -0.200 F 
ATOM     86  F   UNL A   1      55.067  36.543  25.133  1.00  0.00    -0.200 F 
ENDBRANCH  53  76
ENDBRANCH  27  28
ENDBRANCH  19  22
ENDBRANCH  17  18
ENDBRANCH  16  17
ENDBRANCH  15  16
ENDBRANCH  14  15
ENDBRANCH  12  14
ENDBRANCH   5  10
ENDBRANCH   1   5
BRANCH   2  87
ATOM     87  C   UNL A   1      41.711  32.454  32.012  1.00  0.00     0.168 C 
ATOM     88  C   UNL A   1      42.560  33.596  31.480  1.00  0.00     0.041 C 
BRANCH  87  89
ATOM     89  N   UNL A   1      40.470  33.021  32.513  1.00  0.00    -0.343 N 
ATOM     90  C   UNL A   1      39.291  33.197  31.859  1.00  0.00     0.243 C 
ATOM     91  H   UNL A   1      40.485  33.318  33.451  1.00  0.00     0.164 HD
ATOM     92  O   UNL A   1      38.434  33.881  32.427  1.00  0.00    -0.273 OA
BRANCH  90  93
ATOM     93  C   UNL A   1      38.929  32.408  30.559  1.00  0.00     0.174 C 
BRANCH  93  94
ATOM     94  N   UNL A   1      37.980  31.276  30.743  1.00  0.00    -0.343 N 
ATOM     95  C   UNL A   1      36.741  31.042  31.259  1.00  0.00     0.240 C 
ATOM     96  H   UNL A   1      38.364  30.444  30.383  1.00  0.00     0.164 HD
ATOM     97  O   UNL A   1      36.442  29.848  31.387  1.00  0.00    -0.273 OA
BRANCH  95  98
ATOM     98  C   UNL A   1      35.735  32.112  31.732  1.00  0.00     0.219 C 
BRANCH  98  99
ATOM     99  N   UNL A   1      35.643  32.262  33.172  1.00  0.00    -0.312 N 
ATOM    100  C   UNL A   1      35.505  33.430  33.870  1.00  0.00     0.407 C 
ATOM    101  H   UNL A   1      35.684  31.435  33.704  1.00  0.00     0.167 HD
ATOM    102  O   UNL A   1      35.700  33.448  35.072  1.00  0.00    -0.225 OA
BRANCH 100 103
ATOM    103  O   UNL A   1      35.221  34.495  33.078  1.00  0.00    -0.445 OA
BRANCH 103 104
ATOM    104  C   UNL A   1      33.843  34.679  32.703  1.00  0.00     0.270 C 
BRANCH 104 105
ATOM    105  C   UNL A   1      33.657  35.334  31.365  1.00  0.00    -0.011 A 
ATOM    106  C   UNL A   1      33.396  36.711  31.302  1.00  0.00     0.007 A 
ATOM    107  C   UNL A   1      33.698  34.590  30.181  1.00  0.00     0.007 A 
ATOM    108  C   UNL A   1      33.123  37.325  30.084  1.00  0.00     0.000 A 
ATOM    109  C   UNL A   1      33.438  35.211  28.959  1.00  0.00     0.000 A 
ATOM    110  C   UNL A   1      33.135  36.572  28.913  1.00  0.00     0.000 A 
ENDBRANCH 104 105
ENDBRANCH 103 104
ENDBRANCH 100 103
ENDBRANCH  98  99
ENDBRANCH  95  98
ENDBRANCH  93  94
BRANCH  93 111
ATOM    111  C   UNL A   1      38.605  33.361  29.401  1.00  0.00     0.015 C 
ATOM    112  C   UNL A   1      37.149  33.844  29.339  1.00  0.00     0.010 C 
ATOM    113  C   UNL A   1      39.536  34.576  29.411  1.00  0.00     0.010 C 
ENDBRANCH  93 111
ENDBRANCH  90  93
ENDBRANCH  87  89
ENDBRANCH   2  87
TORSDOF 24
ENDMDL
