MODEL 1
REMARK VINA RESULT:     -12.1      0.000      0.000
REMARK SMILES CC[C@@H](C)[C@@H](C)Nc1cccc(F)c1C(=O)NCCCCNC(=O)c1ccc(-c2c3nc(c(-c4c(F)c(F)c(F)c(F)c4F)c4ccc([nH]4)c(-c4c(F)c(F)c(F)c(F)c4F)c4nc(c(-c5c(F)c(F)c(F)c(F)c5F)c5ccc2[nH]5)C=C4)C=C3)cc1
REMARK SMILES IDX 18 1 17 2 15 3 16 4 14 6 8 7 9 8 10 9 12 10 11 11 13 12 7 13
REMARK SMILES IDX 5 15 6 16 3 17 4 18 2 19 1 20 19 21 20 22 21 23 22 24 23 25
REMARK SMILES IDX 24 27 25 28 26 29 87 30 27 31 86 32 28 33 29 34 30 35 80 36
REMARK SMILES IDX 31 37 85 38 79 39 81 40 32 41 84 42 78 43 77 44 33 46 65 47
REMARK SMILES IDX 45 48 64 49 46 50 49 51 63 52 82 53 47 54 48 55 62 57 83 58
REMARK SMILES IDX 50 59 34 60 35 61 43 62 36 63 37 64 41 65 44 66 38 67 39 68
REMARK SMILES IDX 42 69 40 70 66 71 67 72 75 73 68 74 69 75 73 76 76 77 70 78
REMARK SMILES IDX 71 79 74 80 72 81 51 82 52 83 60 84 53 85 54 86 58 87 61 88
REMARK SMILES IDX 55 89 56 90 59 91 57 92
REMARK H PARENT 17 5 7 14 22 26 81 45 49 56
REMARK Flexibility Score: inf
ROOT
ATOM      1  C   UNL A   1      32.852  30.145  26.206  1.00  0.00     0.116 C 
ENDROOT
BRANCH   1   2
ATOM      2  N   UNL A   1      33.308  29.839  24.863  1.00  0.00    -0.352 N 
ATOM      3  C   UNL A   1      32.802  29.026  23.876  1.00  0.00     0.256 C 
ATOM      4  O   UNL A   1      33.514  28.913  22.873  1.00  0.00    -0.269 OA
ATOM      5  H   UNL A   1      34.139  30.303  24.611  1.00  0.00     0.163 HD
BRANCH   3   6
ATOM      6  C   UNL A   1      31.530  28.242  23.993  1.00  0.00     0.098 A 
ATOM      7  C   UNL A   1      30.392  28.612  23.228  1.00  0.00     0.050 A 
ATOM      8  C   UNL A   1      29.285  27.739  23.195  1.00  0.00     0.027 A 
ATOM      9  C   UNL A   1      29.240  26.585  23.971  1.00  0.00     0.005 A 
ATOM     10  C   UNL A   1      31.394  27.165  24.875  1.00  0.00     0.138 A 
ATOM     11  C   UNL A   1      30.279  26.326  24.849  1.00  0.00     0.040 A 
ATOM     12  F   UNL A   1      32.299  26.926  25.835  1.00  0.00    -0.206 F 
BRANCH   7  13
ATOM     13  N   UNL A   1      30.293  29.856  22.586  1.00  0.00    -0.382 N 
ATOM     14  H   UNL A   1      31.107  30.340  22.314  1.00  0.00     0.160 HD
BRANCH  13  15
ATOM     15  C   UNL A   1      28.965  30.436  22.321  1.00  0.00     0.079 C 
ATOM     16  C   UNL A   1      28.974  30.971  20.886  1.00  0.00     0.031 C 
BRANCH  15  17
ATOM     17  C   UNL A   1      28.623  31.535  23.379  1.00  0.00     0.008 C 
ATOM     18  C   UNL A   1      27.225  31.315  23.979  1.00  0.00     0.010 C 
BRANCH  17  19
ATOM     19  C   UNL A   1      28.703  32.957  22.771  1.00  0.00     0.002 C 
ATOM     20  C   UNL A   1      29.670  33.893  23.488  1.00  0.00     0.004 C 
ENDBRANCH  17  19
ENDBRANCH  15  17
ENDBRANCH  13  15
ENDBRANCH   7  13
ENDBRANCH   3   6
ENDBRANCH   1   2
BRANCH   1  21
ATOM     21  C   UNL A   1      31.456  30.761  26.250  1.00  0.00     0.023 C 
BRANCH  21  22
ATOM     22  C   UNL A   1      31.380  32.260  26.533  1.00  0.00     0.023 C 
BRANCH  22  23
ATOM     23  C   UNL A   1      32.577  32.876  27.249  1.00  0.00     0.116 C 
BRANCH  23  24
ATOM     24  N   UNL A   1      32.362  34.252  27.670  1.00  0.00    -0.352 N 
ATOM     25  C   UNL A   1      33.020  35.007  28.615  1.00  0.00     0.251 C 
ATOM     26  H   UNL A   1      31.629  34.717  27.206  1.00  0.00     0.163 HD
ATOM     27  O   UNL A   1      32.623  36.132  28.886  1.00  0.00    -0.269 OA
BRANCH  25  28
ATOM     28  C   UNL A   1      34.185  34.448  29.338  1.00  0.00     0.039 A 
ATOM     29  C   UNL A   1      33.962  33.748  30.527  1.00  0.00     0.014 A 
ATOM     30  C   UNL A   1      35.485  34.598  28.850  1.00  0.00     0.014 A 
ATOM     31  C   UNL A   1      35.029  33.120  31.175  1.00  0.00     0.010 A 
ATOM     32  C   UNL A   1      36.534  33.909  29.451  1.00  0.00     0.010 A 
ATOM     33  C   UNL A   1      36.316  33.154  30.614  1.00  0.00    -0.014 A 
BRANCH  33  34
ATOM     34  C   UNL A   1      37.443  32.396  31.216  1.00  0.00     0.031 A 
ATOM     35  C   UNL A   1      37.947  32.751  32.586  1.00  0.00     0.074 A 
ATOM     36  C   UNL A   1      38.060  31.436  30.499  1.00  0.00     0.049 A 
ATOM     37  N   UNL A   1      38.977  32.271  33.238  1.00  0.00    -0.248 NA
ATOM     38  C   UNL A   1      37.216  33.802  33.309  1.00  0.00     0.031 C 
ATOM     39  C   UNL A   1      37.693  31.029  29.142  1.00  0.00     0.029 A 
ATOM     40  N   UNL A   1      39.132  30.635  30.807  1.00  0.00    -0.354 N 
ATOM     41  C   UNL A   1      39.025  32.974  34.435  1.00  0.00     0.074 A 
ATOM     42  C   UNL A   1      37.954  33.945  34.400  1.00  0.00     0.031 C 
ATOM     43  C   UNL A   1      38.506  30.036  28.746  1.00  0.00     0.029 A 
ATOM     44  C   UNL A   1      39.475  29.763  29.803  1.00  0.00     0.049 A 
ATOM     45  H   UNL A   1      39.608  30.680  31.667  1.00  0.00     0.167 HD
ATOM     46  C   UNL A   1      39.872  32.806  35.478  1.00  0.00     0.037 A 
ATOM     47  C   UNL A   1      40.464  28.851  29.737  1.00  0.00     0.037 A 
ATOM     48  C   UNL A   1      40.914  31.815  35.524  1.00  0.00     0.049 A 
ATOM     49  C   UNL A   1      41.390  28.681  30.911  1.00  0.00     0.074 A 
ATOM     50  C   UNL A   1      41.786  31.532  36.561  1.00  0.00     0.029 A 
ATOM     51  N   UNL A   1      41.220  30.940  34.493  1.00  0.00    -0.354 N 
ATOM     52  N   UNL A   1      41.397  29.319  32.054  1.00  0.00    -0.248 NA
ATOM     53  C   UNL A   1      42.444  27.664  30.786  1.00  0.00     0.031 C 
ATOM     54  C   UNL A   1      42.644  30.511  36.143  1.00  0.00     0.029 A 
ATOM     55  C   UNL A   1      42.278  30.126  34.863  1.00  0.00     0.049 A 
ATOM     56  H   UNL A   1      40.754  30.903  33.625  1.00  0.00     0.167 HD
ATOM     57  C   UNL A   1      42.435  28.769  32.794  1.00  0.00     0.074 A 
ATOM     58  C   UNL A   1      43.031  27.736  31.973  1.00  0.00     0.031 C 
ATOM     59  C   UNL A   1      42.853  29.093  34.040  1.00  0.00     0.037 A 
BRANCH  46  60
ATOM     60  C   UNL A   1      39.699  33.702  36.668  1.00  0.00     0.064 A 
ATOM     61  C   UNL A   1      38.868  33.322  37.732  1.00  0.00     0.173 A 
ATOM     62  C   UNL A   1      40.305  34.965  36.725  1.00  0.00     0.173 A 
ATOM     63  F   UNL A   1      38.259  32.127  37.723  1.00  0.00    -0.203 F 
ATOM     64  C   UNL A   1      38.644  34.181  38.806  1.00  0.00     0.198 A 
ATOM     65  C   UNL A   1      40.101  35.809  37.814  1.00  0.00     0.198 A 
ATOM     66  F   UNL A   1      41.118  35.370  35.737  1.00  0.00    -0.203 F 
ATOM     67  F   UNL A   1      37.823  33.809  39.798  1.00  0.00    -0.200 F 
ATOM     68  C   UNL A   1      39.263  35.420  38.848  1.00  0.00     0.200 A 
ATOM     69  F   UNL A   1      40.720  36.996  37.864  1.00  0.00    -0.200 F 
ATOM     70  F   UNL A   1      39.055  36.240  39.888  1.00  0.00    -0.200 F 
ENDBRANCH  46  60
BRANCH  47  71
ATOM     71  C   UNL A   1      40.599  27.999  28.527  1.00  0.00     0.064 A 
ATOM     72  C   UNL A   1      39.975  26.745  28.439  1.00  0.00     0.173 A 
ATOM     73  C   UNL A   1      41.383  28.416  27.444  1.00  0.00     0.173 A 
ATOM     74  F   UNL A   1      39.217  26.300  29.450  1.00  0.00    -0.203 F 
ATOM     75  C   UNL A   1      40.146  25.936  27.318  1.00  0.00     0.198 A 
ATOM     76  C   UNL A   1      41.533  27.616  26.313  1.00  0.00     0.198 A 
ATOM     77  F   UNL A   1      41.982  29.615  27.474  1.00  0.00    -0.203 F 
ATOM     78  F   UNL A   1      39.564  24.730  27.270  1.00  0.00    -0.200 F 
ATOM     79  C   UNL A   1      40.921  26.373  26.255  1.00  0.00     0.200 A 
ATOM     80  F   UNL A   1      42.266  28.051  25.279  1.00  0.00    -0.200 F 
ATOM     81  F   UNL A   1      41.077  25.598  25.173  1.00  0.00    -0.200 F 
ENDBRANCH  47  71
BRANCH  59  82
ATOM     82  C   UNL A   1      43.995  28.311  34.618  1.00  0.00     0.064 A 
ATOM     83  C   UNL A   1      43.751  27.158  35.379  1.00  0.00     0.173 A 
ATOM     84  C   UNL A   1      45.320  28.751  34.496  1.00  0.00     0.173 A 
ATOM     85  F   UNL A   1      42.498  26.701  35.531  1.00  0.00    -0.203 F 
ATOM     86  C   UNL A   1      44.790  26.483  36.010  1.00  0.00     0.198 A 
ATOM     87  C   UNL A   1      46.361  28.059  35.107  1.00  0.00     0.198 A 
ATOM     88  F   UNL A   1      45.604  29.842  33.768  1.00  0.00    -0.203 F 
ATOM     89  F   UNL A   1      44.530  25.404  36.761  1.00  0.00    -0.200 F 
ATOM     90  C   UNL A   1      46.095  26.933  35.873  1.00  0.00     0.200 A 
ATOM     91  F   UNL A   1      47.624  28.482  34.958  1.00  0.00    -0.200 F 
ATOM     92  F   UNL A   1      47.096  26.281  36.478  1.00  0.00    -0.200 F 
ENDBRANCH  59  82
ENDBRANCH  33  34
ENDBRANCH  25  28
ENDBRANCH  23  24
ENDBRANCH  22  23
ENDBRANCH  21  22
ENDBRANCH   1  21
TORSDOF 15
ENDMDL
MODEL 2
REMARK VINA RESULT:     -12.1      0.526      7.406
REMARK SMILES CC[C@@H](C)[C@@H](C)Nc1cccc(F)c1C(=O)NCCCCNC(=O)c1ccc(-c2c3nc(c(-c4c(F)c(F)c(F)c(F)c4F)c4ccc([nH]4)c(-c4c(F)c(F)c(F)c(F)c4F)c4nc(c(-c5c(F)c(F)c(F)c(F)c5F)c5ccc2[nH]5)C=C4)C=C3)cc1
REMARK SMILES IDX 18 1 17 2 15 3 16 4 14 6 8 7 9 8 10 9 12 10 11 11 13 12 7 13
REMARK SMILES IDX 5 15 6 16 3 17 4 18 2 19 1 20 19 21 20 22 21 23 22 24 23 25
REMARK SMILES IDX 24 27 25 28 26 29 87 30 27 31 86 32 28 33 29 34 30 35 80 36
REMARK SMILES IDX 31 37 85 38 79 39 81 40 32 41 84 42 78 43 77 44 33 46 65 47
REMARK SMILES IDX 45 48 64 49 46 50 49 51 63 52 82 53 47 54 48 55 62 57 83 58
REMARK SMILES IDX 50 59 34 60 35 61 43 62 36 63 37 64 41 65 44 66 38 67 39 68
REMARK SMILES IDX 42 69 40 70 66 71 67 72 75 73 68 74 69 75 73 76 76 77 70 78
REMARK SMILES IDX 71 79 74 80 72 81 51 82 52 83 60 84 53 85 54 86 58 87 61 88
REMARK SMILES IDX 55 89 56 90 59 91 57 92
REMARK H PARENT 17 5 7 14 22 26 81 45 49 56
REMARK Flexibility Score: inf
ROOT
ATOM      1  C   UNL A   1      33.054  29.989  26.286  1.00  0.00     0.116 C 
ENDROOT
BRANCH   1   2
ATOM      2  N   UNL A   1      33.434  29.763  24.904  1.00  0.00    -0.352 N 
ATOM      3  C   UNL A   1      32.874  29.007  23.900  1.00  0.00     0.256 C 
ATOM      4  O   UNL A   1      33.529  28.956  22.854  1.00  0.00    -0.269 OA
ATOM      5  H   UNL A   1      34.249  30.244  24.632  1.00  0.00     0.163 HD
BRANCH   3   6
ATOM      6  C   UNL A   1      31.611  28.212  24.043  1.00  0.00     0.098 A 
ATOM      7  C   UNL A   1      30.446  28.592  23.325  1.00  0.00     0.050 A 
ATOM      8  C   UNL A   1      29.344  27.713  23.310  1.00  0.00     0.027 A 
ATOM      9  C   UNL A   1      29.332  26.542  24.062  1.00  0.00     0.005 A 
ATOM     10  C   UNL A   1      31.512  27.115  24.905  1.00  0.00     0.138 A 
ATOM     11  C   UNL A   1      30.402  26.269  24.898  1.00  0.00     0.040 A 
ATOM     12  F   UNL A   1      32.450  26.861  25.828  1.00  0.00    -0.206 F 
BRANCH   7  13
ATOM     13  N   UNL A   1      30.318  29.850  22.715  1.00  0.00    -0.382 N 
ATOM     14  H   UNL A   1      31.120  30.373  22.485  1.00  0.00     0.160 HD
BRANCH  13  15
ATOM     15  C   UNL A   1      28.977  30.384  22.422  1.00  0.00     0.079 C 
ATOM     16  C   UNL A   1      28.976  30.846  20.961  1.00  0.00     0.031 C 
BRANCH  15  17
ATOM     17  C   UNL A   1      28.608  31.527  23.423  1.00  0.00     0.008 C 
ATOM     18  C   UNL A   1      27.196  31.328  23.997  1.00  0.00     0.010 C 
BRANCH  17  19
ATOM     19  C   UNL A   1      28.701  32.921  22.756  1.00  0.00     0.002 C 
ATOM     20  C   UNL A   1      29.597  33.910  23.493  1.00  0.00     0.004 C 
ENDBRANCH  17  19
ENDBRANCH  15  17
ENDBRANCH  13  15
ENDBRANCH   7  13
ENDBRANCH   3   6
ENDBRANCH   1   2
BRANCH   1  21
ATOM     21  C   UNL A   1      31.651  30.568  26.445  1.00  0.00     0.023 C 
BRANCH  21  22
ATOM     22  C   UNL A   1      31.550  32.085  26.585  1.00  0.00     0.023 C 
BRANCH  22  23
ATOM     23  C   UNL A   1      32.673  32.770  27.355  1.00  0.00     0.116 C 
BRANCH  23  24
ATOM     24  N   UNL A   1      32.394  34.160  27.683  1.00  0.00    -0.352 N 
ATOM     25  C   UNL A   1      33.011  35.005  28.578  1.00  0.00     0.251 C 
ATOM     26  H   UNL A   1      31.645  34.561  27.184  1.00  0.00     0.163 HD
ATOM     27  O   UNL A   1      32.563  36.127  28.771  1.00  0.00    -0.269 OA
BRANCH  25  28
ATOM     28  C   UNL A   1      34.192  34.547  29.344  1.00  0.00     0.039 A 
ATOM     29  C   UNL A   1      34.001  34.049  30.636  1.00  0.00     0.014 A 
ATOM     30  C   UNL A   1      35.476  34.595  28.797  1.00  0.00     0.014 A 
ATOM     31  C   UNL A   1      35.082  33.513  31.341  1.00  0.00     0.010 A 
ATOM     32  C   UNL A   1      36.538  33.992  29.466  1.00  0.00     0.010 A 
ATOM     33  C   UNL A   1      36.350  33.435  30.741  1.00  0.00    -0.014 A 
BRANCH  33  34
ATOM     34  C   UNL A   1      37.487  32.763  31.420  1.00  0.00     0.031 A 
ATOM     35  C   UNL A   1      38.197  31.619  30.755  1.00  0.00     0.074 A 
ATOM     36  C   UNL A   1      37.833  33.136  32.669  1.00  0.00     0.049 A 
ATOM     37  N   UNL A   1      39.144  30.847  31.226  1.00  0.00    -0.248 NA
ATOM     38  C   UNL A   1      37.769  31.278  29.390  1.00  0.00     0.031 C 
ATOM     39  C   UNL A   1      37.193  34.202  33.440  1.00  0.00     0.029 A 
ATOM     40  N   UNL A   1      38.802  32.653  33.514  1.00  0.00    -0.354 N 
ATOM     41  C   UNL A   1      39.410  29.922  30.224  1.00  0.00     0.074 A 
ATOM     42  C   UNL A   1      38.493  30.197  29.140  1.00  0.00     0.031 C 
ATOM     43  C   UNL A   1      37.803  34.312  34.630  1.00  0.00     0.029 A 
ATOM     44  C   UNL A   1      38.851  33.300  34.724  1.00  0.00     0.049 A 
ATOM     45  H   UNL A   1      39.405  31.913  33.274  1.00  0.00     0.167 HD
ATOM     46  C   UNL A   1      40.351  28.949  30.203  1.00  0.00     0.037 A 
ATOM     47  C   UNL A   1      39.646  33.097  35.793  1.00  0.00     0.037 A 
ATOM     48  C   UNL A   1      41.286  28.701  31.268  1.00  0.00     0.049 A 
ATOM     49  C   UNL A   1      40.686  32.011  35.742  1.00  0.00     0.074 A 
ATOM     50  C   UNL A   1      42.312  27.774  31.314  1.00  0.00     0.029 A 
ATOM     51  N   UNL A   1      41.313  29.389  32.471  1.00  0.00    -0.354 N 
ATOM     52  N   UNL A   1      40.957  31.174  34.772  1.00  0.00    -0.248 NA
ATOM     53  C   UNL A   1      41.530  31.842  36.934  1.00  0.00     0.031 C 
ATOM     54  C   UNL A   1      42.937  27.875  32.560  1.00  0.00     0.029 A 
ATOM     55  C   UNL A   1      42.330  28.897  33.273  1.00  0.00     0.049 A 
ATOM     56  H   UNL A   1      40.700  30.120  32.720  1.00  0.00     0.167 HD
ATOM     57  C   UNL A   1      42.015  30.397  35.223  1.00  0.00     0.074 A 
ATOM     58  C   UNL A   1      42.345  30.868  36.551  1.00  0.00     0.031 C 
ATOM     59  C   UNL A   1      42.654  29.384  34.589  1.00  0.00     0.037 A 
BRANCH  46  60
ATOM     60  C   UNL A   1      40.432  28.085  28.979  1.00  0.00     0.064 A 
ATOM     61  C   UNL A   1      41.190  28.487  27.870  1.00  0.00     0.173 A 
ATOM     62  C   UNL A   1      39.707  26.888  28.881  1.00  0.00     0.173 A 
ATOM     63  F   UNL A   1      41.897  29.628  27.910  1.00  0.00    -0.203 F 
ATOM     64  C   UNL A   1      41.211  27.727  26.704  1.00  0.00     0.198 A 
ATOM     65  C   UNL A   1      39.753  26.116  27.724  1.00  0.00     0.198 A 
ATOM     66  F   UNL A   1      38.976  26.454  29.919  1.00  0.00    -0.203 F 
ATOM     67  F   UNL A   1      41.919  28.146  25.645  1.00  0.00    -0.200 F 
ATOM     68  C   UNL A   1      40.497  26.541  26.632  1.00  0.00     0.200 A 
ATOM     69  F   UNL A   1      39.082  24.959  27.666  1.00  0.00    -0.200 F 
ATOM     70  F   UNL A   1      40.527  25.805  25.514  1.00  0.00    -0.200 F 
ENDBRANCH  46  60
BRANCH  47  71
ATOM     71  C   UNL A   1      39.513  33.974  36.984  1.00  0.00     0.064 A 
ATOM     72  C   UNL A   1      38.746  33.591  38.095  1.00  0.00     0.173 A 
ATOM     73  C   UNL A   1      40.133  35.230  37.021  1.00  0.00     0.173 A 
ATOM     74  F   UNL A   1      38.130  32.401  38.108  1.00  0.00    -0.203 F 
ATOM     75  C   UNL A   1      38.591  34.441  39.188  1.00  0.00     0.198 A 
ATOM     76  C   UNL A   1      39.998  36.069  38.124  1.00  0.00     0.198 A 
ATOM     77  F   UNL A   1      40.893  35.630  35.991  1.00  0.00    -0.203 F 
ATOM     78  F   UNL A   1      37.829  34.066  40.224  1.00  0.00    -0.200 F 
ATOM     79  C   UNL A   1      39.220  35.677  39.204  1.00  0.00     0.200 A 
ATOM     80  F   UNL A   1      40.625  37.252  38.145  1.00  0.00    -0.200 F 
ATOM     81  F   UNL A   1      39.079  36.490  40.260  1.00  0.00    -0.200 F 
ENDBRANCH  47  71
BRANCH  59  82
ATOM     82  C   UNL A   1      43.796  28.724  35.303  1.00  0.00     0.064 A 
ATOM     83  C   UNL A   1      43.556  27.682  36.212  1.00  0.00     0.173 A 
ATOM     84  C   UNL A   1      45.113  29.181  35.158  1.00  0.00     0.173 A 
ATOM     85  F   UNL A   1      42.311  27.215  36.392  1.00  0.00    -0.203 F 
ATOM     86  C   UNL A   1      44.591  27.133  36.961  1.00  0.00     0.198 A 
ATOM     87  C   UNL A   1      46.151  28.612  35.890  1.00  0.00     0.198 A 
ATOM     88  F   UNL A   1      45.393  30.167  34.291  1.00  0.00    -0.203 F 
ATOM     89  F   UNL A   1      44.334  26.164  37.850  1.00  0.00    -0.200 F 
ATOM     90  C   UNL A   1      45.888  27.597  36.799  1.00  0.00     0.200 A 
ATOM     91  F   UNL A   1      47.407  29.046  35.718  1.00  0.00    -0.200 F 
ATOM     92  F   UNL A   1      46.886  27.066  37.518  1.00  0.00    -0.200 F 
ENDBRANCH  59  82
ENDBRANCH  33  34
ENDBRANCH  25  28
ENDBRANCH  23  24
ENDBRANCH  22  23
ENDBRANCH  21  22
ENDBRANCH   1  21
TORSDOF 15
ENDMDL
MODEL 3
REMARK VINA RESULT:     -12.0      6.647     10.931
REMARK SMILES CC[C@@H](C)[C@@H](C)Nc1cccc(F)c1C(=O)NCCCCNC(=O)c1ccc(-c2c3nc(c(-c4c(F)c(F)c(F)c(F)c4F)c4ccc([nH]4)c(-c4c(F)c(F)c(F)c(F)c4F)c4nc(c(-c5c(F)c(F)c(F)c(F)c5F)c5ccc2[nH]5)C=C4)C=C3)cc1
REMARK SMILES IDX 18 1 17 2 15 3 16 4 14 6 8 7 9 8 10 9 12 10 11 11 13 12 7 13
REMARK SMILES IDX 5 15 6 16 3 17 4 18 2 19 1 20 19 21 20 22 21 23 22 24 23 25
REMARK SMILES IDX 24 27 25 28 26 29 87 30 27 31 86 32 28 33 29 34 30 35 80 36
REMARK SMILES IDX 31 37 85 38 79 39 81 40 32 41 84 42 78 43 77 44 33 46 65 47
REMARK SMILES IDX 45 48 64 49 46 50 49 51 63 52 82 53 47 54 48 55 62 57 83 58
REMARK SMILES IDX 50 59 34 60 35 61 43 62 36 63 37 64 41 65 44 66 38 67 39 68
REMARK SMILES IDX 42 69 40 70 66 71 67 72 75 73 68 74 69 75 73 76 76 77 70 78
REMARK SMILES IDX 71 79 74 80 72 81 51 82 52 83 60 84 53 85 54 86 58 87 61 88
REMARK SMILES IDX 55 89 56 90 59 91 57 92
REMARK H PARENT 17 5 7 14 22 26 81 45 49 56
REMARK Flexibility Score: inf
ROOT
ATOM      1  C   UNL A   1      37.068  22.113  25.538  1.00  0.00     0.116 C 
ENDROOT
BRANCH   1   2
ATOM      2  N   UNL A   1      36.006  22.028  26.523  1.00  0.00    -0.352 N 
ATOM      3  C   UNL A   1      34.641  21.904  26.406  1.00  0.00     0.256 C 
ATOM      4  O   UNL A   1      34.015  21.970  27.469  1.00  0.00    -0.269 OA
ATOM      5  H   UNL A   1      36.324  22.067  27.454  1.00  0.00     0.163 HD
BRANCH   3   6
ATOM      6  C   UNL A   1      33.910  21.784  25.103  1.00  0.00     0.098 A 
ATOM      7  C   UNL A   1      33.374  20.532  24.700  1.00  0.00     0.050 A 
ATOM      8  C   UNL A   1      32.514  20.492  23.583  1.00  0.00     0.027 A 
ATOM      9  C   UNL A   1      32.264  21.623  22.811  1.00  0.00     0.005 A 
ATOM     10  C   UNL A   1      33.767  22.863  24.225  1.00  0.00     0.138 A 
ATOM     11  C   UNL A   1      32.932  22.800  23.108  1.00  0.00     0.040 A 
ATOM     12  F   UNL A   1      34.476  23.990  24.377  1.00  0.00    -0.206 F 
BRANCH   7  13
ATOM     13  N   UNL A   1      33.747  19.325  25.311  1.00  0.00    -0.382 N 
ATOM     14  H   UNL A   1      34.345  19.330  26.094  1.00  0.00     0.160 HD
BRANCH  13  15
ATOM     15  C   UNL A   1      33.242  18.050  24.773  1.00  0.00     0.079 C 
ATOM     16  C   UNL A   1      32.526  17.321  25.914  1.00  0.00     0.031 C 
BRANCH  15  17
ATOM     17  C   UNL A   1      34.408  17.213  24.152  1.00  0.00     0.008 C 
ATOM     18  C   UNL A   1      34.094  16.813  22.701  1.00  0.00     0.010 C 
BRANCH  17  19
ATOM     19  C   UNL A   1      34.703  15.941  24.984  1.00  0.00     0.002 C 
ATOM     20  C   UNL A   1      36.050  15.957  25.698  1.00  0.00     0.004 C 
ENDBRANCH  17  19
ENDBRANCH  15  17
ENDBRANCH  13  15
ENDBRANCH   7  13
ENDBRANCH   3   6
ENDBRANCH   1   2
BRANCH   1  21
ATOM     21  C   UNL A   1      37.112  20.921  24.586  1.00  0.00     0.023 C 
BRANCH  21  22
ATOM     22  C   UNL A   1      38.067  19.787  24.954  1.00  0.00     0.023 C 
BRANCH  22  23
ATOM     23  C   UNL A   1      39.302  20.177  25.760  1.00  0.00     0.116 C 
BRANCH  23  24
ATOM     24  N   UNL A   1      40.293  19.117  25.860  1.00  0.00    -0.352 N 
ATOM     25  C   UNL A   1      41.639  19.181  26.140  1.00  0.00     0.251 C 
ATOM     26  H   UNL A   1      39.945  18.209  25.703  1.00  0.00     0.163 HD
ATOM     27  O   UNL A   1      42.324  18.168  26.091  1.00  0.00    -0.269 OA
BRANCH  25  28
ATOM     28  C   UNL A   1      42.274  20.479  26.461  1.00  0.00     0.039 A 
ATOM     29  C   UNL A   1      42.781  21.254  25.413  1.00  0.00     0.014 A 
ATOM     30  C   UNL A   1      42.363  20.940  27.776  1.00  0.00     0.014 A 
ATOM     31  C   UNL A   1      43.290  22.528  25.675  1.00  0.00     0.010 A 
ATOM     32  C   UNL A   1      42.798  22.238  28.027  1.00  0.00     0.010 A 
ATOM     33  C   UNL A   1      43.256  23.050  26.978  1.00  0.00    -0.014 A 
BRANCH  33  34
ATOM     34  C   UNL A   1      43.679  24.445  27.264  1.00  0.00     0.031 A 
ATOM     35  C   UNL A   1      42.685  25.448  27.777  1.00  0.00     0.074 A 
ATOM     36  C   UNL A   1      44.943  24.828  26.991  1.00  0.00     0.049 A 
ATOM     37  N   UNL A   1      42.840  26.730  27.993  1.00  0.00    -0.248 NA
ATOM     38  C   UNL A   1      41.330  24.952  28.059  1.00  0.00     0.031 C 
ATOM     39  C   UNL A   1      45.990  23.961  26.450  1.00  0.00     0.029 A 
ATOM     40  N   UNL A   1      45.560  26.048  27.124  1.00  0.00    -0.354 N 
ATOM     41  C   UNL A   1      41.602  27.193  28.417  1.00  0.00     0.074 A 
ATOM     42  C   UNL A   1      40.694  26.068  28.382  1.00  0.00     0.031 C 
ATOM     43  C   UNL A   1      47.124  24.667  26.323  1.00  0.00     0.029 A 
ATOM     44  C   UNL A   1      46.877  26.046  26.736  1.00  0.00     0.049 A 
ATOM     45  H   UNL A   1      45.100  26.849  27.465  1.00  0.00     0.167 HD
ATOM     46  C   UNL A   1      41.261  28.439  28.822  1.00  0.00     0.037 A 
ATOM     47  C   UNL A   1      47.783  27.042  26.711  1.00  0.00     0.037 A 
ATOM     48  C   UNL A   1      42.175  29.548  28.891  1.00  0.00     0.049 A 
ATOM     49  C   UNL A   1      47.380  28.417  27.169  1.00  0.00     0.074 A 
ATOM     50  C   UNL A   1      41.935  30.834  29.342  1.00  0.00     0.029 A 
ATOM     51  N   UNL A   1      43.505  29.500  28.505  1.00  0.00    -0.354 N 
ATOM     52  N   UNL A   1      46.219  28.831  27.611  1.00  0.00    -0.248 NA
ATOM     53  C   UNL A   1      48.412  29.462  27.127  1.00  0.00     0.031 C 
ATOM     54  C   UNL A   1      43.111  31.575  29.194  1.00  0.00     0.029 A 
ATOM     55  C   UNL A   1      44.096  30.739  28.693  1.00  0.00     0.049 A 
ATOM     56  H   UNL A   1      43.963  28.704  28.148  1.00  0.00     0.167 HD
ATOM     57  C   UNL A   1      46.384  30.174  27.922  1.00  0.00     0.074 A 
ATOM     58  C   UNL A   1      47.762  30.505  27.628  1.00  0.00     0.031 C 
ATOM     59  C   UNL A   1      45.473  31.050  28.408  1.00  0.00     0.037 A 
BRANCH  46  60
ATOM     60  C   UNL A   1      39.840  28.671  29.243  1.00  0.00     0.064 A 
ATOM     61  C   UNL A   1      38.900  29.177  28.334  1.00  0.00     0.173 A 
ATOM     62  C   UNL A   1      39.425  28.455  30.566  1.00  0.00     0.173 A 
ATOM     63  F   UNL A   1      39.247  29.409  27.059  1.00  0.00    -0.203 F 
ATOM     64  C   UNL A   1      37.598  29.466  28.737  1.00  0.00     0.198 A 
ATOM     65  C   UNL A   1      38.116  28.717  30.957  1.00  0.00     0.198 A 
ATOM     66  F   UNL A   1      40.284  27.962  31.471  1.00  0.00    -0.203 F 
ATOM     67  F   UNL A   1      36.724  29.976  27.858  1.00  0.00    -0.200 F 
ATOM     68  C   UNL A   1      37.206  29.232  30.046  1.00  0.00     0.200 A 
ATOM     69  F   UNL A   1      37.733  28.468  32.217  1.00  0.00    -0.200 F 
ATOM     70  F   UNL A   1      35.950  29.499  30.429  1.00  0.00    -0.200 F 
ENDBRANCH  46  60
BRANCH  47  71
ATOM     71  C   UNL A   1      49.174  26.760  26.271  1.00  0.00     0.064 A 
ATOM     72  C   UNL A   1      50.160  26.344  27.177  1.00  0.00     0.173 A 
ATOM     73  C   UNL A   1      49.548  26.930  24.932  1.00  0.00     0.173 A 
ATOM     74  F   UNL A   1      49.853  26.169  28.470  1.00  0.00    -0.203 F 
ATOM     75  C   UNL A   1      51.472  26.126  26.761  1.00  0.00     0.198 A 
ATOM     76  C   UNL A   1      50.854  26.689  24.512  1.00  0.00     0.198 A 
ATOM     77  F   UNL A   1      48.634  27.307  24.025  1.00  0.00    -0.203 F 
ATOM     78  F   UNL A   1      52.403  25.758  27.652  1.00  0.00    -0.200 F 
ATOM     79  C   UNL A   1      51.817  26.295  25.429  1.00  0.00     0.200 A 
ATOM     80  F   UNL A   1      51.178  26.832  23.220  1.00  0.00    -0.200 F 
ATOM     81  F   UNL A   1      53.077  26.076  25.028  1.00  0.00    -0.200 F 
ENDBRANCH  47  71
BRANCH  59  82
ATOM     82  C   UNL A   1      45.931  32.452  28.683  1.00  0.00     0.064 A 
ATOM     83  C   UNL A   1      45.875  33.427  27.675  1.00  0.00     0.173 A 
ATOM     84  C   UNL A   1      46.508  32.807  29.911  1.00  0.00     0.173 A 
ATOM     85  F   UNL A   1      45.339  33.133  26.480  1.00  0.00    -0.203 F 
ATOM     86  C   UNL A   1      46.395  34.700  27.881  1.00  0.00     0.198 A 
ATOM     87  C   UNL A   1      47.004  34.090  30.122  1.00  0.00     0.198 A 
ATOM     88  F   UNL A   1      46.573  31.912  30.908  1.00  0.00    -0.203 F 
ATOM     89  F   UNL A   1      46.363  35.604  26.892  1.00  0.00    -0.200 F 
ATOM     90  C   UNL A   1      46.957  35.032  29.104  1.00  0.00     0.200 A 
ATOM     91  F   UNL A   1      47.528  34.416  31.311  1.00  0.00    -0.200 F 
ATOM     92  F   UNL A   1      47.454  36.259  29.304  1.00  0.00    -0.200 F 
ENDBRANCH  59  82
ENDBRANCH  33  34
ENDBRANCH  25  28
ENDBRANCH  23  24
ENDBRANCH  22  23
ENDBRANCH  21  22
ENDBRANCH   1  21
TORSDOF 15
ENDMDL
