MODEL 1
REMARK VINA RESULT:     -14.0      0.000      0.000
REMARK SMILES Cc1[nH]c2ccccc2c1/C=C1/SC(=S)N(c2cccc(C(=O)NCCCCNC(=O)c3ccc(-c4c5nc(c(-c6c(F)c(F)c(F)c(F)c6F)c6ccc([nH]6)c(-c6c(F)c(F)c(F)c(F)c6F)c6nc(c(-c7c(F)c(F)c(F)c(F)c7F)c7ccc4[nH]7)C=C6)C=C5)cc3)c2)C1=O
REMARK SMILES IDX 26 1 25 2 24 3 22 4 23 5 21 7 17 8 18 9 95 10 19 11 20 12
REMARK SMILES IDX 16 13 11 14 12 15 13 16 96 17 14 18 97 19 15 20 10 21 1 22
REMARK SMILES IDX 2 23 3 24 4 25 9 27 5 28 8 29 6 30 7 31 27 32 28 33 29 34
REMARK SMILES IDX 30 35 31 37 32 38 33 39 94 40 34 41 93 42 35 43 36 44 37 45
REMARK SMILES IDX 87 46 38 47 92 48 86 49 88 50 39 51 91 52 85 53 84 54 40 56
REMARK SMILES IDX 72 57 52 58 71 59 53 60 56 61 70 62 89 63 54 64 55 65 69 67
REMARK SMILES IDX 90 68 57 69 41 70 42 71 50 72 43 73 44 74 48 75 51 76 45 77
REMARK SMILES IDX 46 78 49 79 47 80 73 81 74 82 82 83 75 84 76 85 80 86 83 87
REMARK SMILES IDX 77 88 78 89 81 90 79 91 58 92 59 93 67 94 60 95 61 96 65 97
REMARK SMILES IDX 68 98 62 99 63 100 66 101 64 102
REMARK H PARENT 24 6 3 26 29 36 88 55 56 66
REMARK Flexibility Score: inf
ROOT
ATOM      1  C   UNL A   1      31.897  30.282  26.496  1.00  0.00     0.023 C 
ENDROOT
BRANCH   1   2
ATOM      2  C   UNL A   1      31.860  29.669  25.102  1.00  0.00     0.116 C 
BRANCH   2   3
ATOM      3  N   UNL A   1      33.141  29.642  24.414  1.00  0.00    -0.352 N 
ATOM      4  C   UNL A   1      33.666  28.741  23.513  1.00  0.00     0.251 C 
ATOM      5  O   UNL A   1      34.800  28.936  23.078  1.00  0.00    -0.269 OA
ATOM      6  H   UNL A   1      33.735  30.397  24.631  1.00  0.00     0.163 HD
BRANCH   4   7
ATOM      7  C   UNL A   1      32.933  27.511  23.109  1.00  0.00     0.041 A 
ATOM      8  C   UNL A   1      31.871  25.397  23.667  1.00  0.00     0.051 A 
ATOM      9  C   UNL A   1      31.927  25.042  22.310  1.00  0.00     0.027 A 
ATOM     10  C   UNL A   1      32.289  26.683  24.034  1.00  0.00     0.040 A 
ATOM     11  C   UNL A   1      32.430  25.926  21.355  1.00  0.00     0.003 A 
ATOM     12  C   UNL A   1      32.960  27.149  21.759  1.00  0.00     0.014 A 
BRANCH   8  13
ATOM     13  N   UNL A   1      31.621  24.407  24.674  1.00  0.00    -0.261 N 
ATOM     14  C   UNL A   1      32.951  21.487  26.441  1.00  0.00     0.032 C 
ATOM     15  C   UNL A   1      32.239  22.532  25.989  1.00  0.00     0.081 C 
ATOM     16  S   UNL A   1      30.917  23.210  26.856  1.00  0.00    -0.054 SA
ATOM     17  C   UNL A   1      32.477  23.302  24.736  1.00  0.00     0.270 C 
ATOM     18  C   UNL A   1      30.690  24.518  25.695  1.00  0.00     0.152 C 
ATOM     19  O   UNL A   1      33.356  23.022  23.930  1.00  0.00    -0.268 OA
ATOM     20  S   UNL A   1      29.439  25.612  25.890  1.00  0.00    -0.051 S 
BRANCH  14  21
ATOM     21  C   UNL A   1      34.080  20.898  25.802  1.00  0.00     0.004 A 
ATOM     22  C   UNL A   1      33.045  18.646  24.932  1.00  0.00     0.065 C 
ATOM     23  C   UNL A   1      34.094  19.672  25.162  1.00  0.00     0.020 A 
ATOM     24  N   UNL A   1      35.387  19.456  24.745  1.00  0.00    -0.358 N 
ATOM     25  C   UNL A   1      36.191  20.525  25.069  1.00  0.00     0.046 A 
ATOM     26  H   UNL A   1      35.696  18.647  24.276  1.00  0.00     0.166 HD
ATOM     27  C   UNL A   1      35.387  21.460  25.721  1.00  0.00     0.007 A 
ATOM     28  C   UNL A   1      37.559  20.724  24.848  1.00  0.00     0.027 A 
ATOM     29  C   UNL A   1      35.978  22.663  26.162  1.00  0.00     0.011 A 
ATOM     30  C   UNL A   1      38.120  21.922  25.299  1.00  0.00     0.002 A 
ATOM     31  C   UNL A   1      37.342  22.881  25.943  1.00  0.00     0.001 A 
ENDBRANCH  14  21
ENDBRANCH   8  13
ENDBRANCH   4   7
ENDBRANCH   2   3
ENDBRANCH   1   2
BRANCH   1  32
ATOM     32  C   UNL A   1      31.685  31.788  26.584  1.00  0.00     0.023 C 
BRANCH  32  33
ATOM     33  C   UNL A   1      32.791  32.586  27.264  1.00  0.00     0.116 C 
BRANCH  33  34
ATOM     34  N   UNL A   1      32.407  33.945  27.619  1.00  0.00    -0.352 N 
ATOM     35  C   UNL A   1      32.960  34.807  28.539  1.00  0.00     0.251 C 
ATOM     36  H   UNL A   1      31.634  34.301  27.125  1.00  0.00     0.163 HD
ATOM     37  O   UNL A   1      32.439  35.897  28.746  1.00  0.00    -0.269 OA
BRANCH  35  38
ATOM     38  C   UNL A   1      34.152  34.401  29.315  1.00  0.00     0.039 A 
ATOM     39  C   UNL A   1      33.968  33.822  30.574  1.00  0.00     0.014 A 
ATOM     40  C   UNL A   1      35.440  34.559  28.800  1.00  0.00     0.014 A 
ATOM     41  C   UNL A   1      35.067  33.312  31.271  1.00  0.00     0.010 A 
ATOM     42  C   UNL A   1      36.522  33.980  29.456  1.00  0.00     0.010 A 
ATOM     43  C   UNL A   1      36.346  33.340  30.693  1.00  0.00    -0.014 A 
BRANCH  43  44
ATOM     44  C   UNL A   1      37.508  32.693  31.354  1.00  0.00     0.031 A 
ATOM     45  C   UNL A   1      38.197  31.526  30.702  1.00  0.00     0.074 A 
ATOM     46  C   UNL A   1      37.888  33.098  32.582  1.00  0.00     0.049 A 
ATOM     47  N   UNL A   1      39.163  30.772  31.162  1.00  0.00    -0.248 NA
ATOM     48  C   UNL A   1      37.714  31.136  29.368  1.00  0.00     0.031 C 
ATOM     49  C   UNL A   1      37.266  34.181  33.347  1.00  0.00     0.029 A 
ATOM     50  N   UNL A   1      38.881  32.638  33.411  1.00  0.00    -0.354 N 
ATOM     51  C   UNL A   1      39.382  29.806  30.188  1.00  0.00     0.074 A 
ATOM     52  C   UNL A   1      38.423  30.041  29.133  1.00  0.00     0.031 C 
ATOM     53  C   UNL A   1      37.903  34.314  34.522  1.00  0.00     0.029 A 
ATOM     54  C   UNL A   1      38.954  33.305  34.611  1.00  0.00     0.049 A 
ATOM     55  H   UNL A   1      39.484  31.897  33.170  1.00  0.00     0.167 HD
ATOM     56  C   UNL A   1      40.316  28.824  30.168  1.00  0.00     0.037 A 
ATOM     57  C   UNL A   1      39.770  33.118  35.666  1.00  0.00     0.037 A 
ATOM     58  C   UNL A   1      41.300  28.620  31.199  1.00  0.00     0.049 A 
ATOM     59  C   UNL A   1      40.808  32.030  35.607  1.00  0.00     0.074 A 
ATOM     60  C   UNL A   1      42.342  27.710  31.227  1.00  0.00     0.029 A 
ATOM     61  N   UNL A   1      41.361  29.338  32.384  1.00  0.00    -0.354 N 
ATOM     62  N   UNL A   1      41.060  31.178  34.646  1.00  0.00    -0.248 NA
ATOM     63  C   UNL A   1      41.678  31.882  36.783  1.00  0.00     0.031 C 
ATOM     64  C   UNL A   1      43.010  27.848  32.449  1.00  0.00     0.029 A 
ATOM     65  C   UNL A   1      42.412  28.875  33.160  1.00  0.00     0.049 A 
ATOM     66  H   UNL A   1      40.751  30.067  32.635  1.00  0.00     0.167 HD
ATOM     67  C   UNL A   1      42.135  30.415  35.083  1.00  0.00     0.074 A 
ATOM     68  C   UNL A   1      42.495  30.914  36.394  1.00  0.00     0.031 C 
ATOM     69  C   UNL A   1      42.767  29.393  34.457  1.00  0.00     0.037 A 
BRANCH  56  70
ATOM     70  C   UNL A   1      40.325  27.897  28.990  1.00  0.00     0.064 A 
ATOM     71  C   UNL A   1      41.072  28.178  27.835  1.00  0.00     0.173 A 
ATOM     72  C   UNL A   1      39.612  26.689  29.031  1.00  0.00     0.173 A 
ATOM     73  F   UNL A   1      41.761  29.326  27.742  1.00  0.00    -0.203 F 
ATOM     74  C   UNL A   1      41.084  27.298  26.757  1.00  0.00     0.198 A 
ATOM     75  C   UNL A   1      39.651  25.797  27.962  1.00  0.00     0.198 A 
ATOM     76  F   UNL A   1      38.888  26.367  30.113  1.00  0.00    -0.203 F 
ATOM     77  F   UNL A   1      41.767  27.611  25.648  1.00  0.00    -0.200 F 
ATOM     78  C   UNL A   1      40.380  26.105  26.824  1.00  0.00     0.200 A 
ATOM     79  F   UNL A   1      38.980  24.638  28.034  1.00  0.00    -0.200 F 
ATOM     80  F   UNL A   1      40.400  25.255  25.789  1.00  0.00    -0.200 F 
ENDBRANCH  56  70
BRANCH  57  81
ATOM     81  C   UNL A   1      39.663  33.997  36.859  1.00  0.00     0.064 A 
ATOM     82  C   UNL A   1      38.892  33.612  37.966  1.00  0.00     0.173 A 
ATOM     83  C   UNL A   1      40.308  35.240  36.915  1.00  0.00     0.173 A 
ATOM     84  F   UNL A   1      38.237  32.441  37.950  1.00  0.00    -0.203 F 
ATOM     85  C   UNL A   1      38.750  34.448  39.071  1.00  0.00     0.198 A 
ATOM     86  C   UNL A   1      40.188  36.064  38.033  1.00  0.00     0.198 A 
ATOM     87  F   UNL A   1      41.061  35.653  35.884  1.00  0.00    -0.203 F 
ATOM     88  F   UNL A   1      37.966  34.077  40.092  1.00  0.00    -0.200 F 
ATOM     89  C   UNL A   1      39.401  35.672  39.106  1.00  0.00     0.200 A 
ATOM     90  F   UNL A   1      40.829  37.240  38.068  1.00  0.00    -0.200 F 
ATOM     91  F   UNL A   1      39.264  36.476  40.168  1.00  0.00    -0.200 F 
ENDBRANCH  57  81
BRANCH  69  92
ATOM     92  C   UNL A   1      43.938  28.774  35.159  1.00  0.00     0.064 A 
ATOM     93  C   UNL A   1      43.783  27.679  36.023  1.00  0.00     0.173 A 
ATOM     94  C   UNL A   1      45.236  29.255  34.932  1.00  0.00     0.173 A 
ATOM     95  F   UNL A   1      42.561  27.194  36.285  1.00  0.00    -0.203 F 
ATOM     96  C   UNL A   1      44.885  27.105  36.652  1.00  0.00     0.198 A 
ATOM     97  C   UNL A   1      46.338  28.660  35.540  1.00  0.00     0.198 A 
ATOM     98  F   UNL A   1      45.438  30.295  34.109  1.00  0.00    -0.203 F 
ATOM     99  F   UNL A   1      44.710  26.090  37.508  1.00  0.00    -0.200 F 
ATOM    100  C   UNL A   1      46.161  27.591  36.404  1.00  0.00     0.200 A 
ATOM    101  F   UNL A   1      47.571  29.122  35.290  1.00  0.00    -0.200 F 
ATOM    102  F   UNL A   1      47.220  27.031  37.006  1.00  0.00    -0.200 F 
ENDBRANCH  69  92
ENDBRANCH  43  44
ENDBRANCH  35  38
ENDBRANCH  33  34
ENDBRANCH  32  33
ENDBRANCH   1  32
TORSDOF 13
ENDMDL
MODEL 2
REMARK VINA RESULT:     -13.9      1.882      7.541
REMARK SMILES Cc1[nH]c2ccccc2c1/C=C1/SC(=S)N(c2cccc(C(=O)NCCCCNC(=O)c3ccc(-c4c5nc(c(-c6c(F)c(F)c(F)c(F)c6F)c6ccc([nH]6)c(-c6c(F)c(F)c(F)c(F)c6F)c6nc(c(-c7c(F)c(F)c(F)c(F)c7F)c7ccc4[nH]7)C=C6)C=C5)cc3)c2)C1=O
REMARK SMILES IDX 26 1 25 2 24 3 22 4 23 5 21 7 17 8 18 9 95 10 19 11 20 12
REMARK SMILES IDX 16 13 11 14 12 15 13 16 96 17 14 18 97 19 15 20 10 21 1 22
REMARK SMILES IDX 2 23 3 24 4 25 9 27 5 28 8 29 6 30 7 31 27 32 28 33 29 34
REMARK SMILES IDX 30 35 31 37 32 38 33 39 94 40 34 41 93 42 35 43 36 44 37 45
REMARK SMILES IDX 87 46 38 47 92 48 86 49 88 50 39 51 91 52 85 53 84 54 40 56
REMARK SMILES IDX 72 57 52 58 71 59 53 60 56 61 70 62 89 63 54 64 55 65 69 67
REMARK SMILES IDX 90 68 57 69 41 70 42 71 50 72 43 73 44 74 48 75 51 76 45 77
REMARK SMILES IDX 46 78 49 79 47 80 73 81 74 82 82 83 75 84 76 85 80 86 83 87
REMARK SMILES IDX 77 88 78 89 81 90 79 91 58 92 59 93 67 94 60 95 61 96 65 97
REMARK SMILES IDX 68 98 62 99 63 100 66 101 64 102
REMARK H PARENT 24 6 3 26 29 36 88 55 56 66
REMARK Flexibility Score: inf
ROOT
ATOM      1  C   UNL A   1      34.380  33.382  28.718  1.00  0.00     0.023 C 
ENDROOT
BRANCH   1   2
ATOM      2  C   UNL A   1      34.341  32.318  27.628  1.00  0.00     0.116 C 
BRANCH   2   3
ATOM      3  N   UNL A   1      35.410  31.335  27.698  1.00  0.00    -0.352 N 
ATOM      4  C   UNL A   1      35.407  29.976  27.467  1.00  0.00     0.251 C 
ATOM      5  O   UNL A   1      36.456  29.352  27.611  1.00  0.00    -0.269 OA
ATOM      6  H   UNL A   1      36.286  31.703  27.956  1.00  0.00     0.163 HD
BRANCH   4   7
ATOM      7  C   UNL A   1      34.162  29.238  27.121  1.00  0.00     0.041 A 
ATOM      8  C   UNL A   1      32.929  27.721  25.677  1.00  0.00     0.051 A 
ATOM      9  C   UNL A   1      31.736  28.185  26.254  1.00  0.00     0.027 A 
ATOM     10  C   UNL A   1      34.143  28.189  26.196  1.00  0.00     0.040 A 
ATOM     11  C   UNL A   1      31.753  29.123  27.286  1.00  0.00     0.003 A 
ATOM     12  C   UNL A   1      32.965  29.671  27.700  1.00  0.00     0.014 A 
BRANCH   8  13
ATOM     13  N   UNL A   1      32.909  26.982  24.448  1.00  0.00    -0.261 N 
ATOM     14  C   UNL A   1      33.083  23.660  22.913  1.00  0.00     0.032 C 
ATOM     15  C   UNL A   1      32.964  24.968  23.195  1.00  0.00     0.081 C 
ATOM     16  S   UNL A   1      32.321  26.112  22.084  1.00  0.00    -0.054 SA
ATOM     17  C   UNL A   1      33.301  25.639  24.483  1.00  0.00     0.270 C 
ATOM     18  C   UNL A   1      32.394  27.438  23.245  1.00  0.00     0.152 C 
ATOM     19  O   UNL A   1      33.785  25.051  25.442  1.00  0.00    -0.268 OA
ATOM     20  S   UNL A   1      31.946  28.985  22.789  1.00  0.00    -0.051 S 
BRANCH  14  21
ATOM     21  C   UNL A   1      33.566  22.649  23.792  1.00  0.00     0.004 A 
ATOM     22  C   UNL A   1      31.322  21.804  24.865  1.00  0.00     0.065 C 
ATOM     23  C   UNL A   1      32.787  21.866  24.624  1.00  0.00     0.020 A 
ATOM     24  N   UNL A   1      33.648  21.070  25.343  1.00  0.00    -0.358 N 
ATOM     25  C   UNL A   1      34.953  21.298  24.968  1.00  0.00     0.046 A 
ATOM     26  H   UNL A   1      33.369  20.424  26.032  1.00  0.00     0.166 HD
ATOM     27  C   UNL A   1      34.930  22.277  23.975  1.00  0.00     0.007 A 
ATOM     28  C   UNL A   1      36.139  20.724  25.440  1.00  0.00     0.027 A 
ATOM     29  C   UNL A   1      36.155  22.695  23.415  1.00  0.00     0.011 A 
ATOM     30  C   UNL A   1      37.340  21.160  24.871  1.00  0.00     0.002 A 
ATOM     31  C   UNL A   1      37.350  22.128  23.870  1.00  0.00     0.001 A 
ENDBRANCH  14  21
ENDBRANCH   8  13
ENDBRANCH   4   7
ENDBRANCH   2   3
ENDBRANCH   1   2
BRANCH   1  32
ATOM     32  C   UNL A   1      33.261  34.416  28.701  1.00  0.00     0.023 C 
BRANCH  32  33
ATOM     33  C   UNL A   1      33.543  35.725  29.429  1.00  0.00     0.116 C 
BRANCH  33  34
ATOM     34  N   UNL A   1      32.580  36.039  30.474  1.00  0.00    -0.352 N 
ATOM     35  C   UNL A   1      32.621  35.771  31.824  1.00  0.00     0.251 C 
ATOM     36  H   UNL A   1      31.775  36.516  30.168  1.00  0.00     0.163 HD
ATOM     37  O   UNL A   1      31.664  36.055  32.534  1.00  0.00    -0.269 OA
BRANCH  35  38
ATOM     38  C   UNL A   1      33.799  35.094  32.411  1.00  0.00     0.039 A 
ATOM     39  C   UNL A   1      33.651  33.792  32.898  1.00  0.00     0.014 A 
ATOM     40  C   UNL A   1      35.046  35.720  32.456  1.00  0.00     0.014 A 
ATOM     41  C   UNL A   1      34.772  33.084  33.338  1.00  0.00     0.010 A 
ATOM     42  C   UNL A   1      36.173  34.988  32.818  1.00  0.00     0.010 A 
ATOM     43  C   UNL A   1      36.050  33.658  33.251  1.00  0.00    -0.014 A 
BRANCH  43  44
ATOM     44  C   UNL A   1      37.272  32.884  33.591  1.00  0.00     0.031 A 
ATOM     45  C   UNL A   1      38.019  33.169  34.865  1.00  0.00     0.074 A 
ATOM     46  C   UNL A   1      37.759  31.987  32.711  1.00  0.00     0.049 A 
ATOM     47  N   UNL A   1      39.151  32.669  35.290  1.00  0.00    -0.248 NA
ATOM     48  C   UNL A   1      37.429  34.172  35.766  1.00  0.00     0.031 C 
ATOM     49  C   UNL A   1      37.160  31.660  31.416  1.00  0.00     0.029 A 
ATOM     50  N   UNL A   1      38.879  31.194  32.766  1.00  0.00    -0.354 N 
ATOM     51  C   UNL A   1      39.421  33.315  36.490  1.00  0.00     0.074 A 
ATOM     52  C   UNL A   1      38.359  34.272  36.704  1.00  0.00     0.031 C 
ATOM     53  C   UNL A   1      37.906  30.722  30.809  1.00  0.00     0.029 A 
ATOM     54  C   UNL A   1      39.055  30.408  31.653  1.00  0.00     0.049 A 
ATOM     55  H   UNL A   1      39.499  31.190  33.531  1.00  0.00     0.167 HD
ATOM     56  C   UNL A   1      40.452  33.111  37.345  1.00  0.00     0.037 A 
ATOM     57  C   UNL A   1      40.035  29.537  31.344  1.00  0.00     0.037 A 
ATOM     58  C   UNL A   1      41.483  32.126  37.152  1.00  0.00     0.049 A 
ATOM     59  C   UNL A   1      41.159  29.320  32.323  1.00  0.00     0.074 A 
ATOM     60  C   UNL A   1      42.518  31.784  38.004  1.00  0.00     0.029 A 
ATOM     61  N   UNL A   1      41.608  31.326  36.026  1.00  0.00    -0.354 N 
ATOM     62  N   UNL A   1      41.357  29.876  33.491  1.00  0.00    -0.248 NA
ATOM     63  C   UNL A   1      42.193  28.349  31.937  1.00  0.00     0.031 C 
ATOM     64  C   UNL A   1      43.296  30.805  37.376  1.00  0.00     0.029 A 
ATOM     65  C   UNL A   1      42.718  30.506  36.153  1.00  0.00     0.049 A 
ATOM     66  H   UNL A   1      41.000  31.338  35.254  1.00  0.00     0.167 HD
ATOM     67  C   UNL A   1      42.517  29.302  33.996  1.00  0.00     0.074 A 
ATOM     68  C   UNL A   1      42.971  28.345  33.009  1.00  0.00     0.031 C 
ATOM     69  C   UNL A   1      43.149  29.546  35.169  1.00  0.00     0.037 A 
BRANCH  56  70
ATOM     70  C   UNL A   1      40.513  33.967  38.576  1.00  0.00     0.064 A 
ATOM     71  C   UNL A   1      39.858  33.600  39.762  1.00  0.00     0.173 A 
ATOM     72  C   UNL A   1      41.274  35.146  38.584  1.00  0.00     0.173 A 
ATOM     73  F   UNL A   1      39.110  32.488  39.802  1.00  0.00    -0.203 F 
ATOM     74  C   UNL A   1      39.941  34.396  40.901  1.00  0.00     0.198 A 
ATOM     75  C   UNL A   1      41.378  35.924  39.734  1.00  0.00     0.198 A 
ATOM     76  F   UNL A   1      41.925  35.539  37.479  1.00  0.00    -0.203 F 
ATOM     77  F   UNL A   1      39.269  34.049  42.007  1.00  0.00    -0.200 F 
ATOM     78  C   UNL A   1      40.706  35.552  40.889  1.00  0.00     0.200 A 
ATOM     79  F   UNL A   1      42.128  37.034  39.724  1.00  0.00    -0.200 F 
ATOM     80  F   UNL A   1      40.791  36.312  41.989  1.00  0.00    -0.200 F 
ENDBRANCH  56  70
BRANCH  57  81
ATOM     81  C   UNL A   1      39.989  28.781  30.066  1.00  0.00     0.064 A 
ATOM     82  C   UNL A   1      39.388  27.515  30.004  1.00  0.00     0.173 A 
ATOM     83  C   UNL A   1      40.556  29.292  28.891  1.00  0.00     0.173 A 
ATOM     84  F   UNL A   1      38.852  26.973  31.108  1.00  0.00    -0.203 F 
ATOM     85  C   UNL A   1      39.380  26.779  28.820  1.00  0.00     0.198 A 
ATOM     86  C   UNL A   1      40.522  28.567  27.701  1.00  0.00     0.198 A 
ATOM     87  F   UNL A   1      41.138  30.501  28.896  1.00  0.00    -0.203 F 
ATOM     88  F   UNL A   1      38.845  25.551  28.802  1.00  0.00    -0.200 F 
ATOM     89  C   UNL A   1      39.943  27.307  27.669  1.00  0.00     0.200 A 
ATOM     90  F   UNL A   1      41.056  29.086  26.587  1.00  0.00    -0.200 F 
ATOM     91  F   UNL A   1      39.936  26.599  26.532  1.00  0.00    -0.200 F 
ENDBRANCH  57  81
BRANCH  69  92
ATOM     92  C   UNL A   1      44.374  28.737  35.472  1.00  0.00     0.064 A 
ATOM     93  C   UNL A   1      45.657  29.189  35.128  1.00  0.00     0.173 A 
ATOM     94  C   UNL A   1      44.267  27.515  36.152  1.00  0.00     0.173 A 
ATOM     95  F   UNL A   1      45.811  30.343  34.463  1.00  0.00    -0.203 F 
ATOM     96  C   UNL A   1      46.786  28.433  35.434  1.00  0.00     0.198 A 
ATOM     97  C   UNL A   1      45.400  26.776  36.482  1.00  0.00     0.198 A 
ATOM     98  F   UNL A   1      43.063  27.042  36.508  1.00  0.00    -0.203 F 
ATOM     99  F   UNL A   1      47.998  28.861  35.058  1.00  0.00    -0.200 F 
ATOM    100  C   UNL A   1      46.657  27.232  36.117  1.00  0.00     0.200 A 
ATOM    101  F   UNL A   1      45.274  25.623  37.152  1.00  0.00    -0.200 F 
ATOM    102  F   UNL A   1      47.745  26.511  36.416  1.00  0.00    -0.200 F 
ENDBRANCH  69  92
ENDBRANCH  43  44
ENDBRANCH  35  38
ENDBRANCH  33  34
ENDBRANCH  32  33
ENDBRANCH   1  32
TORSDOF 13
ENDMDL
MODEL 3
REMARK VINA RESULT:     -13.8      0.570      7.095
REMARK SMILES Cc1[nH]c2ccccc2c1/C=C1/SC(=S)N(c2cccc(C(=O)NCCCCNC(=O)c3ccc(-c4c5nc(c(-c6c(F)c(F)c(F)c(F)c6F)c6ccc([nH]6)c(-c6c(F)c(F)c(F)c(F)c6F)c6nc(c(-c7c(F)c(F)c(F)c(F)c7F)c7ccc4[nH]7)C=C6)C=C5)cc3)c2)C1=O
REMARK SMILES IDX 26 1 25 2 24 3 22 4 23 5 21 7 17 8 18 9 95 10 19 11 20 12
REMARK SMILES IDX 16 13 11 14 12 15 13 16 96 17 14 18 97 19 15 20 10 21 1 22
REMARK SMILES IDX 2 23 3 24 4 25 9 27 5 28 8 29 6 30 7 31 27 32 28 33 29 34
REMARK SMILES IDX 30 35 31 37 32 38 33 39 94 40 34 41 93 42 35 43 36 44 37 45
REMARK SMILES IDX 87 46 38 47 92 48 86 49 88 50 39 51 91 52 85 53 84 54 40 56
REMARK SMILES IDX 72 57 52 58 71 59 53 60 56 61 70 62 89 63 54 64 55 65 69 67
REMARK SMILES IDX 90 68 57 69 41 70 42 71 50 72 43 73 44 74 48 75 51 76 45 77
REMARK SMILES IDX 46 78 49 79 47 80 73 81 74 82 82 83 75 84 76 85 80 86 83 87
REMARK SMILES IDX 77 88 78 89 81 90 79 91 58 92 59 93 67 94 60 95 61 96 65 97
REMARK SMILES IDX 68 98 62 99 63 100 66 101 64 102
REMARK H PARENT 24 6 3 26 29 36 88 55 56 66
REMARK Flexibility Score: inf
ROOT
ATOM      1  C   UNL A   1      31.693  30.244  26.389  1.00  0.00     0.023 C 
ENDROOT
BRANCH   1   2
ATOM      2  C   UNL A   1      31.728  29.665  24.981  1.00  0.00     0.116 C 
BRANCH   2   3
ATOM      3  N   UNL A   1      33.046  29.639  24.366  1.00  0.00    -0.352 N 
ATOM      4  C   UNL A   1      33.629  28.725  23.514  1.00  0.00     0.251 C 
ATOM      5  O   UNL A   1      34.783  28.924  23.139  1.00  0.00    -0.269 OA
ATOM      6  H   UNL A   1      33.619  30.404  24.598  1.00  0.00     0.163 HD
BRANCH   4   7
ATOM      7  C   UNL A   1      32.933  27.479  23.097  1.00  0.00     0.041 A 
ATOM      8  C   UNL A   1      31.897  25.347  23.637  1.00  0.00     0.051 A 
ATOM      9  C   UNL A   1      32.000  24.985  22.285  1.00  0.00     0.027 A 
ATOM     10  C   UNL A   1      32.279  26.642  24.008  1.00  0.00     0.040 A 
ATOM     11  C   UNL A   1      32.512  25.874  21.339  1.00  0.00     0.003 A 
ATOM     12  C   UNL A   1      33.005  27.110  21.750  1.00  0.00     0.014 A 
BRANCH   8  13
ATOM     13  N   UNL A   1      31.639  24.357  24.642  1.00  0.00    -0.261 N 
ATOM     14  C   UNL A   1      32.944  21.425  26.408  1.00  0.00     0.032 C 
ATOM     15  C   UNL A   1      32.240  22.476  25.957  1.00  0.00     0.081 C 
ATOM     16  S   UNL A   1      30.922  23.162  26.821  1.00  0.00    -0.054 SA
ATOM     17  C   UNL A   1      32.486  23.246  24.704  1.00  0.00     0.270 C 
ATOM     18  C   UNL A   1      30.707  24.474  25.662  1.00  0.00     0.152 C 
ATOM     19  O   UNL A   1      33.365  22.961  23.900  1.00  0.00    -0.268 OA
ATOM     20  S   UNL A   1      29.463  25.577  25.856  1.00  0.00    -0.051 S 
BRANCH  14  21
ATOM     21  C   UNL A   1      34.070  20.829  25.770  1.00  0.00     0.004 A 
ATOM     22  C   UNL A   1      33.016  18.594  24.879  1.00  0.00     0.065 C 
ATOM     23  C   UNL A   1      34.075  19.608  25.122  1.00  0.00     0.020 A 
ATOM     24  N   UNL A   1      35.367  19.381  24.710  1.00  0.00    -0.358 N 
ATOM     25  C   UNL A   1      36.181  20.439  25.045  1.00  0.00     0.046 A 
ATOM     26  H   UNL A   1      35.670  18.572  24.237  1.00  0.00     0.166 HD
ATOM     27  C   UNL A   1      35.384  21.378  25.700  1.00  0.00     0.007 A 
ATOM     28  C   UNL A   1      37.552  20.625  24.832  1.00  0.00     0.027 A 
ATOM     29  C   UNL A   1      35.985  22.572  26.153  1.00  0.00     0.011 A 
ATOM     30  C   UNL A   1      38.123  21.814  25.295  1.00  0.00     0.002 A 
ATOM     31  C   UNL A   1      37.352  22.777  25.942  1.00  0.00     0.001 A 
ENDBRANCH  14  21
ENDBRANCH   8  13
ENDBRANCH   4   7
ENDBRANCH   2   3
ENDBRANCH   1   2
BRANCH   1  32
ATOM     32  C   UNL A   1      31.586  31.760  26.500  1.00  0.00     0.023 C 
BRANCH  32  33
ATOM     33  C   UNL A   1      32.764  32.472  27.153  1.00  0.00     0.116 C 
BRANCH  33  34
ATOM     34  N   UNL A   1      32.484  33.849  27.537  1.00  0.00    -0.352 N 
ATOM     35  C   UNL A   1      33.095  34.646  28.478  1.00  0.00     0.251 C 
ATOM     36  H   UNL A   1      31.744  34.274  27.047  1.00  0.00     0.163 HD
ATOM     37  O   UNL A   1      32.658  35.767  28.708  1.00  0.00    -0.269 OA
BRANCH  35  38
ATOM     38  C   UNL A   1      34.248  34.132  29.250  1.00  0.00     0.039 A 
ATOM     39  C   UNL A   1      34.004  33.301  30.349  1.00  0.00     0.014 A 
ATOM     40  C   UNL A   1      35.560  34.438  28.883  1.00  0.00     0.014 A 
ATOM     41  C   UNL A   1      35.074  32.699  31.015  1.00  0.00     0.010 A 
ATOM     42  C   UNL A   1      36.620  33.775  29.495  1.00  0.00     0.010 A 
ATOM     43  C   UNL A   1      36.388  32.890  30.560  1.00  0.00    -0.014 A 
BRANCH  43  44
ATOM     44  C   UNL A   1      37.532  32.163  31.168  1.00  0.00     0.031 A 
ATOM     45  C   UNL A   1      38.026  32.539  32.537  1.00  0.00     0.074 A 
ATOM     46  C   UNL A   1      38.182  31.224  30.452  1.00  0.00     0.049 A 
ATOM     47  N   UNL A   1      39.063  32.088  33.196  1.00  0.00    -0.248 NA
ATOM     48  C   UNL A   1      37.270  33.582  33.249  1.00  0.00     0.031 C 
ATOM     49  C   UNL A   1      37.838  30.807  29.091  1.00  0.00     0.029 A 
ATOM     50  N   UNL A   1      39.279  30.459  30.763  1.00  0.00    -0.354 N 
ATOM     51  C   UNL A   1      39.100  32.811  34.382  1.00  0.00     0.074 A 
ATOM     52  C   UNL A   1      38.008  33.758  34.335  1.00  0.00     0.031 C 
ATOM     53  C   UNL A   1      38.692  29.850  28.693  1.00  0.00     0.029 A 
ATOM     54  C   UNL A   1      39.666  29.611  29.754  1.00  0.00     0.049 A 
ATOM     55  H   UNL A   1      39.747  30.514  31.628  1.00  0.00     0.167 HD
ATOM     56  C   UNL A   1      39.955  32.680  35.425  1.00  0.00     0.037 A 
ATOM     57  C   UNL A   1      40.694  28.744  29.688  1.00  0.00     0.037 A 
ATOM     58  C   UNL A   1      41.012  31.706  35.488  1.00  0.00     0.049 A 
ATOM     59  C   UNL A   1      41.618  28.608  30.869  1.00  0.00     0.074 A 
ATOM     60  C   UNL A   1      41.874  31.437  36.537  1.00  0.00     0.029 A 
ATOM     61  N   UNL A   1      41.352  30.842  34.458  1.00  0.00    -0.354 N 
ATOM     62  N   UNL A   1      41.591  29.238  32.017  1.00  0.00    -0.248 NA
ATOM     63  C   UNL A   1      42.715  27.637  30.743  1.00  0.00     0.031 C 
ATOM     64  C   UNL A   1      42.764  30.438  36.128  1.00  0.00     0.029 A 
ATOM     65  C   UNL A   1      42.426  30.054  34.840  1.00  0.00     0.049 A 
ATOM     66  H   UNL A   1      40.899  30.796  33.587  1.00  0.00     0.167 HD
ATOM     67  C   UNL A   1      42.641  28.719  32.762  1.00  0.00     0.074 A 
ATOM     68  C   UNL A   1      43.280  27.713  31.940  1.00  0.00     0.031 C 
ATOM     69  C   UNL A   1      43.041  29.046  34.015  1.00  0.00     0.037 A 
BRANCH  56  70
ATOM     70  C   UNL A   1      39.779  33.609  36.589  1.00  0.00     0.064 A 
ATOM     71  C   UNL A   1      40.442  34.844  36.653  1.00  0.00     0.173 A 
ATOM     72  C   UNL A   1      38.902  33.280  37.634  1.00  0.00     0.173 A 
ATOM     73  F   UNL A   1      41.300  35.200  35.685  1.00  0.00    -0.203 F 
ATOM     74  C   UNL A   1      40.253  35.703  37.733  1.00  0.00     0.198 A 
ATOM     75  C   UNL A   1      38.693  34.156  38.697  1.00  0.00     0.198 A 
ATOM     76  F   UNL A   1      38.237  32.115  37.618  1.00  0.00    -0.203 F 
ATOM     77  F   UNL A   1      40.933  36.857  37.794  1.00  0.00    -0.200 F 
ATOM     78  C   UNL A   1      39.374  35.362  38.749  1.00  0.00     0.200 A 
ATOM     79  F   UNL A   1      37.833  33.829  39.672  1.00  0.00    -0.200 F 
ATOM     80  F   UNL A   1      39.187  36.194  39.782  1.00  0.00    -0.200 F 
ENDBRANCH  56  70
BRANCH  57  81
ATOM     81  C   UNL A   1      40.895  27.911  28.473  1.00  0.00     0.064 A 
ATOM     82  C   UNL A   1      41.683  28.372  27.410  1.00  0.00     0.173 A 
ATOM     83  C   UNL A   1      40.293  26.652  28.341  1.00  0.00     0.173 A 
ATOM     84  F   UNL A   1      42.262  29.581  27.481  1.00  0.00    -0.203 F 
ATOM     85  C   UNL A   1      41.841  27.617  26.249  1.00  0.00     0.198 A 
ATOM     86  C   UNL A   1      40.474  25.885  27.190  1.00  0.00     0.198 A 
ATOM     87  F   UNL A   1      39.532  26.162  29.331  1.00  0.00    -0.203 F 
ATOM     88  F   UNL A   1      42.558  28.106  25.228  1.00  0.00    -0.200 F 
ATOM     89  C   UNL A   1      41.240  26.373  26.142  1.00  0.00     0.200 A 
ATOM     90  F   UNL A   1      39.902  24.678  27.095  1.00  0.00    -0.200 F 
ATOM     91  F   UNL A   1      41.390  25.648  25.025  1.00  0.00    -0.200 F 
ENDBRANCH  57  81
BRANCH  69  92
ATOM     92  C   UNL A   1      44.196  28.282  34.590  1.00  0.00     0.064 A 
ATOM     93  C   UNL A   1      45.515  28.749  34.480  1.00  0.00     0.173 A 
ATOM     94  C   UNL A   1      43.976  27.090  35.296  1.00  0.00     0.173 A 
ATOM     95  F   UNL A   1      45.778  29.874  33.801  1.00  0.00    -0.203 F 
ATOM     96  C   UNL A   1      46.573  28.035  35.037  1.00  0.00     0.198 A 
ATOM     97  C   UNL A   1      45.034  26.394  35.876  1.00  0.00     0.198 A 
ATOM     98  F   UNL A   1      42.733  26.605  35.434  1.00  0.00    -0.203 F 
ATOM     99  F   UNL A   1      47.829  28.475  34.882  1.00  0.00    -0.200 F 
ATOM    100  C   UNL A   1      46.331  26.864  35.740  1.00  0.00     0.200 A 
ATOM    101  F   UNL A   1      44.797  25.270  36.566  1.00  0.00    -0.200 F 
ATOM    102  F   UNL A   1      47.351  26.184  36.281  1.00  0.00    -0.200 F 
ENDBRANCH  69  92
ENDBRANCH  43  44
ENDBRANCH  35  38
ENDBRANCH  33  34
ENDBRANCH  32  33
ENDBRANCH   1  32
TORSDOF 13
ENDMDL
