MODEL 1
REMARK VINA RESULT:     -14.0      0.000      0.000
REMARK SMILES C[C@@H]1CN(C(=O)Nc2ccc(O)c(C(=O)NCCCCNC(=O)c3ccc(-c4c5nc(c(-c6c(F)c(F)c(F)c(F)c6F)c6ccc([nH]6)c(-c6c(F)c(F)c(F)c(F)c6F)c6nc(c(-c7c(F)c(F)c(F)c(F)c7F)c7ccc4[nH]7)C=C6)C=C5)cc3)c2)C[C@H]1C
REMARK SMILES IDX 19 1 18 2 17 3 16 4 14 5 15 6 13 8 8 9 9 10 87 11 10 12
REMARK SMILES IDX 11 13 7 14 1 15 2 16 3 17 89 18 4 19 88 20 90 21 5 22 6 23
REMARK SMILES IDX 12 25 20 27 21 28 22 29 23 31 24 32 25 33 86 34 26 35 85 36
REMARK SMILES IDX 27 37 28 38 29 39 79 40 30 41 84 42 78 43 80 44 31 45 83 46
REMARK SMILES IDX 77 47 76 48 32 50 64 51 44 52 63 53 45 54 48 55 62 56 81 57
REMARK SMILES IDX 46 58 47 59 61 61 82 62 49 63 33 64 34 65 42 66 35 67 36 68
REMARK SMILES IDX 40 69 43 70 37 71 38 72 41 73 39 74 65 75 66 76 74 77 67 78
REMARK SMILES IDX 68 79 72 80 75 81 69 82 70 83 73 84 71 85 50 86 51 87 59 88
REMARK SMILES IDX 52 89 53 90 57 91 60 92 54 93 55 94 58 95 56 96
REMARK H PARENT 16 7 7 24 12 26 21 30 80 49 48 60
REMARK Flexibility Score: inf
ROOT
ATOM      1  C   UNL A   1      31.403  31.958  26.994  1.00  0.00     0.023 C 
ENDROOT
BRANCH   1   2
ATOM      2  C   UNL A   1      31.570  30.887  25.921  1.00  0.00     0.023 C 
BRANCH   2   3
ATOM      3  C   UNL A   1      32.861  30.067  26.003  1.00  0.00     0.116 C 
BRANCH   3   4
ATOM      4  N   UNL A   1      33.317  29.710  24.681  1.00  0.00    -0.352 N 
ATOM      5  C   UNL A   1      32.861  28.790  23.774  1.00  0.00     0.255 C 
ATOM      6  O   UNL A   1      33.505  28.699  22.725  1.00  0.00    -0.269 OA
ATOM      7  H   UNL A   1      34.100  30.222  24.374  1.00  0.00     0.163 HD
BRANCH   5   8
ATOM      8  C   UNL A   1      31.619  27.968  23.909  1.00  0.00     0.083 A 
ATOM      9  C   UNL A   1      30.534  26.303  25.327  1.00  0.00     0.043 A 
ATOM     10  C   UNL A   1      29.385  26.366  24.551  1.00  0.00     0.030 A 
ATOM     11  C   UNL A   1      31.601  27.161  25.063  1.00  0.00     0.044 A 
ATOM     12  C   UNL A   1      29.371  27.162  23.414  1.00  0.00     0.049 A 
ATOM     13  C   UNL A   1      30.494  27.927  23.074  1.00  0.00     0.128 A 
BRANCH   9  14
ATOM     14  N   UNL A   1      30.665  25.384  26.366  1.00  0.00    -0.308 N 
ATOM     15  C   UNL A   1      33.304  22.973  22.267  1.00  0.00     0.010 C 
ATOM     16  C   UNL A   1      32.151  22.648  23.201  1.00  0.00     0.010 C 
ATOM     17  C   UNL A   1      31.704  23.868  24.003  1.00  0.00     0.125 C 
ATOM     18  C   UNL A   1      32.467  21.636  24.303  1.00  0.00     0.010 C 
ATOM     19  N   UNL A   1      31.117  23.343  25.233  1.00  0.00    -0.324 N 
ATOM     20  C   UNL A   1      31.350  21.908  25.318  1.00  0.00     0.125 C 
ATOM     21  C   UNL A   1      32.490  20.199  23.815  1.00  0.00     0.010 C 
ATOM     22  C   UNL A   1      30.673  24.021  26.345  1.00  0.00     0.321 C 
ATOM     23  O   UNL A   1      30.410  23.433  27.397  1.00  0.00    -0.248 OA
ATOM     24  H   UNL A   1      30.767  25.783  27.260  1.00  0.00     0.171 HD
ENDBRANCH   9  14
BRANCH  13  25
ATOM     25  O   UNL A   1      30.400  28.628  21.913  1.00  0.00    -0.507 OA
ATOM     26  H   UNL A   1      31.174  28.843  21.432  1.00  0.00     0.293 HD
ENDBRANCH  13  25
ENDBRANCH   5   8
ENDBRANCH   3   4
ENDBRANCH   2   3
ENDBRANCH   1   2
BRANCH   1  27
ATOM     27  C   UNL A   1      32.638  32.807  27.246  1.00  0.00     0.116 C 
BRANCH  27  28
ATOM     28  N   UNL A   1      32.336  34.180  27.618  1.00  0.00    -0.352 N 
ATOM     29  C   UNL A   1      32.969  34.977  28.543  1.00  0.00     0.251 C 
ATOM     30  H   UNL A   1      31.577  34.594  27.146  1.00  0.00     0.163 HD
ATOM     31  O   UNL A   1      32.540  36.088  28.807  1.00  0.00    -0.269 OA
BRANCH  29  32
ATOM     32  C   UNL A   1      34.153  34.444  29.249  1.00  0.00     0.039 A 
ATOM     33  C   UNL A   1      33.958  33.713  30.423  1.00  0.00     0.014 A 
ATOM     34  C   UNL A   1      35.437  34.620  28.726  1.00  0.00     0.014 A 
ATOM     35  C   UNL A   1      35.049  33.099  31.035  1.00  0.00     0.010 A 
ATOM     36  C   UNL A   1      36.508  33.937  29.289  1.00  0.00     0.010 A 
ATOM     37  C   UNL A   1      36.325  33.175  30.451  1.00  0.00    -0.014 A 
BRANCH  37  38
ATOM     38  C   UNL A   1      37.479  32.460  31.047  1.00  0.00     0.031 A 
ATOM     39  C   UNL A   1      37.963  32.822  32.421  1.00  0.00     0.074 A 
ATOM     40  C   UNL A   1      38.117  31.518  30.328  1.00  0.00     0.049 A 
ATOM     41  N   UNL A   1      38.954  32.315  33.111  1.00  0.00    -0.248 NA
ATOM     42  C   UNL A   1      37.259  33.920  33.101  1.00  0.00     0.031 C 
ATOM     43  C   UNL A   1      37.778  31.124  28.959  1.00  0.00     0.029 A 
ATOM     44  N   UNL A   1      39.185  30.720  30.649  1.00  0.00    -0.354 N 
ATOM     45  C   UNL A   1      38.994  33.034  34.296  1.00  0.00     0.074 A 
ATOM     46  C   UNL A   1      37.977  34.059  34.205  1.00  0.00     0.031 C 
ATOM     47  C   UNL A   1      38.593  30.130  28.575  1.00  0.00     0.029 A 
ATOM     48  C   UNL A   1      39.530  29.837  29.655  1.00  0.00     0.049 A 
ATOM     49  H   UNL A   1      39.659  30.774  31.510  1.00  0.00     0.167 HD
ATOM     50  C   UNL A   1      39.786  32.839  35.377  1.00  0.00     0.037 A 
ATOM     51  C   UNL A   1      40.488  28.893  29.626  1.00  0.00     0.037 A 
ATOM     52  C   UNL A   1      40.790  31.811  35.466  1.00  0.00     0.049 A 
ATOM     53  C   UNL A   1      41.359  28.698  30.836  1.00  0.00     0.074 A 
ATOM     54  C   UNL A   1      41.612  31.493  36.533  1.00  0.00     0.029 A 
ATOM     55  N   UNL A   1      41.110  30.933  34.440  1.00  0.00    -0.354 N 
ATOM     56  N   UNL A   1      41.337  29.331  31.984  1.00  0.00    -0.248 NA
ATOM     57  C   UNL A   1      42.380  27.646  30.748  1.00  0.00     0.031 C 
ATOM     58  C   UNL A   1      42.460  30.454  36.137  1.00  0.00     0.029 A 
ATOM     59  C   UNL A   1      42.133  30.088  34.842  1.00  0.00     0.049 A 
ATOM     60  H   UNL A   1      40.676  30.914  33.557  1.00  0.00     0.167 HD
ATOM     61  C   UNL A   1      42.322  28.740  32.764  1.00  0.00     0.074 A 
ATOM     62  C   UNL A   1      42.908  27.684  31.963  1.00  0.00     0.031 C 
ATOM     63  C   UNL A   1      42.706  29.043  34.029  1.00  0.00     0.037 A 
BRANCH  50  64
ATOM     64  C   UNL A   1      39.589  33.762  36.546  1.00  0.00     0.064 A 
ATOM     65  C   UNL A   1      40.208  35.021  36.601  1.00  0.00     0.173 A 
ATOM     66  C   UNL A   1      38.775  33.385  37.625  1.00  0.00     0.173 A 
ATOM     67  F   UNL A   1      41.007  35.425  35.603  1.00  0.00    -0.203 F 
ATOM     68  C   UNL A   1      40.054  35.849  37.711  1.00  0.00     0.198 A 
ATOM     69  C   UNL A   1      38.597  34.231  38.717  1.00  0.00     0.198 A 
ATOM     70  F   UNL A   1      38.156  32.195  37.624  1.00  0.00    -0.203 F 
ATOM     71  F   UNL A   1      40.709  37.016  37.768  1.00  0.00    -0.200 F 
ATOM     72  C   UNL A   1      39.246  35.455  38.765  1.00  0.00     0.200 A 
ATOM     73  F   UNL A   1      37.806  33.853  39.732  1.00  0.00    -0.200 F 
ATOM     74  F   UNL A   1      39.100  36.252  39.833  1.00  0.00    -0.200 F 
ENDBRANCH  50  64
BRANCH  51  75
ATOM     75  C   UNL A   1      40.633  28.022  28.431  1.00  0.00     0.064 A 
ATOM     76  C   UNL A   1      39.986  26.780  28.370  1.00  0.00     0.173 A 
ATOM     77  C   UNL A   1      41.403  28.414  27.327  1.00  0.00     0.173 A 
ATOM     78  F   UNL A   1      39.253  26.356  29.410  1.00  0.00    -0.203 F 
ATOM     79  C   UNL A   1      40.118  25.954  27.256  1.00  0.00     0.198 A 
ATOM     80  C   UNL A   1      41.514  27.597  26.203  1.00  0.00     0.198 A 
ATOM     81  F   UNL A   1      42.036  29.596  27.334  1.00  0.00    -0.203 F 
ATOM     82  F   UNL A   1      39.521  24.754  27.241  1.00  0.00    -0.200 F 
ATOM     83  C   UNL A   1      40.877  26.365  26.172  1.00  0.00     0.200 A 
ATOM     84  F   UNL A   1      42.236  28.004  25.150  1.00  0.00    -0.200 F 
ATOM     85  F   UNL A   1      40.998  25.573  25.098  1.00  0.00    -0.200 F 
ENDBRANCH  51  75
BRANCH  63  86
ATOM     86  C   UNL A   1      43.795  28.202  34.631  1.00  0.00     0.064 A 
ATOM     87  C   UNL A   1      45.145  28.577  34.553  1.00  0.00     0.173 A 
ATOM     88  C   UNL A   1      43.481  27.012  35.305  1.00  0.00     0.173 A 
ATOM     89  F   UNL A   1      45.498  29.697  33.905  1.00  0.00    -0.203 F 
ATOM     90  C   UNL A   1      46.143  27.773  35.098  1.00  0.00     0.198 A 
ATOM     91  C   UNL A   1      44.479  26.228  35.877  1.00  0.00     0.198 A 
ATOM     92  F   UNL A   1      42.205  26.612  35.414  1.00  0.00    -0.203 F 
ATOM     93  F   UNL A   1      47.429  28.121  34.961  1.00  0.00    -0.200 F 
ATOM     94  C   UNL A   1      45.809  26.604  35.764  1.00  0.00     0.200 A 
ATOM     95  F   UNL A   1      44.154  25.105  36.532  1.00  0.00    -0.200 F 
ATOM     96  F   UNL A   1      46.771  25.832  36.288  1.00  0.00    -0.200 F 
ENDBRANCH  63  86
ENDBRANCH  37  38
ENDBRANCH  29  32
ENDBRANCH  27  28
ENDBRANCH   1  27
TORSDOF 13
ENDMDL
MODEL 2
REMARK VINA RESULT:     -14.0      0.064      1.585
REMARK SMILES C[C@@H]1CN(C(=O)Nc2ccc(O)c(C(=O)NCCCCNC(=O)c3ccc(-c4c5nc(c(-c6c(F)c(F)c(F)c(F)c6F)c6ccc([nH]6)c(-c6c(F)c(F)c(F)c(F)c6F)c6nc(c(-c7c(F)c(F)c(F)c(F)c7F)c7ccc4[nH]7)C=C6)C=C5)cc3)c2)C[C@H]1C
REMARK SMILES IDX 19 1 18 2 17 3 16 4 14 5 15 6 13 8 8 9 9 10 87 11 10 12
REMARK SMILES IDX 11 13 7 14 1 15 2 16 3 17 89 18 4 19 88 20 90 21 5 22 6 23
REMARK SMILES IDX 12 25 20 27 21 28 22 29 23 31 24 32 25 33 86 34 26 35 85 36
REMARK SMILES IDX 27 37 28 38 29 39 79 40 30 41 84 42 78 43 80 44 31 45 83 46
REMARK SMILES IDX 77 47 76 48 32 50 64 51 44 52 63 53 45 54 48 55 62 56 81 57
REMARK SMILES IDX 46 58 47 59 61 61 82 62 49 63 33 64 34 65 42 66 35 67 36 68
REMARK SMILES IDX 40 69 43 70 37 71 38 72 41 73 39 74 65 75 66 76 74 77 67 78
REMARK SMILES IDX 68 79 72 80 75 81 69 82 70 83 73 84 71 85 50 86 51 87 59 88
REMARK SMILES IDX 52 89 53 90 57 91 60 92 54 93 55 94 58 95 56 96
REMARK H PARENT 16 7 7 24 12 26 21 30 80 49 48 60
REMARK Flexibility Score: inf
ROOT
ATOM      1  C   UNL A   1      31.417  31.963  27.022  1.00  0.00     0.023 C 
ENDROOT
BRANCH   1   2
ATOM      2  C   UNL A   1      31.571  30.880  25.959  1.00  0.00     0.023 C 
BRANCH   2   3
ATOM      3  C   UNL A   1      32.860  30.057  26.039  1.00  0.00     0.116 C 
BRANCH   3   4
ATOM      4  N   UNL A   1      33.323  29.718  24.714  1.00  0.00    -0.352 N 
ATOM      5  C   UNL A   1      32.872  28.810  23.793  1.00  0.00     0.255 C 
ATOM      6  O   UNL A   1      33.523  28.733  22.746  1.00  0.00    -0.269 OA
ATOM      7  H   UNL A   1      34.109  30.233  24.420  1.00  0.00     0.163 HD
BRANCH   5   8
ATOM      8  C   UNL A   1      31.628  27.989  23.908  1.00  0.00     0.083 A 
ATOM      9  C   UNL A   1      30.522  26.324  25.309  1.00  0.00     0.043 A 
ATOM     10  C   UNL A   1      29.384  26.386  24.516  1.00  0.00     0.030 A 
ATOM     11  C   UNL A   1      31.593  27.182  25.062  1.00  0.00     0.044 A 
ATOM     12  C   UNL A   1      29.387  27.183  23.379  1.00  0.00     0.049 A 
ATOM     13  C   UNL A   1      30.515  27.948  23.056  1.00  0.00     0.128 A 
BRANCH   9  14
ATOM     14  N   UNL A   1      30.636  25.404  26.350  1.00  0.00    -0.308 N 
ATOM     15  C   UNL A   1      33.310  22.979  22.282  1.00  0.00     0.010 C 
ATOM     16  C   UNL A   1      32.145  22.660  23.204  1.00  0.00     0.010 C 
ATOM     17  C   UNL A   1      31.695  23.882  24.000  1.00  0.00     0.125 C 
ATOM     18  C   UNL A   1      32.444  21.647  24.309  1.00  0.00     0.010 C 
ATOM     19  N   UNL A   1      31.092  23.361  25.223  1.00  0.00    -0.324 N 
ATOM     20  C   UNL A   1      31.317  21.925  25.311  1.00  0.00     0.125 C 
ATOM     21  C   UNL A   1      32.466  20.210  23.822  1.00  0.00     0.010 C 
ATOM     22  C   UNL A   1      30.639  24.041  26.330  1.00  0.00     0.321 C 
ATOM     23  O   UNL A   1      30.361  23.455  27.379  1.00  0.00    -0.248 OA
ATOM     24  H   UNL A   1      30.730  25.803  27.245  1.00  0.00     0.171 HD
ENDBRANCH   9  14
BRANCH  13  25
ATOM     25  O   UNL A   1      30.439  28.649  21.894  1.00  0.00    -0.507 OA
ATOM     26  H   UNL A   1      30.946  28.383  21.152  1.00  0.00     0.293 HD
ENDBRANCH  13  25
ENDBRANCH   5   8
ENDBRANCH   3   4
ENDBRANCH   2   3
ENDBRANCH   1   2
BRANCH   1  27
ATOM     27  C   UNL A   1      32.652  32.820  27.244  1.00  0.00     0.116 C 
BRANCH  27  28
ATOM     28  N   UNL A   1      32.350  34.189  27.630  1.00  0.00    -0.352 N 
ATOM     29  C   UNL A   1      32.985  34.978  28.562  1.00  0.00     0.251 C 
ATOM     30  H   UNL A   1      31.591  34.608  27.163  1.00  0.00     0.163 HD
ATOM     31  O   UNL A   1      32.556  36.085  28.838  1.00  0.00    -0.269 OA
BRANCH  29  32
ATOM     32  C   UNL A   1      34.169  34.437  29.261  1.00  0.00     0.039 A 
ATOM     33  C   UNL A   1      33.977  33.699  30.431  1.00  0.00     0.014 A 
ATOM     34  C   UNL A   1      35.452  34.614  28.736  1.00  0.00     0.014 A 
ATOM     35  C   UNL A   1      35.068  33.078  31.036  1.00  0.00     0.010 A 
ATOM     36  C   UNL A   1      36.523  33.925  29.291  1.00  0.00     0.010 A 
ATOM     37  C   UNL A   1      36.342  33.156  30.448  1.00  0.00    -0.014 A 
BRANCH  37  38
ATOM     38  C   UNL A   1      37.496  32.434  31.037  1.00  0.00     0.031 A 
ATOM     39  C   UNL A   1      37.985  32.786  32.412  1.00  0.00     0.074 A 
ATOM     40  C   UNL A   1      38.131  31.496  30.310  1.00  0.00     0.049 A 
ATOM     41  N   UNL A   1      38.977  32.273  33.095  1.00  0.00    -0.248 NA
ATOM     42  C   UNL A   1      37.285  33.882  33.101  1.00  0.00     0.031 C 
ATOM     43  C   UNL A   1      37.787  31.112  28.939  1.00  0.00     0.029 A 
ATOM     44  N   UNL A   1      39.198  30.693  30.623  1.00  0.00    -0.354 N 
ATOM     45  C   UNL A   1      39.021  32.984  34.286  1.00  0.00     0.074 A 
ATOM     46  C   UNL A   1      38.006  34.011  34.204  1.00  0.00     0.031 C 
ATOM     47  C   UNL A   1      38.599  30.118  28.546  1.00  0.00     0.029 A 
ATOM     48  C   UNL A   1      39.538  29.817  29.622  1.00  0.00     0.049 A 
ATOM     49  H   UNL A   1      39.675  30.741  31.483  1.00  0.00     0.167 HD
ATOM     50  C   UNL A   1      39.817  32.781  35.363  1.00  0.00     0.037 A 
ATOM     51  C   UNL A   1      40.494  28.871  29.584  1.00  0.00     0.037 A 
ATOM     52  C   UNL A   1      40.818  31.750  35.443  1.00  0.00     0.049 A 
ATOM     53  C   UNL A   1      41.368  28.665  30.791  1.00  0.00     0.074 A 
ATOM     54  C   UNL A   1      41.642  31.423  36.505  1.00  0.00     0.029 A 
ATOM     55  N   UNL A   1      41.134  30.877  34.410  1.00  0.00    -0.354 N 
ATOM     56  N   UNL A   1      41.351  29.292  31.942  1.00  0.00    -0.248 NA
ATOM     57  C   UNL A   1      42.387  27.612  30.693  1.00  0.00     0.031 C 
ATOM     58  C   UNL A   1      42.487  30.384  36.100  1.00  0.00     0.029 A 
ATOM     59  C   UNL A   1      42.156  30.028  34.803  1.00  0.00     0.049 A 
ATOM     60  H   UNL A   1      40.697  30.865  33.528  1.00  0.00     0.167 HD
ATOM     61  C   UNL A   1      42.336  28.693  32.716  1.00  0.00     0.074 A 
ATOM     62  C   UNL A   1      42.918  27.641  31.907  1.00  0.00     0.031 C 
ATOM     63  C   UNL A   1      42.725  28.987  33.982  1.00  0.00     0.037 A 
BRANCH  50  64
ATOM     64  C   UNL A   1      39.624  33.696  36.539  1.00  0.00     0.064 A 
ATOM     65  C   UNL A   1      38.812  33.335  37.625  1.00  0.00     0.173 A 
ATOM     66  C   UNL A   1      40.256  34.948  36.581  1.00  0.00     0.173 A 
ATOM     67  F   UNL A   1      38.174  32.155  37.630  1.00  0.00    -0.203 F 
ATOM     68  C   UNL A   1      38.605  34.210  38.689  1.00  0.00     0.198 A 
ATOM     69  C   UNL A   1      40.073  35.806  37.663  1.00  0.00     0.198 A 
ATOM     70  F   UNL A   1      41.047  35.342  35.572  1.00  0.00    -0.203 F 
ATOM     71  F   UNL A   1      37.771  33.869  39.681  1.00  0.00    -0.200 F 
ATOM     72  C   UNL A   1      39.238  35.442  38.709  1.00  0.00     0.200 A 
ATOM     73  F   UNL A   1      40.695  36.993  37.686  1.00  0.00    -0.200 F 
ATOM     74  F   UNL A   1      39.037  36.284  39.732  1.00  0.00    -0.200 F 
ENDBRANCH  50  64
BRANCH  51  75
ATOM     75  C   UNL A   1      40.634  28.008  28.383  1.00  0.00     0.064 A 
ATOM     76  C   UNL A   1      41.413  28.422  27.293  1.00  0.00     0.173 A 
ATOM     77  C   UNL A   1      40.009  26.756  28.302  1.00  0.00     0.173 A 
ATOM     78  F   UNL A   1      42.015  29.620  27.319  1.00  0.00    -0.203 F 
ATOM     79  C   UNL A   1      41.548  27.623  26.160  1.00  0.00     0.198 A 
ATOM     80  C   UNL A   1      40.166  25.947  27.178  1.00  0.00     0.198 A 
ATOM     81  F   UNL A   1      39.258  26.312  29.320  1.00  0.00    -0.203 F 
ATOM     82  F   UNL A   1      42.266  28.061  25.117  1.00  0.00    -0.200 F 
ATOM     83  C   UNL A   1      40.929  26.384  26.106  1.00  0.00     0.200 A 
ATOM     84  F   UNL A   1      39.578  24.743  27.135  1.00  0.00    -0.200 F 
ATOM     85  F   UNL A   1      41.066  25.613  25.018  1.00  0.00    -0.200 F 
ENDBRANCH  51  75
BRANCH  63  86
ATOM     86  C   UNL A   1      43.813  28.140  34.575  1.00  0.00     0.064 A 
ATOM     87  C   UNL A   1      45.162  28.522  34.513  1.00  0.00     0.173 A 
ATOM     88  C   UNL A   1      43.501  26.937  35.226  1.00  0.00     0.173 A 
ATOM     89  F   UNL A   1      45.514  29.655  33.888  1.00  0.00    -0.203 F 
ATOM     90  C   UNL A   1      46.160  27.713  35.050  1.00  0.00     0.198 A 
ATOM     91  C   UNL A   1      44.498  26.146  35.790  1.00  0.00     0.198 A 
ATOM     92  F   UNL A   1      42.226  26.529  35.319  1.00  0.00    -0.203 F 
ATOM     93  F   UNL A   1      47.446  28.069  34.927  1.00  0.00    -0.200 F 
ATOM     94  C   UNL A   1      45.827  26.530  35.692  1.00  0.00     0.200 A 
ATOM     95  F   UNL A   1      44.174  25.010  36.421  1.00  0.00    -0.200 F 
ATOM     96  F   UNL A   1      46.789  25.753  36.208  1.00  0.00    -0.200 F 
ENDBRANCH  63  86
ENDBRANCH  37  38
ENDBRANCH  29  32
ENDBRANCH  27  28
ENDBRANCH   1  27
TORSDOF 13
ENDMDL
MODEL 3
REMARK VINA RESULT:     -13.9      0.152      1.591
REMARK SMILES C[C@@H]1CN(C(=O)Nc2ccc(O)c(C(=O)NCCCCNC(=O)c3ccc(-c4c5nc(c(-c6c(F)c(F)c(F)c(F)c6F)c6ccc([nH]6)c(-c6c(F)c(F)c(F)c(F)c6F)c6nc(c(-c7c(F)c(F)c(F)c(F)c7F)c7ccc4[nH]7)C=C6)C=C5)cc3)c2)C[C@H]1C
REMARK SMILES IDX 19 1 18 2 17 3 16 4 14 5 15 6 13 8 8 9 9 10 87 11 10 12
REMARK SMILES IDX 11 13 7 14 1 15 2 16 3 17 89 18 4 19 88 20 90 21 5 22 6 23
REMARK SMILES IDX 12 25 20 27 21 28 22 29 23 31 24 32 25 33 86 34 26 35 85 36
REMARK SMILES IDX 27 37 28 38 29 39 79 40 30 41 84 42 78 43 80 44 31 45 83 46
REMARK SMILES IDX 77 47 76 48 32 50 64 51 44 52 63 53 45 54 48 55 62 56 81 57
REMARK SMILES IDX 46 58 47 59 61 61 82 62 49 63 33 64 34 65 42 66 35 67 36 68
REMARK SMILES IDX 40 69 43 70 37 71 38 72 41 73 39 74 65 75 66 76 74 77 67 78
REMARK SMILES IDX 68 79 72 80 75 81 69 82 70 83 73 84 71 85 50 86 51 87 59 88
REMARK SMILES IDX 52 89 53 90 57 91 60 92 54 93 55 94 58 95 56 96
REMARK H PARENT 16 7 7 24 12 26 21 30 80 49 48 60
REMARK Flexibility Score: inf
ROOT
ATOM      1  C   UNL A   1      31.398  31.988  26.880  1.00  0.00     0.023 C 
ENDROOT
BRANCH   1   2
ATOM      2  C   UNL A   1      31.665  30.825  25.930  1.00  0.00     0.023 C 
BRANCH   2   3
ATOM      3  C   UNL A   1      32.965  30.055  26.179  1.00  0.00     0.116 C 
BRANCH   3   4
ATOM      4  N   UNL A   1      33.542  29.623  24.929  1.00  0.00    -0.352 N 
ATOM      5  C   UNL A   1      33.141  28.687  24.012  1.00  0.00     0.255 C 
ATOM      6  O   UNL A   1      33.890  28.522  23.044  1.00  0.00    -0.269 OA
ATOM      7  H   UNL A   1      34.379  30.084  24.691  1.00  0.00     0.163 HD
BRANCH   5   8
ATOM      8  C   UNL A   1      31.853  27.930  24.039  1.00  0.00     0.083 A 
ATOM      9  C   UNL A   1      30.572  26.320  25.354  1.00  0.00     0.043 A 
ATOM     10  C   UNL A   1      29.494  26.442  24.487  1.00  0.00     0.030 A 
ATOM     11  C   UNL A   1      31.699  27.123  25.184  1.00  0.00     0.044 A 
ATOM     12  C   UNL A   1      29.614  27.241  23.357  1.00  0.00     0.049 A 
ATOM     13  C   UNL A   1      30.799  27.948  23.115  1.00  0.00     0.128 A 
BRANCH   9  14
ATOM     14  N   UNL A   1      30.569  25.393  26.394  1.00  0.00    -0.308 N 
ATOM     15  C   UNL A   1      33.625  22.965  22.607  1.00  0.00     0.010 C 
ATOM     16  C   UNL A   1      32.368  22.652  23.402  1.00  0.00     0.010 C 
ATOM     17  C   UNL A   1      31.850  23.874  24.155  1.00  0.00     0.125 C 
ATOM     18  C   UNL A   1      32.542  21.630  24.525  1.00  0.00     0.010 C 
ATOM     19  N   UNL A   1      31.119  23.352  25.306  1.00  0.00    -0.324 N 
ATOM     20  C   UNL A   1      31.320  21.913  25.407  1.00  0.00     0.125 C 
ATOM     21  C   UNL A   1      32.600  20.195  24.033  1.00  0.00     0.010 C 
ATOM     22  C   UNL A   1      30.561  24.030  26.365  1.00  0.00     0.321 C 
ATOM     23  O   UNL A   1      30.171  23.441  27.376  1.00  0.00    -0.248 OA
ATOM     24  H   UNL A   1      30.574  25.786  27.298  1.00  0.00     0.171 HD
ENDBRANCH   9  14
BRANCH  13  25
ATOM     25  O   UNL A   1      30.836  28.655  21.954  1.00  0.00    -0.507 OA
ATOM     26  H   UNL A   1      30.079  29.126  21.668  1.00  0.00     0.293 HD
ENDBRANCH  13  25
ENDBRANCH   5   8
ENDBRANCH   3   4
ENDBRANCH   2   3
ENDBRANCH   1   2
BRANCH   1  27
ATOM     27  C   UNL A   1      32.629  32.789  27.270  1.00  0.00     0.116 C 
BRANCH  27  28
ATOM     28  N   UNL A   1      32.337  34.163  27.644  1.00  0.00    -0.352 N 
ATOM     29  C   UNL A   1      32.979  34.957  28.565  1.00  0.00     0.251 C 
ATOM     30  H   UNL A   1      31.578  34.582  27.175  1.00  0.00     0.163 HD
ATOM     31  O   UNL A   1      32.557  36.070  28.832  1.00  0.00    -0.269 OA
BRANCH  29  32
ATOM     32  C   UNL A   1      34.163  34.417  29.266  1.00  0.00     0.039 A 
ATOM     33  C   UNL A   1      33.969  33.676  30.433  1.00  0.00     0.014 A 
ATOM     34  C   UNL A   1      35.446  34.597  28.745  1.00  0.00     0.014 A 
ATOM     35  C   UNL A   1      35.060  33.055  31.039  1.00  0.00     0.010 A 
ATOM     36  C   UNL A   1      36.517  33.909  29.300  1.00  0.00     0.010 A 
ATOM     37  C   UNL A   1      36.335  33.136  30.455  1.00  0.00    -0.014 A 
BRANCH  37  38
ATOM     38  C   UNL A   1      37.489  32.415  31.044  1.00  0.00     0.031 A 
ATOM     39  C   UNL A   1      37.974  32.764  32.422  1.00  0.00     0.074 A 
ATOM     40  C   UNL A   1      38.127  31.480  30.316  1.00  0.00     0.049 A 
ATOM     41  N   UNL A   1      38.964  32.250  33.106  1.00  0.00    -0.248 NA
ATOM     42  C   UNL A   1      37.270  33.855  33.112  1.00  0.00     0.031 C 
ATOM     43  C   UNL A   1      37.787  31.100  28.943  1.00  0.00     0.029 A 
ATOM     44  N   UNL A   1      39.195  30.679  30.629  1.00  0.00    -0.354 N 
ATOM     45  C   UNL A   1      39.005  32.958  34.299  1.00  0.00     0.074 A 
ATOM     46  C   UNL A   1      37.987  33.983  34.218  1.00  0.00     0.031 C 
ATOM     47  C   UNL A   1      38.602  30.109  28.549  1.00  0.00     0.029 A 
ATOM     48  C   UNL A   1      39.540  29.806  29.626  1.00  0.00     0.049 A 
ATOM     49  H   UNL A   1      39.669  30.725  31.490  1.00  0.00     0.167 HD
ATOM     50  C   UNL A   1      39.797  32.752  35.378  1.00  0.00     0.037 A 
ATOM     51  C   UNL A   1      40.497  28.862  29.588  1.00  0.00     0.037 A 
ATOM     52  C   UNL A   1      40.801  31.723  35.456  1.00  0.00     0.049 A 
ATOM     53  C   UNL A   1      41.368  28.655  30.796  1.00  0.00     0.074 A 
ATOM     54  C   UNL A   1      41.623  31.395  36.520  1.00  0.00     0.029 A 
ATOM     55  N   UNL A   1      41.121  30.855  34.422  1.00  0.00    -0.354 N 
ATOM     56  N   UNL A   1      41.347  29.277  31.950  1.00  0.00    -0.248 NA
ATOM     57  C   UNL A   1      42.390  27.604  30.698  1.00  0.00     0.031 C 
ATOM     58  C   UNL A   1      42.471  30.359  36.114  1.00  0.00     0.029 A 
ATOM     59  C   UNL A   1      42.143  30.006  34.815  1.00  0.00     0.049 A 
ATOM     60  H   UNL A   1      40.686  30.845  33.538  1.00  0.00     0.167 HD
ATOM     61  C   UNL A   1      42.332  28.678  32.724  1.00  0.00     0.074 A 
ATOM     62  C   UNL A   1      42.918  27.630  31.913  1.00  0.00     0.031 C 
ATOM     63  C   UNL A   1      42.717  28.969  33.992  1.00  0.00     0.037 A 
BRANCH  50  64
ATOM     64  C   UNL A   1      39.600  33.663  36.555  1.00  0.00     0.064 A 
ATOM     65  C   UNL A   1      38.792  33.294  37.642  1.00  0.00     0.173 A 
ATOM     66  C   UNL A   1      40.223  34.919  36.600  1.00  0.00     0.173 A 
ATOM     67  F   UNL A   1      38.161  32.110  37.644  1.00  0.00    -0.203 F 
ATOM     68  C   UNL A   1      38.579  34.166  38.708  1.00  0.00     0.198 A 
ATOM     69  C   UNL A   1      40.035  35.774  37.684  1.00  0.00     0.198 A 
ATOM     70  F   UNL A   1      41.010  35.322  35.591  1.00  0.00    -0.203 F 
ATOM     71  F   UNL A   1      37.749  33.816  39.700  1.00  0.00    -0.200 F 
ATOM     72  C   UNL A   1      39.205  35.402  38.730  1.00  0.00     0.200 A 
ATOM     73  F   UNL A   1      40.650  36.965  37.709  1.00  0.00    -0.200 F 
ATOM     74  F   UNL A   1      38.999  36.240  39.755  1.00  0.00    -0.200 F 
ENDBRANCH  50  64
BRANCH  51  75
ATOM     75  C   UNL A   1      40.642  28.003  28.384  1.00  0.00     0.064 A 
ATOM     76  C   UNL A   1      39.995  26.762  28.311  1.00  0.00     0.173 A 
ATOM     77  C   UNL A   1      41.413  28.405  27.284  1.00  0.00     0.173 A 
ATOM     78  F   UNL A   1      39.262  26.328  29.347  1.00  0.00    -0.203 F 
ATOM     79  C   UNL A   1      40.127  25.946  27.190  1.00  0.00     0.198 A 
ATOM     80  C   UNL A   1      41.523  27.600  26.153  1.00  0.00     0.198 A 
ATOM     81  F   UNL A   1      42.046  29.587  27.303  1.00  0.00    -0.203 F 
ATOM     82  F   UNL A   1      39.529  24.747  27.163  1.00  0.00    -0.200 F 
ATOM     83  C   UNL A   1      40.886  26.368  26.109  1.00  0.00     0.200 A 
ATOM     84  F   UNL A   1      42.246  28.017  25.104  1.00  0.00    -0.200 F 
ATOM     85  F   UNL A   1      41.006  25.587  25.027  1.00  0.00    -0.200 F 
ENDBRANCH  51  75
BRANCH  63  86
ATOM     86  C   UNL A   1      43.805  28.122  34.585  1.00  0.00     0.064 A 
ATOM     87  C   UNL A   1      43.528  26.897  35.210  1.00  0.00     0.173 A 
ATOM     88  C   UNL A   1      45.144  28.535  34.514  1.00  0.00     0.173 A 
ATOM     89  F   UNL A   1      42.262  26.465  35.318  1.00  0.00    -0.203 F 
ATOM     90  C   UNL A   1      44.547  26.133  35.774  1.00  0.00     0.198 A 
ATOM     91  C   UNL A   1      46.164  27.754  35.050  1.00  0.00     0.198 A 
ATOM     92  F   UNL A   1      45.465  29.695  33.921  1.00  0.00    -0.203 F 
ATOM     93  F   UNL A   1      44.252  24.996  36.417  1.00  0.00    -0.200 F 
ATOM     94  C   UNL A   1      45.864  26.560  35.688  1.00  0.00     0.200 A 
ATOM     95  F   UNL A   1      47.438  28.160  34.955  1.00  0.00    -0.200 F 
ATOM     96  F   UNL A   1      46.843  25.824  36.231  1.00  0.00    -0.200 F 
ENDBRANCH  63  86
ENDBRANCH  37  38
ENDBRANCH  29  32
ENDBRANCH  27  28
ENDBRANCH   1  27
TORSDOF 13
ENDMDL
