MODEL 1
REMARK VINA RESULT:     -10.5      0.000      0.000
REMARK SMILES CC[C@@H](Oc1ccc(/C=C2\SC(=S)N(NC(=O)c3ccccc3O)C2=O)cc1)C(=O)NCCCCNC(=O)c1ccc(-c2c3nc(c(-c4c(F)c(F)c(F)c(F)c4F)c4ccc([nH]4)c(-c4c(F)c(F)c(F)c(F)c4F)c4nc(c(-c5c(F)c(F)c(F)c(F)c5F)c5ccc2[nH]5)C=C4)C=C3)cc1
REMARK SMILES IDX 29 1 30 2 31 3 3 5 2 6 1 7 4 8 5 9 6 10 28 11 7 12 27 13
REMARK SMILES IDX 8 14 9 15 10 16 11 17 25 18 12 19 14 20 26 21 13 22 15 23
REMARK SMILES IDX 16 24 17 26 18 27 19 28 23 29 20 30 22 31 21 32 24 33 32 35
REMARK SMILES IDX 33 36 34 37 35 38 36 39 37 40 38 42 39 43 40 44 101 45 41 46
REMARK SMILES IDX 100 47 42 48 43 49 44 50 94 51 45 52 99 53 93 54 95 55 46 56
REMARK SMILES IDX 98 57 92 58 91 59 47 61 79 62 59 63 78 64 60 65 63 66 77 67
REMARK SMILES IDX 96 68 61 69 62 70 76 72 97 73 64 74 48 75 49 76 57 77 50 78
REMARK SMILES IDX 51 79 55 80 58 81 52 82 53 83 56 84 54 85 80 86 81 87 89 88
REMARK SMILES IDX 82 89 83 90 87 91 90 92 84 93 85 94 88 95 86 96 65 97 66 98
REMARK SMILES IDX 74 99 67 100 68 101 72 102 75 103 69 104 70 105 73 106
REMARK SMILES IDX 71 107
REMARK H PARENT 31 4 15 25 24 34 36 41 95 60 63 71
REMARK Flexibility Score: inf
ROOT
ATOM      1  C   UNL A   1      41.915  22.198  26.132  1.00  0.00     0.261 C 
ATOM      2  O   UNL A   1      41.104  21.269  26.188  1.00  0.00    -0.271 OA
ATOM      3  N   UNL A   1      42.655  22.334  24.984  1.00  0.00    -0.353 N 
ATOM      4  H   UNL A   1      42.501  21.642  24.300  1.00  0.00     0.163 HD
ENDROOT
BRANCH   1   5
ATOM      5  C   UNL A   1      42.141  23.136  27.331  1.00  0.00     0.261 C 
BRANCH   5   6
ATOM      6  C   UNL A   1      43.336  22.593  28.135  1.00  0.00     0.052 C 
ATOM      7  C   UNL A   1      43.354  23.091  29.575  1.00  0.00     0.008 C 
ENDBRANCH   5   6
BRANCH   5   8
ATOM      8  O   UNL A   1      42.306  24.429  26.733  1.00  0.00    -0.481 OA
BRANCH   8   9
ATOM      9  C   UNL A   1      41.557  25.456  27.209  1.00  0.00     0.120 A 
ATOM     10  C   UNL A   1      40.635  25.182  28.213  1.00  0.00     0.047 A 
ATOM     11  C   UNL A   1      41.518  26.680  26.556  1.00  0.00     0.047 A 
ATOM     12  C   UNL A   1      39.658  26.130  28.543  1.00  0.00     0.012 A 
ATOM     13  C   UNL A   1      40.580  27.644  26.922  1.00  0.00     0.012 A 
ATOM     14  C   UNL A   1      39.589  27.358  27.866  1.00  0.00    -0.024 A 
BRANCH  14  15
ATOM     15  C   UNL A   1      38.469  28.267  28.172  1.00  0.00     0.029 C 
ATOM     16  C   UNL A   1      38.248  29.001  29.274  1.00  0.00     0.082 C 
ATOM     17  S   UNL A   1      39.146  29.079  30.743  1.00  0.00    -0.052 SA
ATOM     18  C   UNL A   1      37.055  29.893  29.379  1.00  0.00     0.285 C 
ATOM     19  C   UNL A   1      37.833  29.845  31.614  1.00  0.00     0.168 C 
ATOM     20  N   UNL A   1      36.826  30.161  30.723  1.00  0.00    -0.198 N 
ATOM     21  O   UNL A   1      36.444  30.327  28.414  1.00  0.00    -0.266 OA
ATOM     22  S   UNL A   1      37.868  30.144  33.255  1.00  0.00    -0.050 S 
BRANCH  20  23
ATOM     23  N   UNL A   1      35.693  30.861  31.159  1.00  0.00    -0.254 N 
ATOM     24  C   UNL A   1      35.506  32.225  31.109  1.00  0.00     0.274 C 
ATOM     25  H   UNL A   1      34.958  30.325  31.537  1.00  0.00     0.192 HD
ATOM     26  O   UNL A   1      34.398  32.705  31.335  1.00  0.00    -0.267 OA
BRANCH  24  27
ATOM     27  C   UNL A   1      36.632  33.140  30.842  1.00  0.00     0.083 A 
ATOM     28  C   UNL A   1      37.364  33.563  31.961  1.00  0.00     0.018 A 
ATOM     29  C   UNL A   1      37.017  33.548  29.564  1.00  0.00     0.128 A 
ATOM     30  C   UNL A   1      38.508  34.342  31.793  1.00  0.00     0.001 A 
ATOM     31  C   UNL A   1      38.169  34.315  29.396  1.00  0.00     0.047 A 
ATOM     32  C   UNL A   1      38.915  34.708  30.511  1.00  0.00     0.004 A 
BRANCH  29  33
ATOM     33  O   UNL A   1      36.325  33.218  28.432  1.00  0.00    -0.507 OA
ATOM     34  H   UNL A   1      36.662  32.566  27.850  1.00  0.00     0.293 HD
ENDBRANCH  29  33
ENDBRANCH  24  27
ENDBRANCH  20  23
ENDBRANCH  14  15
ENDBRANCH   8   9
ENDBRANCH   5   8
ENDBRANCH   1   5
BRANCH   3  35
ATOM     35  C   UNL A   1      43.632  23.351  24.629  1.00  0.00     0.116 C 
BRANCH  35  36
ATOM     36  C   UNL A   1      45.027  22.771  24.416  1.00  0.00     0.023 C 
BRANCH  36  37
ATOM     37  C   UNL A   1      45.965  22.890  25.616  1.00  0.00     0.023 C 
BRANCH  37  38
ATOM     38  C   UNL A   1      46.360  24.313  26.006  1.00  0.00     0.116 C 
BRANCH  38  39
ATOM     39  N   UNL A   1      46.898  25.090  24.900  1.00  0.00    -0.352 N 
ATOM     40  C   UNL A   1      46.894  26.451  24.710  1.00  0.00     0.251 C 
ATOM     41  H   UNL A   1      47.326  24.567  24.185  1.00  0.00     0.163 HD
ATOM     42  O   UNL A   1      47.319  26.927  23.662  1.00  0.00    -0.269 OA
BRANCH  40  43
ATOM     43  C   UNL A   1      46.339  27.345  25.750  1.00  0.00     0.039 A 
ATOM     44  C   UNL A   1      44.963  27.592  25.752  1.00  0.00     0.014 A 
ATOM     45  C   UNL A   1      47.157  27.929  26.721  1.00  0.00     0.014 A 
ATOM     46  C   UNL A   1      44.397  28.358  26.773  1.00  0.00     0.010 A 
ATOM     47  C   UNL A   1      46.585  28.641  27.772  1.00  0.00     0.010 A 
ATOM     48  C   UNL A   1      45.199  28.853  27.813  1.00  0.00    -0.014 A 
BRANCH  48  49
ATOM     49  C   UNL A   1      44.596  29.571  28.964  1.00  0.00     0.031 A 
ATOM     50  C   UNL A   1      44.348  31.050  28.896  1.00  0.00     0.074 A 
ATOM     51  C   UNL A   1      44.328  28.893  30.098  1.00  0.00     0.049 A 
ATOM     52  N   UNL A   1      43.880  31.853  29.818  1.00  0.00    -0.248 NA
ATOM     53  C   UNL A   1      44.693  31.722  27.634  1.00  0.00     0.031 C 
ATOM     54  C   UNL A   1      44.576  27.465  30.307  1.00  0.00     0.029 A 
ATOM     55  N   UNL A   1      43.799  29.316  31.290  1.00  0.00    -0.354 N 
ATOM     56  C   UNL A   1      43.884  33.121  29.255  1.00  0.00     0.074 A 
ATOM     57  C   UNL A   1      44.442  32.991  27.925  1.00  0.00     0.031 C 
ATOM     58  C   UNL A   1      44.182  27.128  31.546  1.00  0.00     0.029 A 
ATOM     59  C   UNL A   1      43.681  28.317  32.226  1.00  0.00     0.049 A 
ATOM     60  H   UNL A   1      43.529  30.248  31.460  1.00  0.00     0.167 HD
ATOM     61  C   UNL A   1      43.442  34.285  29.788  1.00  0.00     0.037 A 
ATOM     62  C   UNL A   1      43.222  28.358  33.491  1.00  0.00     0.037 A 
ATOM     63  C   UNL A   1      42.863  34.412  31.100  1.00  0.00     0.049 A 
ATOM     64  C   UNL A   1      42.720  29.660  34.051  1.00  0.00     0.074 A 
ATOM     65  C   UNL A   1      42.337  35.539  31.708  1.00  0.00     0.029 A 
ATOM     66  N   UNL A   1      42.730  33.370  32.006  1.00  0.00    -0.354 N 
ATOM     67  N   UNL A   1      42.671  30.840  33.483  1.00  0.00    -0.248 NA
ATOM     68  C   UNL A   1      42.201  29.633  35.426  1.00  0.00     0.031 C 
ATOM     69  C   UNL A   1      41.912  35.186  32.993  1.00  0.00     0.029 A 
ATOM     70  C   UNL A   1      42.142  33.832  33.173  1.00  0.00     0.049 A 
ATOM     71  H   UNL A   1      43.012  32.441  31.845  1.00  0.00     0.167 HD
ATOM     72  C   UNL A   1      42.099  31.689  34.419  1.00  0.00     0.074 A 
ATOM     73  C   UNL A   1      41.800  30.886  35.586  1.00  0.00     0.031 C 
ATOM     74  C   UNL A   1      41.847  33.017  34.322  1.00  0.00     0.037 A 
BRANCH  61  75
ATOM     75  C   UNL A   1      43.553  35.520  28.945  1.00  0.00     0.064 A 
ATOM     76  C   UNL A   1      44.756  36.235  28.852  1.00  0.00     0.173 A 
ATOM     77  C   UNL A   1      42.462  35.965  28.183  1.00  0.00     0.173 A 
ATOM     78  F   UNL A   1      45.823  35.855  29.571  1.00  0.00    -0.203 F 
ATOM     79  C   UNL A   1      44.859  37.361  28.041  1.00  0.00     0.198 A 
ATOM     80  C   UNL A   1      42.576  37.078  27.354  1.00  0.00     0.198 A 
ATOM     81  F   UNL A   1      41.291  35.313  28.233  1.00  0.00    -0.203 F 
ATOM     82  F   UNL A   1      46.007  38.050  27.997  1.00  0.00    -0.200 F 
ATOM     83  C   UNL A   1      43.771  37.778  27.288  1.00  0.00     0.200 A 
ATOM     84  F   UNL A   1      41.528  37.474  26.619  1.00  0.00    -0.200 F 
ATOM     85  F   UNL A   1      43.875  38.858  26.501  1.00  0.00    -0.200 F 
ENDBRANCH  61  75
BRANCH  62  86
ATOM     86  C   UNL A   1      43.190  27.120  34.309  1.00  0.00     0.064 A 
ATOM     87  C   UNL A   1      41.986  26.435  34.527  1.00  0.00     0.173 A 
ATOM     88  C   UNL A   1      44.352  26.605  34.901  1.00  0.00     0.173 A 
ATOM     89  F   UNL A   1      40.845  26.902  33.999  1.00  0.00    -0.203 F 
ATOM     90  C   UNL A   1      41.943  25.293  35.323  1.00  0.00     0.198 A 
ATOM     91  C   UNL A   1      44.311  25.450  35.677  1.00  0.00     0.198 A 
ATOM     92  F   UNL A   1      45.528  27.223  34.718  1.00  0.00    -0.203 F 
ATOM     93  F   UNL A   1      40.771  24.684  35.553  1.00  0.00    -0.200 F 
ATOM     94  C   UNL A   1      43.106  24.799  35.895  1.00  0.00     0.200 A 
ATOM     95  F   UNL A   1      45.439  24.968  36.218  1.00  0.00    -0.200 F 
ATOM     96  F   UNL A   1      43.063  23.702  36.662  1.00  0.00    -0.200 F 
ENDBRANCH  62  86
BRANCH  74  97
ATOM     97  C   UNL A   1      41.195  33.676  35.501  1.00  0.00     0.064 A 
ATOM     98  C   UNL A   1      41.946  34.376  36.456  1.00  0.00     0.173 A 
ATOM     99  C   UNL A   1      39.803  33.625  35.665  1.00  0.00     0.173 A 
ATOM    100  F   UNL A   1      43.282  34.437  36.351  1.00  0.00    -0.203 F 
ATOM    101  C   UNL A   1      41.328  34.981  37.547  1.00  0.00     0.198 A 
ATOM    102  C   UNL A   1      39.185  34.252  36.742  1.00  0.00     0.198 A 
ATOM    103  F   UNL A   1      39.041  32.970  34.775  1.00  0.00    -0.203 F 
ATOM    104  F   UNL A   1      42.069  35.605  38.472  1.00  0.00    -0.200 F 
ATOM    105  C   UNL A   1      39.949  34.923  37.686  1.00  0.00     0.200 A 
ATOM    106  F   UNL A   1      37.853  34.203  36.872  1.00  0.00    -0.200 F 
ATOM    107  F   UNL A   1      39.356  35.507  38.737  1.00  0.00    -0.200 F 
ENDBRANCH  74  97
ENDBRANCH  48  49
ENDBRANCH  40  43
ENDBRANCH  38  39
ENDBRANCH  37  38
ENDBRANCH  36  37
ENDBRANCH  35  36
ENDBRANCH   3  35
TORSDOF 18
ENDMDL
MODEL 2
REMARK VINA RESULT:     -10.5      0.175      1.504
REMARK SMILES CC[C@@H](Oc1ccc(/C=C2\SC(=S)N(NC(=O)c3ccccc3O)C2=O)cc1)C(=O)NCCCCNC(=O)c1ccc(-c2c3nc(c(-c4c(F)c(F)c(F)c(F)c4F)c4ccc([nH]4)c(-c4c(F)c(F)c(F)c(F)c4F)c4nc(c(-c5c(F)c(F)c(F)c(F)c5F)c5ccc2[nH]5)C=C4)C=C3)cc1
REMARK SMILES IDX 29 1 30 2 31 3 3 5 2 6 1 7 4 8 5 9 6 10 28 11 7 12 27 13
REMARK SMILES IDX 8 14 9 15 10 16 11 17 25 18 12 19 14 20 26 21 13 22 15 23
REMARK SMILES IDX 16 24 17 26 18 27 19 28 23 29 20 30 22 31 21 32 24 33 32 35
REMARK SMILES IDX 33 36 34 37 35 38 36 39 37 40 38 42 39 43 40 44 101 45 41 46
REMARK SMILES IDX 100 47 42 48 43 49 44 50 94 51 45 52 99 53 93 54 95 55 46 56
REMARK SMILES IDX 98 57 92 58 91 59 47 61 79 62 59 63 78 64 60 65 63 66 77 67
REMARK SMILES IDX 96 68 61 69 62 70 76 72 97 73 64 74 48 75 49 76 57 77 50 78
REMARK SMILES IDX 51 79 55 80 58 81 52 82 53 83 56 84 54 85 80 86 81 87 89 88
REMARK SMILES IDX 82 89 83 90 87 91 90 92 84 93 85 94 88 95 86 96 65 97 66 98
REMARK SMILES IDX 74 99 67 100 68 101 72 102 75 103 69 104 70 105 73 106
REMARK SMILES IDX 71 107
REMARK H PARENT 31 4 15 25 24 34 36 41 95 60 63 71
REMARK Flexibility Score: inf
ROOT
ATOM      1  C   UNL A   1      41.948  22.207  26.156  1.00  0.00     0.261 C 
ATOM      2  O   UNL A   1      41.128  21.287  26.214  1.00  0.00    -0.271 OA
ATOM      3  N   UNL A   1      42.678  22.344  25.002  1.00  0.00    -0.353 N 
ATOM      4  H   UNL A   1      42.512  21.657  24.315  1.00  0.00     0.163 HD
ENDROOT
BRANCH   1   5
ATOM      5  C   UNL A   1      42.195  23.135  27.359  1.00  0.00     0.261 C 
BRANCH   5   6
ATOM      6  C   UNL A   1      43.395  22.576  28.146  1.00  0.00     0.052 C 
ATOM      7  C   UNL A   1      43.370  22.971  29.618  1.00  0.00     0.008 C 
ENDBRANCH   5   6
BRANCH   5   8
ATOM      8  O   UNL A   1      42.364  24.430  26.768  1.00  0.00    -0.481 OA
BRANCH   8   9
ATOM      9  C   UNL A   1      41.610  25.455  27.243  1.00  0.00     0.120 A 
ATOM     10  C   UNL A   1      40.643  25.166  28.200  1.00  0.00     0.047 A 
ATOM     11  C   UNL A   1      41.617  26.698  26.626  1.00  0.00     0.047 A 
ATOM     12  C   UNL A   1      39.667  26.119  28.516  1.00  0.00     0.012 A 
ATOM     13  C   UNL A   1      40.678  27.665  26.981  1.00  0.00     0.012 A 
ATOM     14  C   UNL A   1      39.644  27.367  27.874  1.00  0.00    -0.024 A 
BRANCH  14  15
ATOM     15  C   UNL A   1      38.526  28.285  28.160  1.00  0.00     0.029 C 
ATOM     16  C   UNL A   1      38.276  29.001  29.268  1.00  0.00     0.082 C 
ATOM     17  S   UNL A   1      39.126  29.040  30.766  1.00  0.00    -0.052 SA
ATOM     18  C   UNL A   1      37.091  29.905  29.350  1.00  0.00     0.285 C 
ATOM     19  C   UNL A   1      37.794  29.807  31.607  1.00  0.00     0.168 C 
ATOM     20  N   UNL A   1      36.821  30.152  30.690  1.00  0.00    -0.198 N 
ATOM     21  O   UNL A   1      36.518  30.365  28.374  1.00  0.00    -0.266 OA
ATOM     22  S   UNL A   1      37.778  30.075  33.254  1.00  0.00    -0.050 S 
BRANCH  20  23
ATOM     23  N   UNL A   1      35.682  30.858  31.101  1.00  0.00    -0.254 N 
ATOM     24  C   UNL A   1      35.504  32.222  31.046  1.00  0.00     0.274 C 
ATOM     25  H   UNL A   1      34.937  30.326  31.464  1.00  0.00     0.192 HD
ATOM     26  O   UNL A   1      34.393  32.708  31.249  1.00  0.00    -0.267 OA
BRANCH  24  27
ATOM     27  C   UNL A   1      36.639  33.132  30.803  1.00  0.00     0.083 A 
ATOM     28  C   UNL A   1      37.362  33.536  31.934  1.00  0.00     0.018 A 
ATOM     29  C   UNL A   1      37.041  33.551  29.533  1.00  0.00     0.128 A 
ATOM     30  C   UNL A   1      38.513  34.308  31.788  1.00  0.00     0.001 A 
ATOM     31  C   UNL A   1      38.201  34.311  29.387  1.00  0.00     0.047 A 
ATOM     32  C   UNL A   1      38.937  34.686  30.515  1.00  0.00     0.004 A 
BRANCH  29  33
ATOM     33  O   UNL A   1      36.359  33.239  28.390  1.00  0.00    -0.507 OA
ATOM     34  H   UNL A   1      35.472  33.520  28.283  1.00  0.00     0.293 HD
ENDBRANCH  29  33
ENDBRANCH  24  27
ENDBRANCH  20  23
ENDBRANCH  14  15
ENDBRANCH   8   9
ENDBRANCH   5   8
ENDBRANCH   1   5
BRANCH   3  35
ATOM     35  C   UNL A   1      43.663  23.353  24.645  1.00  0.00     0.116 C 
BRANCH  35  36
ATOM     36  C   UNL A   1      45.035  22.753  24.356  1.00  0.00     0.023 C 
BRANCH  36  37
ATOM     37  C   UNL A   1      46.025  22.818  25.518  1.00  0.00     0.023 C 
BRANCH  37  38
ATOM     38  C   UNL A   1      46.472  24.219  25.926  1.00  0.00     0.116 C 
BRANCH  38  39
ATOM     39  N   UNL A   1      47.043  24.990  24.832  1.00  0.00    -0.352 N 
ATOM     40  C   UNL A   1      47.063  26.351  24.644  1.00  0.00     0.251 C 
ATOM     41  H   UNL A   1      47.476  24.461  24.125  1.00  0.00     0.163 HD
ATOM     42  O   UNL A   1      47.515  26.821  23.605  1.00  0.00    -0.269 OA
BRANCH  40  43
ATOM     43  C   UNL A   1      46.502  27.252  25.674  1.00  0.00     0.039 A 
ATOM     44  C   UNL A   1      45.124  27.482  25.680  1.00  0.00     0.014 A 
ATOM     45  C   UNL A   1      47.319  27.858  26.633  1.00  0.00     0.014 A 
ATOM     46  C   UNL A   1      44.554  28.256  26.693  1.00  0.00     0.010 A 
ATOM     47  C   UNL A   1      46.743  28.578  27.678  1.00  0.00     0.010 A 
ATOM     48  C   UNL A   1      45.355  28.775  27.723  1.00  0.00    -0.014 A 
BRANCH  48  49
ATOM     49  C   UNL A   1      44.749  29.500  28.867  1.00  0.00     0.031 A 
ATOM     50  C   UNL A   1      44.482  30.976  28.780  1.00  0.00     0.074 A 
ATOM     51  C   UNL A   1      44.495  28.835  30.011  1.00  0.00     0.049 A 
ATOM     52  N   UNL A   1      44.008  31.786  29.693  1.00  0.00    -0.248 NA
ATOM     53  C   UNL A   1      44.812  31.634  27.506  1.00  0.00     0.031 C 
ATOM     54  C   UNL A   1      44.763  27.413  30.239  1.00  0.00     0.029 A 
ATOM     55  N   UNL A   1      43.967  29.268  31.201  1.00  0.00    -0.354 N 
ATOM     56  C   UNL A   1      43.994  33.045  29.112  1.00  0.00     0.074 A 
ATOM     57  C   UNL A   1      44.546  32.904  27.781  1.00  0.00     0.031 C 
ATOM     58  C   UNL A   1      44.379  27.089  31.484  1.00  0.00     0.029 A 
ATOM     59  C   UNL A   1      43.867  28.281  32.150  1.00  0.00     0.049 A 
ATOM     60  H   UNL A   1      43.686  30.199  31.359  1.00  0.00     0.167 HD
ATOM     61  C   UNL A   1      43.540  34.211  29.632  1.00  0.00     0.037 A 
ATOM     62  C   UNL A   1      43.414  28.334  33.417  1.00  0.00     0.037 A 
ATOM     63  C   UNL A   1      42.966  34.348  30.944  1.00  0.00     0.049 A 
ATOM     64  C   UNL A   1      42.898  29.637  33.962  1.00  0.00     0.074 A 
ATOM     65  C   UNL A   1      42.429  35.477  31.540  1.00  0.00     0.029 A 
ATOM     66  N   UNL A   1      42.851  33.318  31.866  1.00  0.00    -0.354 N 
ATOM     67  N   UNL A   1      42.832  30.808  33.378  1.00  0.00    -0.248 NA
ATOM     68  C   UNL A   1      42.387  29.623  35.340  1.00  0.00     0.031 C 
ATOM     69  C   UNL A   1      42.016  35.137  32.832  1.00  0.00     0.029 A 
ATOM     70  C   UNL A   1      42.263  33.789  33.030  1.00  0.00     0.049 A 
ATOM     71  H   UNL A   1      43.144  32.391  31.716  1.00  0.00     0.167 HD
ATOM     72  C   UNL A   1      42.254  31.664  34.305  1.00  0.00     0.074 A 
ATOM     73  C   UNL A   1      41.971  30.873  35.485  1.00  0.00     0.031 C 
ATOM     74  C   UNL A   1      41.985  32.987  34.191  1.00  0.00     0.037 A 
BRANCH  61  75
ATOM     75  C   UNL A   1      43.631  35.435  28.771  1.00  0.00     0.064 A 
ATOM     76  C   UNL A   1      42.513  35.929  28.083  1.00  0.00     0.173 A 
ATOM     77  C   UNL A   1      44.834  36.150  28.672  1.00  0.00     0.173 A 
ATOM     78  F   UNL A   1      41.344  35.274  28.138  1.00  0.00    -0.203 F 
ATOM     79  C   UNL A   1      42.599  37.086  27.313  1.00  0.00     0.198 A 
ATOM     80  C   UNL A   1      44.910  37.320  27.919  1.00  0.00     0.198 A 
ATOM     81  F   UNL A   1      45.931  35.722  29.314  1.00  0.00    -0.203 F 
ATOM     82  F   UNL A   1      41.528  37.518  26.635  1.00  0.00    -0.200 F 
ATOM     83  C   UNL A   1      43.796  37.783  27.237  1.00  0.00     0.200 A 
ATOM     84  F   UNL A   1      46.064  37.999  27.855  1.00  0.00    -0.200 F 
ATOM     85  F   UNL A   1      43.875  38.901  26.501  1.00  0.00    -0.200 F 
ENDBRANCH  61  75
BRANCH  62  86
ATOM     86  C   UNL A   1      43.401  27.107  34.253  1.00  0.00     0.064 A 
ATOM     87  C   UNL A   1      44.588  26.596  34.796  1.00  0.00     0.173 A 
ATOM     88  C   UNL A   1      42.211  26.414  34.515  1.00  0.00     0.173 A 
ATOM     89  F   UNL A   1      45.755  27.213  34.554  1.00  0.00    -0.203 F 
ATOM     90  C   UNL A   1      44.588  25.425  35.550  1.00  0.00     0.198 A 
ATOM     91  C   UNL A   1      42.209  25.258  35.290  1.00  0.00     0.198 A 
ATOM     92  F   UNL A   1      41.048  26.867  34.021  1.00  0.00    -0.203 F 
ATOM     93  F   UNL A   1      45.743  24.933  36.018  1.00  0.00    -0.200 F 
ATOM     94  C   UNL A   1      43.398  24.759  35.801  1.00  0.00     0.200 A 
ATOM     95  F   UNL A   1      41.055  24.622  35.540  1.00  0.00    -0.200 F 
ATOM     96  F   UNL A   1      43.399  23.632  36.525  1.00  0.00    -0.200 F 
ENDBRANCH  62  86
BRANCH  74  97
ATOM     97  C   UNL A   1      41.330  33.653  35.365  1.00  0.00     0.064 A 
ATOM     98  C   UNL A   1      42.079  34.372  36.308  1.00  0.00     0.173 A 
ATOM     99  C   UNL A   1      39.940  33.591  35.534  1.00  0.00     0.173 A 
ATOM    100  F   UNL A   1      43.413  34.445  36.198  1.00  0.00    -0.203 F 
ATOM    101  C   UNL A   1      41.459  34.985  37.394  1.00  0.00     0.198 A 
ATOM    102  C   UNL A   1      39.320  34.226  36.606  1.00  0.00     0.198 A 
ATOM    103  F   UNL A   1      39.181  32.918  34.655  1.00  0.00    -0.203 F 
ATOM    104  F   UNL A   1      42.197  35.627  38.309  1.00  0.00    -0.200 F 
ATOM    105  C   UNL A   1      40.081  34.915  37.539  1.00  0.00     0.200 A 
ATOM    106  F   UNL A   1      37.988  34.165  36.741  1.00  0.00    -0.200 F 
ATOM    107  F   UNL A   1      39.486  35.507  38.585  1.00  0.00    -0.200 F 
ENDBRANCH  74  97
ENDBRANCH  48  49
ENDBRANCH  40  43
ENDBRANCH  38  39
ENDBRANCH  37  38
ENDBRANCH  36  37
ENDBRANCH  35  36
ENDBRANCH   3  35
TORSDOF 18
ENDMDL
MODEL 3
REMARK VINA RESULT:     -10.4      1.197      6.992
REMARK SMILES CC[C@@H](Oc1ccc(/C=C2\SC(=S)N(NC(=O)c3ccccc3O)C2=O)cc1)C(=O)NCCCCNC(=O)c1ccc(-c2c3nc(c(-c4c(F)c(F)c(F)c(F)c4F)c4ccc([nH]4)c(-c4c(F)c(F)c(F)c(F)c4F)c4nc(c(-c5c(F)c(F)c(F)c(F)c5F)c5ccc2[nH]5)C=C4)C=C3)cc1
REMARK SMILES IDX 29 1 30 2 31 3 3 5 2 6 1 7 4 8 5 9 6 10 28 11 7 12 27 13
REMARK SMILES IDX 8 14 9 15 10 16 11 17 25 18 12 19 14 20 26 21 13 22 15 23
REMARK SMILES IDX 16 24 17 26 18 27 19 28 23 29 20 30 22 31 21 32 24 33 32 35
REMARK SMILES IDX 33 36 34 37 35 38 36 39 37 40 38 42 39 43 40 44 101 45 41 46
REMARK SMILES IDX 100 47 42 48 43 49 44 50 94 51 45 52 99 53 93 54 95 55 46 56
REMARK SMILES IDX 98 57 92 58 91 59 47 61 79 62 59 63 78 64 60 65 63 66 77 67
REMARK SMILES IDX 96 68 61 69 62 70 76 72 97 73 64 74 48 75 49 76 57 77 50 78
REMARK SMILES IDX 51 79 55 80 58 81 52 82 53 83 56 84 54 85 80 86 81 87 89 88
REMARK SMILES IDX 82 89 83 90 87 91 90 92 84 93 85 94 88 95 86 96 65 97 66 98
REMARK SMILES IDX 74 99 67 100 68 101 72 102 75 103 69 104 70 105 73 106
REMARK SMILES IDX 71 107
REMARK H PARENT 31 4 15 25 24 34 36 41 95 60 63 71
REMARK Flexibility Score: inf
ROOT
ATOM      1  C   UNL A   1      41.558  22.654  26.706  1.00  0.00     0.261 C 
ATOM      2  O   UNL A   1      40.674  21.794  26.734  1.00  0.00    -0.271 OA
ATOM      3  N   UNL A   1      42.230  22.843  25.524  1.00  0.00    -0.353 N 
ATOM      4  H   UNL A   1      41.972  22.237  24.792  1.00  0.00     0.163 HD
ENDROOT
BRANCH   1   5
ATOM      5  C   UNL A   1      41.945  23.445  27.968  1.00  0.00     0.261 C 
BRANCH   5   6
ATOM      6  C   UNL A   1      43.188  22.776  28.581  1.00  0.00     0.052 C 
ATOM      7  C   UNL A   1      44.311  23.767  28.868  1.00  0.00     0.008 C 
ENDBRANCH   5   6
BRANCH   5   8
ATOM      8  O   UNL A   1      42.108  24.790  27.497  1.00  0.00    -0.481 OA
BRANCH   8   9
ATOM      9  C   UNL A   1      41.252  25.738  27.957  1.00  0.00     0.120 A 
ATOM     10  C   UNL A   1      41.766  26.749  28.761  1.00  0.00     0.047 A 
ATOM     11  C   UNL A   1      39.877  25.578  27.849  1.00  0.00     0.047 A 
ATOM     12  C   UNL A   1      40.898  27.582  29.476  1.00  0.00     0.012 A 
ATOM     13  C   UNL A   1      39.013  26.442  28.520  1.00  0.00     0.012 A 
ATOM     14  C   UNL A   1      39.507  27.408  29.402  1.00  0.00    -0.024 A 
BRANCH  14  15
ATOM     15  C   UNL A   1      38.648  28.236  30.268  1.00  0.00     0.029 C 
ATOM     16  C   UNL A   1      37.594  29.001  29.939  1.00  0.00     0.082 C 
ATOM     17  S   UNL A   1      36.930  29.348  28.387  1.00  0.00    -0.052 SA
ATOM     18  C   UNL A   1      36.829  29.747  30.980  1.00  0.00     0.285 C 
ATOM     19  C   UNL A   1      36.021  30.723  28.981  1.00  0.00     0.168 C 
ATOM     20  N   UNL A   1      36.126  30.770  30.357  1.00  0.00    -0.198 N 
ATOM     21  O   UNL A   1      36.815  29.442  32.163  1.00  0.00    -0.266 OA
ATOM     22  S   UNL A   1      35.164  31.756  27.991  1.00  0.00    -0.050 S 
BRANCH  20  23
ATOM     23  N   UNL A   1      35.417  31.736  31.085  1.00  0.00    -0.254 N 
ATOM     24  C   UNL A   1      35.820  33.030  31.333  1.00  0.00     0.274 C 
ATOM     25  H   UNL A   1      34.546  31.464  31.453  1.00  0.00     0.192 HD
ATOM     26  O   UNL A   1      35.031  33.842  31.811  1.00  0.00    -0.267 OA
BRANCH  24  27
ATOM     27  C   UNL A   1      37.211  33.456  31.090  1.00  0.00     0.083 A 
ATOM     28  C   UNL A   1      38.162  33.031  32.030  1.00  0.00     0.018 A 
ATOM     29  C   UNL A   1      37.615  34.195  29.977  1.00  0.00     0.128 A 
ATOM     30  C   UNL A   1      39.514  33.297  31.823  1.00  0.00     0.001 A 
ATOM     31  C   UNL A   1      38.969  34.448  29.764  1.00  0.00     0.047 A 
ATOM     32  C   UNL A   1      39.917  33.996  30.685  1.00  0.00     0.004 A 
BRANCH  29  33
ATOM     33  O   UNL A   1      36.741  34.686  29.047  1.00  0.00    -0.507 OA
ATOM     34  H   UNL A   1      36.708  34.308  28.190  1.00  0.00     0.293 HD
ENDBRANCH  29  33
ENDBRANCH  24  27
ENDBRANCH  20  23
ENDBRANCH  14  15
ENDBRANCH   8   9
ENDBRANCH   5   8
ENDBRANCH   1   5
BRANCH   3  35
ATOM     35  C   UNL A   1      43.270  23.807  25.196  1.00  0.00     0.116 C 
BRANCH  35  36
ATOM     36  C   UNL A   1      44.434  23.175  24.440  1.00  0.00     0.023 C 
BRANCH  36  37
ATOM     37  C   UNL A   1      45.649  22.829  25.301  1.00  0.00     0.023 C 
BRANCH  37  38
ATOM     38  C   UNL A   1      46.451  24.021  25.819  1.00  0.00     0.116 C 
BRANCH  38  39
ATOM     39  N   UNL A   1      46.832  24.962  24.778  1.00  0.00    -0.352 N 
ATOM     40  C   UNL A   1      46.725  26.332  24.761  1.00  0.00     0.251 C 
ATOM     41  H   UNL A   1      47.224  24.561  23.969  1.00  0.00     0.163 HD
ATOM     42  O   UNL A   1      47.019  26.960  23.749  1.00  0.00    -0.269 OA
BRANCH  40  43
ATOM     43  C   UNL A   1      46.213  27.052  25.948  1.00  0.00     0.039 A 
ATOM     44  C   UNL A   1      47.129  27.485  26.911  1.00  0.00     0.014 A 
ATOM     45  C   UNL A   1      44.849  27.310  26.111  1.00  0.00     0.014 A 
ATOM     46  C   UNL A   1      46.688  28.245  27.996  1.00  0.00     0.010 A 
ATOM     47  C   UNL A   1      44.418  28.120  27.160  1.00  0.00     0.010 A 
ATOM     48  C   UNL A   1      45.335  28.603  28.106  1.00  0.00    -0.014 A 
BRANCH  48  49
ATOM     49  C   UNL A   1      44.871  29.505  29.189  1.00  0.00     0.031 A 
ATOM     50  C   UNL A   1      44.475  28.949  30.527  1.00  0.00     0.074 A 
ATOM     51  C   UNL A   1      44.748  30.824  28.943  1.00  0.00     0.049 A 
ATOM     52  N   UNL A   1      43.997  29.575  31.573  1.00  0.00    -0.248 NA
ATOM     53  C   UNL A   1      44.611  27.496  30.707  1.00  0.00     0.031 C 
ATOM     54  C   UNL A   1      45.048  31.477  27.667  1.00  0.00     0.029 A 
ATOM     55  N   UNL A   1      44.330  31.850  29.751  1.00  0.00    -0.354 N 
ATOM     56  C   UNL A   1      43.766  28.595  32.528  1.00  0.00     0.074 A 
ATOM     57  C   UNL A   1      44.114  27.326  31.925  1.00  0.00     0.031 C 
ATOM     58  C   UNL A   1      44.822  32.795  27.784  1.00  0.00     0.029 A 
ATOM     59  C   UNL A   1      44.336  33.076  29.131  1.00  0.00     0.049 A 
ATOM     60  H   UNL A   1      44.052  31.721  30.687  1.00  0.00     0.167 HD
ATOM     61  C   UNL A   1      43.325  28.742  33.801  1.00  0.00     0.037 A 
ATOM     62  C   UNL A   1      43.986  34.290  29.597  1.00  0.00     0.037 A 
ATOM     63  C   UNL A   1      43.004  30.005  34.410  1.00  0.00     0.049 A 
ATOM     64  C   UNL A   1      43.519  34.426  31.020  1.00  0.00     0.074 A 
ATOM     65  C   UNL A   1      42.601  30.261  35.710  1.00  0.00     0.029 A 
ATOM     66  N   UNL A   1      43.054  31.230  33.761  1.00  0.00    -0.354 N 
ATOM     67  N   UNL A   1      43.365  33.498  31.931  1.00  0.00    -0.248 NA
ATOM     68  C   UNL A   1      43.183  35.781  31.479  1.00  0.00     0.031 C 
ATOM     69  C   UNL A   1      42.379  31.636  35.838  1.00  0.00     0.029 A 
ATOM     70  C   UNL A   1      42.677  32.242  34.629  1.00  0.00     0.049 A 
ATOM     71  H   UNL A   1      43.318  31.361  32.821  1.00  0.00     0.167 HD
ATOM     72  C   UNL A   1      42.938  34.156  33.076  1.00  0.00     0.074 A 
ATOM     73  C   UNL A   1      42.873  35.565  32.750  1.00  0.00     0.031 C 
ATOM     74  C   UNL A   1      42.623  33.639  34.288  1.00  0.00     0.037 A 
BRANCH  61  75
ATOM     75  C   UNL A   1      43.177  27.502  34.630  1.00  0.00     0.064 A 
ATOM     76  C   UNL A   1      44.241  27.006  35.399  1.00  0.00     0.173 A 
ATOM     77  C   UNL A   1      41.947  26.830  34.697  1.00  0.00     0.173 A 
ATOM     78  F   UNL A   1      45.439  27.607  35.358  1.00  0.00    -0.203 F 
ATOM     79  C   UNL A   1      44.084  25.872  36.191  1.00  0.00     0.198 A 
ATOM     80  C   UNL A   1      41.788  25.710  35.509  1.00  0.00     0.198 A 
ATOM     81  F   UNL A   1      40.898  27.267  33.984  1.00  0.00    -0.203 F 
ATOM     82  F   UNL A   1      45.125  25.396  36.888  1.00  0.00    -0.200 F 
ATOM     83  C   UNL A   1      42.857  25.230  36.251  1.00  0.00     0.200 A 
ATOM     84  F   UNL A   1      40.599  25.096  35.574  1.00  0.00    -0.200 F 
ATOM     85  F   UNL A   1      42.706  24.143  37.021  1.00  0.00    -0.200 F 
ENDBRANCH  61  75
BRANCH  62  86
ATOM     86  C   UNL A   1      44.090  35.481  28.718  1.00  0.00     0.064 A 
ATOM     87  C   UNL A   1      45.299  36.181  28.597  1.00  0.00     0.173 A 
ATOM     88  C   UNL A   1      42.987  35.953  27.993  1.00  0.00     0.173 A 
ATOM     89  F   UNL A   1      46.376  35.780  29.289  1.00  0.00    -0.203 F 
ATOM     90  C   UNL A   1      45.394  37.321  27.803  1.00  0.00     0.198 A 
ATOM     91  C   UNL A   1      43.090  37.078  27.180  1.00  0.00     0.198 A 
ATOM     92  F   UNL A   1      41.810  35.314  28.072  1.00  0.00    -0.203 F 
ATOM     93  F   UNL A   1      46.549  37.998  27.742  1.00  0.00    -0.200 F 
ATOM     94  C   UNL A   1      44.291  37.767  27.091  1.00  0.00     0.200 A 
ATOM     95  F   UNL A   1      42.024  37.500  26.484  1.00  0.00    -0.200 F 
ATOM     96  F   UNL A   1      44.382  38.864  26.328  1.00  0.00    -0.200 F 
ENDBRANCH  62  86
BRANCH  74  97
ATOM     97  C   UNL A   1      42.205  34.606  35.355  1.00  0.00     0.064 A 
ATOM     98  C   UNL A   1      43.151  35.306  36.119  1.00  0.00     0.173 A 
ATOM     99  C   UNL A   1      40.847  34.854  35.599  1.00  0.00     0.173 A 
ATOM    100  F   UNL A   1      44.462  35.089  35.933  1.00  0.00    -0.203 F 
ATOM    101  C   UNL A   1      42.750  36.200  37.107  1.00  0.00     0.198 A 
ATOM    102  C   UNL A   1      40.449  35.768  36.570  1.00  0.00     0.198 A 
ATOM    103  F   UNL A   1      39.904  34.212  34.891  1.00  0.00    -0.203 F 
ATOM    104  F   UNL A   1      43.670  36.822  37.858  1.00  0.00    -0.200 F 
ATOM    105  C   UNL A   1      41.401  36.434  37.328  1.00  0.00     0.200 A 
ATOM    106  F   UNL A   1      39.146  35.999  36.778  1.00  0.00    -0.200 F 
ATOM    107  F   UNL A   1      41.017  37.296  38.280  1.00  0.00    -0.200 F 
ENDBRANCH  74  97
ENDBRANCH  48  49
ENDBRANCH  40  43
ENDBRANCH  38  39
ENDBRANCH  37  38
ENDBRANCH  36  37
ENDBRANCH  35  36
ENDBRANCH   3  35
TORSDOF 18
ENDMDL
