MODEL 1
REMARK VINA RESULT:     -12.5      0.000      0.000
REMARK SMILES O=C(NCCCCNC(=O)[C@H](Cc1ccccn1)[C@H]1CCS(=O)(=O)C1)c1ccc(-c2c3nc(c(-c4c(F)c(F)c(F)c(F)c4F)c4ccc([nH]4)c(-c4c(F)c(F)c(F)c(F)c4F)c4nc(c(-c5c(F)c(F)c(F)c(F)c5F)c5ccc2[nH]5)C=C4)C=C3)cc1
REMARK SMILES IDX 5 1 4 2 3 3 1 4 2 5 26 7 27 8 88 9 28 10 87 11 29 12 30 13
REMARK SMILES IDX 31 14 81 15 32 16 86 17 80 18 82 19 33 20 85 21 79 22 78 23
REMARK SMILES IDX 34 25 66 26 46 27 65 28 47 29 50 30 64 31 83 32 48 33 49 34
REMARK SMILES IDX 63 36 84 37 51 38 35 39 36 40 44 41 37 42 38 43 42 44 45 45
REMARK SMILES IDX 39 46 40 47 43 48 41 49 67 50 68 51 76 52 69 53 70 54 74 55
REMARK SMILES IDX 77 56 71 57 72 58 75 59 73 60 52 61 53 62 61 63 54 64 55 65
REMARK SMILES IDX 59 66 62 67 56 68 57 69 60 70 58 71 6 72 7 73 8 74 9 75
REMARK SMILES IDX 10 77 11 78 12 79 13 80 14 81 18 82 15 83 17 84 16 85 19 86
REMARK SMILES IDX 20 87 25 88 21 89 22 90 23 91 24 92
REMARK H PARENT 3 6 82 24 50 35 8 76
REMARK Flexibility Score: inf
ROOT
ATOM      1  C   UNL A   1      38.041  19.724  24.662  1.00  0.00     0.023 C 
ENDROOT
BRANCH   1   2
ATOM      2  C   UNL A   1      39.042  20.046  25.766  1.00  0.00     0.116 C 
BRANCH   2   3
ATOM      3  N   UNL A   1      40.116  19.070  25.841  1.00  0.00    -0.352 N 
ATOM      4  O   UNL A   1      42.246  18.336  25.919  1.00  0.00    -0.269 OA
ATOM      5  C   UNL A   1      41.457  19.264  26.062  1.00  0.00     0.251 C 
ATOM      6  H   UNL A   1      39.843  18.132  25.716  1.00  0.00     0.163 HD
BRANCH   5   7
ATOM      7  C   UNL A   1      41.956  20.601  26.449  1.00  0.00     0.039 A 
ATOM      8  C   UNL A   1      42.210  20.915  27.787  1.00  0.00     0.014 A 
ATOM      9  C   UNL A   1      42.194  21.544  25.447  1.00  0.00     0.014 A 
ATOM     10  C   UNL A   1      42.592  22.209  28.136  1.00  0.00     0.010 A 
ATOM     11  C   UNL A   1      42.645  22.818  25.791  1.00  0.00     0.010 A 
ATOM     12  C   UNL A   1      42.824  23.168  27.139  1.00  0.00    -0.014 A 
BRANCH  12  13
ATOM     13  C   UNL A   1      43.302  24.526  27.497  1.00  0.00     0.031 A 
ATOM     14  C   UNL A   1      42.351  25.555  28.032  1.00  0.00     0.074 A 
ATOM     15  C   UNL A   1      44.594  24.841  27.289  1.00  0.00     0.049 A 
ATOM     16  N   UNL A   1      42.560  26.821  28.290  1.00  0.00    -0.248 NA
ATOM     17  C   UNL A   1      40.978  25.104  28.300  1.00  0.00     0.031 C 
ATOM     18  C   UNL A   1      45.610  23.925  26.773  1.00  0.00     0.029 A 
ATOM     19  N   UNL A   1      45.267  26.024  27.462  1.00  0.00    -0.354 N 
ATOM     20  C   UNL A   1      41.342  27.325  28.726  1.00  0.00     0.074 A 
ATOM     21  C   UNL A   1      40.393  26.234  28.672  1.00  0.00     0.031 C 
ATOM     22  C   UNL A   1      46.776  24.577  26.668  1.00  0.00     0.029 A 
ATOM     23  C   UNL A   1      46.574  25.972  27.047  1.00  0.00     0.049 A 
ATOM     24  H   UNL A   1      44.854  26.831  27.846  1.00  0.00     0.167 HD
ATOM     25  C   UNL A   1      41.049  28.584  29.135  1.00  0.00     0.037 A 
ATOM     26  C   UNL A   1      47.497  26.945  26.939  1.00  0.00     0.037 A 
ATOM     27  C   UNL A   1      42.005  29.662  29.181  1.00  0.00     0.049 A 
ATOM     28  C   UNL A   1      47.139  28.345  27.349  1.00  0.00     0.074 A 
ATOM     29  C   UNL A   1      41.821  30.960  29.621  1.00  0.00     0.029 A 
ATOM     30  N   UNL A   1      43.323  29.568  28.753  1.00  0.00    -0.354 N 
ATOM     31  N   UNL A   1      45.998  28.804  27.800  1.00  0.00    -0.248 NA
ATOM     32  C   UNL A   1      48.194  29.360  27.237  1.00  0.00     0.031 C 
ATOM     33  C   UNL A   1      43.004  31.671  29.394  1.00  0.00     0.029 A 
ATOM     34  C   UNL A   1      43.953  30.796  28.885  1.00  0.00     0.049 A 
ATOM     35  H   UNL A   1      43.748  28.750  28.407  1.00  0.00     0.167 HD
ATOM     36  C   UNL A   1      46.203  30.153  28.056  1.00  0.00     0.074 A 
ATOM     37  C   UNL A   1      47.580  30.438  27.708  1.00  0.00     0.031 C 
ATOM     38  C   UNL A   1      45.328  31.066  28.546  1.00  0.00     0.037 A 
BRANCH  25  39
ATOM     39  C   UNL A   1      39.624  28.873  29.522  1.00  0.00     0.064 A 
ATOM     40  C   UNL A   1      38.689  29.375  28.603  1.00  0.00     0.173 A 
ATOM     41  C   UNL A   1      39.186  28.637  30.835  1.00  0.00     0.173 A 
ATOM     42  F   UNL A   1      39.054  29.625  27.337  1.00  0.00    -0.203 F 
ATOM     43  C   UNL A   1      37.387  29.676  28.996  1.00  0.00     0.198 A 
ATOM     44  C   UNL A   1      37.873  28.905  31.215  1.00  0.00     0.198 A 
ATOM     45  F   UNL A   1      40.032  28.147  31.753  1.00  0.00    -0.203 F 
ATOM     46  F   UNL A   1      36.533  30.221  28.118  1.00  0.00    -0.200 F 
ATOM     47  C   UNL A   1      36.979  29.437  30.299  1.00  0.00     0.200 A 
ATOM     48  F   UNL A   1      37.477  28.656  32.470  1.00  0.00    -0.200 F 
ATOM     49  F   UNL A   1      35.727  29.731  30.676  1.00  0.00    -0.200 F 
ENDBRANCH  25  39
BRANCH  26  50
ATOM     50  C   UNL A   1      48.840  26.607  26.403  1.00  0.00     0.064 A 
ATOM     51  C   UNL A   1      49.169  26.861  25.066  1.00  0.00     0.173 A 
ATOM     52  C   UNL A   1      49.840  26.081  27.236  1.00  0.00     0.173 A 
ATOM     53  F   UNL A   1      48.243  27.349  24.229  1.00  0.00    -0.203 F 
ATOM     54  C   UNL A   1      50.450  26.600  24.581  1.00  0.00     0.198 A 
ATOM     55  C   UNL A   1      51.127  25.849  26.758  1.00  0.00     0.198 A 
ATOM     56  F   UNL A   1      49.575  25.831  28.527  1.00  0.00    -0.203 F 
ATOM     57  F   UNL A   1      50.734  26.829  23.292  1.00  0.00    -0.200 F 
ATOM     58  C   UNL A   1      51.429  26.104  25.430  1.00  0.00     0.200 A 
ATOM     59  F   UNL A   1      52.075  25.391  27.586  1.00  0.00    -0.200 F 
ATOM     60  F   UNL A   1      52.666  25.876  24.967  1.00  0.00    -0.200 F 
ENDBRANCH  26  50
BRANCH  38  61
ATOM     61  C   UNL A   1      45.837  32.457  28.792  1.00  0.00     0.064 A 
ATOM     62  C   UNL A   1      46.499  32.807  29.976  1.00  0.00     0.173 A 
ATOM     63  C   UNL A   1      45.734  33.430  27.784  1.00  0.00     0.173 A 
ATOM     64  F   UNL A   1      46.610  31.920  30.976  1.00  0.00    -0.203 F 
ATOM     65  C   UNL A   1      47.033  34.083  30.147  1.00  0.00     0.198 A 
ATOM     66  C   UNL A   1      46.294  34.693  27.945  1.00  0.00     0.198 A 
ATOM     67  F   UNL A   1      45.112  33.143  26.630  1.00  0.00    -0.203 F 
ATOM     68  F   UNL A   1      47.636  34.406  31.299  1.00  0.00    -0.200 F 
ATOM     69  C   UNL A   1      46.942  35.019  29.127  1.00  0.00     0.200 A 
ATOM     70  F   UNL A   1      46.218  35.590  26.952  1.00  0.00    -0.200 F 
ATOM     71  F   UNL A   1      47.477  36.237  29.284  1.00  0.00    -0.200 F 
ENDBRANCH  38  61
ENDBRANCH  12  13
ENDBRANCH   5   7
ENDBRANCH   2   3
ENDBRANCH   1   2
BRANCH   1  72
ATOM     72  C   UNL A   1      36.575  20.003  25.013  1.00  0.00     0.023 C 
BRANCH  72  73
ATOM     73  C   UNL A   1      36.301  21.430  25.493  1.00  0.00     0.116 C 
BRANCH  73  74
ATOM     74  N   UNL A   1      35.459  22.140  24.546  1.00  0.00    -0.356 N 
ATOM     75  C   UNL A   1      34.157  21.950  24.211  1.00  0.00     0.223 C 
ATOM     76  H   UNL A   1      35.905  22.878  24.070  1.00  0.00     0.163 HD
ATOM     77  O   UNL A   1      33.729  22.536  23.215  1.00  0.00    -0.275 OA
BRANCH  75  78
ATOM     78  C   UNL A   1      33.239  21.112  25.096  1.00  0.00     0.088 C 
BRANCH  78  79
ATOM     79  C   UNL A   1      32.598  20.011  24.200  1.00  0.00     0.070 C 
BRANCH  79  80
ATOM     80  C   UNL A   1      32.947  18.575  24.454  1.00  0.00     0.041 A 
ATOM     81  C   UNL A   1      33.739  17.853  23.573  1.00  0.00     0.024 A 
ATOM     82  N   UNL A   1      32.382  18.011  25.550  1.00  0.00    -0.261 NA
ATOM     83  C   UNL A   1      33.847  16.477  23.747  1.00  0.00     0.003 A 
ATOM     84  C   UNL A   1      32.527  16.678  25.714  1.00  0.00     0.111 A 
ATOM     85  C   UNL A   1      33.217  15.872  24.829  1.00  0.00     0.020 A 
ENDBRANCH  79  80
ENDBRANCH  78  79
BRANCH  78  86
ATOM     86  C   UNL A   1      32.403  22.087  25.988  1.00  0.00     0.018 C 
ATOM     87  C   UNL A   1      33.167  23.316  26.523  1.00  0.00     0.021 C 
ATOM     88  C   UNL A   1      31.065  22.533  25.400  1.00  0.00     0.141 C 
ATOM     89  C   UNL A   1      32.224  24.464  26.845  1.00  0.00     0.137 C 
ATOM     90  S   UNL A   1      30.625  24.059  26.198  1.00  0.00     0.150 S 
ATOM     91  O   UNL A   1      29.756  23.750  27.317  1.00  0.00    -0.229 OA
ATOM     92  O   UNL A   1      30.264  25.041  25.198  1.00  0.00    -0.229 OA
ENDBRANCH  78  86
ENDBRANCH  75  78
ENDBRANCH  73  74
ENDBRANCH  72  73
ENDBRANCH   1  72
TORSDOF 14
ENDMDL
MODEL 2
REMARK VINA RESULT:     -12.5      0.220      1.617
REMARK SMILES O=C(NCCCCNC(=O)[C@H](Cc1ccccn1)[C@H]1CCS(=O)(=O)C1)c1ccc(-c2c3nc(c(-c4c(F)c(F)c(F)c(F)c4F)c4ccc([nH]4)c(-c4c(F)c(F)c(F)c(F)c4F)c4nc(c(-c5c(F)c(F)c(F)c(F)c5F)c5ccc2[nH]5)C=C4)C=C3)cc1
REMARK SMILES IDX 5 1 4 2 3 3 1 4 2 5 26 7 27 8 88 9 28 10 87 11 29 12 30 13
REMARK SMILES IDX 31 14 81 15 32 16 86 17 80 18 82 19 33 20 85 21 79 22 78 23
REMARK SMILES IDX 34 25 66 26 46 27 65 28 47 29 50 30 64 31 83 32 48 33 49 34
REMARK SMILES IDX 63 36 84 37 51 38 35 39 36 40 44 41 37 42 38 43 42 44 45 45
REMARK SMILES IDX 39 46 40 47 43 48 41 49 67 50 68 51 76 52 69 53 70 54 74 55
REMARK SMILES IDX 77 56 71 57 72 58 75 59 73 60 52 61 53 62 61 63 54 64 55 65
REMARK SMILES IDX 59 66 62 67 56 68 57 69 60 70 58 71 6 72 7 73 8 74 9 75
REMARK SMILES IDX 10 77 11 78 12 79 13 80 14 81 18 82 15 83 17 84 16 85 19 86
REMARK SMILES IDX 20 87 25 88 21 89 22 90 23 91 24 92
REMARK H PARENT 3 6 82 24 50 35 8 76
REMARK Flexibility Score: inf
ROOT
ATOM      1  C   UNL A   1      38.043  19.692  24.657  1.00  0.00     0.023 C 
ENDROOT
BRANCH   1   2
ATOM      2  C   UNL A   1      39.051  20.032  25.750  1.00  0.00     0.116 C 
BRANCH   2   3
ATOM      3  N   UNL A   1      40.126  19.058  25.834  1.00  0.00    -0.352 N 
ATOM      4  O   UNL A   1      42.256  18.327  25.907  1.00  0.00    -0.269 OA
ATOM      5  C   UNL A   1      41.468  19.257  26.039  1.00  0.00     0.251 C 
ATOM      6  H   UNL A   1      39.852  18.118  25.729  1.00  0.00     0.163 HD
BRANCH   5   7
ATOM      7  C   UNL A   1      41.970  20.601  26.395  1.00  0.00     0.039 A 
ATOM      8  C   UNL A   1      42.266  20.931  27.721  1.00  0.00     0.014 A 
ATOM      9  C   UNL A   1      42.169  21.535  25.376  1.00  0.00     0.014 A 
ATOM     10  C   UNL A   1      42.649  22.231  28.043  1.00  0.00     0.010 A 
ATOM     11  C   UNL A   1      42.622  22.816  25.692  1.00  0.00     0.010 A 
ATOM     12  C   UNL A   1      42.842  23.181  27.030  1.00  0.00    -0.014 A 
BRANCH  12  13
ATOM     13  C   UNL A   1      43.322  24.546  27.358  1.00  0.00     0.031 A 
ATOM     14  C   UNL A   1      42.381  25.576  27.908  1.00  0.00     0.074 A 
ATOM     15  C   UNL A   1      44.605  24.867  27.110  1.00  0.00     0.049 A 
ATOM     16  N   UNL A   1      42.589  26.847  28.145  1.00  0.00    -0.248 NA
ATOM     17  C   UNL A   1      41.019  25.121  28.221  1.00  0.00     0.031 C 
ATOM     18  C   UNL A   1      45.612  23.950  26.575  1.00  0.00     0.029 A 
ATOM     19  N   UNL A   1      45.276  26.055  27.249  1.00  0.00    -0.354 N 
ATOM     20  C   UNL A   1      41.380  27.349  28.610  1.00  0.00     0.074 A 
ATOM     21  C   UNL A   1      40.437  26.251  28.595  1.00  0.00     0.031 C 
ATOM     22  C   UNL A   1      46.770  24.607  26.429  1.00  0.00     0.029 A 
ATOM     23  C   UNL A   1      46.571  26.006  26.797  1.00  0.00     0.049 A 
ATOM     24  H   UNL A   1      44.869  26.864  27.635  1.00  0.00     0.167 HD
ATOM     25  C   UNL A   1      41.091  28.611  29.012  1.00  0.00     0.037 A 
ATOM     26  C   UNL A   1      47.484  26.982  26.651  1.00  0.00     0.037 A 
ATOM     27  C   UNL A   1      42.042  29.694  29.018  1.00  0.00     0.049 A 
ATOM     28  C   UNL A   1      47.130  28.385  27.055  1.00  0.00     0.074 A 
ATOM     29  C   UNL A   1      41.863  30.997  29.447  1.00  0.00     0.029 A 
ATOM     30  N   UNL A   1      43.348  29.603  28.553  1.00  0.00    -0.354 N 
ATOM     31  N   UNL A   1      45.999  28.843  27.533  1.00  0.00    -0.248 NA
ATOM     32  C   UNL A   1      48.175  29.405  26.901  1.00  0.00     0.031 C 
ATOM     33  C   UNL A   1      43.035  31.711  29.178  1.00  0.00     0.029 A 
ATOM     34  C   UNL A   1      43.974  30.836  28.653  1.00  0.00     0.049 A 
ATOM     35  H   UNL A   1      43.768  28.784  28.205  1.00  0.00     0.167 HD
ATOM     36  C   UNL A   1      46.204  30.196  27.767  1.00  0.00     0.074 A 
ATOM     37  C   UNL A   1      47.568  30.485  27.377  1.00  0.00     0.031 C 
ATOM     38  C   UNL A   1      45.337  31.110  28.271  1.00  0.00     0.037 A 
BRANCH  25  39
ATOM     39  C   UNL A   1      39.677  28.896  29.436  1.00  0.00     0.064 A 
ATOM     40  C   UNL A   1      39.238  28.690  30.753  1.00  0.00     0.173 A 
ATOM     41  C   UNL A   1      38.746  29.392  28.508  1.00  0.00     0.173 A 
ATOM     42  F   UNL A   1      40.081  28.212  31.679  1.00  0.00    -0.203 F 
ATOM     43  C   UNL A   1      37.911  28.920  31.112  1.00  0.00     0.198 A 
ATOM     44  C   UNL A   1      37.431  29.656  28.880  1.00  0.00     0.198 A 
ATOM     45  F   UNL A   1      39.112  29.621  27.238  1.00  0.00    -0.203 F 
ATOM     46  F   UNL A   1      37.499  28.647  32.358  1.00  0.00    -0.200 F 
ATOM     47  C   UNL A   1      37.010  29.407  30.177  1.00  0.00     0.200 A 
ATOM     48  F   UNL A   1      36.567  30.144  27.978  1.00  0.00    -0.200 F 
ATOM     49  F   UNL A   1      35.734  29.624  30.523  1.00  0.00    -0.200 F 
ENDBRANCH  25  39
BRANCH  26  50
ATOM     50  C   UNL A   1      48.814  26.646  26.082  1.00  0.00     0.064 A 
ATOM     51  C   UNL A   1      49.120  26.931  24.746  1.00  0.00     0.173 A 
ATOM     52  C   UNL A   1      49.824  26.089  26.882  1.00  0.00     0.173 A 
ATOM     53  F   UNL A   1      48.183  27.449  23.940  1.00  0.00    -0.203 F 
ATOM     54  C   UNL A   1      50.388  26.671  24.230  1.00  0.00     0.198 A 
ATOM     55  C   UNL A   1      51.099  25.857  26.373  1.00  0.00     0.198 A 
ATOM     56  F   UNL A   1      49.581  25.808  28.171  1.00  0.00    -0.203 F 
ATOM     57  F   UNL A   1      50.651  26.930  22.942  1.00  0.00    -0.200 F 
ATOM     58  C   UNL A   1      51.379  26.144  25.046  1.00  0.00     0.200 A 
ATOM     59  F   UNL A   1      52.058  25.370  27.171  1.00  0.00    -0.200 F 
ATOM     60  F   UNL A   1      52.604  25.916  24.554  1.00  0.00    -0.200 F 
ENDBRANCH  26  50
BRANCH  38  61
ATOM     61  C   UNL A   1      45.845  32.507  28.486  1.00  0.00     0.064 A 
ATOM     62  C   UNL A   1      45.692  33.510  27.519  1.00  0.00     0.173 A 
ATOM     63  C   UNL A   1      46.416  32.863  29.718  1.00  0.00     0.173 A 
ATOM     64  F   UNL A   1      45.168  33.217  26.319  1.00  0.00    -0.203 F 
ATOM     65  C   UNL A   1      46.099  34.817  27.774  1.00  0.00     0.198 A 
ATOM     66  C   UNL A   1      46.794  34.176  29.981  1.00  0.00     0.198 A 
ATOM     67  F   UNL A   1      46.581  31.941  30.678  1.00  0.00    -0.203 F 
ATOM     68  F   UNL A   1      45.971  35.754  26.825  1.00  0.00    -0.200 F 
ATOM     69  C   UNL A   1      46.637  35.152  29.009  1.00  0.00     0.200 A 
ATOM     70  F   UNL A   1      47.297  34.499  31.181  1.00  0.00    -0.200 F 
ATOM     71  F   UNL A   1      47.005  36.415  29.261  1.00  0.00    -0.200 F 
ENDBRANCH  38  61
ENDBRANCH  12  13
ENDBRANCH   5   7
ENDBRANCH   2   3
ENDBRANCH   1   2
BRANCH   1  72
ATOM     72  C   UNL A   1      36.582  20.003  25.002  1.00  0.00     0.023 C 
BRANCH  72  73
ATOM     73  C   UNL A   1      36.336  21.438  25.472  1.00  0.00     0.116 C 
BRANCH  73  74
ATOM     74  N   UNL A   1      35.496  22.154  24.528  1.00  0.00    -0.356 N 
ATOM     75  C   UNL A   1      34.191  21.975  24.200  1.00  0.00     0.223 C 
ATOM     76  H   UNL A   1      35.946  22.887  24.049  1.00  0.00     0.163 HD
ATOM     77  O   UNL A   1      33.764  22.563  23.204  1.00  0.00    -0.275 OA
BRANCH  75  78
ATOM     78  C   UNL A   1      33.269  21.147  25.090  1.00  0.00     0.088 C 
BRANCH  78  79
ATOM     79  C   UNL A   1      32.637  20.032  24.206  1.00  0.00     0.070 C 
BRANCH  79  80
ATOM     80  C   UNL A   1      33.000  18.602  24.473  1.00  0.00     0.041 A 
ATOM     81  C   UNL A   1      33.805  17.881  23.602  1.00  0.00     0.024 A 
ATOM     82  N   UNL A   1      32.435  18.041  25.570  1.00  0.00    -0.261 NA
ATOM     83  C   UNL A   1      33.926  16.507  23.787  1.00  0.00     0.003 A 
ATOM     84  C   UNL A   1      32.594  16.710  25.746  1.00  0.00     0.111 A 
ATOM     85  C   UNL A   1      33.297  15.905  24.871  1.00  0.00     0.020 A 
ENDBRANCH  79  80
ENDBRANCH  78  79
BRANCH  78  86
ATOM     86  C   UNL A   1      32.424  22.132  25.962  1.00  0.00     0.018 C 
ATOM     87  C   UNL A   1      33.182  23.370  26.486  1.00  0.00     0.021 C 
ATOM     88  C   UNL A   1      31.090  22.567  25.359  1.00  0.00     0.141 C 
ATOM     89  C   UNL A   1      32.232  24.520  26.786  1.00  0.00     0.137 C 
ATOM     90  S   UNL A   1      30.640  24.102  26.132  1.00  0.00     0.150 S 
ATOM     91  O   UNL A   1      29.763  23.806  27.250  1.00  0.00    -0.229 OA
ATOM     92  O   UNL A   1      30.284  25.070  25.116  1.00  0.00    -0.229 OA
ENDBRANCH  78  86
ENDBRANCH  75  78
ENDBRANCH  73  74
ENDBRANCH  72  73
ENDBRANCH   1  72
TORSDOF 14
ENDMDL
MODEL 3
REMARK VINA RESULT:     -12.5      6.213     11.563
REMARK SMILES O=C(NCCCCNC(=O)[C@H](Cc1ccccn1)[C@H]1CCS(=O)(=O)C1)c1ccc(-c2c3nc(c(-c4c(F)c(F)c(F)c(F)c4F)c4ccc([nH]4)c(-c4c(F)c(F)c(F)c(F)c4F)c4nc(c(-c5c(F)c(F)c(F)c(F)c5F)c5ccc2[nH]5)C=C4)C=C3)cc1
REMARK SMILES IDX 5 1 4 2 3 3 1 4 2 5 26 7 27 8 88 9 28 10 87 11 29 12 30 13
REMARK SMILES IDX 31 14 81 15 32 16 86 17 80 18 82 19 33 20 85 21 79 22 78 23
REMARK SMILES IDX 34 25 66 26 46 27 65 28 47 29 50 30 64 31 83 32 48 33 49 34
REMARK SMILES IDX 63 36 84 37 51 38 35 39 36 40 44 41 37 42 38 43 42 44 45 45
REMARK SMILES IDX 39 46 40 47 43 48 41 49 67 50 68 51 76 52 69 53 70 54 74 55
REMARK SMILES IDX 77 56 71 57 72 58 75 59 73 60 52 61 53 62 61 63 54 64 55 65
REMARK SMILES IDX 59 66 62 67 56 68 57 69 60 70 58 71 6 72 7 73 8 74 9 75
REMARK SMILES IDX 10 77 11 78 12 79 13 80 14 81 18 82 15 83 17 84 16 85 19 86
REMARK SMILES IDX 20 87 25 88 21 89 22 90 23 91 24 92
REMARK H PARENT 3 6 82 24 50 35 8 76
REMARK Flexibility Score: inf
ROOT
ATOM      1  C   UNL A   1      31.425  32.213  26.609  1.00  0.00     0.023 C 
ENDROOT
BRANCH   1   2
ATOM      2  C   UNL A   1      32.691  32.915  27.084  1.00  0.00     0.116 C 
BRANCH   2   3
ATOM      3  N   UNL A   1      32.417  34.221  27.660  1.00  0.00    -0.352 N 
ATOM      4  O   UNL A   1      32.532  35.878  29.183  1.00  0.00    -0.269 OA
ATOM      5  C   UNL A   1      33.012  34.845  28.728  1.00  0.00     0.251 C 
ATOM      6  H   UNL A   1      31.701  34.734  27.219  1.00  0.00     0.163 HD
BRANCH   5   7
ATOM      7  C   UNL A   1      34.218  34.259  29.349  1.00  0.00     0.039 A 
ATOM      8  C   UNL A   1      35.496  34.566  28.872  1.00  0.00     0.014 A 
ATOM      9  C   UNL A   1      34.061  33.405  30.443  1.00  0.00     0.014 A 
ATOM     10  C   UNL A   1      36.610  33.930  29.414  1.00  0.00     0.010 A 
ATOM     11  C   UNL A   1      35.184  32.824  31.031  1.00  0.00     0.010 A 
ATOM     12  C   UNL A   1      36.465  33.063  30.507  1.00  0.00    -0.014 A 
BRANCH  12  13
ATOM     13  C   UNL A   1      37.655  32.439  31.137  1.00  0.00     0.031 A 
ATOM     14  C   UNL A   1      38.355  31.289  30.477  1.00  0.00     0.074 A 
ATOM     15  C   UNL A   1      38.070  32.886  32.336  1.00  0.00     0.049 A 
ATOM     16  N   UNL A   1      39.334  30.545  30.928  1.00  0.00    -0.248 NA
ATOM     17  C   UNL A   1      37.884  30.915  29.136  1.00  0.00     0.031 C 
ATOM     18  C   UNL A   1      37.468  33.996  33.074  1.00  0.00     0.029 A 
ATOM     19  N   UNL A   1      39.079  32.448  33.156  1.00  0.00    -0.354 N 
ATOM     20  C   UNL A   1      39.579  29.601  29.940  1.00  0.00     0.074 A 
ATOM     21  C   UNL A   1      38.628  29.849  28.877  1.00  0.00     0.031 C 
ATOM     22  C   UNL A   1      38.115  34.152  34.237  1.00  0.00     0.029 A 
ATOM     23  C   UNL A   1      39.133  33.113  34.355  1.00  0.00     0.049 A 
ATOM     24  H   UNL A   1      39.703  31.727  32.909  1.00  0.00     0.167 HD
ATOM     25  C   UNL A   1      40.515  28.620  29.926  1.00  0.00     0.037 A 
ATOM     26  C   UNL A   1      39.884  32.886  35.448  1.00  0.00     0.037 A 
ATOM     27  C   UNL A   1      41.453  28.384  30.994  1.00  0.00     0.049 A 
ATOM     28  C   UNL A   1      40.881  31.763  35.433  1.00  0.00     0.074 A 
ATOM     29  C   UNL A   1      42.468  27.447  31.059  1.00  0.00     0.029 A 
ATOM     30  N   UNL A   1      41.477  29.082  32.195  1.00  0.00    -0.354 N 
ATOM     31  N   UNL A   1      41.136  30.901  34.480  1.00  0.00    -0.248 NA
ATOM     32  C   UNL A   1      41.694  31.580  36.643  1.00  0.00     0.031 C 
ATOM     33  C   UNL A   1      43.061  27.530  32.323  1.00  0.00     0.029 A 
ATOM     34  C   UNL A   1      42.467  28.571  33.020  1.00  0.00     0.049 A 
ATOM     35  H   UNL A   1      40.880  29.830  32.425  1.00  0.00     0.167 HD
ATOM     36  C   UNL A   1      42.159  30.093  34.958  1.00  0.00     0.074 A 
ATOM     37  C   UNL A   1      42.476  30.568  36.289  1.00  0.00     0.031 C 
ATOM     38  C   UNL A   1      42.782  29.059  34.341  1.00  0.00     0.037 A 
BRANCH  25  39
ATOM     39  C   UNL A   1      40.537  27.701  28.736  1.00  0.00     0.064 A 
ATOM     40  C   UNL A   1      41.337  27.958  27.611  1.00  0.00     0.173 A 
ATOM     41  C   UNL A   1      39.750  26.538  28.724  1.00  0.00     0.173 A 
ATOM     42  F   UNL A   1      42.104  29.056  27.564  1.00  0.00    -0.203 F 
ATOM     43  C   UNL A   1      41.308  27.114  26.502  1.00  0.00     0.198 A 
ATOM     44  C   UNL A   1      39.751  25.678  27.629  1.00  0.00     0.198 A 
ATOM     45  F   UNL A   1      38.975  26.235  29.776  1.00  0.00    -0.203 F 
ATOM     46  F   UNL A   1      42.026  27.419  25.412  1.00  0.00    -0.200 F 
ATOM     47  C   UNL A   1      40.519  25.974  26.514  1.00  0.00     0.200 A 
ATOM     48  F   UNL A   1      39.002  24.568  27.651  1.00  0.00    -0.200 F 
ATOM     49  F   UNL A   1      40.490  25.166  25.445  1.00  0.00    -0.200 F 
ENDBRANCH  25  39
BRANCH  26  50
ATOM     50  C   UNL A   1      39.696  33.747  36.644  1.00  0.00     0.064 A 
ATOM     51  C   UNL A   1      40.309  35.002  36.733  1.00  0.00     0.173 A 
ATOM     52  C   UNL A   1      38.848  33.355  37.691  1.00  0.00     0.173 A 
ATOM     53  F   UNL A   1      41.138  35.414  35.764  1.00  0.00    -0.203 F 
ATOM     54  C   UNL A   1      40.082  35.834  37.828  1.00  0.00     0.198 A 
ATOM     55  C   UNL A   1      38.599  34.199  38.770  1.00  0.00     0.198 A 
ATOM     56  F   UNL A   1      38.230  32.165  37.646  1.00  0.00    -0.203 F 
ATOM     57  F   UNL A   1      40.699  37.021  37.903  1.00  0.00    -0.200 F 
ATOM     58  C   UNL A   1      39.220  35.436  38.840  1.00  0.00     0.200 A 
ATOM     59  F   UNL A   1      37.749  33.820  39.733  1.00  0.00    -0.200 F 
ATOM     60  F   UNL A   1      38.985  36.247  39.880  1.00  0.00    -0.200 F 
ENDBRANCH  26  50
BRANCH  38  61
ATOM     61  C   UNL A   1      43.914  28.393  35.068  1.00  0.00     0.064 A 
ATOM     62  C   UNL A   1      43.715  27.269  35.882  1.00  0.00     0.173 A 
ATOM     63  C   UNL A   1      45.231  28.840  34.875  1.00  0.00     0.173 A 
ATOM     64  F   UNL A   1      42.475  26.813  36.112  1.00  0.00    -0.203 F 
ATOM     65  C   UNL A   1      44.793  26.621  36.481  1.00  0.00     0.198 A 
ATOM     66  C   UNL A   1      46.308  28.172  35.450  1.00  0.00     0.198 A 
ATOM     67  F   UNL A   1      45.475  29.909  34.102  1.00  0.00    -0.203 F 
ATOM     68  F   UNL A   1      44.578  25.566  37.279  1.00  0.00    -0.200 F 
ATOM     69  C   UNL A   1      46.088  27.064  36.254  1.00  0.00     0.200 A 
ATOM     70  F   UNL A   1      47.558  28.593  35.216  1.00  0.00    -0.200 F 
ATOM     71  F   UNL A   1      47.124  26.425  36.812  1.00  0.00    -0.200 F 
ENDBRANCH  38  61
ENDBRANCH  12  13
ENDBRANCH   5   7
ENDBRANCH   2   3
ENDBRANCH   1   2
BRANCH   1  72
ATOM     72  C   UNL A   1      31.400  30.697  26.835  1.00  0.00     0.023 C 
BRANCH  72  73
ATOM     73  C   UNL A   1      32.073  29.882  25.728  1.00  0.00     0.116 C 
BRANCH  73  74
ATOM     74  N   UNL A   1      31.605  28.507  25.742  1.00  0.00    -0.356 N 
ATOM     75  C   UNL A   1      31.018  27.767  24.767  1.00  0.00     0.223 C 
ATOM     76  H   UNL A   1      31.736  28.036  26.597  1.00  0.00     0.163 HD
ATOM     77  O   UNL A   1      30.505  26.694  25.091  1.00  0.00    -0.275 OA
BRANCH  75  78
ATOM     78  C   UNL A   1      31.074  28.212  23.309  1.00  0.00     0.088 C 
BRANCH  78  79
ATOM     79  C   UNL A   1      29.613  28.460  22.834  1.00  0.00     0.070 C 
BRANCH  79  80
ATOM     80  C   UNL A   1      29.179  29.862  22.522  1.00  0.00     0.041 A 
ATOM     81  C   UNL A   1      29.153  30.848  23.498  1.00  0.00     0.024 A 
ATOM     82  N   UNL A   1      28.747  30.082  21.256  1.00  0.00    -0.261 NA
ATOM     83  C   UNL A   1      28.540  32.062  23.203  1.00  0.00     0.003 A 
ATOM     84  C   UNL A   1      28.183  31.280  20.987  1.00  0.00     0.111 A 
ATOM     85  C   UNL A   1      28.030  32.280  21.928  1.00  0.00     0.020 A 
ENDBRANCH  79  80
ENDBRANCH  78  79
BRANCH  78  86
ATOM     86  C   UNL A   1      32.074  27.275  22.555  1.00  0.00     0.018 C 
ATOM     87  C   UNL A   1      33.402  26.993  23.290  1.00  0.00     0.021 C 
ATOM     88  C   UNL A   1      31.485  25.962  22.042  1.00  0.00     0.141 C 
ATOM     89  C   UNL A   1      34.026  25.684  22.832  1.00  0.00     0.137 C 
ATOM     90  S   UNL A   1      32.836  24.825  21.840  1.00  0.00     0.150 S 
ATOM     91  O   UNL A   1      33.278  24.887  20.460  1.00  0.00    -0.229 OA
ATOM     92  O   UNL A   1      32.512  23.569  22.483  1.00  0.00    -0.229 OA
ENDBRANCH  78  86
ENDBRANCH  75  78
ENDBRANCH  73  74
ENDBRANCH  72  73
ENDBRANCH   1  72
TORSDOF 14
ENDMDL
