MODEL 1
REMARK VINA RESULT:     -12.9      0.000      0.000
REMARK SMILES Cn1c(C(=O)NCCCCNC(=O)c2ccc(-c3c4nc(c(-c5c(F)c(F)c(F)c(F)c5F)c5ccc([nH]5)c(-c5c(F)c(F)c(F)c(F)c5F)c5nc(c(-c6c(F)c(F)c(F)c(F)c6F)c6ccc3[nH]6)C=C5)C=C4)cc2)cc2cc(OCc3ccccc3)ccc21
REMARK SMILES IDX 8 1 7 2 6 3 4 4 5 5 3 7 1 8 2 9 91 10 77 11 78 12 90 13
REMARK SMILES IDX 79 14 89 15 80 16 81 17 82 18 83 19 84 20 88 21 85 22 87 23
REMARK SMILES IDX 86 24 9 25 10 26 11 27 12 28 13 30 14 31 15 32 76 33 16 34
REMARK SMILES IDX 75 35 17 36 18 37 19 38 69 39 20 40 74 41 68 42 70 43 21 44
REMARK SMILES IDX 73 45 67 46 66 47 22 49 54 50 34 51 53 52 35 53 38 54 52 55
REMARK SMILES IDX 71 56 36 57 37 58 51 60 72 61 39 62 23 63 24 64 32 65 25 66
REMARK SMILES IDX 26 67 30 68 33 69 27 70 28 71 31 72 29 73 55 74 56 75 64 76
REMARK SMILES IDX 57 77 58 78 62 79 65 80 59 81 60 82 63 83 61 84 40 85 41 86
REMARK SMILES IDX 49 87 42 88 43 89 47 90 50 91 44 92 45 93 48 94 46 95
REMARK H PARENT 6 6 11 29 70 48 38 59
REMARK Flexibility Score: inf
ROOT
ATOM      1  C   UNL A   1      32.824  29.646  25.021  1.00  0.00     0.023 C 
ENDROOT
BRANCH   1   2
ATOM      2  C   UNL A   1      31.308  29.493  25.008  1.00  0.00     0.116 C 
BRANCH   2   3
ATOM      3  N   UNL A   1      30.688  29.637  23.709  1.00  0.00    -0.351 N 
ATOM      4  C   UNL A   1      30.541  28.718  22.693  1.00  0.00     0.267 C 
ATOM      5  O   UNL A   1      30.006  29.124  21.661  1.00  0.00    -0.268 OA
ATOM      6  H   UNL A   1      30.312  30.528  23.523  1.00  0.00     0.163 HD
BRANCH   4   7
ATOM      7  C   UNL A   1      31.061  27.368  22.818  1.00  0.00     0.107 A 
ATOM      8  C   UNL A   1      33.494  27.616  22.152  1.00  0.00     0.150 C 
ATOM      9  N   UNL A   1      32.298  26.866  22.468  1.00  0.00    -0.340 N 
ATOM     10  C   UNL A   1      32.319  25.491  22.601  1.00  0.00     0.049 A 
ATOM     11  C   UNL A   1      30.406  26.313  23.452  1.00  0.00     0.042 A 
ATOM     12  C   UNL A   1      31.172  25.127  23.297  1.00  0.00     0.004 A 
ATOM     13  C   UNL A   1      33.284  24.558  22.213  1.00  0.00     0.031 A 
ATOM     14  C   UNL A   1      31.003  23.776  23.668  1.00  0.00     0.056 A 
ATOM     15  C   UNL A   1      33.091  23.226  22.584  1.00  0.00     0.048 A 
ATOM     16  C   UNL A   1      31.970  22.824  23.305  1.00  0.00     0.120 A 
BRANCH  16  17
ATOM     17  O   UNL A   1      31.697  21.539  23.698  1.00  0.00    -0.489 OA
BRANCH  17  18
ATOM     18  C   UNL A   1      32.593  20.897  24.617  1.00  0.00     0.265 C 
BRANCH  18  19
ATOM     19  C   UNL A   1      33.032  19.527  24.147  1.00  0.00    -0.011 A 
ATOM     20  C   UNL A   1      32.333  18.874  23.124  1.00  0.00     0.007 A 
ATOM     21  C   UNL A   1      34.162  18.904  24.701  1.00  0.00     0.007 A 
ATOM     22  C   UNL A   1      32.780  17.645  22.635  1.00  0.00     0.000 A 
ATOM     23  C   UNL A   1      34.619  17.687  24.198  1.00  0.00     0.000 A 
ATOM     24  C   UNL A   1      33.931  17.060  23.162  1.00  0.00     0.000 A 
ENDBRANCH  18  19
ENDBRANCH  17  18
ENDBRANCH  16  17
ENDBRANCH   4   7
ENDBRANCH   2   3
ENDBRANCH   1   2
BRANCH   1  25
ATOM     25  C   UNL A   1      33.611  28.563  25.759  1.00  0.00     0.023 C 
BRANCH  25  26
ATOM     26  C   UNL A   1      33.695  28.689  27.278  1.00  0.00     0.116 C 
BRANCH  26  27
ATOM     27  N   UNL A   1      33.769  30.061  27.759  1.00  0.00    -0.352 N 
ATOM     28  C   UNL A   1      34.810  30.753  28.340  1.00  0.00     0.251 C 
ATOM     29  H   UNL A   1      32.939  30.580  27.652  1.00  0.00     0.163 HD
ATOM     30  O   UNL A   1      34.637  31.896  28.739  1.00  0.00    -0.269 OA
BRANCH  28  31
ATOM     31  C   UNL A   1      36.126  30.099  28.530  1.00  0.00     0.039 A 
ATOM     32  C   UNL A   1      37.071  30.185  27.502  1.00  0.00     0.014 A 
ATOM     33  C   UNL A   1      36.441  29.431  29.713  1.00  0.00     0.014 A 
ATOM     34  C   UNL A   1      38.365  29.699  27.708  1.00  0.00     0.010 A 
ATOM     35  C   UNL A   1      37.754  29.030  29.950  1.00  0.00     0.010 A 
ATOM     36  C   UNL A   1      38.734  29.172  28.955  1.00  0.00    -0.014 A 
BRANCH  36  37
ATOM     37  C   UNL A   1      40.140  28.785  29.251  1.00  0.00     0.031 A 
ATOM     38  C   UNL A   1      41.043  29.724  30.004  1.00  0.00     0.074 A 
ATOM     39  C   UNL A   1      40.632  27.626  28.768  1.00  0.00     0.049 A 
ATOM     40  N   UNL A   1      42.320  29.613  30.269  1.00  0.00    -0.248 NA
ATOM     41  C   UNL A   1      40.437  30.971  30.498  1.00  0.00     0.031 C 
ATOM     42  C   UNL A   1      39.879  26.652  27.975  1.00  0.00     0.029 A 
ATOM     43  N   UNL A   1      41.887  27.076  28.859  1.00  0.00    -0.354 N 
ATOM     44  C   UNL A   1      42.672  30.779  30.936  1.00  0.00     0.074 A 
ATOM     45  C   UNL A   1      41.488  31.608  30.992  1.00  0.00     0.031 C 
ATOM     46  C   UNL A   1      40.678  25.615  27.673  1.00  0.00     0.029 A 
ATOM     47  C   UNL A   1      42.010  25.868  28.213  1.00  0.00     0.049 A 
ATOM     48  H   UNL A   1      42.629  27.505  29.342  1.00  0.00     0.167 HD
ATOM     49  C   UNL A   1      43.867  31.118  31.475  1.00  0.00     0.037 A 
ATOM     50  C   UNL A   1      43.078  25.062  28.065  1.00  0.00     0.037 A 
ATOM     51  C   UNL A   1      45.035  30.276  31.454  1.00  0.00     0.049 A 
ATOM     52  C   UNL A   1      44.393  25.460  28.681  1.00  0.00     0.074 A 
ATOM     53  C   UNL A   1      46.270  30.500  32.036  1.00  0.00     0.029 A 
ATOM     54  N   UNL A   1      45.110  29.046  30.818  1.00  0.00    -0.354 N 
ATOM     55  N   UNL A   1      44.691  26.532  29.374  1.00  0.00    -0.248 NA
ATOM     56  C   UNL A   1      45.519  24.533  28.498  1.00  0.00     0.031 C 
ATOM     57  C   UNL A   1      47.106  29.427  31.716  1.00  0.00     0.029 A 
ATOM     58  C   UNL A   1      46.377  28.509  30.977  1.00  0.00     0.049 A 
ATOM     59  H   UNL A   1      44.372  28.618  30.326  1.00  0.00     0.167 HD
ATOM     60  C   UNL A   1      46.024  26.392  29.738  1.00  0.00     0.074 A 
ATOM     61  C   UNL A   1      46.474  25.126  29.201  1.00  0.00     0.031 C 
ATOM     62  C   UNL A   1      46.805  27.238  30.452  1.00  0.00     0.037 A 
BRANCH  49  63
ATOM     63  C   UNL A   1      43.976  32.455  32.146  1.00  0.00     0.064 A 
ATOM     64  C   UNL A   1      43.694  32.617  33.512  1.00  0.00     0.173 A 
ATOM     65  C   UNL A   1      44.419  33.578  31.431  1.00  0.00     0.173 A 
ATOM     66  F   UNL A   1      43.255  31.578  34.238  1.00  0.00    -0.203 F 
ATOM     67  C   UNL A   1      43.826  33.858  34.128  1.00  0.00     0.198 A 
ATOM     68  C   UNL A   1      44.580  34.810  32.059  1.00  0.00     0.198 A 
ATOM     69  F   UNL A   1      44.709  33.478  30.125  1.00  0.00    -0.203 F 
ATOM     70  F   UNL A   1      43.509  33.997  35.423  1.00  0.00    -0.200 F 
ATOM     71  C   UNL A   1      44.278  34.952  33.405  1.00  0.00     0.200 A 
ATOM     72  F   UNL A   1      45.030  35.863  31.361  1.00  0.00    -0.200 F 
ATOM     73  F   UNL A   1      44.418  36.141  34.003  1.00  0.00    -0.200 F 
ENDBRANCH  49  63
BRANCH  50  74
ATOM     74  C   UNL A   1      42.953  23.780  27.319  1.00  0.00     0.064 A 
ATOM     75  C   UNL A   1      42.470  22.626  27.951  1.00  0.00     0.173 A 
ATOM     76  C   UNL A   1      43.335  23.674  25.973  1.00  0.00     0.173 A 
ATOM     77  F   UNL A   1      42.113  22.671  29.244  1.00  0.00    -0.203 F 
ATOM     78  C   UNL A   1      42.402  21.408  27.277  1.00  0.00     0.198 A 
ATOM     79  C   UNL A   1      43.238  22.464  25.291  1.00  0.00     0.198 A 
ATOM     80  F   UNL A   1      43.799  24.750  25.321  1.00  0.00    -0.203 F 
ATOM     81  F   UNL A   1      41.990  20.309  27.923  1.00  0.00    -0.200 F 
ATOM     82  C   UNL A   1      42.782  21.329  25.946  1.00  0.00     0.200 A 
ATOM     83  F   UNL A   1      43.593  22.393  24.001  1.00  0.00    -0.200 F 
ATOM     84  F   UNL A   1      42.719  20.158  25.298  1.00  0.00    -0.200 F 
ENDBRANCH  50  74
BRANCH  62  85
ATOM     85  C   UNL A   1      48.213  26.805  30.735  1.00  0.00     0.064 A 
ATOM     86  C   UNL A   1      48.526  25.974  31.819  1.00  0.00     0.173 A 
ATOM     87  C   UNL A   1      49.259  27.196  29.882  1.00  0.00     0.173 A 
ATOM     88  F   UNL A   1      47.565  25.587  32.672  1.00  0.00    -0.203 F 
ATOM     89  C   UNL A   1      49.837  25.568  32.055  1.00  0.00     0.198 A 
ATOM     90  C   UNL A   1      50.563  26.763  30.103  1.00  0.00     0.198 A 
ATOM     91  F   UNL A   1      49.012  27.985  28.827  1.00  0.00    -0.203 F 
ATOM     92  F   UNL A   1      50.120  24.811  33.125  1.00  0.00    -0.200 F 
ATOM     93  C   UNL A   1      50.852  25.955  31.193  1.00  0.00     0.200 A 
ATOM     94  F   UNL A   1      51.540  27.127  29.262  1.00  0.00    -0.200 F 
ATOM     95  F   UNL A   1      52.112  25.556  31.416  1.00  0.00    -0.200 F 
ENDBRANCH  62  85
ENDBRANCH  36  37
ENDBRANCH  28  31
ENDBRANCH  26  27
ENDBRANCH  25  26
ENDBRANCH   1  25
TORSDOF 14
ENDMDL
MODEL 2
REMARK VINA RESULT:     -12.8      3.751      8.585
REMARK SMILES Cn1c(C(=O)NCCCCNC(=O)c2ccc(-c3c4nc(c(-c5c(F)c(F)c(F)c(F)c5F)c5ccc([nH]5)c(-c5c(F)c(F)c(F)c(F)c5F)c5nc(c(-c6c(F)c(F)c(F)c(F)c6F)c6ccc3[nH]6)C=C5)C=C4)cc2)cc2cc(OCc3ccccc3)ccc21
REMARK SMILES IDX 8 1 7 2 6 3 4 4 5 5 3 7 1 8 2 9 91 10 77 11 78 12 90 13
REMARK SMILES IDX 79 14 89 15 80 16 81 17 82 18 83 19 84 20 88 21 85 22 87 23
REMARK SMILES IDX 86 24 9 25 10 26 11 27 12 28 13 30 14 31 15 32 76 33 16 34
REMARK SMILES IDX 75 35 17 36 18 37 19 38 69 39 20 40 74 41 68 42 70 43 21 44
REMARK SMILES IDX 73 45 67 46 66 47 22 49 54 50 34 51 53 52 35 53 38 54 52 55
REMARK SMILES IDX 71 56 36 57 37 58 51 60 72 61 39 62 23 63 24 64 32 65 25 66
REMARK SMILES IDX 26 67 30 68 33 69 27 70 28 71 31 72 29 73 55 74 56 75 64 76
REMARK SMILES IDX 57 77 58 78 62 79 65 80 59 81 60 82 63 83 61 84 40 85 41 86
REMARK SMILES IDX 49 87 42 88 43 89 47 90 50 91 44 92 45 93 48 94 46 95
REMARK H PARENT 6 6 11 29 70 48 38 59
REMARK Flexibility Score: inf
ROOT
ATOM      1  C   UNL A   1      31.952  30.237  26.674  1.00  0.00     0.023 C 
ENDROOT
BRANCH   1   2
ATOM      2  C   UNL A   1      32.255  29.695  25.283  1.00  0.00     0.116 C 
BRANCH   2   3
ATOM      3  N   UNL A   1      31.157  29.768  24.343  1.00  0.00    -0.351 N 
ATOM      4  C   UNL A   1      30.596  28.783  23.560  1.00  0.00     0.267 C 
ATOM      5  O   UNL A   1      29.689  29.134  22.805  1.00  0.00    -0.268 OA
ATOM      6  H   UNL A   1      30.747  30.659  24.249  1.00  0.00     0.163 HD
BRANCH   4   7
ATOM      7  C   UNL A   1      31.106  27.424  23.581  1.00  0.00     0.107 A 
ATOM      8  C   UNL A   1      33.335  27.621  22.389  1.00  0.00     0.150 C 
ATOM      9  N   UNL A   1      32.226  26.896  22.970  1.00  0.00    -0.340 N 
ATOM     10  C   UNL A   1      32.251  25.521  23.108  1.00  0.00     0.049 A 
ATOM     11  C   UNL A   1      30.590  26.385  24.354  1.00  0.00     0.042 A 
ATOM     12  C   UNL A   1      31.281  25.184  24.045  1.00  0.00     0.004 A 
ATOM     13  C   UNL A   1      33.090  24.567  22.526  1.00  0.00     0.031 A 
ATOM     14  C   UNL A   1      31.176  23.838  24.458  1.00  0.00     0.056 A 
ATOM     15  C   UNL A   1      32.960  23.242  22.943  1.00  0.00     0.048 A 
ATOM     16  C   UNL A   1      32.021  22.866  23.899  1.00  0.00     0.120 A 
BRANCH  16  17
ATOM     17  O   UNL A   1      31.819  21.589  24.355  1.00  0.00    -0.489 OA
BRANCH  17  18
ATOM     18  C   UNL A   1      32.919  20.896  24.964  1.00  0.00     0.265 C 
BRANCH  18  19
ATOM     19  C   UNL A   1      33.234  19.583  24.280  1.00  0.00    -0.011 A 
ATOM     20  C   UNL A   1      34.342  18.825  24.682  1.00  0.00     0.007 A 
ATOM     21  C   UNL A   1      32.407  19.087  23.259  1.00  0.00     0.007 A 
ATOM     22  C   UNL A   1      34.591  17.578  24.107  1.00  0.00     0.000 A 
ATOM     23  C   UNL A   1      32.646  17.832  22.700  1.00  0.00     0.000 A 
ATOM     24  C   UNL A   1      33.735  17.076  23.128  1.00  0.00     0.000 A 
ENDBRANCH  18  19
ENDBRANCH  17  18
ENDBRANCH  16  17
ENDBRANCH   4   7
ENDBRANCH   2   3
ENDBRANCH   1   2
BRANCH   1  25
ATOM     25  C   UNL A   1      31.695  31.741  26.777  1.00  0.00     0.023 C 
BRANCH  25  26
ATOM     26  C   UNL A   1      32.843  32.599  27.303  1.00  0.00     0.116 C 
BRANCH  26  27
ATOM     27  N   UNL A   1      32.460  33.962  27.642  1.00  0.00    -0.352 N 
ATOM     28  C   UNL A   1      33.006  34.848  28.548  1.00  0.00     0.251 C 
ATOM     29  H   UNL A   1      31.684  34.308  27.144  1.00  0.00     0.163 HD
ATOM     30  O   UNL A   1      32.481  35.937  28.729  1.00  0.00    -0.269 OA
BRANCH  28  31
ATOM     31  C   UNL A   1      34.197  34.465  29.339  1.00  0.00     0.039 A 
ATOM     32  C   UNL A   1      34.009  33.918  30.613  1.00  0.00     0.014 A 
ATOM     33  C   UNL A   1      35.487  34.615  28.829  1.00  0.00     0.014 A 
ATOM     34  C   UNL A   1      35.105  33.421  31.324  1.00  0.00     0.010 A 
ATOM     35  C   UNL A   1      36.564  34.038  29.498  1.00  0.00     0.010 A 
ATOM     36  C   UNL A   1      36.384  33.422  30.746  1.00  0.00    -0.014 A 
BRANCH  36  37
ATOM     37  C   UNL A   1      37.540  32.768  31.415  1.00  0.00     0.031 A 
ATOM     38  C   UNL A   1      38.241  31.610  30.757  1.00  0.00     0.074 A 
ATOM     39  C   UNL A   1      37.907  33.157  32.653  1.00  0.00     0.049 A 
ATOM     40  N   UNL A   1      39.198  30.846  31.222  1.00  0.00    -0.248 NA
ATOM     41  C   UNL A   1      37.785  31.241  29.407  1.00  0.00     0.031 C 
ATOM     42  C   UNL A   1      37.274  34.228  33.426  1.00  0.00     0.029 A 
ATOM     43  N   UNL A   1      38.890  32.687  33.488  1.00  0.00    -0.354 N 
ATOM     44  C   UNL A   1      39.438  29.898  30.237  1.00  0.00     0.074 A 
ATOM     45  C   UNL A   1      38.495  30.149  29.169  1.00  0.00     0.031 C 
ATOM     46  C   UNL A   1      37.900  34.348  34.609  1.00  0.00     0.029 A 
ATOM     47  C   UNL A   1      38.949  33.338  34.697  1.00  0.00     0.049 A 
ATOM     48  H   UNL A   1      39.498  31.952  33.243  1.00  0.00     0.167 HD
ATOM     49  C   UNL A   1      40.376  28.922  30.213  1.00  0.00     0.037 A 
ATOM     50  C   UNL A   1      39.750  33.136  35.761  1.00  0.00     0.037 A 
ATOM     51  C   UNL A   1      41.340  28.697  31.258  1.00  0.00     0.049 A 
ATOM     52  C   UNL A   1      40.789  32.048  35.704  1.00  0.00     0.074 A 
ATOM     53  C   UNL A   1      42.377  27.781  31.293  1.00  0.00     0.029 A 
ATOM     54  N   UNL A   1      41.387  29.399  32.454  1.00  0.00    -0.354 N 
ATOM     55  N   UNL A   1      41.055  31.208  34.734  1.00  0.00    -0.248 NA
ATOM     56  C   UNL A   1      41.644  31.885  36.888  1.00  0.00     0.031 C 
ATOM     57  C   UNL A   1      43.024  27.898  32.527  1.00  0.00     0.029 A 
ATOM     58  C   UNL A   1      42.423  28.923  33.241  1.00  0.00     0.049 A 
ATOM     59  H   UNL A   1      40.775  30.128  32.705  1.00  0.00     0.167 HD
ATOM     60  C   UNL A   1      42.126  30.442  35.176  1.00  0.00     0.074 A 
ATOM     61  C   UNL A   1      42.470  30.925  36.496  1.00  0.00     0.031 C 
ATOM     62  C   UNL A   1      42.765  29.427  34.545  1.00  0.00     0.037 A 
BRANCH  49  63
ATOM     63  C   UNL A   1      40.418  28.023  29.012  1.00  0.00     0.064 A 
ATOM     64  C   UNL A   1      39.676  26.833  28.959  1.00  0.00     0.173 A 
ATOM     65  C   UNL A   1      41.165  28.380  27.880  1.00  0.00     0.173 A 
ATOM     66  F   UNL A   1      38.954  26.439  30.019  1.00  0.00    -0.203 F 
ATOM     67  C   UNL A   1      39.701  26.022  27.827  1.00  0.00     0.198 A 
ATOM     68  C   UNL A   1      41.163  27.583  26.739  1.00  0.00     0.198 A 
ATOM     69  F   UNL A   1      41.888  29.511  27.875  1.00  0.00    -0.203 F 
ATOM     70  F   UNL A   1      39.019  24.869  27.817  1.00  0.00    -0.200 F 
ATOM     71  C   UNL A   1      40.437  26.402  26.715  1.00  0.00     0.200 A 
ATOM     72  F   UNL A   1      41.864  27.958  25.659  1.00  0.00    -0.200 F 
ATOM     73  F   UNL A   1      40.449  25.628  25.622  1.00  0.00    -0.200 F 
ENDBRANCH  49  63
BRANCH  50  74
ATOM     74  C   UNL A   1      39.623  33.995  36.970  1.00  0.00     0.064 A 
ATOM     75  C   UNL A   1      38.835  33.592  38.056  1.00  0.00     0.173 A 
ATOM     76  C   UNL A   1      40.262  35.241  37.055  1.00  0.00     0.173 A 
ATOM     77  F   UNL A   1      38.186  32.418  38.013  1.00  0.00    -0.203 F 
ATOM     78  C   UNL A   1      38.665  34.413  39.168  1.00  0.00     0.198 A 
ATOM     79  C   UNL A   1      40.117  36.048  38.181  1.00  0.00     0.198 A 
ATOM     80  F   UNL A   1      41.032  35.671  36.045  1.00  0.00    -0.203 F 
ATOM     81  F   UNL A   1      37.860  34.027  40.168  1.00  0.00    -0.200 F 
ATOM     82  C   UNL A   1      39.310  35.639  39.232  1.00  0.00     0.200 A 
ATOM     83  F   UNL A   1      40.752  37.226  38.245  1.00  0.00    -0.200 F 
ATOM     84  F   UNL A   1      39.145  36.430  40.301  1.00  0.00    -0.200 F 
ENDBRANCH  50  74
BRANCH  62  85
ATOM     85  C   UNL A   1      43.931  28.801  35.251  1.00  0.00     0.064 A 
ATOM     86  C   UNL A   1      43.773  27.699  36.103  1.00  0.00     0.173 A 
ATOM     87  C   UNL A   1      45.232  29.287  35.038  1.00  0.00     0.173 A 
ATOM     88  F   UNL A   1      42.549  27.208  36.351  1.00  0.00    -0.203 F 
ATOM     89  C   UNL A   1      44.870  27.120  36.736  1.00  0.00     0.198 A 
ATOM     90  C   UNL A   1      46.329  28.686  35.648  1.00  0.00     0.198 A 
ATOM     91  F   UNL A   1      45.438  30.335  34.227  1.00  0.00    -0.203 F 
ATOM     92  F   UNL A   1      44.691  26.097  37.582  1.00  0.00    -0.200 F 
ATOM     93  C   UNL A   1      46.147  27.609  36.501  1.00  0.00     0.200 A 
ATOM     94  F   UNL A   1      47.564  29.151  35.410  1.00  0.00    -0.200 F 
ATOM     95  F   UNL A   1      47.204  27.045  37.104  1.00  0.00    -0.200 F 
ENDBRANCH  62  85
ENDBRANCH  36  37
ENDBRANCH  28  31
ENDBRANCH  26  27
ENDBRANCH  25  26
ENDBRANCH   1  25
TORSDOF 14
ENDMDL
MODEL 3
REMARK VINA RESULT:     -12.7      3.662      8.404
REMARK SMILES Cn1c(C(=O)NCCCCNC(=O)c2ccc(-c3c4nc(c(-c5c(F)c(F)c(F)c(F)c5F)c5ccc([nH]5)c(-c5c(F)c(F)c(F)c(F)c5F)c5nc(c(-c6c(F)c(F)c(F)c(F)c6F)c6ccc3[nH]6)C=C5)C=C4)cc2)cc2cc(OCc3ccccc3)ccc21
REMARK SMILES IDX 8 1 7 2 6 3 4 4 5 5 3 7 1 8 2 9 91 10 77 11 78 12 90 13
REMARK SMILES IDX 79 14 89 15 80 16 81 17 82 18 83 19 84 20 88 21 85 22 87 23
REMARK SMILES IDX 86 24 9 25 10 26 11 27 12 28 13 30 14 31 15 32 76 33 16 34
REMARK SMILES IDX 75 35 17 36 18 37 19 38 69 39 20 40 74 41 68 42 70 43 21 44
REMARK SMILES IDX 73 45 67 46 66 47 22 49 54 50 34 51 53 52 35 53 38 54 52 55
REMARK SMILES IDX 71 56 36 57 37 58 51 60 72 61 39 62 23 63 24 64 32 65 25 66
REMARK SMILES IDX 26 67 30 68 33 69 27 70 28 71 31 72 29 73 55 74 56 75 64 76
REMARK SMILES IDX 57 77 58 78 62 79 65 80 59 81 60 82 63 83 61 84 40 85 41 86
REMARK SMILES IDX 49 87 42 88 43 89 47 90 50 91 44 92 45 93 48 94 46 95
REMARK H PARENT 6 6 11 29 70 48 38 59
REMARK Flexibility Score: inf
ROOT
ATOM      1  C   UNL A   1      36.952  21.116  24.652  1.00  0.00     0.023 C 
ENDROOT
BRANCH   1   2
ATOM      2  C   UNL A   1      35.732  21.321  25.542  1.00  0.00     0.116 C 
BRANCH   2   3
ATOM      3  N   UNL A   1      34.766  20.245  25.517  1.00  0.00    -0.351 N 
ATOM      4  C   UNL A   1      33.393  20.291  25.419  1.00  0.00     0.267 C 
ATOM      5  O   UNL A   1      32.804  19.211  25.468  1.00  0.00    -0.268 OA
ATOM      6  H   UNL A   1      35.149  19.340  25.579  1.00  0.00     0.163 HD
BRANCH   4   7
ATOM      7  C   UNL A   1      32.687  21.556  25.336  1.00  0.00     0.107 A 
ATOM      8  C   UNL A   1      33.008  22.555  27.644  1.00  0.00     0.150 C 
ATOM      9  N   UNL A   1      32.413  22.478  26.327  1.00  0.00    -0.340 N 
ATOM     10  C   UNL A   1      31.570  23.464  25.854  1.00  0.00     0.049 A 
ATOM     11  C   UNL A   1      32.236  22.148  24.157  1.00  0.00     0.042 A 
ATOM     12  C   UNL A   1      31.511  23.327  24.472  1.00  0.00     0.004 A 
ATOM     13  C   UNL A   1      30.908  24.492  26.531  1.00  0.00     0.031 A 
ATOM     14  C   UNL A   1      30.800  24.291  23.725  1.00  0.00     0.056 A 
ATOM     15  C   UNL A   1      30.204  25.427  25.772  1.00  0.00     0.048 A 
ATOM     16  C   UNL A   1      30.143  25.343  24.383  1.00  0.00     0.120 A 
BRANCH  16  17
ATOM     17  O   UNL A   1      29.466  26.209  23.564  1.00  0.00    -0.489 OA
BRANCH  17  18
ATOM     18  C   UNL A   1      30.167  27.346  23.038  1.00  0.00     0.265 C 
BRANCH  18  19
ATOM     19  C   UNL A   1      29.410  28.642  23.233  1.00  0.00    -0.011 A 
ATOM     20  C   UNL A   1      30.060  29.768  23.753  1.00  0.00     0.007 A 
ATOM     21  C   UNL A   1      28.059  28.748  22.865  1.00  0.00     0.007 A 
ATOM     22  C   UNL A   1      29.387  30.986  23.860  1.00  0.00     0.000 A 
ATOM     23  C   UNL A   1      27.394  29.970  22.954  1.00  0.00     0.000 A 
ATOM     24  C   UNL A   1      28.059  31.090  23.448  1.00  0.00     0.000 A 
ENDBRANCH  18  19
ENDBRANCH  17  18
ENDBRANCH  16  17
ENDBRANCH   4   7
ENDBRANCH   2   3
ENDBRANCH   1   2
BRANCH   1  25
ATOM     25  C   UNL A   1      37.875  19.954  25.022  1.00  0.00     0.023 C 
BRANCH  25  26
ATOM     26  C   UNL A   1      39.202  20.314  25.683  1.00  0.00     0.116 C 
BRANCH  26  27
ATOM     27  N   UNL A   1      40.136  19.203  25.790  1.00  0.00    -0.352 N 
ATOM     28  C   UNL A   1      41.476  19.185  26.116  1.00  0.00     0.251 C 
ATOM     29  H   UNL A   1      39.747  18.318  25.598  1.00  0.00     0.163 HD
ATOM     30  O   UNL A   1      42.099  18.133  26.081  1.00  0.00    -0.269 OA
BRANCH  28  31
ATOM     31  C   UNL A   1      42.176  20.443  26.459  1.00  0.00     0.039 A 
ATOM     32  C   UNL A   1      42.753  21.193  25.428  1.00  0.00     0.014 A 
ATOM     33  C   UNL A   1      42.245  20.901  27.776  1.00  0.00     0.014 A 
ATOM     34  C   UNL A   1      43.297  22.450  25.705  1.00  0.00     0.010 A 
ATOM     35  C   UNL A   1      42.705  22.189  28.035  1.00  0.00     0.010 A 
ATOM     36  C   UNL A   1      43.224  22.984  27.001  1.00  0.00    -0.014 A 
BRANCH  36  37
ATOM     37  C   UNL A   1      43.660  24.376  27.294  1.00  0.00     0.031 A 
ATOM     38  C   UNL A   1      42.669  25.391  27.797  1.00  0.00     0.074 A 
ATOM     39  C   UNL A   1      44.927  24.752  27.027  1.00  0.00     0.049 A 
ATOM     40  N   UNL A   1      42.831  26.673  28.013  1.00  0.00    -0.248 NA
ATOM     41  C   UNL A   1      41.305  24.908  28.064  1.00  0.00     0.031 C 
ATOM     42  C   UNL A   1      45.972  23.882  26.483  1.00  0.00     0.029 A 
ATOM     43  N   UNL A   1      45.550  25.969  27.160  1.00  0.00    -0.354 N 
ATOM     44  C   UNL A   1      41.590  27.149  28.415  1.00  0.00     0.074 A 
ATOM     45  C   UNL A   1      40.672  26.032  28.366  1.00  0.00     0.031 C 
ATOM     46  C   UNL A   1      47.109  24.585  26.353  1.00  0.00     0.029 A 
ATOM     47  C   UNL A   1      46.865  25.964  26.762  1.00  0.00     0.049 A 
ATOM     48  H   UNL A   1      45.096  26.770  27.508  1.00  0.00     0.167 HD
ATOM     49  C   UNL A   1      41.252  28.398  28.812  1.00  0.00     0.037 A 
ATOM     50  C   UNL A   1      47.770  26.961  26.722  1.00  0.00     0.037 A 
ATOM     51  C   UNL A   1      42.174  29.500  28.898  1.00  0.00     0.049 A 
ATOM     52  C   UNL A   1      47.368  28.338  27.176  1.00  0.00     0.074 A 
ATOM     53  C   UNL A   1      41.943  30.784  29.359  1.00  0.00     0.029 A 
ATOM     54  N   UNL A   1      43.506  29.446  28.517  1.00  0.00    -0.354 N 
ATOM     55  N   UNL A   1      46.210  28.757  27.626  1.00  0.00    -0.248 NA
ATOM     56  C   UNL A   1      48.402  29.383  27.124  1.00  0.00     0.031 C 
ATOM     57  C   UNL A   1      43.122  31.520  29.216  1.00  0.00     0.029 A 
ATOM     58  C   UNL A   1      44.104  30.681  28.713  1.00  0.00     0.049 A 
ATOM     59  H   UNL A   1      43.960  28.649  28.159  1.00  0.00     0.167 HD
ATOM     60  C   UNL A   1      46.385  30.098  27.941  1.00  0.00     0.074 A 
ATOM     61  C   UNL A   1      47.764  30.421  27.644  1.00  0.00     0.031 C 
ATOM     62  C   UNL A   1      45.483  30.982  28.430  1.00  0.00     0.037 A 
BRANCH  49  63
ATOM     63  C   UNL A   1      39.822  28.645  29.197  1.00  0.00     0.064 A 
ATOM     64  C   UNL A   1      39.368  28.435  30.509  1.00  0.00     0.173 A 
ATOM     65  C   UNL A   1      38.908  29.148  28.259  1.00  0.00     0.173 A 
ATOM     66  F   UNL A   1      40.199  27.944  31.440  1.00  0.00    -0.203 F 
ATOM     67  C   UNL A   1      38.046  28.695  30.859  1.00  0.00     0.198 A 
ATOM     68  C   UNL A   1      37.595  29.437  28.622  1.00  0.00     0.198 A 
ATOM     69  F   UNL A   1      39.291  29.373  26.994  1.00  0.00    -0.203 F 
ATOM     70  F   UNL A   1      37.625  28.445  32.107  1.00  0.00    -0.200 F 
ATOM     71  C   UNL A   1      37.163  29.204  29.919  1.00  0.00     0.200 A 
ATOM     72  F   UNL A   1      36.746  29.942  27.715  1.00  0.00    -0.200 F 
ATOM     73  F   UNL A   1      35.896  29.467  30.262  1.00  0.00    -0.200 F 
ENDBRANCH  49  63
BRANCH  50  74
ATOM     74  C   UNL A   1      49.158  26.697  26.253  1.00  0.00     0.064 A 
ATOM     75  C   UNL A   1      49.525  26.943  24.923  1.00  0.00     0.173 A 
ATOM     76  C   UNL A   1      50.135  26.172  27.112  1.00  0.00     0.173 A 
ATOM     77  F   UNL A   1      48.619  27.424  24.057  1.00  0.00    -0.203 F 
ATOM     78  C   UNL A   1      50.805  26.646  24.461  1.00  0.00     0.198 A 
ATOM     79  C   UNL A   1      51.424  25.905  26.657  1.00  0.00     0.198 A 
ATOM     80  F   UNL A   1      49.837  25.923  28.395  1.00  0.00    -0.203 F 
ATOM     81  F   UNL A   1      51.111  26.839  23.171  1.00  0.00    -0.200 F 
ATOM     82  C   UNL A   1      51.756  26.132  25.329  1.00  0.00     0.200 A 
ATOM     83  F   UNL A   1      52.344  25.420  27.502  1.00  0.00    -0.200 F 
ATOM     84  F   UNL A   1      52.986  25.845  24.885  1.00  0.00    -0.200 F 
ENDBRANCH  50  74
BRANCH  62  85
ATOM     85  C   UNL A   1      45.966  32.373  28.720  1.00  0.00     0.064 A 
ATOM     86  C   UNL A   1      46.531  32.715  29.957  1.00  0.00     0.173 A 
ATOM     87  C   UNL A   1      45.900  33.366  27.729  1.00  0.00     0.173 A 
ATOM     88  F   UNL A   1      46.602  31.806  30.940  1.00  0.00    -0.203 F 
ATOM     89  C   UNL A   1      46.990  34.007  30.200  1.00  0.00     0.198 A 
ATOM     90  C   UNL A   1      46.389  34.647  27.966  1.00  0.00     0.198 A 
ATOM     91  F   UNL A   1      45.375  33.088  26.527  1.00  0.00    -0.203 F 
ATOM     92  F   UNL A   1      47.485  34.324  31.405  1.00  0.00    -0.200 F 
ATOM     93  C   UNL A   1      46.927  34.968  29.203  1.00  0.00     0.200 A 
ATOM     94  F   UNL A   1      46.339  35.572  26.997  1.00  0.00    -0.200 F 
ATOM     95  F   UNL A   1      47.378  36.209  29.436  1.00  0.00    -0.200 F 
ENDBRANCH  62  85
ENDBRANCH  36  37
ENDBRANCH  28  31
ENDBRANCH  26  27
ENDBRANCH  25  26
ENDBRANCH   1  25
TORSDOF 14
ENDMDL
