MODEL 1
REMARK VINA RESULT:     -11.1      0.000      0.000
REMARK SMILES NNS(=O)(=O)c1ccc(O)c(C(=O)NCCCCNC(=O)c2ccc(-c3c4nc(c(-c5c(F)c(F)c(F)c(F)c5F)c5ccc([nH]5)c(-c5c(F)c(F)c(F)c(F)c5F)c5nc(c(-c6c(F)c(F)c(F)c(F)c6F)c6ccc3[nH]6)C=C5)C=C4)cc2)c1
REMARK SMILES IDX 16 1 15 2 14 3 12 4 13 5 11 7 6 8 7 9 85 10 8 11 9 12 3 13
REMARK SMILES IDX 4 14 5 15 2 16 1 18 10 21 17 23 18 24 19 25 20 26 21 28
REMARK SMILES IDX 22 29 23 30 84 31 24 32 83 33 25 34 26 35 27 36 77 37 28 38
REMARK SMILES IDX 82 39 76 40 78 41 29 42 81 43 75 44 74 45 30 47 62 48 42 49
REMARK SMILES IDX 61 50 43 51 46 52 60 53 79 54 44 55 45 56 59 58 80 59 47 60
REMARK SMILES IDX 31 61 32 62 40 63 33 64 34 65 38 66 41 67 35 68 36 69 39 70
REMARK SMILES IDX 37 71 63 72 64 73 72 74 65 75 66 76 70 77 73 78 67 79 68 80
REMARK SMILES IDX 71 81 69 82 48 83 49 84 57 85 50 86 51 87 55 88 58 89 52 90
REMARK SMILES IDX 53 91 56 92 54 93
REMARK H PARENT 14 6 2 17 1 19 1 20 10 22 19 27 78 46 46 57
REMARK Flexibility Score: inf
ROOT
ATOM      1  C   UNL A   1      31.408  30.746  26.403  1.00  0.00     0.023 C 
ENDROOT
BRANCH   1   2
ATOM      2  C   UNL A   1      32.791  30.102  26.550  1.00  0.00     0.116 C 
BRANCH   2   3
ATOM      3  N   UNL A   1      33.365  29.863  25.249  1.00  0.00    -0.352 N 
ATOM      4  C   UNL A   1      32.895  29.229  24.130  1.00  0.00     0.255 C 
ATOM      5  O   UNL A   1      33.710  29.134  23.206  1.00  0.00    -0.269 OA
ATOM      6  H   UNL A   1      34.274  30.227  25.145  1.00  0.00     0.163 HD
BRANCH   4   7
ATOM      7  C   UNL A   1      31.499  28.721  23.904  1.00  0.00     0.082 A 
ATOM      8  C   UNL A   1      29.290  29.386  23.075  1.00  0.00     0.084 A 
ATOM      9  C   UNL A   1      28.788  28.110  23.313  1.00  0.00     0.025 A 
ATOM     10  C   UNL A   1      30.622  29.695  23.373  1.00  0.00     0.039 A 
ATOM     11  C   UNL A   1      29.632  27.137  23.829  1.00  0.00     0.048 A 
ATOM     12  C   UNL A   1      30.980  27.429  24.089  1.00  0.00     0.128 A 
BRANCH   8  13
ATOM     13  S   UNL A   1      28.250  30.577  22.266  1.00  0.00     0.253 S 
ATOM     14  O   UNL A   1      27.134  30.871  23.143  1.00  0.00    -0.206 OA
ATOM     15  O   UNL A   1      28.032  30.139  20.907  1.00  0.00    -0.206 OA
BRANCH  13  16
ATOM     16  N   UNL A   1      29.280  31.971  22.173  1.00  0.00    -0.150 NA
ATOM     17  H   UNL A   1      30.028  31.875  22.860  1.00  0.00     0.160 HD
BRANCH  16  18
ATOM     18  N   UNL A   1      28.574  33.169  22.432  1.00  0.00    -0.257 NA
ATOM     19  H   UNL A   1      28.320  33.612  21.549  1.00  0.00     0.138 HD
ATOM     20  H   UNL A   1      29.163  33.802  22.972  1.00  0.00     0.138 HD
ENDBRANCH  16  18
ENDBRANCH  13  16
ENDBRANCH   8  13
BRANCH  12  21
ATOM     21  O   UNL A   1      31.747  26.364  24.457  1.00  0.00    -0.507 OA
ATOM     22  H   UNL A   1      32.667  26.475  24.595  1.00  0.00     0.293 HD
ENDBRANCH  12  21
ENDBRANCH   4   7
ENDBRANCH   2   3
ENDBRANCH   1   2
BRANCH   1  23
ATOM     23  C   UNL A   1      31.411  32.272  26.473  1.00  0.00     0.023 C 
BRANCH  23  24
ATOM     24  C   UNL A   1      32.588  32.856  27.238  1.00  0.00     0.116 C 
BRANCH  24  25
ATOM     25  N   UNL A   1      32.356  34.216  27.700  1.00  0.00    -0.352 N 
ATOM     26  C   UNL A   1      33.036  34.917  28.663  1.00  0.00     0.251 C 
ATOM     27  H   UNL A   1      31.614  34.695  27.265  1.00  0.00     0.163 HD
ATOM     28  O   UNL A   1      32.645  36.022  29.024  1.00  0.00    -0.269 OA
BRANCH  26  29
ATOM     29  C   UNL A   1      34.224  34.307  29.290  1.00  0.00     0.039 A 
ATOM     30  C   UNL A   1      34.043  33.431  30.360  1.00  0.00     0.014 A 
ATOM     31  C   UNL A   1      35.507  34.580  28.807  1.00  0.00     0.014 A 
ATOM     32  C   UNL A   1      35.150  32.797  30.922  1.00  0.00     0.010 A 
ATOM     33  C   UNL A   1      36.596  33.875  29.303  1.00  0.00     0.010 A 
ATOM     34  C   UNL A   1      36.433  32.995  30.382  1.00  0.00    -0.014 A 
BRANCH  34  35
ATOM     35  C   UNL A   1      37.614  32.317  30.969  1.00  0.00     0.031 A 
ATOM     36  C   UNL A   1      38.085  32.685  32.348  1.00  0.00     0.074 A 
ATOM     37  C   UNL A   1      38.271  31.388  30.250  1.00  0.00     0.049 A 
ATOM     38  N   UNL A   1      39.080  32.192  33.042  1.00  0.00    -0.248 NA
ATOM     39  C   UNL A   1      37.361  33.769  33.032  1.00  0.00     0.031 C 
ATOM     40  C   UNL A   1      37.946  30.992  28.879  1.00  0.00     0.029 A 
ATOM     41  N   UNL A   1      39.347  30.602  30.576  1.00  0.00    -0.354 N 
ATOM     42  C   UNL A   1      39.103  32.909  34.232  1.00  0.00     0.074 A 
ATOM     43  C   UNL A   1      38.073  33.919  34.138  1.00  0.00     0.031 C 
ATOM     44  C   UNL A   1      38.776  30.008  28.498  1.00  0.00     0.029 A 
ATOM     45  C   UNL A   1      39.713  29.729  29.581  1.00  0.00     0.049 A 
ATOM     46  H   UNL A   1      39.813  30.658  31.443  1.00  0.00     0.167 HD
ATOM     47  C   UNL A   1      39.887  32.720  35.319  1.00  0.00     0.037 A 
ATOM     48  C   UNL A   1      40.692  28.806  29.553  1.00  0.00     0.037 A 
ATOM     49  C   UNL A   1      40.900  31.702  35.412  1.00  0.00     0.049 A 
ATOM     50  C   UNL A   1      41.551  28.617  30.774  1.00  0.00     0.074 A 
ATOM     51  C   UNL A   1      41.717  31.391  36.484  1.00  0.00     0.029 A 
ATOM     52  N   UNL A   1      41.239  30.832  34.386  1.00  0.00    -0.354 N 
ATOM     53  N   UNL A   1      41.509  29.244  31.925  1.00  0.00    -0.248 NA
ATOM     54  C   UNL A   1      42.584  27.577  30.695  1.00  0.00     0.031 C 
ATOM     55  C   UNL A   1      42.589  30.372  36.088  1.00  0.00     0.029 A 
ATOM     56  C   UNL A   1      42.270  29.999  34.792  1.00  0.00     0.049 A 
ATOM     57  H   UNL A   1      40.811  30.808  33.500  1.00  0.00     0.167 HD
ATOM     58  C   UNL A   1      42.486  28.656  32.717  1.00  0.00     0.074 A 
ATOM     59  C   UNL A   1      43.084  27.604  31.921  1.00  0.00     0.031 C 
ATOM     60  C   UNL A   1      42.857  28.957  33.987  1.00  0.00     0.037 A 
BRANCH  47  61
ATOM     61  C   UNL A   1      39.676  33.634  36.494  1.00  0.00     0.064 A 
ATOM     62  C   UNL A   1      40.300  34.890  36.574  1.00  0.00     0.173 A 
ATOM     63  C   UNL A   1      38.823  33.261  37.543  1.00  0.00     0.173 A 
ATOM     64  F   UNL A   1      41.138  35.291  35.606  1.00  0.00    -0.203 F 
ATOM     65  C   UNL A   1      40.105  35.720  37.675  1.00  0.00     0.198 A 
ATOM     66  C   UNL A   1      38.601  34.109  38.624  1.00  0.00     0.198 A 
ATOM     67  F   UNL A   1      38.198  32.073  37.518  1.00  0.00    -0.203 F 
ATOM     68  F   UNL A   1      40.758  36.887  37.757  1.00  0.00    -0.200 F 
ATOM     69  C   UNL A   1      39.249  35.334  38.694  1.00  0.00     0.200 A 
ATOM     70  F   UNL A   1      37.762  33.740  39.603  1.00  0.00    -0.200 F 
ATOM     71  F   UNL A   1      39.056  36.136  39.750  1.00  0.00    -0.200 F 
ENDBRANCH  47  61
BRANCH  48  72
ATOM     72  C   UNL A   1      40.890  27.966  28.341  1.00  0.00     0.064 A 
ATOM     73  C   UNL A   1      40.280  26.708  28.226  1.00  0.00     0.173 A 
ATOM     74  C   UNL A   1      41.704  28.393  27.283  1.00  0.00     0.173 A 
ATOM     75  F   UNL A   1      39.506  26.246  29.218  1.00  0.00    -0.203 F 
ATOM     76  C   UNL A   1      40.503  25.898  27.114  1.00  0.00     0.198 A 
ATOM     77  C   UNL A   1      41.899  27.598  26.156  1.00  0.00     0.198 A 
ATOM     78  F   UNL A   1      42.305  29.591  27.338  1.00  0.00    -0.203 F 
ATOM     79  F   UNL A   1      39.955  24.677  27.058  1.00  0.00    -0.200 F 
ATOM     80  C   UNL A   1      41.308  26.346  26.078  1.00  0.00     0.200 A 
ATOM     81  F   UNL A   1      42.663  28.041  25.148  1.00  0.00    -0.200 F 
ATOM     82  F   UNL A   1      41.521  25.566  25.009  1.00  0.00    -0.200 F 
ENDBRANCH  48  72
BRANCH  60  83
ATOM     83  C   UNL A   1      43.935  28.110  34.602  1.00  0.00     0.064 A 
ATOM     84  C   UNL A   1      43.646  26.905  35.261  1.00  0.00     0.173 A 
ATOM     85  C   UNL A   1      45.280  28.510  34.529  1.00  0.00     0.173 A 
ATOM     86  F   UNL A   1      42.378  26.482  35.370  1.00  0.00    -0.203 F 
ATOM     87  C   UNL A   1      44.654  26.160  35.867  1.00  0.00     0.198 A 
ATOM     88  C   UNL A   1      46.290  27.742  35.100  1.00  0.00     0.198 A 
ATOM     89  F   UNL A   1      45.615  29.646  33.900  1.00  0.00    -0.203 F 
ATOM     90  F   UNL A   1      44.345  25.055  36.558  1.00  0.00    -0.200 F 
ATOM     91  C   UNL A   1      45.975  26.576  35.782  1.00  0.00     0.200 A 
ATOM     92  F   UNL A   1      47.566  28.134  34.999  1.00  0.00    -0.200 F 
ATOM     93  F   UNL A   1      46.944  25.859  36.369  1.00  0.00    -0.200 F 
ENDBRANCH  60  83
ENDBRANCH  34  35
ENDBRANCH  26  29
ENDBRANCH  24  25
ENDBRANCH  23  24
ENDBRANCH   1  23
TORSDOF 15
ENDMDL
MODEL 2
REMARK VINA RESULT:     -11.1      6.386     11.882
REMARK SMILES NNS(=O)(=O)c1ccc(O)c(C(=O)NCCCCNC(=O)c2ccc(-c3c4nc(c(-c5c(F)c(F)c(F)c(F)c5F)c5ccc([nH]5)c(-c5c(F)c(F)c(F)c(F)c5F)c5nc(c(-c6c(F)c(F)c(F)c(F)c6F)c6ccc3[nH]6)C=C5)C=C4)cc2)c1
REMARK SMILES IDX 16 1 15 2 14 3 12 4 13 5 11 7 6 8 7 9 85 10 8 11 9 12 3 13
REMARK SMILES IDX 4 14 5 15 2 16 1 18 10 21 17 23 18 24 19 25 20 26 21 28
REMARK SMILES IDX 22 29 23 30 84 31 24 32 83 33 25 34 26 35 27 36 77 37 28 38
REMARK SMILES IDX 82 39 76 40 78 41 29 42 81 43 75 44 74 45 30 47 62 48 42 49
REMARK SMILES IDX 61 50 43 51 46 52 60 53 79 54 44 55 45 56 59 58 80 59 47 60
REMARK SMILES IDX 31 61 32 62 40 63 33 64 34 65 38 66 41 67 35 68 36 69 39 70
REMARK SMILES IDX 37 71 63 72 64 73 72 74 65 75 66 76 70 77 73 78 67 79 68 80
REMARK SMILES IDX 71 81 69 82 48 83 49 84 57 85 50 86 51 87 55 88 58 89 52 90
REMARK SMILES IDX 53 91 56 92 54 93
REMARK H PARENT 14 6 2 17 1 19 1 20 10 22 19 27 78 46 46 57
REMARK Flexibility Score: inf
ROOT
ATOM      1  C   UNL A   1      42.544  23.065  28.127  1.00  0.00     0.023 C 
ENDROOT
BRANCH   1   2
ATOM      2  C   UNL A   1      43.729  22.608  28.984  1.00  0.00     0.116 C 
BRANCH   2   3
ATOM      3  N   UNL A   1      44.902  23.379  28.655  1.00  0.00    -0.352 N 
ATOM      4  C   UNL A   1      45.639  23.504  27.508  1.00  0.00     0.255 C 
ATOM      5  O   UNL A   1      46.654  24.201  27.615  1.00  0.00    -0.269 OA
ATOM      6  H   UNL A   1      45.241  23.923  29.403  1.00  0.00     0.163 HD
BRANCH   4   7
ATOM      7  C   UNL A   1      45.294  22.951  26.155  1.00  0.00     0.082 A 
ATOM      8  C   UNL A   1      45.380  20.911  24.799  1.00  0.00     0.084 A 
ATOM      9  C   UNL A   1      44.760  21.560  23.735  1.00  0.00     0.025 A 
ATOM     10  C   UNL A   1      45.653  21.593  25.989  1.00  0.00     0.039 A 
ATOM     11  C   UNL A   1      44.394  22.891  23.876  1.00  0.00     0.048 A 
ATOM     12  C   UNL A   1      44.626  23.569  25.083  1.00  0.00     0.128 A 
BRANCH   8  13
ATOM     13  S   UNL A   1      45.698  19.168  24.669  1.00  0.00     0.253 S 
ATOM     14  O   UNL A   1      46.766  18.834  25.590  1.00  0.00    -0.206 OA
ATOM     15  O   UNL A   1      45.791  18.828  23.268  1.00  0.00    -0.206 OA
BRANCH  13  16
ATOM     16  N   UNL A   1      44.215  18.474  25.246  1.00  0.00    -0.150 NA
ATOM     17  H   UNL A   1      43.519  19.213  25.337  1.00  0.00     0.160 HD
BRANCH  16  18
ATOM     18  N   UNL A   1      44.380  17.842  26.501  1.00  0.00    -0.257 NA
ATOM     19  H   UNL A   1      45.268  18.130  26.913  1.00  0.00     0.138 HD
ATOM     20  H   UNL A   1      44.376  16.830  26.375  1.00  0.00     0.138 HD
ENDBRANCH  16  18
ENDBRANCH  13  16
ENDBRANCH   8  13
BRANCH  12  21
ATOM     21  O   UNL A   1      44.099  24.823  25.159  1.00  0.00    -0.507 OA
ATOM     22  H   UNL A   1      43.202  24.940  25.401  1.00  0.00     0.293 HD
ENDBRANCH  12  21
ENDBRANCH   4   7
ENDBRANCH   2   3
ENDBRANCH   1   2
BRANCH   1  23
ATOM     23  C   UNL A   1      41.666  21.929  27.606  1.00  0.00     0.023 C 
BRANCH  23  24
ATOM     24  C   UNL A   1      41.332  22.030  26.126  1.00  0.00     0.116 C 
BRANCH  24  25
ATOM     25  N   UNL A   1      39.906  21.943  25.850  1.00  0.00    -0.352 N 
ATOM     26  C   UNL A   1      38.927  22.862  26.125  1.00  0.00     0.251 C 
ATOM     27  H   UNL A   1      39.606  21.116  25.408  1.00  0.00     0.163 HD
ATOM     28  O   UNL A   1      37.746  22.592  25.934  1.00  0.00    -0.269 OA
BRANCH  26  29
ATOM     29  C   UNL A   1      39.308  24.170  26.693  1.00  0.00     0.039 A 
ATOM     30  C   UNL A   1      39.019  24.428  28.033  1.00  0.00     0.014 A 
ATOM     31  C   UNL A   1      39.969  25.122  25.914  1.00  0.00     0.014 A 
ATOM     32  C   UNL A   1      39.430  25.633  28.602  1.00  0.00     0.010 A 
ATOM     33  C   UNL A   1      40.463  26.278  26.506  1.00  0.00     0.010 A 
ATOM     34  C   UNL A   1      40.176  26.557  27.850  1.00  0.00    -0.014 A 
BRANCH  34  35
ATOM     35  C   UNL A   1      40.624  27.836  28.451  1.00  0.00     0.031 A 
ATOM     36  C   UNL A   1      42.081  28.057  28.751  1.00  0.00     0.074 A 
ATOM     37  C   UNL A   1      39.716  28.786  28.745  1.00  0.00     0.049 A 
ATOM     38  N   UNL A   1      42.672  29.112  29.254  1.00  0.00    -0.248 NA
ATOM     39  C   UNL A   1      42.995  26.936  28.477  1.00  0.00     0.031 C 
ATOM     40  C   UNL A   1      38.270  28.662  28.558  1.00  0.00     0.029 A 
ATOM     41  N   UNL A   1      39.878  30.048  29.258  1.00  0.00    -0.354 N 
ATOM     42  C   UNL A   1      44.016  28.777  29.360  1.00  0.00     0.074 A 
ATOM     43  C   UNL A   1      44.144  27.400  28.942  1.00  0.00     0.031 C 
ATOM     44  C   UNL A   1      37.682  29.816  28.910  1.00  0.00     0.029 A 
ATOM     45  C   UNL A   1      38.702  30.747  29.380  1.00  0.00     0.049 A 
ATOM     46  H   UNL A   1      40.754  30.418  29.515  1.00  0.00     0.167 HD
ATOM     47  C   UNL A   1      45.055  29.559  29.738  1.00  0.00     0.037 A 
ATOM     48  C   UNL A   1      38.478  32.000  29.818  1.00  0.00     0.037 A 
ATOM     49  C   UNL A   1      44.922  30.934  30.139  1.00  0.00     0.049 A 
ATOM     50  C   UNL A   1      39.651  32.846  30.234  1.00  0.00     0.074 A 
ATOM     51  C   UNL A   1      45.914  31.831  30.493  1.00  0.00     0.029 A 
ATOM     52  N   UNL A   1      43.716  31.611  30.244  1.00  0.00    -0.354 N 
ATOM     53  N   UNL A   1      40.928  32.547  30.251  1.00  0.00    -0.248 NA
ATOM     54  C   UNL A   1      39.349  34.213  30.677  1.00  0.00     0.031 C 
ATOM     55  C   UNL A   1      45.304  33.032  30.868  1.00  0.00     0.029 A 
ATOM     56  C   UNL A   1      43.937  32.908  30.682  1.00  0.00     0.049 A 
ATOM     57  H   UNL A   1      42.832  31.229  30.039  1.00  0.00     0.167 HD
ATOM     58  C   UNL A   1      41.584  33.695  30.675  1.00  0.00     0.074 A 
ATOM     59  C   UNL A   1      40.563  34.703  30.878  1.00  0.00     0.031 C 
ATOM     60  C   UNL A   1      42.909  33.900  30.881  1.00  0.00     0.037 A 
BRANCH  47  61
ATOM     61  C   UNL A   1      46.425  28.940  29.734  1.00  0.00     0.064 A 
ATOM     62  C   UNL A   1      46.955  28.311  30.873  1.00  0.00     0.173 A 
ATOM     63  C   UNL A   1      47.210  28.955  28.572  1.00  0.00     0.173 A 
ATOM     64  F   UNL A   1      46.254  28.280  32.016  1.00  0.00    -0.203 F 
ATOM     65  C   UNL A   1      48.231  27.754  30.857  1.00  0.00     0.198 A 
ATOM     66  C   UNL A   1      48.471  28.364  28.549  1.00  0.00     0.198 A 
ATOM     67  F   UNL A   1      46.754  29.539  27.454  1.00  0.00    -0.203 F 
ATOM     68  F   UNL A   1      48.738  27.213  31.974  1.00  0.00    -0.200 F 
ATOM     69  C   UNL A   1      48.984  27.772  29.694  1.00  0.00     0.200 A 
ATOM     70  F   UNL A   1      49.192  28.370  27.419  1.00  0.00    -0.200 F 
ATOM     71  F   UNL A   1      50.209  27.229  29.678  1.00  0.00    -0.200 F 
ENDBRANCH  47  61
BRANCH  48  72
ATOM     72  C   UNL A   1      37.093  32.541  29.852  1.00  0.00     0.064 A 
ATOM     73  C   UNL A   1      36.568  33.252  28.763  1.00  0.00     0.173 A 
ATOM     74  C   UNL A   1      36.273  32.376  30.977  1.00  0.00     0.173 A 
ATOM     75  F   UNL A   1      37.319  33.454  27.670  1.00  0.00    -0.203 F 
ATOM     76  C   UNL A   1      35.290  33.804  28.811  1.00  0.00     0.198 A 
ATOM     77  C   UNL A   1      34.982  32.898  31.010  1.00  0.00     0.198 A 
ATOM     78  F   UNL A   1      36.722  31.698  32.043  1.00  0.00    -0.203 F 
ATOM     79  F   UNL A   1      34.836  34.528  27.778  1.00  0.00    -0.200 F 
ATOM     80  C   UNL A   1      34.495  33.621  29.932  1.00  0.00     0.200 A 
ATOM     81  F   UNL A   1      34.210  32.704  32.089  1.00  0.00    -0.200 F 
ATOM     82  F   UNL A   1      33.265  34.151  29.977  1.00  0.00    -0.200 F 
ENDBRANCH  48  72
BRANCH  60  83
ATOM     83  C   UNL A   1      43.329  35.277  31.311  1.00  0.00     0.064 A 
ATOM     84  C   UNL A   1      43.723  36.255  30.384  1.00  0.00     0.173 A 
ATOM     85  C   UNL A   1      43.335  35.625  32.671  1.00  0.00     0.173 A 
ATOM     86  F   UNL A   1      43.747  35.973  29.073  1.00  0.00    -0.203 F 
ATOM     87  C   UNL A   1      44.156  37.509  30.807  1.00  0.00     0.198 A 
ATOM     88  C   UNL A   1      43.729  36.893  33.087  1.00  0.00     0.198 A 
ATOM     89  F   UNL A   1      42.956  34.733  33.599  1.00  0.00    -0.203 F 
ATOM     90  F   UNL A   1      44.601  38.399  29.910  1.00  0.00    -0.200 F 
ATOM     91  C   UNL A   1      44.153  37.828  32.157  1.00  0.00     0.200 A 
ATOM     92  F   UNL A   1      43.706  37.206  34.389  1.00  0.00    -0.200 F 
ATOM     93  F   UNL A   1      44.573  39.035  32.562  1.00  0.00    -0.200 F 
ENDBRANCH  60  83
ENDBRANCH  34  35
ENDBRANCH  26  29
ENDBRANCH  24  25
ENDBRANCH  23  24
ENDBRANCH   1  23
TORSDOF 15
ENDMDL
MODEL 3
REMARK VINA RESULT:     -11.1      6.289     11.697
REMARK SMILES NNS(=O)(=O)c1ccc(O)c(C(=O)NCCCCNC(=O)c2ccc(-c3c4nc(c(-c5c(F)c(F)c(F)c(F)c5F)c5ccc([nH]5)c(-c5c(F)c(F)c(F)c(F)c5F)c5nc(c(-c6c(F)c(F)c(F)c(F)c6F)c6ccc3[nH]6)C=C5)C=C4)cc2)c1
REMARK SMILES IDX 16 1 15 2 14 3 12 4 13 5 11 7 6 8 7 9 85 10 8 11 9 12 3 13
REMARK SMILES IDX 4 14 5 15 2 16 1 18 10 21 17 23 18 24 19 25 20 26 21 28
REMARK SMILES IDX 22 29 23 30 84 31 24 32 83 33 25 34 26 35 27 36 77 37 28 38
REMARK SMILES IDX 82 39 76 40 78 41 29 42 81 43 75 44 74 45 30 47 62 48 42 49
REMARK SMILES IDX 61 50 43 51 46 52 60 53 79 54 44 55 45 56 59 58 80 59 47 60
REMARK SMILES IDX 31 61 32 62 40 63 33 64 34 65 38 66 41 67 35 68 36 69 39 70
REMARK SMILES IDX 37 71 63 72 64 73 72 74 65 75 66 76 70 77 73 78 67 79 68 80
REMARK SMILES IDX 71 81 69 82 48 83 49 84 57 85 50 86 51 87 55 88 58 89 52 90
REMARK SMILES IDX 53 91 56 92 54 93
REMARK H PARENT 14 6 2 17 1 19 1 20 10 22 19 27 78 46 46 57
REMARK Flexibility Score: inf
ROOT
ATOM      1  C   UNL A   1      42.330  22.952  28.287  1.00  0.00     0.023 C 
ENDROOT
BRANCH   1   2
ATOM      2  C   UNL A   1      43.588  22.587  29.083  1.00  0.00     0.116 C 
BRANCH   2   3
ATOM      3  N   UNL A   1      44.664  23.486  28.745  1.00  0.00    -0.352 N 
ATOM      4  C   UNL A   1      45.380  23.684  27.595  1.00  0.00     0.255 C 
ATOM      5  O   UNL A   1      46.308  24.494  27.694  1.00  0.00    -0.269 OA
ATOM      6  H   UNL A   1      44.938  24.072  29.487  1.00  0.00     0.163 HD
BRANCH   4   7
ATOM      7  C   UNL A   1      45.101  23.082  26.248  1.00  0.00     0.082 A 
ATOM      8  C   UNL A   1      45.363  21.029  24.934  1.00  0.00     0.084 A 
ATOM      9  C   UNL A   1      44.715  21.610  23.848  1.00  0.00     0.025 A 
ATOM     10  C   UNL A   1      45.564  21.752  26.115  1.00  0.00     0.039 A 
ATOM     11  C   UNL A   1      44.248  22.912  23.957  1.00  0.00     0.048 A 
ATOM     12  C   UNL A   1      44.407  23.628  25.154  1.00  0.00     0.128 A 
BRANCH   8  13
ATOM     13  S   UNL A   1      45.813  19.314  24.843  1.00  0.00     0.253 S 
ATOM     14  O   UNL A   1      47.153  19.170  25.378  1.00  0.00    -0.206 OA
ATOM     15  O   UNL A   1      45.484  18.828  23.523  1.00  0.00    -0.206 OA
BRANCH  13  16
ATOM     16  N   UNL A   1      44.685  18.573  25.935  1.00  0.00    -0.150 NA
ATOM     17  H   UNL A   1      45.026  17.644  26.182  1.00  0.00     0.160 HD
BRANCH  16  18
ATOM     18  N   UNL A   1      43.397  18.450  25.362  1.00  0.00    -0.257 NA
ATOM     19  H   UNL A   1      43.289  19.137  24.616  1.00  0.00     0.138 HD
ATOM     20  H   UNL A   1      42.690  18.613  26.078  1.00  0.00     0.138 HD
ENDBRANCH  16  18
ENDBRANCH  13  16
ENDBRANCH   8  13
BRANCH  12  21
ATOM     21  O   UNL A   1      43.786  24.840  25.197  1.00  0.00    -0.507 OA
ATOM     22  H   UNL A   1      43.488  25.241  24.405  1.00  0.00     0.293 HD
ENDBRANCH  12  21
ENDBRANCH   4   7
ENDBRANCH   2   3
ENDBRANCH   1   2
BRANCH   1  23
ATOM     23  C   UNL A   1      41.640  21.764  27.618  1.00  0.00     0.023 C 
BRANCH  23  24
ATOM     24  C   UNL A   1      41.320  21.979  26.147  1.00  0.00     0.116 C 
BRANCH  24  25
ATOM     25  N   UNL A   1      39.899  21.892  25.849  1.00  0.00    -0.352 N 
ATOM     26  C   UNL A   1      38.913  22.806  26.120  1.00  0.00     0.251 C 
ATOM     27  H   UNL A   1      39.607  21.070  25.392  1.00  0.00     0.163 HD
ATOM     28  O   UNL A   1      37.736  22.535  25.907  1.00  0.00    -0.269 OA
BRANCH  26  29
ATOM     29  C   UNL A   1      39.282  24.107  26.709  1.00  0.00     0.039 A 
ATOM     30  C   UNL A   1      38.958  24.355  28.043  1.00  0.00     0.014 A 
ATOM     31  C   UNL A   1      39.968  25.064  25.957  1.00  0.00     0.014 A 
ATOM     32  C   UNL A   1      39.357  25.553  28.633  1.00  0.00     0.010 A 
ATOM     33  C   UNL A   1      40.449  26.213  26.572  1.00  0.00     0.010 A 
ATOM     34  C   UNL A   1      40.126  26.481  27.909  1.00  0.00    -0.014 A 
BRANCH  34  35
ATOM     35  C   UNL A   1      40.562  27.754  28.534  1.00  0.00     0.031 A 
ATOM     36  C   UNL A   1      42.007  27.961  28.891  1.00  0.00     0.074 A 
ATOM     37  C   UNL A   1      39.651  28.711  28.796  1.00  0.00     0.049 A 
ATOM     38  N   UNL A   1      42.587  29.009  29.422  1.00  0.00    -0.248 NA
ATOM     39  C   UNL A   1      42.921  26.833  28.648  1.00  0.00     0.031 C 
ATOM     40  C   UNL A   1      38.213  28.601  28.552  1.00  0.00     0.029 A 
ATOM     41  N   UNL A   1      39.803  29.969  29.321  1.00  0.00    -0.354 N 
ATOM     42  C   UNL A   1      43.923  28.661  29.579  1.00  0.00     0.074 A 
ATOM     43  C   UNL A   1      44.056  27.284  29.159  1.00  0.00     0.031 C 
ATOM     44  C   UNL A   1      37.621  29.758  28.886  1.00  0.00     0.029 A 
ATOM     45  C   UNL A   1      38.630  30.678  29.400  1.00  0.00     0.049 A 
ATOM     46  H   UNL A   1      40.673  30.330  29.614  1.00  0.00     0.167 HD
ATOM     47  C   UNL A   1      44.953  29.431  30.001  1.00  0.00     0.037 A 
ATOM     48  C   UNL A   1      38.400  31.931  29.835  1.00  0.00     0.037 A 
ATOM     49  C   UNL A   1      44.818  30.806  30.402  1.00  0.00     0.049 A 
ATOM     50  C   UNL A   1      39.564  32.765  30.300  1.00  0.00     0.074 A 
ATOM     51  C   UNL A   1      45.803  31.693  30.799  1.00  0.00     0.029 A 
ATOM     52  N   UNL A   1      43.614  31.494  30.464  1.00  0.00    -0.354 N 
ATOM     53  N   UNL A   1      40.836  32.455  30.366  1.00  0.00    -0.248 NA
ATOM     54  C   UNL A   1      39.257  34.133  30.737  1.00  0.00     0.031 C 
ATOM     55  C   UNL A   1      45.189  32.897  31.156  1.00  0.00     0.029 A 
ATOM     56  C   UNL A   1      43.829  32.787  30.916  1.00  0.00     0.049 A 
ATOM     57  H   UNL A   1      42.736  31.120  30.222  1.00  0.00     0.167 HD
ATOM     58  C   UNL A   1      41.485  33.595  30.820  1.00  0.00     0.074 A 
ATOM     59  C   UNL A   1      40.466  34.611  30.988  1.00  0.00     0.031 C 
ATOM     60  C   UNL A   1      42.803  33.787  31.079  1.00  0.00     0.037 A 
BRANCH  47  61
ATOM     61  C   UNL A   1      46.317  28.800  30.048  1.00  0.00     0.064 A 
ATOM     62  C   UNL A   1      47.177  28.816  28.937  1.00  0.00     0.173 A 
ATOM     63  C   UNL A   1      46.781  28.192  31.224  1.00  0.00     0.173 A 
ATOM     64  F   UNL A   1      46.780  29.371  27.782  1.00  0.00    -0.203 F 
ATOM     65  C   UNL A   1      48.432  28.216  28.992  1.00  0.00     0.198 A 
ATOM     66  C   UNL A   1      48.051  27.626  31.286  1.00  0.00     0.198 A 
ATOM     67  F   UNL A   1      46.003  28.150  32.316  1.00  0.00    -0.203 F 
ATOM     68  F   UNL A   1      49.210  28.191  27.901  1.00  0.00    -0.200 F 
ATOM     69  C   UNL A   1      48.873  27.630  30.168  1.00  0.00     0.200 A 
ATOM     70  F   UNL A   1      48.481  27.072  32.429  1.00  0.00    -0.200 F 
ATOM     71  F   UNL A   1      50.084  27.059  30.223  1.00  0.00    -0.200 F 
ENDBRANCH  47  61
BRANCH  48  72
ATOM     72  C   UNL A   1      37.020  32.485  29.817  1.00  0.00     0.064 A 
ATOM     73  C   UNL A   1      36.533  33.177  28.699  1.00  0.00     0.173 A 
ATOM     74  C   UNL A   1      36.166  32.351  30.921  1.00  0.00     0.173 A 
ATOM     75  F   UNL A   1      37.317  33.348  27.624  1.00  0.00    -0.203 F 
ATOM     76  C   UNL A   1      35.259  33.740  28.697  1.00  0.00     0.198 A 
ATOM     77  C   UNL A   1      34.879  32.883  30.906  1.00  0.00     0.198 A 
ATOM     78  F   UNL A   1      36.578  31.691  32.013  1.00  0.00    -0.203 F 
ATOM     79  F   UNL A   1      34.842  34.446  27.637  1.00  0.00    -0.200 F 
ATOM     80  C   UNL A   1      34.431  33.588  29.799  1.00  0.00     0.200 A 
ATOM     81  F   UNL A   1      34.075  32.720  31.965  1.00  0.00    -0.200 F 
ATOM     82  F   UNL A   1      33.204  34.129  29.797  1.00  0.00    -0.200 F 
ENDBRANCH  48  72
BRANCH  60  83
ATOM     83  C   UNL A   1      43.218  35.158  31.531  1.00  0.00     0.064 A 
ATOM     84  C   UNL A   1      43.154  35.546  32.878  1.00  0.00     0.173 A 
ATOM     85  C   UNL A   1      43.690  36.099  30.601  1.00  0.00     0.173 A 
ATOM     86  F   UNL A   1      42.701  34.691  33.807  1.00  0.00    -0.203 F 
ATOM     87  C   UNL A   1      43.497  36.837  33.269  1.00  0.00     0.198 A 
ATOM     88  C   UNL A   1      44.071  37.376  31.001  1.00  0.00     0.198 A 
ATOM     89  F   UNL A   1      43.784  35.778  29.302  1.00  0.00    -0.203 F 
ATOM     90  F   UNL A   1      43.354  37.208  34.548  1.00  0.00    -0.200 F 
ATOM     91  C   UNL A   1      43.960  37.749  32.332  1.00  0.00     0.200 A 
ATOM     92  F   UNL A   1      44.537  38.248  30.098  1.00  0.00    -0.200 F 
ATOM     93  F   UNL A   1      44.287  38.993  32.709  1.00  0.00    -0.200 F 
ENDBRANCH  60  83
ENDBRANCH  34  35
ENDBRANCH  26  29
ENDBRANCH  24  25
ENDBRANCH  23  24
ENDBRANCH   1  23
TORSDOF 15
ENDMDL
