MODEL 1
REMARK VINA RESULT:     -12.7      0.000      0.000
REMARK SMILES Cc1cc(C[NH+]2C[C@@H](C)[C@H](C)C2)oc1C(=O)NCCCCNC(=O)c1ccc(-c2c3nc(c(-c4c(F)c(F)c(F)c(F)c4F)c4ccc([nH]4)c(-c4c(F)c(F)c(F)c(F)c4F)c4nc(c(-c5c(F)c(F)c(F)c(F)c5F)c5ccc2[nH]5)C=C4)C=C3)cc1
REMARK SMILES IDX 19 1 18 2 17 3 15 4 16 5 14 7 1 8 2 9 3 10 4 11 13 12 5 13
REMARK SMILES IDX 6 14 7 15 12 16 8 18 10 19 9 20 11 21 20 22 21 23 22 24
REMARK SMILES IDX 23 25 24 27 25 28 26 29 87 30 27 31 86 32 28 33 29 34 30 35
REMARK SMILES IDX 80 36 31 37 85 38 79 39 81 40 32 41 84 42 78 43 77 44 33 46
REMARK SMILES IDX 65 47 45 48 64 49 46 50 49 51 63 52 82 53 47 54 48 55 62 57
REMARK SMILES IDX 83 58 50 59 34 60 35 61 43 62 36 63 37 64 41 65 44 66 38 67
REMARK SMILES IDX 39 68 42 69 40 70 66 71 67 72 75 73 68 74 69 75 73 76 76 77
REMARK SMILES IDX 70 78 71 79 74 80 72 81 51 82 52 83 60 84 53 85 54 86 58 87
REMARK SMILES IDX 61 88 55 89 56 90 59 91 57 92
REMARK H PARENT 17 6 6 17 22 26 81 45 49 56
REMARK Flexibility Score: inf
ROOT
ATOM      1  C   UNL A   1      31.492  30.716  26.457  1.00  0.00     0.023 C 
ENDROOT
BRANCH   1   2
ATOM      2  C   UNL A   1      32.872  30.072  26.519  1.00  0.00     0.116 C 
BRANCH   2   3
ATOM      3  N   UNL A   1      32.856  28.633  26.601  1.00  0.00    -0.349 N 
ATOM      4  C   UNL A   1      32.320  27.717  25.720  1.00  0.00     0.287 C 
ATOM      5  O   UNL A   1      32.366  26.541  26.086  1.00  0.00    -0.266 OA
ATOM      6  H   UNL A   1      33.287  28.251  27.399  1.00  0.00     0.163 HD
BRANCH   4   7
ATOM      7  C   UNL A   1      31.710  28.129  24.463  1.00  0.00     0.194 A 
ATOM      8  C   UNL A   1      33.535  28.772  22.699  1.00  0.00     0.049 C 
ATOM      9  C   UNL A   1      32.160  28.555  23.212  1.00  0.00     0.001 A 
ATOM     10  C   UNL A   1      30.997  28.741  22.413  1.00  0.00     0.056 A 
ATOM     11  C   UNL A   1      29.910  28.468  23.206  1.00  0.00     0.159 A 
ATOM     12  O   UNL A   1      30.334  28.064  24.432  1.00  0.00    -0.450 OA
BRANCH  11  13
ATOM     13  C   UNL A   1      28.434  28.536  22.982  1.00  0.00     0.338 C 
BRANCH  13  14
ATOM     14  N   UNL A   1      27.918  29.877  22.690  1.00  0.00    -0.328 N 
ATOM     15  C   UNL A   1      28.480  30.938  23.526  1.00  0.00     0.266 C 
ATOM     16  C   UNL A   1      27.964  30.295  21.287  1.00  0.00     0.266 C 
ATOM     17  H   UNL A   1      26.934  29.754  22.930  1.00  0.00     0.348 HD
ATOM     18  C   UNL A   1      28.190  32.202  22.721  1.00  0.00     0.049 C 
ATOM     19  C   UNL A   1      28.492  31.732  21.298  1.00  0.00     0.049 C 
ATOM     20  C   UNL A   1      29.034  33.384  23.174  1.00  0.00     0.014 C 
ATOM     21  C   UNL A   1      27.878  32.595  20.207  1.00  0.00     0.014 C 
ENDBRANCH  13  14
ENDBRANCH  11  13
ENDBRANCH   4   7
ENDBRANCH   2   3
ENDBRANCH   1   2
BRANCH   1  22
ATOM     22  C   UNL A   1      31.451  32.240  26.547  1.00  0.00     0.023 C 
BRANCH  22  23
ATOM     23  C   UNL A   1      32.621  32.912  27.263  1.00  0.00     0.116 C 
BRANCH  23  24
ATOM     24  N   UNL A   1      32.346  34.276  27.693  1.00  0.00    -0.352 N 
ATOM     25  C   UNL A   1      32.966  35.055  28.643  1.00  0.00     0.251 C 
ATOM     26  H   UNL A   1      31.596  34.712  27.230  1.00  0.00     0.163 HD
ATOM     27  O   UNL A   1      32.523  36.169  28.906  1.00  0.00    -0.269 OA
BRANCH  25  28
ATOM     28  C   UNL A   1      34.134  34.538  29.388  1.00  0.00     0.039 A 
ATOM     29  C   UNL A   1      33.924  33.915  30.622  1.00  0.00     0.014 A 
ATOM     30  C   UNL A   1      35.424  34.635  28.866  1.00  0.00     0.014 A 
ATOM     31  C   UNL A   1      34.991  33.294  31.276  1.00  0.00     0.010 A 
ATOM     32  C   UNL A   1      36.468  33.940  29.472  1.00  0.00     0.010 A 
ATOM     33  C   UNL A   1      36.260  33.251  30.676  1.00  0.00    -0.014 A 
BRANCH  33  34
ATOM     34  C   UNL A   1      37.376  32.474  31.277  1.00  0.00     0.031 A 
ATOM     35  C   UNL A   1      37.900  32.829  32.640  1.00  0.00     0.074 A 
ATOM     36  C   UNL A   1      37.977  31.504  30.558  1.00  0.00     0.049 A 
ATOM     37  N   UNL A   1      38.926  32.338  33.289  1.00  0.00    -0.248 NA
ATOM     38  C   UNL A   1      37.197  33.905  33.357  1.00  0.00     0.031 C 
ATOM     39  C   UNL A   1      37.604  31.102  29.200  1.00  0.00     0.029 A 
ATOM     40  N   UNL A   1      39.039  30.690  30.864  1.00  0.00    -0.354 N 
ATOM     41  C   UNL A   1      39.003  33.057  34.474  1.00  0.00     0.074 A 
ATOM     42  C   UNL A   1      37.955  34.054  34.432  1.00  0.00     0.031 C 
ATOM     43  C   UNL A   1      38.408  30.103  28.800  1.00  0.00     0.029 A 
ATOM     44  C   UNL A   1      39.377  29.820  29.854  1.00  0.00     0.049 A 
ATOM     45  H   UNL A   1      39.516  30.725  31.724  1.00  0.00     0.167 HD
ATOM     46  C   UNL A   1      39.854  32.885  35.514  1.00  0.00     0.037 A 
ATOM     47  C   UNL A   1      40.361  28.904  29.783  1.00  0.00     0.037 A 
ATOM     48  C   UNL A   1      40.871  31.870  35.569  1.00  0.00     0.049 A 
ATOM     49  C   UNL A   1      41.286  28.726  30.957  1.00  0.00     0.074 A 
ATOM     50  C   UNL A   1      41.734  31.567  36.609  1.00  0.00     0.029 A 
ATOM     51  N   UNL A   1      41.163  30.988  34.538  1.00  0.00    -0.354 N 
ATOM     52  N   UNL A   1      41.302  29.363  32.102  1.00  0.00    -0.248 NA
ATOM     53  C   UNL A   1      42.328  27.697  30.829  1.00  0.00     0.031 C 
ATOM     54  C   UNL A   1      42.575  30.531  36.193  1.00  0.00     0.029 A 
ATOM     55  C   UNL A   1      42.206  30.155  34.911  1.00  0.00     0.049 A 
ATOM     56  H   UNL A   1      40.698  30.959  33.672  1.00  0.00     0.167 HD
ATOM     57  C   UNL A   1      42.334  28.798  32.839  1.00  0.00     0.074 A 
ATOM     58  C   UNL A   1      42.911  27.754  32.018  1.00  0.00     0.031 C 
ATOM     59  C   UNL A   1      42.765  29.116  34.084  1.00  0.00     0.037 A 
BRANCH  46  60
ATOM     60  C   UNL A   1      39.711  33.814  36.685  1.00  0.00     0.064 A 
ATOM     61  C   UNL A   1      40.347  35.065  36.710  1.00  0.00     0.173 A 
ATOM     62  C   UNL A   1      38.908  33.464  37.779  1.00  0.00     0.173 A 
ATOM     63  F   UNL A   1      41.136  35.443  35.694  1.00  0.00    -0.203 F 
ATOM     64  C   UNL A   1      40.208  35.917  37.802  1.00  0.00     0.198 A 
ATOM     65  C   UNL A   1      38.746  34.331  38.857  1.00  0.00     0.198 A 
ATOM     66  F   UNL A   1      38.274  32.282  37.804  1.00  0.00    -0.203 F 
ATOM     67  F   UNL A   1      40.865  37.085  37.827  1.00  0.00    -0.200 F 
ATOM     68  C   UNL A   1      39.402  35.553  38.872  1.00  0.00     0.200 A 
ATOM     69  F   UNL A   1      37.958  33.983  39.883  1.00  0.00    -0.200 F 
ATOM     70  F   UNL A   1      39.266  36.377  39.919  1.00  0.00    -0.200 F 
ENDBRANCH  46  60
BRANCH  47  71
ATOM     71  C   UNL A   1      40.509  28.062  28.568  1.00  0.00     0.064 A 
ATOM     72  C   UNL A   1      39.883  26.810  28.482  1.00  0.00     0.173 A 
ATOM     73  C   UNL A   1      41.279  28.483  27.474  1.00  0.00     0.173 A 
ATOM     74  F   UNL A   1      39.154  26.355  29.512  1.00  0.00    -0.203 F 
ATOM     75  C   UNL A   1      40.038  26.002  27.357  1.00  0.00     0.198 A 
ATOM     76  C   UNL A   1      41.411  27.685  26.338  1.00  0.00     0.198 A 
ATOM     77  F   UNL A   1      41.894  29.674  27.504  1.00  0.00    -0.203 F 
ATOM     78  F   UNL A   1      39.466  24.791  27.321  1.00  0.00    -0.200 F 
ATOM     79  C   UNL A   1      40.797  26.443  26.284  1.00  0.00     0.200 A 
ATOM     80  F   UNL A   1      42.134  28.120  25.298  1.00  0.00    -0.200 F 
ATOM     81  F   UNL A   1      40.944  25.666  25.202  1.00  0.00    -0.200 F 
ENDBRANCH  47  71
BRANCH  59  82
ATOM     82  C   UNL A   1      43.896  28.307  34.648  1.00  0.00     0.064 A 
ATOM     83  C   UNL A   1      45.230  28.719  34.517  1.00  0.00     0.173 A 
ATOM     84  C   UNL A   1      43.638  27.127  35.362  1.00  0.00     0.173 A 
ATOM     85  F   UNL A   1      45.529  29.831  33.829  1.00  0.00    -0.203 F 
ATOM     86  C   UNL A   1      46.266  27.966  35.063  1.00  0.00     0.198 A 
ATOM     87  C   UNL A   1      44.674  26.393  35.931  1.00  0.00     0.198 A 
ATOM     88  F   UNL A   1      42.378  26.694  35.520  1.00  0.00    -0.203 F 
ATOM     89  F   UNL A   1      47.537  28.354  34.887  1.00  0.00    -0.200 F 
ATOM     90  C   UNL A   1      45.989  26.809  35.774  1.00  0.00     0.200 A 
ATOM     91  F   UNL A   1      44.402  25.282  36.629  1.00  0.00    -0.200 F 
ATOM     92  F   UNL A   1      46.987  26.091  36.305  1.00  0.00    -0.200 F 
ENDBRANCH  59  82
ENDBRANCH  33  34
ENDBRANCH  25  28
ENDBRANCH  23  24
ENDBRANCH  22  23
ENDBRANCH   1  22
TORSDOF 13
ENDMDL
MODEL 2
REMARK VINA RESULT:     -12.7      0.575      7.410
REMARK SMILES Cc1cc(C[NH+]2C[C@@H](C)[C@H](C)C2)oc1C(=O)NCCCCNC(=O)c1ccc(-c2c3nc(c(-c4c(F)c(F)c(F)c(F)c4F)c4ccc([nH]4)c(-c4c(F)c(F)c(F)c(F)c4F)c4nc(c(-c5c(F)c(F)c(F)c(F)c5F)c5ccc2[nH]5)C=C4)C=C3)cc1
REMARK SMILES IDX 19 1 18 2 17 3 15 4 16 5 14 7 1 8 2 9 3 10 4 11 13 12 5 13
REMARK SMILES IDX 6 14 7 15 12 16 8 18 10 19 9 20 11 21 20 22 21 23 22 24
REMARK SMILES IDX 23 25 24 27 25 28 26 29 87 30 27 31 86 32 28 33 29 34 30 35
REMARK SMILES IDX 80 36 31 37 85 38 79 39 81 40 32 41 84 42 78 43 77 44 33 46
REMARK SMILES IDX 65 47 45 48 64 49 46 50 49 51 63 52 82 53 47 54 48 55 62 57
REMARK SMILES IDX 83 58 50 59 34 60 35 61 43 62 36 63 37 64 41 65 44 66 38 67
REMARK SMILES IDX 39 68 42 69 40 70 66 71 67 72 75 73 68 74 69 75 73 76 76 77
REMARK SMILES IDX 70 78 71 79 74 80 72 81 51 82 52 83 60 84 53 85 54 86 58 87
REMARK SMILES IDX 61 88 55 89 56 90 59 91 57 92
REMARK H PARENT 17 6 6 17 22 26 81 45 49 56
REMARK Flexibility Score: inf
ROOT
ATOM      1  C   UNL A   1      31.767  30.466  26.933  1.00  0.00     0.023 C 
ENDROOT
BRANCH   1   2
ATOM      2  C   UNL A   1      33.080  29.765  26.605  1.00  0.00     0.116 C 
BRANCH   2   3
ATOM      3  N   UNL A   1      33.000  28.326  26.583  1.00  0.00    -0.349 N 
ATOM      4  C   UNL A   1      32.405  27.502  25.651  1.00  0.00     0.287 C 
ATOM      5  O   UNL A   1      32.404  26.301  25.929  1.00  0.00    -0.266 OA
ATOM      6  H   UNL A   1      33.430  27.867  27.340  1.00  0.00     0.163 HD
BRANCH   4   7
ATOM      7  C   UNL A   1      31.789  28.031  24.442  1.00  0.00     0.194 A 
ATOM      8  C   UNL A   1      33.602  28.910  22.770  1.00  0.00     0.049 C 
ATOM      9  C   UNL A   1      32.232  28.602  23.248  1.00  0.00     0.001 A 
ATOM     10  C   UNL A   1      31.067  28.843  22.465  1.00  0.00     0.056 A 
ATOM     11  C   UNL A   1      29.985  28.457  23.217  1.00  0.00     0.159 A 
ATOM     12  O   UNL A   1      30.415  27.934  24.395  1.00  0.00    -0.450 OA
BRANCH  11  13
ATOM     13  C   UNL A   1      28.509  28.510  22.991  1.00  0.00     0.338 C 
BRANCH  13  14
ATOM     14  N   UNL A   1      27.976  29.849  22.721  1.00  0.00    -0.328 N 
ATOM     15  C   UNL A   1      28.566  30.911  23.536  1.00  0.00     0.266 C 
ATOM     16  C   UNL A   1      27.966  30.268  21.318  1.00  0.00     0.266 C 
ATOM     17  H   UNL A   1      27.003  29.721  22.999  1.00  0.00     0.348 HD
ATOM     18  C   UNL A   1      28.239  32.175  22.745  1.00  0.00     0.049 C 
ATOM     19  C   UNL A   1      28.488  31.708  21.310  1.00  0.00     0.049 C 
ATOM     20  C   UNL A   1      29.095  33.361  23.166  1.00  0.00     0.014 C 
ATOM     21  C   UNL A   1      27.828  32.569  20.245  1.00  0.00     0.014 C 
ENDBRANCH  13  14
ENDBRANCH  11  13
ENDBRANCH   4   7
ENDBRANCH   2   3
ENDBRANCH   1   2
BRANCH   1  22
ATOM     22  C   UNL A   1      31.720  31.971  26.678  1.00  0.00     0.023 C 
BRANCH  22  23
ATOM     23  C   UNL A   1      32.851  32.799  27.281  1.00  0.00     0.116 C 
BRANCH  23  24
ATOM     24  N   UNL A   1      32.458  34.149  27.663  1.00  0.00    -0.352 N 
ATOM     25  C   UNL A   1      32.987  35.000  28.606  1.00  0.00     0.251 C 
ATOM     26  H   UNL A   1      31.689  34.510  27.168  1.00  0.00     0.163 HD
ATOM     27  O   UNL A   1      32.450  36.083  28.823  1.00  0.00    -0.269 OA
BRANCH  25  28
ATOM     28  C   UNL A   1      34.170  34.599  29.396  1.00  0.00     0.039 A 
ATOM     29  C   UNL A   1      33.979  34.105  30.690  1.00  0.00     0.014 A 
ATOM     30  C   UNL A   1      35.456  34.677  28.862  1.00  0.00     0.014 A 
ATOM     31  C   UNL A   1      35.064  33.587  31.402  1.00  0.00     0.010 A 
ATOM     32  C   UNL A   1      36.520  34.080  29.533  1.00  0.00     0.010 A 
ATOM     33  C   UNL A   1      36.333  33.517  30.805  1.00  0.00    -0.014 A 
BRANCH  33  34
ATOM     34  C   UNL A   1      37.472  32.840  31.480  1.00  0.00     0.031 A 
ATOM     35  C   UNL A   1      38.149  31.666  30.830  1.00  0.00     0.074 A 
ATOM     36  C   UNL A   1      37.840  33.227  32.718  1.00  0.00     0.049 A 
ATOM     37  N   UNL A   1      39.089  30.885  31.300  1.00  0.00    -0.248 NA
ATOM     38  C   UNL A   1      37.684  31.300  29.482  1.00  0.00     0.031 C 
ATOM     39  C   UNL A   1      37.225  34.312  33.485  1.00  0.00     0.029 A 
ATOM     40  N   UNL A   1      38.811  32.739  33.557  1.00  0.00    -0.354 N 
ATOM     41  C   UNL A   1      39.310  29.927  30.319  1.00  0.00     0.074 A 
ATOM     42  C   UNL A   1      38.370  30.191  29.251  1.00  0.00     0.031 C 
ATOM     43  C   UNL A   1      37.848  34.423  34.669  1.00  0.00     0.029 A 
ATOM     44  C   UNL A   1      38.879  33.395  34.764  1.00  0.00     0.049 A 
ATOM     45  H   UNL A   1      39.404  31.990  33.319  1.00  0.00     0.167 HD
ATOM     46  C   UNL A   1      40.230  28.933  30.300  1.00  0.00     0.037 A 
ATOM     47  C   UNL A   1      39.676  33.185  35.828  1.00  0.00     0.037 A 
ATOM     48  C   UNL A   1      41.187  28.695  31.347  1.00  0.00     0.049 A 
ATOM     49  C   UNL A   1      40.697  32.081  35.776  1.00  0.00     0.074 A 
ATOM     50  C   UNL A   1      42.208  27.760  31.387  1.00  0.00     0.029 A 
ATOM     51  N   UNL A   1      41.243  29.400  32.540  1.00  0.00    -0.354 N 
ATOM     52  N   UNL A   1      40.945  31.228  34.813  1.00  0.00    -0.248 NA
ATOM     53  C   UNL A   1      41.553  31.913  36.960  1.00  0.00     0.031 C 
ATOM     54  C   UNL A   1      42.855  27.872  32.621  1.00  0.00     0.029 A 
ATOM     55  C   UNL A   1      42.268  28.907  33.332  1.00  0.00     0.049 A 
ATOM     56  H   UNL A   1      40.644  30.140  32.788  1.00  0.00     0.167 HD
ATOM     57  C   UNL A   1      41.998  30.441  35.261  1.00  0.00     0.074 A 
ATOM     58  C   UNL A   1      42.354  30.930  36.577  1.00  0.00     0.031 C 
ATOM     59  C   UNL A   1      42.614  29.408  34.638  1.00  0.00     0.037 A 
BRANCH  46  60
ATOM     60  C   UNL A   1      40.250  28.032  29.099  1.00  0.00     0.064 A 
ATOM     61  C   UNL A   1      40.986  28.358  27.950  1.00  0.00     0.173 A 
ATOM     62  C   UNL A   1      39.551  26.817  29.108  1.00  0.00     0.173 A 
ATOM     63  F   UNL A   1      41.662  29.515  27.886  1.00  0.00    -0.203 F 
ATOM     64  C   UNL A   1      40.996  27.515  26.842  1.00  0.00     0.198 A 
ATOM     65  C   UNL A   1      39.588  25.960  28.010  1.00  0.00     0.198 A 
ATOM     66  F   UNL A   1      38.835  26.454  30.183  1.00  0.00    -0.203 F 
ATOM     67  F   UNL A   1      41.665  27.872  25.736  1.00  0.00    -0.200 F 
ATOM     68  C   UNL A   1      40.303  26.314  26.875  1.00  0.00     0.200 A 
ATOM     69  F   UNL A   1      38.928  24.795  28.048  1.00  0.00    -0.200 F 
ATOM     70  F   UNL A   1      40.319  25.501  25.810  1.00  0.00    -0.200 F 
ENDBRANCH  46  60
BRANCH  47  71
ATOM     71  C   UNL A   1      39.563  34.057  37.026  1.00  0.00     0.064 A 
ATOM     72  C   UNL A   1      40.207  35.301  37.072  1.00  0.00     0.173 A 
ATOM     73  C   UNL A   1      38.818  33.667  38.149  1.00  0.00     0.173 A 
ATOM     74  F   UNL A   1      40.949  35.709  36.031  1.00  0.00    -0.203 F 
ATOM     75  C   UNL A   1      40.129  36.113  38.202  1.00  0.00     0.198 A 
ATOM     76  C   UNL A   1      38.719  34.492  39.268  1.00  0.00     0.198 A 
ATOM     77  F   UNL A   1      38.179  32.488  38.154  1.00  0.00    -0.203 F 
ATOM     78  F   UNL A   1      40.793  37.277  38.236  1.00  0.00    -0.200 F 
ATOM     79  C   UNL A   1      39.380  35.710  39.297  1.00  0.00     0.200 A 
ATOM     80  F   UNL A   1      37.983  34.105  40.319  1.00  0.00    -0.200 F 
ATOM     81  F   UNL A   1      39.303  36.492  40.382  1.00  0.00    -0.200 F 
ENDBRANCH  47  71
BRANCH  59  82
ATOM     82  C   UNL A   1      43.756  28.752  35.358  1.00  0.00     0.064 A 
ATOM     83  C   UNL A   1      45.082  29.161  35.158  1.00  0.00     0.173 A 
ATOM     84  C   UNL A   1      43.514  27.730  36.289  1.00  0.00     0.173 A 
ATOM     85  F   UNL A   1      45.365  30.122  34.266  1.00  0.00    -0.203 F 
ATOM     86  C   UNL A   1      46.128  28.554  35.848  1.00  0.00     0.198 A 
ATOM     87  C   UNL A   1      44.560  27.146  36.998  1.00  0.00     0.198 A 
ATOM     88  F   UNL A   1      42.262  27.308  36.521  1.00  0.00    -0.203 F 
ATOM     89  F   UNL A   1      47.392  28.929  35.608  1.00  0.00    -0.200 F 
ATOM     90  C   UNL A   1      45.867  27.554  36.772  1.00  0.00     0.200 A 
ATOM     91  F   UNL A   1      44.303  26.188  37.900  1.00  0.00    -0.200 F 
ATOM     92  F   UNL A   1      46.874  26.977  37.441  1.00  0.00    -0.200 F 
ENDBRANCH  59  82
ENDBRANCH  33  34
ENDBRANCH  25  28
ENDBRANCH  23  24
ENDBRANCH  22  23
ENDBRANCH   1  22
TORSDOF 13
ENDMDL
MODEL 3
REMARK VINA RESULT:     -12.5      6.792     11.127
REMARK SMILES Cc1cc(C[NH+]2C[C@@H](C)[C@H](C)C2)oc1C(=O)NCCCCNC(=O)c1ccc(-c2c3nc(c(-c4c(F)c(F)c(F)c(F)c4F)c4ccc([nH]4)c(-c4c(F)c(F)c(F)c(F)c4F)c4nc(c(-c5c(F)c(F)c(F)c(F)c5F)c5ccc2[nH]5)C=C4)C=C3)cc1
REMARK SMILES IDX 19 1 18 2 17 3 15 4 16 5 14 7 1 8 2 9 3 10 4 11 13 12 5 13
REMARK SMILES IDX 6 14 7 15 12 16 8 18 10 19 9 20 11 21 20 22 21 23 22 24
REMARK SMILES IDX 23 25 24 27 25 28 26 29 87 30 27 31 86 32 28 33 29 34 30 35
REMARK SMILES IDX 80 36 31 37 85 38 79 39 81 40 32 41 84 42 78 43 77 44 33 46
REMARK SMILES IDX 65 47 45 48 64 49 46 50 49 51 63 52 82 53 47 54 48 55 62 57
REMARK SMILES IDX 83 58 50 59 34 60 35 61 43 62 36 63 37 64 41 65 44 66 38 67
REMARK SMILES IDX 39 68 42 69 40 70 66 71 67 72 75 73 68 74 69 75 73 76 76 77
REMARK SMILES IDX 70 78 71 79 74 80 72 81 51 82 52 83 60 84 53 85 54 86 58 87
REMARK SMILES IDX 61 88 55 89 56 90 59 91 57 92
REMARK H PARENT 17 6 6 17 22 26 81 45 49 56
REMARK Flexibility Score: inf
ROOT
ATOM      1  C   UNL A   1      36.787  20.744  25.219  1.00  0.00     0.023 C 
ENDROOT
BRANCH   1   2
ATOM      2  C   UNL A   1      36.902  22.234  25.516  1.00  0.00     0.116 C 
BRANCH   2   3
ATOM      3  N   UNL A   1      35.928  22.734  26.453  1.00  0.00    -0.349 N 
ATOM      4  C   UNL A   1      34.561  22.842  26.311  1.00  0.00     0.287 C 
ATOM      5  O   UNL A   1      33.973  23.395  27.243  1.00  0.00    -0.266 OA
ATOM      6  H   UNL A   1      36.290  23.041  27.315  1.00  0.00     0.163 HD
BRANCH   4   7
ATOM      7  C   UNL A   1      33.874  22.365  25.119  1.00  0.00     0.194 A 
ATOM      8  C   UNL A   1      33.514  24.307  23.401  1.00  0.00     0.049 C 
ATOM      9  C   UNL A   1      33.438  22.918  23.914  1.00  0.00     0.001 A 
ATOM     10  C   UNL A   1      32.881  21.844  23.162  1.00  0.00     0.056 A 
ATOM     11  C   UNL A   1      32.960  20.717  23.941  1.00  0.00     0.159 A 
ATOM     12  O   UNL A   1      33.590  21.016  25.108  1.00  0.00    -0.450 OA
BRANCH  11  13
ATOM     13  C   UNL A   1      32.504  19.306  23.754  1.00  0.00     0.338 C 
BRANCH  13  14
ATOM     14  N   UNL A   1      33.027  18.355  24.741  1.00  0.00    -0.328 N 
ATOM     15  C   UNL A   1      32.153  17.211  25.001  1.00  0.00     0.266 C 
ATOM     16  C   UNL A   1      34.392  17.876  24.513  1.00  0.00     0.266 C 
ATOM     17  H   UNL A   1      33.055  18.946  25.572  1.00  0.00     0.348 HD
ATOM     18  C   UNL A   1      33.101  16.187  25.620  1.00  0.00     0.049 C 
ATOM     19  C   UNL A   1      34.348  16.365  24.754  1.00  0.00     0.049 C 
ATOM     20  C   UNL A   1      32.528  14.778  25.598  1.00  0.00     0.014 C 
ATOM     21  C   UNL A   1      35.627  15.828  25.376  1.00  0.00     0.014 C 
ENDBRANCH  13  14
ENDBRANCH  11  13
ENDBRANCH   4   7
ENDBRANCH   2   3
ENDBRANCH   1   2
BRANCH   1  22
ATOM     22  C   UNL A   1      38.087  20.018  24.878  1.00  0.00     0.023 C 
BRANCH  22  23
ATOM     23  C   UNL A   1      39.272  20.273  25.805  1.00  0.00     0.116 C 
BRANCH  23  24
ATOM     24  N   UNL A   1      40.236  19.181  25.847  1.00  0.00    -0.352 N 
ATOM     25  C   UNL A   1      41.590  19.194  26.094  1.00  0.00     0.251 C 
ATOM     26  H   UNL A   1      39.858  18.290  25.669  1.00  0.00     0.163 HD
ATOM     27  O   UNL A   1      42.237  18.154  26.007  1.00  0.00    -0.269 OA
BRANCH  25  28
ATOM     28  C   UNL A   1      42.280  20.461  26.414  1.00  0.00     0.039 A 
ATOM     29  C   UNL A   1      42.873  21.186  25.376  1.00  0.00     0.014 A 
ATOM     30  C   UNL A   1      42.319  20.952  27.720  1.00  0.00     0.014 A 
ATOM     31  C   UNL A   1      43.405  22.452  25.631  1.00  0.00     0.010 A 
ATOM     32  C   UNL A   1      42.767  22.249  27.956  1.00  0.00     0.010 A 
ATOM     33  C   UNL A   1      43.303  23.018  26.912  1.00  0.00    -0.014 A 
BRANCH  33  34
ATOM     34  C   UNL A   1      43.727  24.418  27.178  1.00  0.00     0.031 A 
ATOM     35  C   UNL A   1      42.736  25.428  27.684  1.00  0.00     0.074 A 
ATOM     36  C   UNL A   1      44.985  24.803  26.879  1.00  0.00     0.049 A 
ATOM     37  N   UNL A   1      42.887  26.713  27.881  1.00  0.00    -0.248 NA
ATOM     38  C   UNL A   1      41.381  24.932  27.977  1.00  0.00     0.031 C 
ATOM     39  C   UNL A   1      46.027  23.937  26.326  1.00  0.00     0.029 A 
ATOM     40  N   UNL A   1      45.596  26.028  26.986  1.00  0.00    -0.354 N 
ATOM     41  C   UNL A   1      41.647  27.180  28.298  1.00  0.00     0.074 A 
ATOM     42  C   UNL A   1      40.741  26.052  28.273  1.00  0.00     0.031 C 
ATOM     43  C   UNL A   1      47.153  24.650  26.164  1.00  0.00     0.029 A 
ATOM     44  C   UNL A   1      46.904  26.031  26.564  1.00  0.00     0.049 A 
ATOM     45  H   UNL A   1      45.141  26.830  27.331  1.00  0.00     0.167 HD
ATOM     46  C   UNL A   1      41.302  28.430  28.689  1.00  0.00     0.037 A 
ATOM     47  C   UNL A   1      47.799  27.035  26.500  1.00  0.00     0.037 A 
ATOM     48  C   UNL A   1      42.214  29.541  28.748  1.00  0.00     0.049 A 
ATOM     49  C   UNL A   1      47.392  28.413  26.951  1.00  0.00     0.074 A 
ATOM     50  C   UNL A   1      41.978  30.828  29.201  1.00  0.00     0.029 A 
ATOM     51  N   UNL A   1      43.539  29.497  28.340  1.00  0.00    -0.354 N 
ATOM     52  N   UNL A   1      46.238  28.825  27.412  1.00  0.00    -0.248 NA
ATOM     53  C   UNL A   1      48.418  29.463  26.876  1.00  0.00     0.031 C 
ATOM     54  C   UNL A   1      43.148  31.574  29.029  1.00  0.00     0.029 A 
ATOM     55  C   UNL A   1      44.127  30.740  28.512  1.00  0.00     0.049 A 
ATOM     56  H   UNL A   1      43.993  28.702  27.982  1.00  0.00     0.167 HD
ATOM     57  C   UNL A   1      46.402  30.172  27.706  1.00  0.00     0.074 A 
ATOM     58  C   UNL A   1      47.775  30.504  27.387  1.00  0.00     0.031 C 
ATOM     59  C   UNL A   1      45.497  31.054  28.196  1.00  0.00     0.037 A 
BRANCH  46  60
ATOM     60  C   UNL A   1      39.875  28.658  29.097  1.00  0.00     0.064 A 
ATOM     61  C   UNL A   1      39.447  28.455  30.418  1.00  0.00     0.173 A 
ATOM     62  C   UNL A   1      38.932  29.113  28.164  1.00  0.00     0.173 A 
ATOM     63  F   UNL A   1      40.307  28.009  31.345  1.00  0.00    -0.203 F 
ATOM     64  C   UNL A   1      38.121  28.670  30.782  1.00  0.00     0.198 A 
ATOM     65  C   UNL A   1      37.613  29.356  28.539  1.00  0.00     0.198 A 
ATOM     66  F   UNL A   1      39.289  29.328  26.889  1.00  0.00    -0.203 F 
ATOM     67  F   UNL A   1      37.725  28.420  32.038  1.00  0.00    -0.200 F 
ATOM     68  C   UNL A   1      37.206  29.126  29.845  1.00  0.00     0.200 A 
ATOM     69  F   UNL A   1      36.733  29.809  27.635  1.00  0.00    -0.200 F 
ATOM     70  F   UNL A   1      35.932  29.337  30.200  1.00  0.00    -0.200 F 
ENDBRANCH  46  60
BRANCH  47  71
ATOM     71  C   UNL A   1      49.179  26.774  26.014  1.00  0.00     0.064 A 
ATOM     72  C   UNL A   1      49.515  26.973  24.668  1.00  0.00     0.173 A 
ATOM     73  C   UNL A   1      50.185  26.315  26.876  1.00  0.00     0.173 A 
ATOM     74  F   UNL A   1      48.581  27.390  23.800  1.00  0.00    -0.203 F 
ATOM     75  C   UNL A   1      50.799  26.704  24.197  1.00  0.00     0.198 A 
ATOM     76  C   UNL A   1      51.476  26.072  26.410  1.00  0.00     0.198 A 
ATOM     77  F   UNL A   1      49.916  26.113  28.174  1.00  0.00    -0.203 F 
ATOM     78  F   UNL A   1      51.080  26.860  22.896  1.00  0.00    -0.200 F 
ATOM     79  C   UNL A   1      51.780  26.260  25.070  1.00  0.00     0.200 A 
ATOM     80  F   UNL A   1      52.425  25.656  27.259  1.00  0.00    -0.200 F 
ATOM     81  F   UNL A   1      53.015  26.003  24.618  1.00  0.00    -0.200 F 
ENDBRANCH  47  71
BRANCH  59  82
ATOM     82  C   UNL A   1      45.969  32.456  28.445  1.00  0.00     0.064 A 
ATOM     83  C   UNL A   1      45.802  33.468  27.490  1.00  0.00     0.173 A 
ATOM     84  C   UNL A   1      46.558  32.799  29.672  1.00  0.00     0.173 A 
ATOM     85  F   UNL A   1      45.260  33.186  26.295  1.00  0.00    -0.203 F 
ATOM     86  C   UNL A   1      46.229  34.769  27.744  1.00  0.00     0.198 A 
ATOM     87  C   UNL A   1      46.957  34.106  29.934  1.00  0.00     0.198 A 
ATOM     88  F   UNL A   1      46.734  31.867  30.622  1.00  0.00    -0.203 F 
ATOM     89  F   UNL A   1      46.102  35.710  26.799  1.00  0.00    -0.200 F 
ATOM     90  C   UNL A   1      46.799  35.088  28.967  1.00  0.00     0.200 A 
ATOM     91  F   UNL A   1      47.496  34.415  31.121  1.00  0.00    -0.200 F 
ATOM     92  F   UNL A   1      47.201  36.342  29.214  1.00  0.00    -0.200 F 
ENDBRANCH  59  82
ENDBRANCH  33  34
ENDBRANCH  25  28
ENDBRANCH  23  24
ENDBRANCH  22  23
ENDBRANCH   1  22
TORSDOF 13
ENDMDL
