MODEL 1
REMARK VINA RESULT:     -12.1      0.000      0.000
REMARK SMILES CC(C)[C@@H](NC(=O)N[C@H]1CCS(=O)(=O)C1)C(=O)NCCCCNC(=O)c1ccc(-c2c3nc(c(-c4c(F)c(F)c(F)c(F)c4F)c4ccc([nH]4)c(-c4c(F)c(F)c(F)c(F)c4F)c4nc(c(-c5c(F)c(F)c(F)c(F)c5F)c5ccc2[nH]5)C=C4)C=C3)cc1
REMARK SMILES IDX 20 1 19 2 18 3 16 4 17 5 4 7 2 8 1 9 3 10 5 11 6 12 7 14
REMARK SMILES IDX 8 15 9 17 10 18 15 19 11 20 12 21 13 22 14 23 21 24 22 25
REMARK SMILES IDX 23 26 24 27 25 29 26 30 27 31 88 32 28 33 87 34 29 35 30 36
REMARK SMILES IDX 31 37 81 38 32 39 86 40 80 41 82 42 33 43 85 44 79 45 78 46
REMARK SMILES IDX 34 48 66 49 46 50 65 51 47 52 50 53 64 54 83 55 48 56 49 57
REMARK SMILES IDX 63 59 84 60 51 61 35 62 36 63 44 64 37 65 38 66 42 67 45 68
REMARK SMILES IDX 39 69 40 70 43 71 41 72 67 73 68 74 76 75 69 76 70 77 74 78
REMARK SMILES IDX 77 79 71 80 72 81 75 82 73 83 52 84 53 85 61 86 54 87 55 88
REMARK SMILES IDX 59 89 62 90 56 91 57 92 60 93 58 94
REMARK H PARENT 18 6 5 13 8 16 23 28 82 47 50 58
REMARK Flexibility Score: inf
ROOT
ATOM      1  C   UNL A   1      36.585  20.746  24.627  1.00  0.00     0.023 C 
ENDROOT
BRANCH   1   2
ATOM      2  C   UNL A   1      35.584  21.011  25.750  1.00  0.00     0.116 C 
BRANCH   2   3
ATOM      3  N   UNL A   1      34.356  20.361  25.345  1.00  0.00    -0.354 N 
ATOM      4  C   UNL A   1      33.053  20.738  25.243  1.00  0.00     0.242 C 
ATOM      5  O   UNL A   1      32.155  19.898  25.241  1.00  0.00    -0.273 OA
ATOM      6  H   UNL A   1      34.497  19.424  25.079  1.00  0.00     0.163 HD
BRANCH   4   7
ATOM      7  C   UNL A   1      32.684  22.182  25.193  1.00  0.00     0.175 C 
BRANCH   7   8
ATOM      8  C   UNL A   1      32.372  22.449  23.680  1.00  0.00     0.015 C 
ATOM      9  C   UNL A   1      31.258  23.443  23.380  1.00  0.00     0.010 C 
ATOM     10  C   UNL A   1      33.656  22.952  22.965  1.00  0.00     0.010 C 
ENDBRANCH   7   8
BRANCH   7  11
ATOM     11  N   UNL A   1      31.653  22.240  26.226  1.00  0.00    -0.326 N 
ATOM     12  C   UNL A   1      31.060  23.269  26.860  1.00  0.00     0.315 C 
ATOM     13  H   UNL A   1      31.329  21.356  26.513  1.00  0.00     0.166 HD
ATOM     14  O   UNL A   1      30.138  22.952  27.626  1.00  0.00    -0.249 OA
ATOM     15  N   UNL A   1      31.349  24.580  26.874  1.00  0.00    -0.334 N 
ATOM     16  H   UNL A   1      30.914  24.891  27.701  1.00  0.00     0.165 HD
BRANCH  15  17
ATOM     17  C   UNL A   1      31.981  25.857  26.317  1.00  0.00     0.099 C 
ATOM     18  C   UNL A   1      33.386  26.109  25.660  1.00  0.00     0.042 C 
ATOM     19  C   UNL A   1      30.958  26.822  25.715  1.00  0.00     0.161 C 
ATOM     20  C   UNL A   1      33.229  26.935  24.382  1.00  0.00     0.139 C 
ATOM     21  S   UNL A   1      31.868  27.993  24.728  1.00  0.00     0.152 S 
ATOM     22  O   UNL A   1      32.347  29.055  25.575  1.00  0.00    -0.229 OA
ATOM     23  O   UNL A   1      31.136  28.251  23.496  1.00  0.00    -0.229 OA
ENDBRANCH  15  17
ENDBRANCH   7  11
ENDBRANCH   4   7
ENDBRANCH   2   3
ENDBRANCH   1   2
BRANCH   1  24
ATOM     24  C   UNL A   1      37.662  19.708  25.001  1.00  0.00     0.023 C 
BRANCH  24  25
ATOM     25  C   UNL A   1      38.840  20.285  25.780  1.00  0.00     0.116 C 
BRANCH  25  26
ATOM     26  N   UNL A   1      39.883  19.292  25.955  1.00  0.00    -0.352 N 
ATOM     27  C   UNL A   1      41.236  19.457  26.081  1.00  0.00     0.251 C 
ATOM     28  H   UNL A   1      39.571  18.359  25.987  1.00  0.00     0.163 HD
ATOM     29  O   UNL A   1      41.984  18.499  25.916  1.00  0.00    -0.269 OA
BRANCH  27  30
ATOM     30  C   UNL A   1      41.797  20.783  26.412  1.00  0.00     0.039 A 
ATOM     31  C   UNL A   1      42.030  21.690  25.376  1.00  0.00     0.014 A 
ATOM     32  C   UNL A   1      42.140  21.116  27.726  1.00  0.00     0.014 A 
ATOM     33  C   UNL A   1      42.562  22.947  25.663  1.00  0.00     0.010 A 
ATOM     34  C   UNL A   1      42.600  22.397  28.020  1.00  0.00     0.010 A 
ATOM     35  C   UNL A   1      42.822  23.324  26.991  1.00  0.00    -0.014 A 
BRANCH  35  36
ATOM     36  C   UNL A   1      43.319  24.684  27.316  1.00  0.00     0.031 A 
ATOM     37  C   UNL A   1      42.397  25.713  27.910  1.00  0.00     0.074 A 
ATOM     38  C   UNL A   1      44.593  25.011  27.025  1.00  0.00     0.049 A 
ATOM     39  N   UNL A   1      42.635  26.966  28.206  1.00  0.00    -0.248 NA
ATOM     40  C   UNL A   1      41.017  25.283  28.186  1.00  0.00     0.031 C 
ATOM     41  C   UNL A   1      45.574  24.114  26.411  1.00  0.00     0.029 A 
ATOM     42  N   UNL A   1      45.279  26.188  27.195  1.00  0.00    -0.354 N 
ATOM     43  C   UNL A   1      41.437  27.475  28.690  1.00  0.00     0.074 A 
ATOM     44  C   UNL A   1      40.459  26.412  28.597  1.00  0.00     0.031 C 
ATOM     45  C   UNL A   1      46.740  24.765  26.276  1.00  0.00     0.029 A 
ATOM     46  C   UNL A   1      46.578  26.136  26.752  1.00  0.00     0.049 A 
ATOM     47  H   UNL A   1      44.878  26.991  27.597  1.00  0.00     0.167 HD
ATOM     48  C   UNL A   1      41.182  28.710  29.185  1.00  0.00     0.037 A 
ATOM     49  C   UNL A   1      47.528  27.090  26.721  1.00  0.00     0.037 A 
ATOM     50  C   UNL A   1      42.162  29.760  29.288  1.00  0.00     0.049 A 
ATOM     51  C   UNL A   1      47.212  28.460  27.255  1.00  0.00     0.074 A 
ATOM     52  C   UNL A   1      42.015  31.027  29.827  1.00  0.00     0.029 A 
ATOM     53  N   UNL A   1      43.470  29.668  28.834  1.00  0.00    -0.354 N 
ATOM     54  N   UNL A   1      46.095  28.908  27.776  1.00  0.00    -0.248 NA
ATOM     55  C   UNL A   1      48.293  29.454  27.207  1.00  0.00     0.031 C 
ATOM     56  C   UNL A   1      43.216  31.721  29.646  1.00  0.00     0.029 A 
ATOM     57  C   UNL A   1      44.133  30.866  29.056  1.00  0.00     0.049 A 
ATOM     58  H   UNL A   1      43.868  28.871  28.418  1.00  0.00     0.167 HD
ATOM     59  C   UNL A   1      46.347  30.224  28.145  1.00  0.00     0.074 A 
ATOM     60  C   UNL A   1      47.727  30.496  27.801  1.00  0.00     0.031 C 
ATOM     61  C   UNL A   1      45.510  31.123  28.717  1.00  0.00     0.037 A 
BRANCH  48  62
ATOM     62  C   UNL A   1      39.782  28.999  29.649  1.00  0.00     0.064 A 
ATOM     63  C   UNL A   1      38.791  29.461  28.768  1.00  0.00     0.173 A 
ATOM     64  C   UNL A   1      39.414  28.774  30.985  1.00  0.00     0.173 A 
ATOM     65  F   UNL A   1      39.089  29.702  27.483  1.00  0.00    -0.203 F 
ATOM     66  C   UNL A   1      37.497  29.718  29.214  1.00  0.00     0.198 A 
ATOM     67  C   UNL A   1      38.110  28.999  31.419  1.00  0.00     0.198 A 
ATOM     68  F   UNL A   1      40.318  28.325  31.869  1.00  0.00    -0.203 F 
ATOM     69  F   UNL A   1      36.584  30.211  28.366  1.00  0.00    -0.200 F 
ATOM     70  C   UNL A   1      37.156  29.480  30.536  1.00  0.00     0.200 A 
ATOM     71  F   UNL A   1      37.778  28.753  32.694  1.00  0.00    -0.200 F 
ATOM     72  F   UNL A   1      35.908  29.721  30.962  1.00  0.00    -0.200 F 
ENDBRANCH  48  62
BRANCH  49  73
ATOM     73  C   UNL A   1      48.875  26.774  26.177  1.00  0.00     0.064 A 
ATOM     74  C   UNL A   1      49.196  27.054  24.840  1.00  0.00     0.173 A 
ATOM     75  C   UNL A   1      49.867  26.187  26.975  1.00  0.00     0.173 A 
ATOM     76  F   UNL A   1      48.276  27.599  24.031  1.00  0.00    -0.203 F 
ATOM     77  C   UNL A   1      50.449  26.739  24.319  1.00  0.00     0.198 A 
ATOM     78  C   UNL A   1      51.130  25.901  26.462  1.00  0.00     0.198 A 
ATOM     79  F   UNL A   1      49.614  25.905  28.261  1.00  0.00    -0.203 F 
ATOM     80  F   UNL A   1      50.712  26.973  23.027  1.00  0.00    -0.200 F 
ATOM     81  C   UNL A   1      51.417  26.168  25.132  1.00  0.00     0.200 A 
ATOM     82  F   UNL A   1      52.068  25.365  27.255  1.00  0.00    -0.200 F 
ATOM     83  F   UNL A   1      52.624  25.870  24.632  1.00  0.00    -0.200 F 
ENDBRANCH  49  73
BRANCH  61  84
ATOM     84  C   UNL A   1      46.073  32.476  29.051  1.00  0.00     0.064 A 
ATOM     85  C   UNL A   1      46.708  32.733  30.275  1.00  0.00     0.173 A 
ATOM     86  C   UNL A   1      46.009  33.519  28.113  1.00  0.00     0.173 A 
ATOM     87  F   UNL A   1      46.782  31.776  31.211  1.00  0.00    -0.203 F 
ATOM     88  C   UNL A   1      47.233  33.992  30.559  1.00  0.00     0.198 A 
ATOM     89  C   UNL A   1      46.566  34.765  28.387  1.00  0.00     0.198 A 
ATOM     90  F   UNL A   1      45.419  33.325  26.925  1.00  0.00    -0.203 F 
ATOM     91  F   UNL A   1      47.788  34.230  31.755  1.00  0.00    -0.200 F 
ATOM     92  C   UNL A   1      47.169  35.003  29.612  1.00  0.00     0.200 A 
ATOM     93  F   UNL A   1      46.517  35.736  27.463  1.00  0.00    -0.200 F 
ATOM     94  F   UNL A   1      47.684  36.210  29.883  1.00  0.00    -0.200 F 
ENDBRANCH  61  84
ENDBRANCH  35  36
ENDBRANCH  27  30
ENDBRANCH  25  26
ENDBRANCH  24  25
ENDBRANCH   1  24
TORSDOF 14
ENDMDL
MODEL 2
REMARK VINA RESULT:     -12.0      0.197      1.613
REMARK SMILES CC(C)[C@@H](NC(=O)N[C@H]1CCS(=O)(=O)C1)C(=O)NCCCCNC(=O)c1ccc(-c2c3nc(c(-c4c(F)c(F)c(F)c(F)c4F)c4ccc([nH]4)c(-c4c(F)c(F)c(F)c(F)c4F)c4nc(c(-c5c(F)c(F)c(F)c(F)c5F)c5ccc2[nH]5)C=C4)C=C3)cc1
REMARK SMILES IDX 20 1 19 2 18 3 16 4 17 5 4 7 2 8 1 9 3 10 5 11 6 12 7 14
REMARK SMILES IDX 8 15 9 17 10 18 15 19 11 20 12 21 13 22 14 23 21 24 22 25
REMARK SMILES IDX 23 26 24 27 25 29 26 30 27 31 88 32 28 33 87 34 29 35 30 36
REMARK SMILES IDX 31 37 81 38 32 39 86 40 80 41 82 42 33 43 85 44 79 45 78 46
REMARK SMILES IDX 34 48 66 49 46 50 65 51 47 52 50 53 64 54 83 55 48 56 49 57
REMARK SMILES IDX 63 59 84 60 51 61 35 62 36 63 44 64 37 65 38 66 42 67 45 68
REMARK SMILES IDX 39 69 40 70 43 71 41 72 67 73 68 74 76 75 69 76 70 77 74 78
REMARK SMILES IDX 77 79 71 80 72 81 75 82 73 83 52 84 53 85 61 86 54 87 55 88
REMARK SMILES IDX 59 89 62 90 56 91 57 92 60 93 58 94
REMARK H PARENT 18 6 5 13 8 16 23 28 82 47 50 58
REMARK Flexibility Score: inf
ROOT
ATOM      1  C   UNL A   1      36.703  20.578  24.558  1.00  0.00     0.023 C 
ENDROOT
BRANCH   1   2
ATOM      2  C   UNL A   1      35.739  20.958  25.682  1.00  0.00     0.116 C 
BRANCH   2   3
ATOM      3  N   UNL A   1      34.484  20.315  25.358  1.00  0.00    -0.354 N 
ATOM      4  C   UNL A   1      33.182  20.707  25.317  1.00  0.00     0.242 C 
ATOM      5  O   UNL A   1      32.275  19.880  25.383  1.00  0.00    -0.273 OA
ATOM      6  H   UNL A   1      34.599  19.370  25.107  1.00  0.00     0.163 HD
BRANCH   4   7
ATOM      7  C   UNL A   1      32.829  22.154  25.252  1.00  0.00     0.175 C 
BRANCH   7   8
ATOM      8  C   UNL A   1      32.593  22.427  23.726  1.00  0.00     0.015 C 
ATOM      9  C   UNL A   1      31.424  23.335  23.370  1.00  0.00     0.010 C 
ATOM     10  C   UNL A   1      33.875  23.046  23.104  1.00  0.00     0.010 C 
ENDBRANCH   7   8
BRANCH   7  11
ATOM     11  N   UNL A   1      31.749  22.220  26.233  1.00  0.00    -0.326 N 
ATOM     12  C   UNL A   1      31.127  23.253  26.831  1.00  0.00     0.315 C 
ATOM     13  H   UNL A   1      31.411  21.339  26.510  1.00  0.00     0.166 HD
ATOM     14  O   UNL A   1      30.169  22.942  27.554  1.00  0.00    -0.249 OA
ATOM     15  N   UNL A   1      31.416  24.564  26.851  1.00  0.00    -0.334 N 
ATOM     16  H   UNL A   1      30.943  24.882  27.653  1.00  0.00     0.165 HD
BRANCH  15  17
ATOM     17  C   UNL A   1      32.076  25.838  26.316  1.00  0.00     0.099 C 
ATOM     18  C   UNL A   1      33.316  26.037  25.374  1.00  0.00     0.042 C 
ATOM     19  C   UNL A   1      31.085  26.984  26.102  1.00  0.00     0.161 C 
ATOM     20  C   UNL A   1      32.990  27.057  24.281  1.00  0.00     0.139 C 
ATOM     21  S   UNL A   1      31.900  28.188  25.072  1.00  0.00     0.152 S 
ATOM     22  O   UNL A   1      32.699  29.055  25.901  1.00  0.00    -0.229 OA
ATOM     23  O   UNL A   1      30.952  28.703  24.095  1.00  0.00    -0.229 OA
ENDBRANCH  15  17
ENDBRANCH   7  11
ENDBRANCH   4   7
ENDBRANCH   2   3
ENDBRANCH   1   2
BRANCH   1  24
ATOM     24  C   UNL A   1      37.777  19.560  24.992  1.00  0.00     0.023 C 
BRANCH  24  25
ATOM     25  C   UNL A   1      38.974  20.183  25.704  1.00  0.00     0.116 C 
BRANCH  25  26
ATOM     26  N   UNL A   1      40.022  19.201  25.911  1.00  0.00    -0.352 N 
ATOM     27  C   UNL A   1      41.369  19.381  26.075  1.00  0.00     0.251 C 
ATOM     28  H   UNL A   1      39.719  18.265  25.938  1.00  0.00     0.163 HD
ATOM     29  O   UNL A   1      42.132  18.430  25.934  1.00  0.00    -0.269 OA
BRANCH  27  30
ATOM     30  C   UNL A   1      41.906  20.714  26.418  1.00  0.00     0.039 A 
ATOM     31  C   UNL A   1      42.151  21.624  25.386  1.00  0.00     0.014 A 
ATOM     32  C   UNL A   1      42.216  21.051  27.739  1.00  0.00     0.014 A 
ATOM     33  C   UNL A   1      42.661  22.887  25.685  1.00  0.00     0.010 A 
ATOM     34  C   UNL A   1      42.653  22.339  28.043  1.00  0.00     0.010 A 
ATOM     35  C   UNL A   1      42.887  23.268  27.017  1.00  0.00    -0.014 A 
BRANCH  35  36
ATOM     36  C   UNL A   1      43.360  24.634  27.353  1.00  0.00     0.031 A 
ATOM     37  C   UNL A   1      42.413  25.651  27.927  1.00  0.00     0.074 A 
ATOM     38  C   UNL A   1      44.636  24.977  27.088  1.00  0.00     0.049 A 
ATOM     39  N   UNL A   1      42.628  26.906  28.227  1.00  0.00    -0.248 NA
ATOM     40  C   UNL A   1      41.033  25.204  28.174  1.00  0.00     0.031 C 
ATOM     41  C   UNL A   1      45.640  24.092  26.496  1.00  0.00     0.029 A 
ATOM     42  N   UNL A   1      45.303  26.162  27.273  1.00  0.00    -0.354 N 
ATOM     43  C   UNL A   1      41.415  27.401  28.685  1.00  0.00     0.074 A 
ATOM     44  C   UNL A   1      40.452  26.326  28.573  1.00  0.00     0.031 C 
ATOM     45  C   UNL A   1      46.801  24.758  26.386  1.00  0.00     0.029 A 
ATOM     46  C   UNL A   1      46.611  26.126  26.857  1.00  0.00     0.049 A 
ATOM     47  H   UNL A   1      44.884  26.960  27.666  1.00  0.00     0.167 HD
ATOM     48  C   UNL A   1      41.133  28.633  29.175  1.00  0.00     0.037 A 
ATOM     49  C   UNL A   1      47.550  27.092  26.846  1.00  0.00     0.037 A 
ATOM     50  C   UNL A   1      42.098  29.695  29.298  1.00  0.00     0.049 A 
ATOM     51  C   UNL A   1      47.206  28.458  27.374  1.00  0.00     0.074 A 
ATOM     52  C   UNL A   1      41.924  30.960  29.834  1.00  0.00     0.029 A 
ATOM     53  N   UNL A   1      43.416  29.620  28.873  1.00  0.00    -0.354 N 
ATOM     54  N   UNL A   1      46.073  28.892  27.870  1.00  0.00    -0.248 NA
ATOM     55  C   UNL A   1      48.275  29.465  27.348  1.00  0.00     0.031 C 
ATOM     56  C   UNL A   1      43.120  31.669  29.678  1.00  0.00     0.029 A 
ATOM     57  C   UNL A   1      44.059  30.826  29.108  1.00  0.00     0.049 A 
ATOM     58  H   UNL A   1      43.834  28.827  28.465  1.00  0.00     0.167 HD
ATOM     59  C   UNL A   1      46.301  30.211  28.244  1.00  0.00     0.074 A 
ATOM     60  C   UNL A   1      47.684  30.500  27.929  1.00  0.00     0.031 C 
ATOM     61  C   UNL A   1      45.440  31.099  28.798  1.00  0.00     0.037 A 
BRANCH  48  62
ATOM     62  C   UNL A   1      39.720  28.904  29.610  1.00  0.00     0.064 A 
ATOM     63  C   UNL A   1      39.294  28.669  30.927  1.00  0.00     0.173 A 
ATOM     64  C   UNL A   1      38.788  29.440  28.708  1.00  0.00     0.173 A 
ATOM     65  F   UNL A   1      40.140  28.149  31.828  1.00  0.00    -0.203 F 
ATOM     66  C   UNL A   1      37.982  28.930  31.315  1.00  0.00     0.198 A 
ATOM     67  C   UNL A   1      37.487  29.732  29.108  1.00  0.00     0.198 A 
ATOM     68  F   UNL A   1      39.142  29.691  27.438  1.00  0.00    -0.203 F 
ATOM     69  F   UNL A   1      37.585  28.647  32.563  1.00  0.00    -0.200 F 
ATOM     70  C   UNL A   1      37.082  29.468  30.407  1.00  0.00     0.200 A 
ATOM     71  F   UNL A   1      36.623  30.267  28.234  1.00  0.00    -0.200 F 
ATOM     72  F   UNL A   1      35.822  29.726  30.784  1.00  0.00    -0.200 F 
ENDBRANCH  48  62
BRANCH  49  73
ATOM     73  C   UNL A   1      48.912  26.793  26.331  1.00  0.00     0.064 A 
ATOM     74  C   UNL A   1      49.893  26.238  27.165  1.00  0.00     0.173 A 
ATOM     75  C   UNL A   1      49.264  27.058  24.999  1.00  0.00     0.173 A 
ATOM     76  F   UNL A   1      49.611  25.984  28.452  1.00  0.00    -0.203 F 
ATOM     77  C   UNL A   1      51.178  25.979  26.693  1.00  0.00     0.198 A 
ATOM     78  C   UNL A   1      50.539  26.769  24.519  1.00  0.00     0.198 A 
ATOM     79  F   UNL A   1      48.361  27.583  24.158  1.00  0.00    -0.203 F 
ATOM     80  F   UNL A   1      52.109  25.492  27.525  1.00  0.00    -0.200 F 
ATOM     81  C   UNL A   1      51.499  26.238  25.369  1.00  0.00     0.200 A 
ATOM     82  F   UNL A   1      50.840  27.005  23.235  1.00  0.00    -0.200 F 
ATOM     83  F   UNL A   1      52.732  25.983  24.914  1.00  0.00    -0.200 F 
ENDBRANCH  49  73
BRANCH  61  84
ATOM     84  C   UNL A   1      45.979  32.459  29.144  1.00  0.00     0.064 A 
ATOM     85  C   UNL A   1      46.620  32.715  30.365  1.00  0.00     0.173 A 
ATOM     86  C   UNL A   1      45.886  33.512  28.219  1.00  0.00     0.173 A 
ATOM     87  F   UNL A   1      46.721  31.747  31.288  1.00  0.00    -0.203 F 
ATOM     88  C   UNL A   1      47.123  33.980  30.659  1.00  0.00     0.198 A 
ATOM     89  C   UNL A   1      46.420  34.766  28.503  1.00  0.00     0.198 A 
ATOM     90  F   UNL A   1      45.289  33.321  27.034  1.00  0.00    -0.203 F 
ATOM     91  F   UNL A   1      47.683  34.215  31.853  1.00  0.00    -0.200 F 
ATOM     92  C   UNL A   1      47.030  35.001  29.725  1.00  0.00     0.200 A 
ATOM     93  F   UNL A   1      46.344  35.747  27.592  1.00  0.00    -0.200 F 
ATOM     94  F   UNL A   1      47.523  36.215  30.006  1.00  0.00    -0.200 F 
ENDBRANCH  61  84
ENDBRANCH  35  36
ENDBRANCH  27  30
ENDBRANCH  25  26
ENDBRANCH  24  25
ENDBRANCH   1  24
TORSDOF 14
ENDMDL
MODEL 3
REMARK VINA RESULT:     -11.9      5.488     11.154
REMARK SMILES CC(C)[C@@H](NC(=O)N[C@H]1CCS(=O)(=O)C1)C(=O)NCCCCNC(=O)c1ccc(-c2c3nc(c(-c4c(F)c(F)c(F)c(F)c4F)c4ccc([nH]4)c(-c4c(F)c(F)c(F)c(F)c4F)c4nc(c(-c5c(F)c(F)c(F)c(F)c5F)c5ccc2[nH]5)C=C4)C=C3)cc1
REMARK SMILES IDX 20 1 19 2 18 3 16 4 17 5 4 7 2 8 1 9 3 10 5 11 6 12 7 14
REMARK SMILES IDX 8 15 9 17 10 18 15 19 11 20 12 21 13 22 14 23 21 24 22 25
REMARK SMILES IDX 23 26 24 27 25 29 26 30 27 31 88 32 28 33 87 34 29 35 30 36
REMARK SMILES IDX 31 37 81 38 32 39 86 40 80 41 82 42 33 43 85 44 79 45 78 46
REMARK SMILES IDX 34 48 66 49 46 50 65 51 47 52 50 53 64 54 83 55 48 56 49 57
REMARK SMILES IDX 63 59 84 60 51 61 35 62 36 63 44 64 37 65 38 66 42 67 45 68
REMARK SMILES IDX 39 69 40 70 43 71 41 72 67 73 68 74 76 75 69 76 70 77 74 78
REMARK SMILES IDX 77 79 71 80 72 81 75 82 73 83 52 84 53 85 61 86 54 87 55 88
REMARK SMILES IDX 59 89 62 90 56 91 57 92 60 93 58 94
REMARK H PARENT 18 6 5 13 8 16 23 28 82 47 50 58
REMARK Flexibility Score: inf
ROOT
ATOM      1  C   UNL A   1      31.271  30.774  26.492  1.00  0.00     0.023 C 
ENDROOT
BRANCH   1   2
ATOM      2  C   UNL A   1      32.136  30.121  25.414  1.00  0.00     0.116 C 
BRANCH   2   3
ATOM      3  N   UNL A   1      31.233  29.786  24.334  1.00  0.00    -0.354 N 
ATOM      4  C   UNL A   1      31.097  28.735  23.480  1.00  0.00     0.242 C 
ATOM      5  O   UNL A   1      30.497  28.865  22.416  1.00  0.00    -0.273 OA
ATOM      6  H   UNL A   1      30.555  30.484  24.180  1.00  0.00     0.163 HD
BRANCH   4   7
ATOM      7  C   UNL A   1      31.728  27.421  23.792  1.00  0.00     0.175 C 
BRANCH   7   8
ATOM      8  C   UNL A   1      30.590  26.604  24.498  1.00  0.00     0.015 C 
ATOM      9  C   UNL A   1      30.372  25.178  24.010  1.00  0.00     0.010 C 
ATOM     10  C   UNL A   1      30.867  26.540  26.025  1.00  0.00     0.010 C 
ENDBRANCH   7   8
BRANCH   7  11
ATOM     11  N   UNL A   1      32.258  27.050  22.483  1.00  0.00    -0.326 N 
ATOM     12  C   UNL A   1      33.092  26.071  22.085  1.00  0.00     0.315 C 
ATOM     13  H   UNL A   1      31.945  27.628  21.751  1.00  0.00     0.166 HD
ATOM     14  O   UNL A   1      33.255  25.987  20.859  1.00  0.00    -0.249 OA
ATOM     15  N   UNL A   1      33.850  25.218  22.791  1.00  0.00    -0.334 N 
ATOM     16  H   UNL A   1      34.532  24.938  22.139  1.00  0.00     0.165 HD
BRANCH  15  17
ATOM     17  C   UNL A   1      34.241  24.440  24.050  1.00  0.00     0.099 C 
ATOM     18  C   UNL A   1      34.223  24.856  25.565  1.00  0.00     0.042 C 
ATOM     19  C   UNL A   1      33.984  22.936  23.932  1.00  0.00     0.161 C 
ATOM     20  C   UNL A   1      33.581  23.752  26.407  1.00  0.00     0.139 C 
ATOM     21  S   UNL A   1      34.047  22.269  25.583  1.00  0.00     0.152 S 
ATOM     22  O   UNL A   1      35.417  21.991  25.929  1.00  0.00    -0.229 OA
ATOM     23  O   UNL A   1      32.989  21.281  25.741  1.00  0.00    -0.229 OA
ENDBRANCH  15  17
ENDBRANCH   7  11
ENDBRANCH   4   7
ENDBRANCH   2   3
ENDBRANCH   1   2
BRANCH   1  24
ATOM     24  C   UNL A   1      31.401  32.309  26.533  1.00  0.00     0.023 C 
BRANCH  24  25
ATOM     25  C   UNL A   1      32.663  32.810  27.227  1.00  0.00     0.116 C 
BRANCH  25  26
ATOM     26  N   UNL A   1      32.524  34.200  27.617  1.00  0.00    -0.352 N 
ATOM     27  C   UNL A   1      33.089  34.875  28.666  1.00  0.00     0.251 C 
ATOM     28  H   UNL A   1      31.935  34.740  27.041  1.00  0.00     0.163 HD
ATOM     29  O   UNL A   1      32.624  35.956  29.015  1.00  0.00    -0.269 OA
BRANCH  27  30
ATOM     30  C   UNL A   1      34.251  34.307  29.378  1.00  0.00     0.039 A 
ATOM     31  C   UNL A   1      34.028  33.566  30.542  1.00  0.00     0.014 A 
ATOM     32  C   UNL A   1      35.557  34.541  28.935  1.00  0.00     0.014 A 
ATOM     33  C   UNL A   1      35.110  33.022  31.234  1.00  0.00     0.010 A 
ATOM     34  C   UNL A   1      36.629  33.934  29.584  1.00  0.00     0.010 A 
ATOM     35  C   UNL A   1      36.417  33.174  30.744  1.00  0.00    -0.014 A 
BRANCH  35  36
ATOM     36  C   UNL A   1      37.570  32.538  31.432  1.00  0.00     0.031 A 
ATOM     37  C   UNL A   1      38.297  31.386  30.796  1.00  0.00     0.074 A 
ATOM     38  C   UNL A   1      37.928  32.965  32.658  1.00  0.00     0.049 A 
ATOM     39  N   UNL A   1      39.284  30.668  31.268  1.00  0.00    -0.248 NA
ATOM     40  C   UNL A   1      37.837  30.969  29.462  1.00  0.00     0.031 C 
ATOM     41  C   UNL A   1      37.275  34.048  33.397  1.00  0.00     0.029 A 
ATOM     42  N   UNL A   1      38.919  32.536  33.504  1.00  0.00    -0.354 N 
ATOM     43  C   UNL A   1      39.556  29.711  30.299  1.00  0.00     0.074 A 
ATOM     44  C   UNL A   1      38.593  29.905  29.236  1.00  0.00     0.031 C 
ATOM     45  C   UNL A   1      37.897  34.212  34.575  1.00  0.00     0.029 A 
ATOM     46  C   UNL A   1      38.961  33.219  34.694  1.00  0.00     0.049 A 
ATOM     47  H   UNL A   1      39.541  31.807  33.278  1.00  0.00     0.167 HD
ATOM     48  C   UNL A   1      40.532  28.772  30.288  1.00  0.00     0.037 A 
ATOM     49  C   UNL A   1      39.760  33.057  35.766  1.00  0.00     0.037 A 
ATOM     50  C   UNL A   1      41.496  28.593  31.342  1.00  0.00     0.049 A 
ATOM     51  C   UNL A   1      40.820  31.991  35.738  1.00  0.00     0.074 A 
ATOM     52  C   UNL A   1      42.558  27.706  31.398  1.00  0.00     0.029 A 
ATOM     53  N   UNL A   1      41.511  29.309  32.530  1.00  0.00    -0.354 N 
ATOM     54  N   UNL A   1      41.112  31.139  34.786  1.00  0.00    -0.248 NA
ATOM     55  C   UNL A   1      41.669  31.871  36.931  1.00  0.00     0.031 C 
ATOM     56  C   UNL A   1      43.179  27.845  32.644  1.00  0.00     0.029 A 
ATOM     57  C   UNL A   1      42.547  28.865  33.338  1.00  0.00     0.049 A 
ATOM     58  H   UNL A   1      40.881  30.028  32.764  1.00  0.00     0.167 HD
ATOM     59  C   UNL A   1      42.196  30.403  35.250  1.00  0.00     0.074 A 
ATOM     60  C   UNL A   1      42.517  30.920  36.564  1.00  0.00     0.031 C 
ATOM     61  C   UNL A   1      42.863  29.392  34.641  1.00  0.00     0.037 A 
BRANCH  48  62
ATOM     62  C   UNL A   1      40.603  27.856  29.098  1.00  0.00     0.064 A 
ATOM     63  C   UNL A   1      39.790  26.716  28.993  1.00  0.00     0.173 A 
ATOM     64  C   UNL A   1      41.468  28.141  28.030  1.00  0.00     0.173 A 
ATOM     65  F   UNL A   1      38.952  26.390  29.989  1.00  0.00    -0.203 F 
ATOM     66  C   UNL A   1      39.865  25.880  27.881  1.00  0.00     0.198 A 
ATOM     67  C   UNL A   1      41.515  27.323  26.905  1.00  0.00     0.198 A 
ATOM     68  F   UNL A   1      42.262  29.222  28.073  1.00  0.00    -0.203 F 
ATOM     69  F   UNL A   1      39.119  24.768  27.830  1.00  0.00    -0.200 F 
ATOM     70  C   UNL A   1      40.721  26.188  26.836  1.00  0.00     0.200 A 
ATOM     71  F   UNL A   1      42.332  27.631  25.887  1.00  0.00    -0.200 F 
ATOM     72  F   UNL A   1      40.787  25.387  25.763  1.00  0.00    -0.200 F 
ENDBRANCH  48  62
BRANCH  49  73
ATOM     73  C   UNL A   1      39.595  33.939  36.951  1.00  0.00     0.064 A 
ATOM     74  C   UNL A   1      38.806  33.542  38.041  1.00  0.00     0.173 A 
ATOM     75  C   UNL A   1      40.217  35.194  37.020  1.00  0.00     0.173 A 
ATOM     76  F   UNL A   1      38.176  32.358  38.015  1.00  0.00    -0.203 F 
ATOM     77  C   UNL A   1      38.630  34.375  39.144  1.00  0.00     0.198 A 
ATOM     78  C   UNL A   1      40.065  36.013  38.137  1.00  0.00     0.198 A 
ATOM     79  F   UNL A   1      40.986  35.619  36.008  1.00  0.00    -0.203 F 
ATOM     80  F   UNL A   1      37.832  33.990  40.150  1.00  0.00    -0.200 F 
ATOM     81  C   UNL A   1      39.264  35.607  39.194  1.00  0.00     0.200 A 
ATOM     82  F   UNL A   1      40.694  37.196  38.189  1.00  0.00    -0.200 F 
ATOM     83  F   UNL A   1      39.098  36.405  40.257  1.00  0.00    -0.200 F 
ENDBRANCH  49  73
BRANCH  61  84
ATOM     84  C   UNL A   1      44.038  28.804  35.369  1.00  0.00     0.064 A 
ATOM     85  C   UNL A   1      45.339  29.303  35.203  1.00  0.00     0.173 A 
ATOM     86  C   UNL A   1      43.852  27.749  36.277  1.00  0.00     0.173 A 
ATOM     87  F   UNL A   1      45.574  30.299  34.337  1.00  0.00    -0.203 F 
ATOM     88  C   UNL A   1      46.412  28.749  35.898  1.00  0.00     0.198 A 
ATOM     89  C   UNL A   1      44.921  27.222  36.995  1.00  0.00     0.198 A 
ATOM     90  F   UNL A   1      42.628  27.239  36.479  1.00  0.00    -0.203 F 
ATOM     91  F   UNL A   1      47.653  29.206  35.683  1.00  0.00    -0.200 F 
ATOM     92  C   UNL A   1      46.202  27.716  36.798  1.00  0.00     0.200 A 
ATOM     93  F   UNL A   1      44.712  26.234  37.877  1.00  0.00    -0.200 F 
ATOM     94  F   UNL A   1      47.234  27.191  37.473  1.00  0.00    -0.200 F 
ENDBRANCH  61  84
ENDBRANCH  35  36
ENDBRANCH  27  30
ENDBRANCH  25  26
ENDBRANCH  24  25
ENDBRANCH   1  24
TORSDOF 14
ENDMDL
