MODEL 1
REMARK VINA RESULT:     -12.0      0.000      0.000
REMARK SMILES CC(C)(C)OC(=O)[C@@H]1[NH2+][C@H](C(=O)NCCCCNC(=O)c2ccc(-c3c4nc(c(-c5c(F)c(F)c(F)c(F)c5F)c5ccc([nH]5)c(-c5c(F)c(F)c(F)c(F)c5F)c5nc(c(-c6c(F)c(F)c(F)c(F)c6F)c6ccc3[nH]6)C=C5)C=C4)cc2)C(C)(C)S1
REMARK SMILES IDX 15 1 14 2 13 3 11 4 12 5 10 7 8 8 9 9 87 10 84 13 85 14
REMARK SMILES IDX 86 15 6 16 7 17 5 18 2 19 1 20 3 21 4 22 16 23 17 24 18 25
REMARK SMILES IDX 19 26 20 28 21 29 22 30 83 31 23 32 82 33 24 34 25 35 26 36
REMARK SMILES IDX 76 37 27 38 81 39 75 40 77 41 28 42 80 43 74 44 73 45 29 47
REMARK SMILES IDX 61 48 41 49 60 50 42 51 45 52 59 53 78 54 43 55 44 56 58 58
REMARK SMILES IDX 79 59 46 60 30 61 31 62 39 63 32 64 33 65 37 66 40 67 34 68
REMARK SMILES IDX 35 69 38 70 36 71 62 72 63 73 71 74 64 75 65 76 69 77 72 78
REMARK SMILES IDX 66 79 67 80 70 81 68 82 47 83 48 84 56 85 49 86 50 87 54 88
REMARK SMILES IDX 57 89 51 90 52 91 55 92 53 93
REMARK H PARENT 13 6 9 11 9 12 18 27 77 46 45 57
REMARK Flexibility Score: inf
ROOT
ATOM      1  C   UNL A   1      31.613  30.655  26.434  1.00  0.00     0.023 C 
ENDROOT
BRANCH   1   2
ATOM      2  C   UNL A   1      33.054  30.139  26.456  1.00  0.00     0.116 C 
BRANCH   2   3
ATOM      3  N   UNL A   1      33.404  29.595  25.161  1.00  0.00    -0.351 N 
ATOM      4  C   UNL A   1      33.377  28.293  24.746  1.00  0.00     0.279 C 
ATOM      5  O   UNL A   1      34.045  28.017  23.752  1.00  0.00    -0.268 OA
ATOM      6  H   UNL A   1      33.701  30.252  24.491  1.00  0.00     0.163 HD
BRANCH   4   7
ATOM      7  C   UNL A   1      32.493  27.280  25.511  1.00  0.00     0.289 C 
ATOM      8  C   UNL A   1      30.630  26.980  24.008  1.00  0.00     0.354 C 
ATOM      9  N   UNL A   1      31.056  27.624  25.281  1.00  0.00    -0.314 N 
ATOM     10  S   UNL A   1      31.662  25.518  23.706  1.00  0.00    -0.074 SA
ATOM     11  H   UNL A   1      30.488  27.276  26.053  1.00  0.00     0.348 HD
ATOM     12  H   UNL A   1      30.937  28.636  25.225  1.00  0.00     0.348 HD
ATOM     13  C   UNL A   1      32.692  25.784  25.185  1.00  0.00     0.078 C 
ATOM     14  C   UNL A   1      32.117  24.914  26.324  1.00  0.00     0.030 C 
ATOM     15  C   UNL A   1      34.145  25.367  24.950  1.00  0.00     0.030 C 
BRANCH   8  16
ATOM     16  C   UNL A   1      30.553  27.999  22.853  1.00  0.00     0.376 C 
ATOM     17  O   UNL A   1      30.696  27.663  21.679  1.00  0.00    -0.244 OA
BRANCH  16  18
ATOM     18  O   UNL A   1      30.247  29.257  23.260  1.00  0.00    -0.455 OA
BRANCH  18  19
ATOM     19  C   UNL A   1      29.016  29.907  22.851  1.00  0.00     0.104 C 
ATOM     20  C   UNL A   1      28.856  31.111  23.795  1.00  0.00     0.056 C 
ATOM     21  C   UNL A   1      27.804  28.986  23.039  1.00  0.00     0.056 C 
ATOM     22  C   UNL A   1      29.119  30.430  21.415  1.00  0.00     0.056 C 
ENDBRANCH  18  19
ENDBRANCH  16  18
ENDBRANCH   8  16
ENDBRANCH   4   7
ENDBRANCH   2   3
ENDBRANCH   1   2
BRANCH   1  23
ATOM     23  C   UNL A   1      31.488  32.177  26.585  1.00  0.00     0.023 C 
BRANCH  23  24
ATOM     24  C   UNL A   1      32.680  32.859  27.247  1.00  0.00     0.116 C 
BRANCH  24  25
ATOM     25  N   UNL A   1      32.400  34.239  27.612  1.00  0.00    -0.352 N 
ATOM     26  C   UNL A   1      32.984  35.010  28.586  1.00  0.00     0.251 C 
ATOM     27  H   UNL A   1      31.694  34.681  27.088  1.00  0.00     0.163 HD
ATOM     28  O   UNL A   1      32.515  36.110  28.866  1.00  0.00    -0.269 OA
BRANCH  26  29
ATOM     29  C   UNL A   1      34.159  34.499  29.321  1.00  0.00     0.039 A 
ATOM     30  C   UNL A   1      33.955  33.758  30.488  1.00  0.00     0.014 A 
ATOM     31  C   UNL A   1      35.455  34.739  28.858  1.00  0.00     0.014 A 
ATOM     32  C   UNL A   1      35.049  33.200  31.154  1.00  0.00     0.010 A 
ATOM     33  C   UNL A   1      36.537  34.122  29.480  1.00  0.00     0.010 A 
ATOM     34  C   UNL A   1      36.346  33.345  30.633  1.00  0.00    -0.014 A 
BRANCH  34  35
ATOM     35  C   UNL A   1      37.516  32.693  31.277  1.00  0.00     0.031 A 
ATOM     36  C   UNL A   1      38.211  31.548  30.593  1.00  0.00     0.074 A 
ATOM     37  C   UNL A   1      37.911  33.088  32.505  1.00  0.00     0.049 A 
ATOM     38  N   UNL A   1      39.180  30.786  31.032  1.00  0.00    -0.248 NA
ATOM     39  C   UNL A   1      37.736  31.198  29.244  1.00  0.00     0.031 C 
ATOM     40  C   UNL A   1      37.300  34.164  33.285  1.00  0.00     0.029 A 
ATOM     41  N   UNL A   1      38.912  32.618  33.318  1.00  0.00    -0.354 N 
ATOM     42  C   UNL A   1      39.425  29.865  30.022  1.00  0.00     0.074 A 
ATOM     43  C   UNL A   1      38.466  30.128  28.970  1.00  0.00     0.031 C 
ATOM     44  C   UNL A   1      37.948  34.284  34.454  1.00  0.00     0.029 A 
ATOM     45  C   UNL A   1      38.989  33.264  34.528  1.00  0.00     0.049 A 
ATOM     46  H   UNL A   1      39.518  31.886  33.058  1.00  0.00     0.167 HD
ATOM     47  C   UNL A   1      40.378  28.906  29.965  1.00  0.00     0.037 A 
ATOM     48  C   UNL A   1      39.797  33.045  35.585  1.00  0.00     0.037 A 
ATOM     49  C   UNL A   1      41.340  28.659  31.007  1.00  0.00     0.049 A 
ATOM     50  C   UNL A   1      40.822  31.944  35.509  1.00  0.00     0.074 A 
ATOM     51  C   UNL A   1      42.368  27.731  31.029  1.00  0.00     0.029 A 
ATOM     52  N   UNL A   1      41.394  29.343  32.212  1.00  0.00    -0.354 N 
ATOM     53  N   UNL A   1      41.079  31.116  34.525  1.00  0.00    -0.248 NA
ATOM     54  C   UNL A   1      41.676  31.751  36.689  1.00  0.00     0.031 C 
ATOM     55  C   UNL A   1      43.011  27.819  32.267  1.00  0.00     0.029 A 
ATOM     56  C   UNL A   1      42.426  28.846  32.991  1.00  0.00     0.049 A 
ATOM     57  H   UNL A   1      40.789  30.074  32.474  1.00  0.00     0.167 HD
ATOM     58  C   UNL A   1      42.148  30.339  34.949  1.00  0.00     0.074 A 
ATOM     59  C   UNL A   1      42.498  30.798  36.277  1.00  0.00     0.031 C 
ATOM     60  C   UNL A   1      42.783  29.334  34.299  1.00  0.00     0.037 A 
BRANCH  47  61
ATOM     61  C   UNL A   1      40.439  28.052  28.732  1.00  0.00     0.064 A 
ATOM     62  C   UNL A   1      41.205  28.427  27.617  1.00  0.00     0.173 A 
ATOM     63  C   UNL A   1      39.778  26.814  28.686  1.00  0.00     0.173 A 
ATOM     64  F   UNL A   1      41.849  29.604  27.605  1.00  0.00    -0.203 F 
ATOM     65  C   UNL A   1      41.288  27.606  26.496  1.00  0.00     0.198 A 
ATOM     66  C   UNL A   1      39.890  25.982  27.576  1.00  0.00     0.198 A 
ATOM     67  F   UNL A   1      39.038  26.404  29.727  1.00  0.00    -0.203 F 
ATOM     68  F   UNL A   1      41.991  28.004  25.426  1.00  0.00    -0.200 F 
ATOM     69  C   UNL A   1      40.639  26.380  26.480  1.00  0.00     0.200 A 
ATOM     70  F   UNL A   1      39.276  24.790  27.570  1.00  0.00    -0.200 F 
ATOM     71  F   UNL A   1      40.734  25.584  25.406  1.00  0.00    -0.200 F 
ENDBRANCH  47  61
BRANCH  48  72
ATOM     72  C   UNL A   1      39.681  33.886  36.807  1.00  0.00     0.064 A 
ATOM     73  C   UNL A   1      38.880  33.483  37.885  1.00  0.00     0.173 A 
ATOM     74  C   UNL A   1      40.332  35.125  36.909  1.00  0.00     0.173 A 
ATOM     75  F   UNL A   1      38.220  32.317  37.830  1.00  0.00    -0.203 F 
ATOM     76  C   UNL A   1      38.704  34.302  39.000  1.00  0.00     0.198 A 
ATOM     77  C   UNL A   1      40.184  35.926  38.039  1.00  0.00     0.198 A 
ATOM     78  F   UNL A   1      41.115  35.556  35.909  1.00  0.00    -0.203 F 
ATOM     79  F   UNL A   1      37.879  33.920  39.984  1.00  0.00    -0.200 F 
ATOM     80  C   UNL A   1      39.359  35.521  39.077  1.00  0.00     0.200 A 
ATOM     81  F   UNL A   1      40.832  37.097  38.116  1.00  0.00    -0.200 F 
ATOM     82  F   UNL A   1      39.186  36.311  40.146  1.00  0.00    -0.200 F 
ENDBRANCH  48  72
BRANCH  60  83
ATOM     83  C   UNL A   1      43.968  28.707  34.975  1.00  0.00     0.064 A 
ATOM     84  C   UNL A   1      45.263  29.227  34.841  1.00  0.00     0.173 A 
ATOM     85  C   UNL A   1      43.792  27.593  35.812  1.00  0.00     0.173 A 
ATOM     86  F   UNL A   1      45.487  30.282  34.041  1.00  0.00    -0.203 F 
ATOM     87  C   UNL A   1      46.341  28.641  35.499  1.00  0.00     0.198 A 
ATOM     88  C   UNL A   1      44.866  27.031  36.496  1.00  0.00     0.198 A 
ATOM     89  F   UNL A   1      42.572  27.061  35.982  1.00  0.00    -0.203 F 
ATOM     90  F   UNL A   1      47.578  29.126  35.317  1.00  0.00    -0.200 F 
ATOM     91  C   UNL A   1      46.141  27.551  36.332  1.00  0.00     0.200 A 
ATOM     92  F   UNL A   1      44.668  25.989  37.314  1.00  0.00    -0.200 F 
ATOM     93  F   UNL A   1      47.179  26.998  36.974  1.00  0.00    -0.200 F 
ENDBRANCH  60  83
ENDBRANCH  34  35
ENDBRANCH  26  29
ENDBRANCH  24  25
ENDBRANCH  23  24
ENDBRANCH   1  23
TORSDOF 14
ENDMDL
MODEL 2
REMARK VINA RESULT:     -12.0      0.395      1.290
REMARK SMILES CC(C)(C)OC(=O)[C@@H]1[NH2+][C@H](C(=O)NCCCCNC(=O)c2ccc(-c3c4nc(c(-c5c(F)c(F)c(F)c(F)c5F)c5ccc([nH]5)c(-c5c(F)c(F)c(F)c(F)c5F)c5nc(c(-c6c(F)c(F)c(F)c(F)c6F)c6ccc3[nH]6)C=C5)C=C4)cc2)C(C)(C)S1
REMARK SMILES IDX 15 1 14 2 13 3 11 4 12 5 10 7 8 8 9 9 87 10 84 13 85 14
REMARK SMILES IDX 86 15 6 16 7 17 5 18 2 19 1 20 3 21 4 22 16 23 17 24 18 25
REMARK SMILES IDX 19 26 20 28 21 29 22 30 83 31 23 32 82 33 24 34 25 35 26 36
REMARK SMILES IDX 76 37 27 38 81 39 75 40 77 41 28 42 80 43 74 44 73 45 29 47
REMARK SMILES IDX 61 48 41 49 60 50 42 51 45 52 59 53 78 54 43 55 44 56 58 58
REMARK SMILES IDX 79 59 46 60 30 61 31 62 39 63 32 64 33 65 37 66 40 67 34 68
REMARK SMILES IDX 35 69 38 70 36 71 62 72 63 73 71 74 64 75 65 76 69 77 72 78
REMARK SMILES IDX 66 79 67 80 70 81 68 82 47 83 48 84 56 85 49 86 50 87 54 88
REMARK SMILES IDX 57 89 51 90 52 91 55 92 53 93
REMARK H PARENT 13 6 9 11 9 12 18 27 77 46 45 57
REMARK Flexibility Score: inf
ROOT
ATOM      1  C   UNL A   1      31.782  30.561  26.867  1.00  0.00     0.023 C 
ENDROOT
BRANCH   1   2
ATOM      2  C   UNL A   1      33.183  30.085  26.477  1.00  0.00     0.116 C 
BRANCH   2   3
ATOM      3  N   UNL A   1      33.234  29.808  25.056  1.00  0.00    -0.351 N 
ATOM      4  C   UNL A   1      33.052  28.618  24.411  1.00  0.00     0.279 C 
ATOM      5  O   UNL A   1      33.488  28.540  23.265  1.00  0.00    -0.268 OA
ATOM      6  H   UNL A   1      33.425  30.583  24.480  1.00  0.00     0.163 HD
BRANCH   4   7
ATOM      7  C   UNL A   1      32.286  27.483  25.132  1.00  0.00     0.289 C 
ATOM      8  C   UNL A   1      30.261  27.319  23.833  1.00  0.00     0.354 C 
ATOM      9  N   UNL A   1      30.826  27.805  25.122  1.00  0.00    -0.314 N 
ATOM     10  S   UNL A   1      31.274  25.946  23.218  1.00  0.00    -0.074 SA
ATOM     11  H   UNL A   1      30.362  27.338  25.902  1.00  0.00     0.348 HD
ATOM     12  H   UNL A   1      30.682  28.810  25.217  1.00  0.00     0.348 HD
ATOM     13  C   UNL A   1      32.473  26.051  24.587  1.00  0.00     0.078 C 
ATOM     14  C   UNL A   1      32.057  25.019  25.658  1.00  0.00     0.030 C 
ATOM     15  C   UNL A   1      33.893  25.719  24.127  1.00  0.00     0.030 C 
BRANCH   8  16
ATOM     16  C   UNL A   1      30.024  28.476  22.843  1.00  0.00     0.376 C 
ATOM     17  O   UNL A   1      30.339  28.393  21.658  1.00  0.00    -0.244 OA
BRANCH  16  18
ATOM     18  O   UNL A   1      29.384  29.539  23.394  1.00  0.00    -0.455 OA
BRANCH  18  19
ATOM     19  C   UNL A   1      28.092  29.983  22.904  1.00  0.00     0.104 C 
ATOM     20  C   UNL A   1      27.141  28.794  23.122  1.00  0.00     0.056 C 
ATOM     21  C   UNL A   1      28.137  30.292  21.403  1.00  0.00     0.056 C 
ATOM     22  C   UNL A   1      27.572  31.171  23.718  1.00  0.00     0.056 C 
ENDBRANCH  18  19
ENDBRANCH  16  18
ENDBRANCH   8  16
ENDBRANCH   4   7
ENDBRANCH   2   3
ENDBRANCH   1   2
BRANCH   1  23
ATOM     23  C   UNL A   1      31.603  32.085  26.830  1.00  0.00     0.023 C 
BRANCH  23  24
ATOM     24  C   UNL A   1      32.830  32.888  27.246  1.00  0.00     0.116 C 
BRANCH  24  25
ATOM     25  N   UNL A   1      32.498  34.245  27.649  1.00  0.00    -0.352 N 
ATOM     26  C   UNL A   1      33.036  35.003  28.659  1.00  0.00     0.251 C 
ATOM     27  H   UNL A   1      31.787  34.681  27.125  1.00  0.00     0.163 HD
ATOM     28  O   UNL A   1      32.526  36.078  28.964  1.00  0.00    -0.269 OA
BRANCH  26  29
ATOM     29  C   UNL A   1      34.213  34.507  29.401  1.00  0.00     0.039 A 
ATOM     30  C   UNL A   1      34.018  33.880  30.635  1.00  0.00     0.014 A 
ATOM     31  C   UNL A   1      35.502  34.648  28.880  1.00  0.00     0.014 A 
ATOM     32  C   UNL A   1      35.110  33.335  31.315  1.00  0.00     0.010 A 
ATOM     33  C   UNL A   1      36.578  34.041  29.522  1.00  0.00     0.010 A 
ATOM     34  C   UNL A   1      36.393  33.378  30.745  1.00  0.00    -0.014 A 
BRANCH  34  35
ATOM     35  C   UNL A   1      37.556  32.734  31.410  1.00  0.00     0.031 A 
ATOM     36  C   UNL A   1      38.263  31.586  30.743  1.00  0.00     0.074 A 
ATOM     37  C   UNL A   1      37.934  33.139  32.639  1.00  0.00     0.049 A 
ATOM     38  N   UNL A   1      39.230  30.830  31.201  1.00  0.00    -0.248 NA
ATOM     39  C   UNL A   1      37.809  31.225  29.391  1.00  0.00     0.031 C 
ATOM     40  C   UNL A   1      37.309  34.219  33.404  1.00  0.00     0.029 A 
ATOM     41  N   UNL A   1      38.925  32.678  33.470  1.00  0.00    -0.354 N 
ATOM     42  C   UNL A   1      39.490  29.903  30.200  1.00  0.00     0.074 A 
ATOM     43  C   UNL A   1      38.545  30.155  29.134  1.00  0.00     0.031 C 
ATOM     44  C   UNL A   1      37.941  34.350  34.580  1.00  0.00     0.029 A 
ATOM     45  C   UNL A   1      38.984  33.333  34.676  1.00  0.00     0.049 A 
ATOM     46  H   UNL A   1      39.537  31.946  33.223  1.00  0.00     0.167 HD
ATOM     47  C   UNL A   1      40.447  28.946  30.164  1.00  0.00     0.037 A 
ATOM     48  C   UNL A   1      39.778  33.125  35.745  1.00  0.00     0.037 A 
ATOM     49  C   UNL A   1      41.396  28.709  31.220  1.00  0.00     0.049 A 
ATOM     50  C   UNL A   1      40.807  32.026  35.690  1.00  0.00     0.074 A 
ATOM     51  C   UNL A   1      42.425  27.784  31.263  1.00  0.00     0.029 A 
ATOM     52  N   UNL A   1      41.432  29.403  32.420  1.00  0.00    -0.354 N 
ATOM     53  N   UNL A   1      41.080  31.192  34.716  1.00  0.00    -0.248 NA
ATOM     54  C   UNL A   1      41.646  31.844  36.884  1.00  0.00     0.031 C 
ATOM     55  C   UNL A   1      43.052  27.884  32.508  1.00  0.00     0.029 A 
ATOM     56  C   UNL A   1      42.455  28.914  33.217  1.00  0.00     0.049 A 
ATOM     57  H   UNL A   1      40.821  30.134  32.669  1.00  0.00     0.167 HD
ATOM     58  C   UNL A   1      42.145  30.420  35.160  1.00  0.00     0.074 A 
ATOM     59  C   UNL A   1      42.477  30.890  36.489  1.00  0.00     0.031 C 
ATOM     60  C   UNL A   1      42.792  29.413  34.526  1.00  0.00     0.037 A 
BRANCH  47  61
ATOM     61  C   UNL A   1      40.527  28.083  28.938  1.00  0.00     0.064 A 
ATOM     62  C   UNL A   1      39.797  26.890  28.831  1.00  0.00     0.173 A 
ATOM     63  C   UNL A   1      41.292  28.485  27.831  1.00  0.00     0.173 A 
ATOM     64  F   UNL A   1      39.058  26.456  29.863  1.00  0.00    -0.203 F 
ATOM     65  C   UNL A   1      39.846  26.121  27.672  1.00  0.00     0.198 A 
ATOM     66  C   UNL A   1      41.313  27.729  26.662  1.00  0.00     0.198 A 
ATOM     67  F   UNL A   1      42.004  29.620  27.876  1.00  0.00    -0.203 F 
ATOM     68  F   UNL A   1      39.172  24.963  27.608  1.00  0.00    -0.200 F 
ATOM     69  C   UNL A   1      40.595  26.546  26.584  1.00  0.00     0.200 A 
ATOM     70  F   UNL A   1      42.024  28.150  25.606  1.00  0.00    -0.200 F 
ATOM     71  F   UNL A   1      40.627  25.812  25.463  1.00  0.00    -0.200 F 
ENDBRANCH  47  61
BRANCH  48  72
ATOM     72  C   UNL A   1      39.643  33.973  36.959  1.00  0.00     0.064 A 
ATOM     73  C   UNL A   1      38.852  33.563  38.041  1.00  0.00     0.173 A 
ATOM     74  C   UNL A   1      40.266  35.228  37.049  1.00  0.00     0.173 A 
ATOM     75  F   UNL A   1      38.219  32.381  37.997  1.00  0.00    -0.203 F 
ATOM     76  C   UNL A   1      38.658  34.388  39.148  1.00  0.00     0.198 A 
ATOM     77  C   UNL A   1      40.100  36.036  38.171  1.00  0.00     0.198 A 
ATOM     78  F   UNL A   1      41.039  35.667  36.045  1.00  0.00    -0.203 F 
ATOM     79  F   UNL A   1      37.842  33.996  40.137  1.00  0.00    -0.200 F 
ATOM     80  C   UNL A   1      39.285  35.622  39.214  1.00  0.00     0.200 A 
ATOM     81  F   UNL A   1      40.721  37.222  38.238  1.00  0.00    -0.200 F 
ATOM     82  F   UNL A   1      39.094  36.417  40.275  1.00  0.00    -0.200 F 
ENDBRANCH  48  72
BRANCH  60  83
ATOM     83  C   UNL A   1      43.969  28.794  35.223  1.00  0.00     0.064 A 
ATOM     84  C   UNL A   1      45.274  29.280  35.053  1.00  0.00     0.173 A 
ATOM     85  C   UNL A   1      43.778  27.726  36.114  1.00  0.00     0.173 A 
ATOM     86  F   UNL A   1      45.513  30.290  34.202  1.00  0.00    -0.203 F 
ATOM     87  C   UNL A   1      46.345  28.704  35.731  1.00  0.00     0.198 A 
ATOM     88  C   UNL A   1      44.846  27.175  36.816  1.00  0.00     0.198 A 
ATOM     89  F   UNL A   1      42.549  27.228  36.318  1.00  0.00    -0.203 F 
ATOM     90  F   UNL A   1      47.590  29.153  35.516  1.00  0.00    -0.200 F 
ATOM     91  C   UNL A   1      46.130  27.659  36.617  1.00  0.00     0.200 A 
ATOM     92  F   UNL A   1      44.633  26.178  37.685  1.00  0.00    -0.200 F 
ATOM     93  F   UNL A   1      47.162  27.116  37.278  1.00  0.00    -0.200 F 
ENDBRANCH  60  83
ENDBRANCH  34  35
ENDBRANCH  26  29
ENDBRANCH  24  25
ENDBRANCH  23  24
ENDBRANCH   1  23
TORSDOF 14
ENDMDL
MODEL 3
REMARK VINA RESULT:     -12.0      6.197     11.534
REMARK SMILES CC(C)(C)OC(=O)[C@@H]1[NH2+][C@H](C(=O)NCCCCNC(=O)c2ccc(-c3c4nc(c(-c5c(F)c(F)c(F)c(F)c5F)c5ccc([nH]5)c(-c5c(F)c(F)c(F)c(F)c5F)c5nc(c(-c6c(F)c(F)c(F)c(F)c6F)c6ccc3[nH]6)C=C5)C=C4)cc2)C(C)(C)S1
REMARK SMILES IDX 15 1 14 2 13 3 11 4 12 5 10 7 8 8 9 9 87 10 84 13 85 14
REMARK SMILES IDX 86 15 6 16 7 17 5 18 2 19 1 20 3 21 4 22 16 23 17 24 18 25
REMARK SMILES IDX 19 26 20 28 21 29 22 30 83 31 23 32 82 33 24 34 25 35 26 36
REMARK SMILES IDX 76 37 27 38 81 39 75 40 77 41 28 42 80 43 74 44 73 45 29 47
REMARK SMILES IDX 61 48 41 49 60 50 42 51 45 52 59 53 78 54 43 55 44 56 58 58
REMARK SMILES IDX 79 59 46 60 30 61 31 62 39 63 32 64 33 65 37 66 40 67 34 68
REMARK SMILES IDX 35 69 38 70 36 71 62 72 63 73 71 74 64 75 65 76 69 77 72 78
REMARK SMILES IDX 66 79 67 80 70 81 68 82 47 83 48 84 56 85 49 86 50 87 54 88
REMARK SMILES IDX 57 89 51 90 52 91 55 92 53 93
REMARK H PARENT 13 6 9 11 9 12 18 27 77 46 45 57
REMARK Flexibility Score: inf
ROOT
ATOM      1  C   UNL A   1      37.353  20.799  24.610  1.00  0.00     0.023 C 
ENDROOT
BRANCH   1   2
ATOM      2  C   UNL A   1      37.403  21.985  25.576  1.00  0.00     0.116 C 
BRANCH   2   3
ATOM      3  N   UNL A   1      36.188  22.034  26.363  1.00  0.00    -0.351 N 
ATOM      4  C   UNL A   1      35.066  22.784  26.154  1.00  0.00     0.279 C 
ATOM      5  O   UNL A   1      34.320  22.940  27.119  1.00  0.00    -0.268 OA
ATOM      6  H   UNL A   1      36.170  21.446  27.152  1.00  0.00     0.163 HD
BRANCH   4   7
ATOM      7  C   UNL A   1      34.787  23.342  24.738  1.00  0.00     0.289 C 
ATOM      8  C   UNL A   1      32.909  22.013  24.018  1.00  0.00     0.354 C 
ATOM      9  N   UNL A   1      34.375  22.214  23.848  1.00  0.00    -0.314 N 
ATOM     10  S   UNL A   1      32.150  23.574  24.543  1.00  0.00    -0.074 SA
ATOM     11  H   UNL A   1      34.583  22.444  22.877  1.00  0.00     0.348 HD
ATOM     12  H   UNL A   1      34.881  21.364  24.093  1.00  0.00     0.348 HD
ATOM     13  C   UNL A   1      33.737  24.467  24.618  1.00  0.00     0.078 C 
ATOM     14  C   UNL A   1      33.919  25.219  23.282  1.00  0.00     0.030 C 
ATOM     15  C   UNL A   1      33.761  25.491  25.753  1.00  0.00     0.030 C 
BRANCH   8  16
ATOM     16  C   UNL A   1      32.601  20.786  24.899  1.00  0.00     0.376 C 
ATOM     17  O   UNL A   1      31.528  20.659  25.486  1.00  0.00    -0.244 OA
BRANCH  16  18
ATOM     18  O   UNL A   1      33.590  19.855  24.897  1.00  0.00    -0.455 OA
BRANCH  18  19
ATOM     19  C   UNL A   1      33.333  18.478  24.520  1.00  0.00     0.104 C 
ATOM     20  C   UNL A   1      34.718  17.849  24.297  1.00  0.00     0.056 C 
ATOM     21  C   UNL A   1      32.550  18.392  23.203  1.00  0.00     0.056 C 
ATOM     22  C   UNL A   1      32.634  17.717  25.651  1.00  0.00     0.056 C 
ENDBRANCH  18  19
ENDBRANCH  16  18
ENDBRANCH   8  16
ENDBRANCH   4   7
ENDBRANCH   2   3
ENDBRANCH   1   2
BRANCH   1  23
ATOM     23  C   UNL A   1      38.245  19.618  25.017  1.00  0.00     0.023 C 
BRANCH  23  24
ATOM     24  C   UNL A   1      39.418  19.979  25.921  1.00  0.00     0.116 C 
BRANCH  24  25
ATOM     25  N   UNL A   1      40.441  18.945  25.945  1.00  0.00    -0.352 N 
ATOM     26  C   UNL A   1      41.799  19.076  26.098  1.00  0.00     0.251 C 
ATOM     27  H   UNL A   1      40.114  18.023  25.836  1.00  0.00     0.163 HD
ATOM     28  O   UNL A   1      42.535  18.107  25.935  1.00  0.00    -0.269 OA
BRANCH  26  29
ATOM     29  C   UNL A   1      42.376  20.396  26.428  1.00  0.00     0.039 A 
ATOM     30  C   UNL A   1      42.916  21.172  25.398  1.00  0.00     0.014 A 
ATOM     31  C   UNL A   1      42.375  20.872  27.741  1.00  0.00     0.014 A 
ATOM     32  C   UNL A   1      43.396  22.454  25.677  1.00  0.00     0.010 A 
ATOM     33  C   UNL A   1      42.786  22.176  28.004  1.00  0.00     0.010 A 
ATOM     34  C   UNL A   1      43.299  22.981  26.976  1.00  0.00    -0.014 A 
BRANCH  34  35
ATOM     35  C   UNL A   1      43.726  24.371  27.280  1.00  0.00     0.031 A 
ATOM     36  C   UNL A   1      42.723  25.375  27.778  1.00  0.00     0.074 A 
ATOM     37  C   UNL A   1      45.000  24.746  27.048  1.00  0.00     0.049 A 
ATOM     38  N   UNL A   1      42.874  26.656  28.004  1.00  0.00    -0.248 NA
ATOM     39  C   UNL A   1      41.361  24.878  28.033  1.00  0.00     0.031 C 
ATOM     40  C   UNL A   1      46.059  23.876  26.537  1.00  0.00     0.029 A 
ATOM     41  N   UNL A   1      45.617  25.964  27.196  1.00  0.00    -0.354 N 
ATOM     42  C   UNL A   1      41.631  27.117  28.418  1.00  0.00     0.074 A 
ATOM     43  C   UNL A   1      40.723  25.992  28.359  1.00  0.00     0.031 C 
ATOM     44  C   UNL A   1      47.197  24.580  26.431  1.00  0.00     0.029 A 
ATOM     45  C   UNL A   1      46.939  25.963  26.820  1.00  0.00     0.049 A 
ATOM     46  H   UNL A   1      45.155  26.763  27.540  1.00  0.00     0.167 HD
ATOM     47  C   UNL A   1      41.286  28.358  28.833  1.00  0.00     0.037 A 
ATOM     48  C   UNL A   1      47.835  26.968  26.777  1.00  0.00     0.037 A 
ATOM     49  C   UNL A   1      42.197  29.470  28.905  1.00  0.00     0.049 A 
ATOM     50  C   UNL A   1      47.411  28.348  27.208  1.00  0.00     0.074 A 
ATOM     51  C   UNL A   1      41.949  30.760  29.345  1.00  0.00     0.029 A 
ATOM     52  N   UNL A   1      43.531  29.425  28.529  1.00  0.00    -0.354 N 
ATOM     53  N   UNL A   1      46.246  28.758  27.649  1.00  0.00    -0.248 NA
ATOM     54  C   UNL A   1      48.430  29.405  27.142  1.00  0.00     0.031 C 
ATOM     55  C   UNL A   1      43.119  31.508  29.187  1.00  0.00     0.029 A 
ATOM     56  C   UNL A   1      44.114  30.669  28.709  1.00  0.00     0.049 A 
ATOM     57  H   UNL A   1      43.994  28.628  28.184  1.00  0.00     0.167 HD
ATOM     58  C   UNL A   1      46.405  30.103  27.953  1.00  0.00     0.074 A 
ATOM     59  C   UNL A   1      47.781  30.440  27.655  1.00  0.00     0.031 C 
ATOM     60  C   UNL A   1      45.493  30.982  28.437  1.00  0.00     0.037 A 
BRANCH  47  61
ATOM     61  C   UNL A   1      39.862  28.584  29.253  1.00  0.00     0.064 A 
ATOM     62  C   UNL A   1      39.441  28.357  30.572  1.00  0.00     0.173 A 
ATOM     63  C   UNL A   1      38.922  29.095  28.344  1.00  0.00     0.173 A 
ATOM     64  F   UNL A   1      40.297  27.860  31.478  1.00  0.00    -0.203 F 
ATOM     65  C   UNL A   1      38.128  28.611  30.960  1.00  0.00     0.198 A 
ATOM     66  C   UNL A   1      37.619  29.378  28.744  1.00  0.00     0.198 A 
ATOM     67  F   UNL A   1      39.273  29.338  27.072  1.00  0.00    -0.203 F 
ATOM     68  F   UNL A   1      37.739  28.346  32.215  1.00  0.00    -0.200 F 
ATOM     69  C   UNL A   1      37.221  29.131  30.048  1.00  0.00     0.200 A 
ATOM     70  F   UNL A   1      36.748  29.897  27.866  1.00  0.00    -0.200 F 
ATOM     71  F   UNL A   1      35.962  29.391  30.428  1.00  0.00    -0.200 F 
ENDBRANCH  47  61
BRANCH  48  72
ATOM     72  C   UNL A   1      49.228  26.715  26.317  1.00  0.00     0.064 A 
ATOM     73  C   UNL A   1      49.593  26.920  24.979  1.00  0.00     0.173 A 
ATOM     74  C   UNL A   1      50.210  26.226  27.191  1.00  0.00     0.173 A 
ATOM     75  F   UNL A   1      48.684  27.368  24.099  1.00  0.00    -0.203 F 
ATOM     76  C   UNL A   1      50.874  26.611  24.524  1.00  0.00     0.198 A 
ATOM     77  C   UNL A   1      51.501  25.951  26.743  1.00  0.00     0.198 A 
ATOM     78  F   UNL A   1      49.917  26.017  28.483  1.00  0.00    -0.203 F 
ATOM     79  F   UNL A   1      51.172  26.754  23.226  1.00  0.00    -0.200 F 
ATOM     80  C   UNL A   1      51.827  26.130  25.407  1.00  0.00     0.200 A 
ATOM     81  F   UNL A   1      52.425  25.501  27.604  1.00  0.00    -0.200 F 
ATOM     82  F   UNL A   1      53.057  25.827  24.969  1.00  0.00    -0.200 F 
ENDBRANCH  48  72
BRANCH  60  83
ATOM     83  C   UNL A   1      45.964  32.374  28.744  1.00  0.00     0.064 A 
ATOM     84  C   UNL A   1      45.899  33.407  27.796  1.00  0.00     0.173 A 
ATOM     85  C   UNL A   1      46.441  32.689  30.026  1.00  0.00     0.173 A 
ATOM     86  F   UNL A   1      45.464  33.155  26.552  1.00  0.00    -0.203 F 
ATOM     87  C   UNL A   1      46.319  34.696  28.114  1.00  0.00     0.198 A 
ATOM     88  C   UNL A   1      46.827  33.987  30.350  1.00  0.00     0.198 A 
ATOM     89  F   UNL A   1      46.516  31.741  30.971  1.00  0.00    -0.203 F 
ATOM     90  F   UNL A   1      46.293  35.655  27.178  1.00  0.00    -0.200 F 
ATOM     91  C   UNL A   1      46.773  34.987  29.392  1.00  0.00     0.200 A 
ATOM     92  F   UNL A   1      47.249  34.269  31.590  1.00  0.00    -0.200 F 
ATOM     93  F   UNL A   1      47.164  36.232  29.698  1.00  0.00    -0.200 F 
ENDBRANCH  60  83
ENDBRANCH  34  35
ENDBRANCH  26  29
ENDBRANCH  24  25
ENDBRANCH  23  24
ENDBRANCH   1  23
TORSDOF 14
ENDMDL
