MODEL 1
REMARK VINA RESULT:     -13.3      0.000      0.000
REMARK SMILES COc1ccc(NC(=O)c2nn(C)cc2C(=O)NCCCCNC(=O)c2ccc(-c3c4nc(c(-c5c(F)c(F)c(F)c(F)c5F)c5ccc([nH]5)c(-c5c(F)c(F)c(F)c(F)c5F)c5nc(c(-c6c(F)c(F)c(F)c(F)c6F)c6ccc3[nH]6)C=C5)C=C4)cc2)c(C)c1
REMARK SMILES IDX 20 1 19 2 18 3 16 4 17 5 15 7 10 8 11 9 12 10 14 11 13 12
REMARK SMILES IDX 8 13 7 14 9 16 6 17 3 18 4 19 91 20 5 21 89 22 90 23 2 24
REMARK SMILES IDX 1 25 21 26 22 27 23 28 24 29 25 31 26 32 27 33 88 34 28 35
REMARK SMILES IDX 87 36 29 37 30 38 31 39 81 40 32 41 86 42 80 43 82 44 33 45
REMARK SMILES IDX 85 46 79 47 78 48 34 50 66 51 46 52 65 53 47 54 50 55 64 56
REMARK SMILES IDX 83 57 48 58 49 59 63 61 84 62 51 63 35 64 36 65 44 66 37 67
REMARK SMILES IDX 38 68 42 69 45 70 39 71 40 72 43 73 41 74 67 75 68 76 76 77
REMARK SMILES IDX 69 78 70 79 74 80 77 81 71 82 72 83 75 84 73 85 52 86 53 87
REMARK SMILES IDX 61 88 54 89 55 90 59 91 62 92 56 93 57 94 60 95 58 96
REMARK H PARENT 18 6 7 15 23 30 82 49 50 60
REMARK Flexibility Score: inf
ROOT
ATOM      1  C   UNL A   1      31.619  30.118  25.477  1.00  0.00     0.023 C 
ENDROOT
BRANCH   1   2
ATOM      2  C   UNL A   1      31.297  29.258  24.251  1.00  0.00     0.116 C 
BRANCH   2   3
ATOM      3  N   UNL A   1      30.555  28.042  24.536  1.00  0.00    -0.352 N 
ATOM      4  C   UNL A   1      30.632  26.743  24.073  1.00  0.00     0.255 C 
ATOM      5  O   UNL A   1      29.873  25.930  24.578  1.00  0.00    -0.269 OA
ATOM      6  H   UNL A   1      29.843  28.172  25.204  1.00  0.00     0.163 HD
BRANCH   4   7
ATOM      7  C   UNL A   1      31.535  26.366  22.992  1.00  0.00     0.090 A 
ATOM      8  C   UNL A   1      32.922  25.996  23.134  1.00  0.00     0.163 A 
ATOM      9  N   UNL A   1      33.451  25.629  21.948  1.00  0.00    -0.167 NA
ATOM     10  N   UNL A   1      32.454  25.784  21.077  1.00  0.00    -0.274 N 
ATOM     11  C   UNL A   1      31.332  26.326  21.626  1.00  0.00     0.123 A 
ATOM     12  C   UNL A   1      32.611  25.317  19.722  1.00  0.00     0.173 C 
BRANCH   8  13
ATOM     13  C   UNL A   1      33.755  25.950  24.344  1.00  0.00     0.277 C 
ATOM     14  N   UNL A   1      33.831  24.810  25.123  1.00  0.00    -0.320 N 
ATOM     15  H   UNL A   1      34.354  24.928  25.948  1.00  0.00     0.170 HD
ATOM     16  O   UNL A   1      34.401  26.932  24.717  1.00  0.00    -0.267 OA
BRANCH  14  17
ATOM     17  C   UNL A   1      33.307  23.514  24.965  1.00  0.00     0.044 A 
ATOM     18  C   UNL A   1      32.420  20.833  24.940  1.00  0.00     0.119 A 
ATOM     19  C   UNL A   1      31.612  21.831  25.463  1.00  0.00     0.048 A 
ATOM     20  C   UNL A   1      33.620  21.196  24.329  1.00  0.00     0.052 A 
ATOM     21  C   UNL A   1      32.051  23.157  25.465  1.00  0.00     0.030 A 
ATOM     22  C   UNL A   1      34.064  22.534  24.298  1.00  0.00    -0.024 A 
ATOM     23  C   UNL A   1      35.313  22.807  23.502  1.00  0.00     0.047 C 
BRANCH  18  24
ATOM     24  O   UNL A   1      32.153  19.494  24.952  1.00  0.00    -0.497 OA
ATOM     25  C   UNL A   1      32.793  18.707  23.956  1.00  0.00     0.278 C 
ENDBRANCH  18  24
ENDBRANCH  14  17
ENDBRANCH   8  13
ENDBRANCH   4   7
ENDBRANCH   2   3
ENDBRANCH   1   2
BRANCH   1  26
ATOM     26  C   UNL A   1      33.029  29.975  26.044  1.00  0.00     0.023 C 
BRANCH  26  27
ATOM     27  C   UNL A   1      33.190  30.457  27.474  1.00  0.00     0.116 C 
BRANCH  27  28
ATOM     28  N   UNL A   1      34.127  31.559  27.661  1.00  0.00    -0.352 N 
ATOM     29  C   UNL A   1      35.417  31.559  28.168  1.00  0.00     0.251 C 
ATOM     30  H   UNL A   1      33.790  32.442  27.383  1.00  0.00     0.163 HD
ATOM     31  O   UNL A   1      35.973  32.631  28.390  1.00  0.00    -0.269 OA
BRANCH  29  32
ATOM     32  C   UNL A   1      36.198  30.297  28.263  1.00  0.00     0.039 A 
ATOM     33  C   UNL A   1      36.311  29.698  29.528  1.00  0.00     0.014 A 
ATOM     34  C   UNL A   1      37.067  29.925  27.251  1.00  0.00     0.014 A 
ATOM     35  C   UNL A   1      37.472  29.007  29.854  1.00  0.00     0.010 A 
ATOM     36  C   UNL A   1      38.288  29.424  27.614  1.00  0.00     0.010 A 
ATOM     37  C   UNL A   1      38.506  29.024  28.933  1.00  0.00    -0.014 A 
BRANCH  37  38
ATOM     38  C   UNL A   1      39.866  28.601  29.182  1.00  0.00     0.031 A 
ATOM     39  C   UNL A   1      40.209  27.213  28.833  1.00  0.00     0.074 A 
ATOM     40  C   UNL A   1      40.791  29.555  29.429  1.00  0.00     0.049 A 
ATOM     41  N   UNL A   1      41.350  26.675  29.063  1.00  0.00    -0.248 NA
ATOM     42  C   UNL A   1      39.258  26.288  28.215  1.00  0.00     0.031 C 
ATOM     43  C   UNL A   1      42.239  29.467  29.255  1.00  0.00     0.029 A 
ATOM     44  N   UNL A   1      40.600  30.788  30.081  1.00  0.00    -0.354 N 
ATOM     45  C   UNL A   1      41.392  25.482  28.380  1.00  0.00     0.074 A 
ATOM     46  C   UNL A   1      40.036  25.229  27.979  1.00  0.00     0.031 C 
ATOM     47  C   UNL A   1      42.826  30.394  30.032  1.00  0.00     0.029 A 
ATOM     48  C   UNL A   1      41.778  30.979  30.846  1.00  0.00     0.049 A 
ATOM     49  H   UNL A   1      39.819  31.385  30.020  1.00  0.00     0.167 HD
ATOM     50  C   UNL A   1      42.617  24.943  28.138  1.00  0.00     0.037 A 
ATOM     51  C   UNL A   1      41.737  30.908  32.210  1.00  0.00     0.037 A 
ATOM     52  C   UNL A   1      43.620  25.625  28.958  1.00  0.00     0.049 A 
ATOM     53  C   UNL A   1      42.580  29.783  32.766  1.00  0.00     0.074 A 
ATOM     54  C   UNL A   1      44.568  26.595  28.690  1.00  0.00     0.029 A 
ATOM     55  N   UNL A   1      43.480  25.577  30.344  1.00  0.00    -0.354 N 
ATOM     56  N   UNL A   1      42.882  28.700  32.100  1.00  0.00    -0.248 NA
ATOM     57  C   UNL A   1      43.185  29.814  34.092  1.00  0.00     0.031 C 
ATOM     58  C   UNL A   1      44.917  27.208  29.927  1.00  0.00     0.029 A 
ATOM     59  C   UNL A   1      44.221  26.574  30.946  1.00  0.00     0.049 A 
ATOM     60  H   UNL A   1      42.929  24.921  30.829  1.00  0.00     0.167 HD
ATOM     61  C   UNL A   1      43.718  27.917  32.854  1.00  0.00     0.074 A 
ATOM     62  C   UNL A   1      43.877  28.660  34.091  1.00  0.00     0.031 C 
ATOM     63  C   UNL A   1      44.222  26.730  32.395  1.00  0.00     0.037 A 
BRANCH  50  64
ATOM     64  C   UNL A   1      42.965  23.950  27.049  1.00  0.00     0.064 A 
ATOM     65  C   UNL A   1      42.622  22.588  27.210  1.00  0.00     0.173 A 
ATOM     66  C   UNL A   1      43.732  24.223  25.895  1.00  0.00     0.173 A 
ATOM     67  F   UNL A   1      41.898  22.175  28.261  1.00  0.00    -0.203 F 
ATOM     68  C   UNL A   1      43.028  21.595  26.313  1.00  0.00     0.198 A 
ATOM     69  C   UNL A   1      44.102  23.235  24.977  1.00  0.00     0.198 A 
ATOM     70  F   UNL A   1      44.207  25.439  25.620  1.00  0.00    -0.203 F 
ATOM     71  F   UNL A   1      42.715  20.313  26.553  1.00  0.00    -0.200 F 
ATOM     72  C   UNL A   1      43.763  21.919  25.191  1.00  0.00     0.200 A 
ATOM     73  F   UNL A   1      44.817  23.575  23.894  1.00  0.00    -0.200 F 
ATOM     74  F   UNL A   1      44.155  20.969  24.331  1.00  0.00    -0.200 F 
ENDBRANCH  50  64
BRANCH  51  75
ATOM     75  C   UNL A   1      40.443  31.407  32.757  1.00  0.00     0.064 A 
ATOM     76  C   UNL A   1      40.193  32.790  32.633  1.00  0.00     0.173 A 
ATOM     77  C   UNL A   1      39.334  30.562  32.895  1.00  0.00     0.173 A 
ATOM     78  F   UNL A   1      41.222  33.645  32.518  1.00  0.00    -0.203 F 
ATOM     79  C   UNL A   1      38.901  33.280  32.462  1.00  0.00     0.198 A 
ATOM     80  C   UNL A   1      38.036  31.065  32.757  1.00  0.00     0.198 A 
ATOM     81  F   UNL A   1      39.501  29.237  33.018  1.00  0.00    -0.203 F 
ATOM     82  F   UNL A   1      38.710  34.577  32.180  1.00  0.00    -0.200 F 
ATOM     83  C   UNL A   1      37.825  32.410  32.483  1.00  0.00     0.200 A 
ATOM     84  F   UNL A   1      36.989  30.226  32.780  1.00  0.00    -0.200 F 
ATOM     85  F   UNL A   1      36.594  32.856  32.196  1.00  0.00    -0.200 F 
ENDBRANCH  51  75
BRANCH  63  86
ATOM     86  C   UNL A   1      44.848  25.639  33.243  1.00  0.00     0.064 A 
ATOM     87  C   UNL A   1      46.218  25.326  33.244  1.00  0.00     0.173 A 
ATOM     88  C   UNL A   1      44.081  24.961  34.228  1.00  0.00     0.173 A 
ATOM     89  F   UNL A   1      47.092  25.985  32.474  1.00  0.00    -0.203 F 
ATOM     90  C   UNL A   1      46.761  24.359  34.098  1.00  0.00     0.198 A 
ATOM     91  C   UNL A   1      44.640  24.056  35.128  1.00  0.00     0.198 A 
ATOM     92  F   UNL A   1      42.767  25.180  34.376  1.00  0.00    -0.203 F 
ATOM     93  F   UNL A   1      48.065  24.062  34.014  1.00  0.00    -0.200 F 
ATOM     94  C   UNL A   1      45.976  23.735  35.047  1.00  0.00     0.200 A 
ATOM     95  F   UNL A   1      43.876  23.515  36.088  1.00  0.00    -0.200 F 
ATOM     96  F   UNL A   1      46.513  22.851  35.897  1.00  0.00    -0.200 F 
ENDBRANCH  63  86
ENDBRANCH  37  38
ENDBRANCH  29  32
ENDBRANCH  27  28
ENDBRANCH  26  27
ENDBRANCH   1  26
TORSDOF 14
ENDMDL
MODEL 2
REMARK VINA RESULT:     -13.2      1.339      3.071
REMARK SMILES COc1ccc(NC(=O)c2nn(C)cc2C(=O)NCCCCNC(=O)c2ccc(-c3c4nc(c(-c5c(F)c(F)c(F)c(F)c5F)c5ccc([nH]5)c(-c5c(F)c(F)c(F)c(F)c5F)c5nc(c(-c6c(F)c(F)c(F)c(F)c6F)c6ccc3[nH]6)C=C5)C=C4)cc2)c(C)c1
REMARK SMILES IDX 20 1 19 2 18 3 16 4 17 5 15 7 10 8 11 9 12 10 14 11 13 12
REMARK SMILES IDX 8 13 7 14 9 16 6 17 3 18 4 19 91 20 5 21 89 22 90 23 2 24
REMARK SMILES IDX 1 25 21 26 22 27 23 28 24 29 25 31 26 32 27 33 88 34 28 35
REMARK SMILES IDX 87 36 29 37 30 38 31 39 81 40 32 41 86 42 80 43 82 44 33 45
REMARK SMILES IDX 85 46 79 47 78 48 34 50 66 51 46 52 65 53 47 54 50 55 64 56
REMARK SMILES IDX 83 57 48 58 49 59 63 61 84 62 51 63 35 64 36 65 44 66 37 67
REMARK SMILES IDX 38 68 42 69 45 70 39 71 40 72 43 73 41 74 67 75 68 76 76 77
REMARK SMILES IDX 69 78 70 79 74 80 77 81 71 82 72 83 75 84 73 85 52 86 53 87
REMARK SMILES IDX 61 88 54 89 55 90 59 91 62 92 56 93 57 94 60 95 58 96
REMARK H PARENT 18 6 7 15 23 30 82 49 50 60
REMARK Flexibility Score: inf
ROOT
ATOM      1  C   UNL A   1      33.933  28.255  26.692  1.00  0.00     0.023 C 
ENDROOT
BRANCH   1   2
ATOM      2  C   UNL A   1      33.388  27.156  25.774  1.00  0.00     0.116 C 
BRANCH   2   3
ATOM      3  N   UNL A   1      34.242  25.988  25.648  1.00  0.00    -0.352 N 
ATOM      4  C   UNL A   1      33.998  24.631  25.551  1.00  0.00     0.255 C 
ATOM      5  O   UNL A   1      34.968  23.905  25.394  1.00  0.00    -0.269 OA
ATOM      6  H   UNL A   1      35.201  26.210  25.626  1.00  0.00     0.163 HD
BRANCH   4   7
ATOM      7  C   UNL A   1      32.655  24.081  25.688  1.00  0.00     0.090 A 
ATOM      8  C   UNL A   1      31.800  23.650  24.609  1.00  0.00     0.163 A 
ATOM      9  N   UNL A   1      30.652  23.120  25.080  1.00  0.00    -0.167 NA
ATOM     10  N   UNL A   1      30.755  23.230  26.405  1.00  0.00    -0.274 N 
ATOM     11  C   UNL A   1      31.871  23.895  26.810  1.00  0.00     0.123 A 
ATOM     12  C   UNL A   1      29.771  22.600  27.251  1.00  0.00     0.173 C 
BRANCH   8  13
ATOM     13  C   UNL A   1      32.035  23.697  23.159  1.00  0.00     0.277 C 
ATOM     14  N   UNL A   1      31.684  24.803  22.408  1.00  0.00    -0.320 N 
ATOM     15  H   UNL A   1      31.816  24.683  21.440  1.00  0.00     0.170 HD
ATOM     16  O   UNL A   1      32.538  22.744  22.558  1.00  0.00    -0.267 OA
BRANCH  14  17
ATOM     17  C   UNL A   1      31.175  26.067  22.757  1.00  0.00     0.044 A 
ATOM     18  C   UNL A   1      30.038  28.624  23.135  1.00  0.00     0.119 A 
ATOM     19  C   UNL A   1      29.336  27.486  23.503  1.00  0.00     0.048 A 
ATOM     20  C   UNL A   1      31.351  28.484  22.686  1.00  0.00     0.052 A 
ATOM     21  C   UNL A   1      29.906  26.224  23.323  1.00  0.00     0.030 A 
ATOM     22  C   UNL A   1      31.950  27.218  22.525  1.00  0.00    -0.024 A 
ATOM     23  C   UNL A   1      33.409  27.210  22.150  1.00  0.00     0.047 C 
BRANCH  18  24
ATOM     24  O   UNL A   1      29.570  29.906  23.177  1.00  0.00    -0.497 OA
ATOM     25  C   UNL A   1      28.200  30.097  22.850  1.00  0.00     0.278 C 
ENDBRANCH  18  24
ENDBRANCH  14  17
ENDBRANCH   8  13
ENDBRANCH   4   7
ENDBRANCH   2   3
ENDBRANCH   1   2
BRANCH   1  26
ATOM     26  C   UNL A   1      33.527  29.684  26.340  1.00  0.00     0.023 C 
BRANCH  26  27
ATOM     27  C   UNL A   1      33.265  30.582  27.536  1.00  0.00     0.116 C 
BRANCH  27  28
ATOM     28  N   UNL A   1      34.221  31.667  27.723  1.00  0.00    -0.352 N 
ATOM     29  C   UNL A   1      35.521  31.640  28.202  1.00  0.00     0.251 C 
ATOM     30  H   UNL A   1      33.890  32.560  27.470  1.00  0.00     0.163 HD
ATOM     31  O   UNL A   1      36.097  32.700  28.433  1.00  0.00    -0.269 OA
BRANCH  29  32
ATOM     32  C   UNL A   1      36.287  30.366  28.256  1.00  0.00     0.039 A 
ATOM     33  C   UNL A   1      36.357  29.703  29.492  1.00  0.00     0.014 A 
ATOM     34  C   UNL A   1      37.181  30.036  27.251  1.00  0.00     0.014 A 
ATOM     35  C   UNL A   1      37.501  28.984  29.815  1.00  0.00     0.010 A 
ATOM     36  C   UNL A   1      38.387  29.504  27.623  1.00  0.00     0.010 A 
ATOM     37  C   UNL A   1      38.562  29.036  28.926  1.00  0.00    -0.014 A 
BRANCH  37  38
ATOM     38  C   UNL A   1      39.910  28.586  29.192  1.00  0.00     0.031 A 
ATOM     39  C   UNL A   1      40.234  27.196  28.831  1.00  0.00     0.074 A 
ATOM     40  C   UNL A   1      40.847  29.520  29.466  1.00  0.00     0.049 A 
ATOM     41  N   UNL A   1      41.361  26.634  29.073  1.00  0.00    -0.248 NA
ATOM     42  C   UNL A   1      39.277  26.296  28.186  1.00  0.00     0.031 C 
ATOM     43  C   UNL A   1      42.296  29.408  29.315  1.00  0.00     0.029 A 
ATOM     44  N   UNL A   1      40.667  30.747  30.131  1.00  0.00    -0.354 N 
ATOM     45  C   UNL A   1      41.394  25.450  28.376  1.00  0.00     0.074 A 
ATOM     46  C   UNL A   1      40.040  25.225  27.949  1.00  0.00     0.031 C 
ATOM     47  C   UNL A   1      42.887  30.314  30.113  1.00  0.00     0.029 A 
ATOM     48  C   UNL A   1      41.835  30.908  30.917  1.00  0.00     0.049 A 
ATOM     49  H   UNL A   1      39.898  31.359  30.064  1.00  0.00     0.167 HD
ATOM     50  C   UNL A   1      42.613  24.892  28.146  1.00  0.00     0.037 A 
ATOM     51  C   UNL A   1      41.770  30.820  32.280  1.00  0.00     0.037 A 
ATOM     52  C   UNL A   1      43.614  25.545  28.992  1.00  0.00     0.049 A 
ATOM     53  C   UNL A   1      42.584  29.674  32.835  1.00  0.00     0.074 A 
ATOM     54  C   UNL A   1      44.583  26.502  28.752  1.00  0.00     0.029 A 
ATOM     55  N   UNL A   1      43.450  25.483  30.374  1.00  0.00    -0.354 N 
ATOM     56  N   UNL A   1      42.877  28.594  32.160  1.00  0.00    -0.248 NA
ATOM     57  C   UNL A   1      43.167  29.677  34.171  1.00  0.00     0.031 C 
ATOM     58  C   UNL A   1      44.922  27.093  30.002  1.00  0.00     0.029 A 
ATOM     59  C   UNL A   1      44.198  26.459  31.001  1.00  0.00     0.049 A 
ATOM     60  H   UNL A   1      42.880  24.831  30.841  1.00  0.00     0.167 HD
ATOM     61  C   UNL A   1      43.687  27.787  32.917  1.00  0.00     0.074 A 
ATOM     62  C   UNL A   1      43.838  28.511  34.167  1.00  0.00     0.031 C 
ATOM     63  C   UNL A   1      44.177  26.597  32.452  1.00  0.00     0.037 A 
BRANCH  50  64
ATOM     64  C   UNL A   1      42.962  23.906  27.051  1.00  0.00     0.064 A 
ATOM     65  C   UNL A   1      42.612  22.545  27.199  1.00  0.00     0.173 A 
ATOM     66  C   UNL A   1      43.734  24.186  25.902  1.00  0.00     0.173 A 
ATOM     67  F   UNL A   1      41.882  22.126  28.244  1.00  0.00    -0.203 F 
ATOM     68  C   UNL A   1      43.018  21.557  26.295  1.00  0.00     0.198 A 
ATOM     69  C   UNL A   1      44.104  23.204  24.978  1.00  0.00     0.198 A 
ATOM     70  F   UNL A   1      44.216  25.402  25.639  1.00  0.00    -0.203 F 
ATOM     71  F   UNL A   1      42.699  20.275  26.524  1.00  0.00    -0.200 F 
ATOM     72  C   UNL A   1      43.759  21.888  25.180  1.00  0.00     0.200 A 
ATOM     73  F   UNL A   1      44.826  23.550  23.901  1.00  0.00    -0.200 F 
ATOM     74  F   UNL A   1      44.151  20.943  24.314  1.00  0.00    -0.200 F 
ENDBRANCH  50  64
BRANCH  51  75
ATOM     75  C   UNL A   1      40.476  31.335  32.811  1.00  0.00     0.064 A 
ATOM     76  C   UNL A   1      40.256  32.725  32.706  1.00  0.00     0.173 A 
ATOM     77  C   UNL A   1      39.349  30.510  32.915  1.00  0.00     0.173 A 
ATOM     78  F   UNL A   1      41.302  33.562  32.625  1.00  0.00    -0.203 F 
ATOM     79  C   UNL A   1      38.976  33.243  32.520  1.00  0.00     0.198 A 
ATOM     80  C   UNL A   1      38.064  31.041  32.762  1.00  0.00     0.198 A 
ATOM     81  F   UNL A   1      39.487  29.181  33.018  1.00  0.00    -0.203 F 
ATOM     82  F   UNL A   1      38.816  34.548  32.257  1.00  0.00    -0.200 F 
ATOM     83  C   UNL A   1      37.884  32.394  32.507  1.00  0.00     0.200 A 
ATOM     84  F   UNL A   1      37.001  30.223  32.752  1.00  0.00    -0.200 F 
ATOM     85  F   UNL A   1      36.667  32.869  32.206  1.00  0.00    -0.200 F 
ENDBRANCH  51  75
BRANCH  63  86
ATOM     86  C   UNL A   1      44.770  25.484  33.296  1.00  0.00     0.064 A 
ATOM     87  C   UNL A   1      46.135  25.151  33.321  1.00  0.00     0.173 A 
ATOM     88  C   UNL A   1      43.973  24.804  34.255  1.00  0.00     0.173 A 
ATOM     89  F   UNL A   1      47.034  25.809  32.579  1.00  0.00    -0.203 F 
ATOM     90  C   UNL A   1      46.646  24.164  34.171  1.00  0.00     0.198 A 
ATOM     91  C   UNL A   1      44.500  23.877  35.153  1.00  0.00     0.198 A 
ATOM     92  F   UNL A   1      42.660  25.040  34.379  1.00  0.00    -0.203 F 
ATOM     93  F   UNL A   1      47.947  23.849  34.109  1.00  0.00    -0.200 F 
ATOM     94  C   UNL A   1      45.833  23.538  35.094  1.00  0.00     0.200 A 
ATOM     95  F   UNL A   1      43.709  23.334  36.088  1.00  0.00    -0.200 F 
ATOM     96  F   UNL A   1      46.339  22.634  35.942  1.00  0.00    -0.200 F 
ENDBRANCH  63  86
ENDBRANCH  37  38
ENDBRANCH  29  32
ENDBRANCH  27  28
ENDBRANCH  26  27
ENDBRANCH   1  26
TORSDOF 14
ENDMDL
MODEL 3
REMARK VINA RESULT:     -13.2      3.048      9.340
REMARK SMILES COc1ccc(NC(=O)c2nn(C)cc2C(=O)NCCCCNC(=O)c2ccc(-c3c4nc(c(-c5c(F)c(F)c(F)c(F)c5F)c5ccc([nH]5)c(-c5c(F)c(F)c(F)c(F)c5F)c5nc(c(-c6c(F)c(F)c(F)c(F)c6F)c6ccc3[nH]6)C=C5)C=C4)cc2)c(C)c1
REMARK SMILES IDX 20 1 19 2 18 3 16 4 17 5 15 7 10 8 11 9 12 10 14 11 13 12
REMARK SMILES IDX 8 13 7 14 9 16 6 17 3 18 4 19 91 20 5 21 89 22 90 23 2 24
REMARK SMILES IDX 1 25 21 26 22 27 23 28 24 29 25 31 26 32 27 33 88 34 28 35
REMARK SMILES IDX 87 36 29 37 30 38 31 39 81 40 32 41 86 42 80 43 82 44 33 45
REMARK SMILES IDX 85 46 79 47 78 48 34 50 66 51 46 52 65 53 47 54 50 55 64 56
REMARK SMILES IDX 83 57 48 58 49 59 63 61 84 62 51 63 35 64 36 65 44 66 37 67
REMARK SMILES IDX 38 68 42 69 45 70 39 71 40 72 43 73 41 74 67 75 68 76 76 77
REMARK SMILES IDX 69 78 70 79 74 80 77 81 71 82 72 83 75 84 73 85 52 86 53 87
REMARK SMILES IDX 61 88 54 89 55 90 59 91 62 92 56 93 57 94 60 95 58 96
REMARK H PARENT 18 6 7 15 23 30 82 49 50 60
REMARK Flexibility Score: inf
ROOT
ATOM      1  C   UNL A   1      36.332  20.314  25.040  1.00  0.00     0.023 C 
ENDROOT
BRANCH   1   2
ATOM      2  C   UNL A   1      35.142  21.246  25.289  1.00  0.00     0.116 C 
BRANCH   2   3
ATOM      3  N   UNL A   1      34.348  21.550  24.110  1.00  0.00    -0.352 N 
ATOM      4  C   UNL A   1      33.145  22.197  23.909  1.00  0.00     0.255 C 
ATOM      5  O   UNL A   1      32.778  22.335  22.751  1.00  0.00    -0.269 OA
ATOM      6  H   UNL A   1      34.756  21.224  23.275  1.00  0.00     0.163 HD
BRANCH   4   7
ATOM      7  C   UNL A   1      32.319  22.646  25.023  1.00  0.00     0.090 A 
ATOM      8  C   UNL A   1      32.534  23.833  25.816  1.00  0.00     0.163 A 
ATOM      9  N   UNL A   1      31.545  24.000  26.718  1.00  0.00    -0.167 NA
ATOM     10  N   UNL A   1      30.743  22.951  26.531  1.00  0.00    -0.274 N 
ATOM     11  C   UNL A   1      31.217  22.061  25.616  1.00  0.00     0.123 A 
ATOM     12  C   UNL A   1      29.475  22.891  27.215  1.00  0.00     0.173 C 
BRANCH   8  13
ATOM     13  C   UNL A   1      33.617  24.822  25.736  1.00  0.00     0.277 C 
ATOM     14  N   UNL A   1      33.493  25.967  24.971  1.00  0.00    -0.320 N 
ATOM     15  H   UNL A   1      34.313  26.508  24.933  1.00  0.00     0.170 HD
ATOM     16  O   UNL A   1      34.683  24.657  26.336  1.00  0.00    -0.267 OA
BRANCH  14  17
ATOM     17  C   UNL A   1      32.422  26.507  24.236  1.00  0.00     0.044 A 
ATOM     18  C   UNL A   1      30.489  27.844  22.672  1.00  0.00     0.119 A 
ATOM     19  C   UNL A   1      31.218  26.795  22.134  1.00  0.00     0.048 A 
ATOM     20  C   UNL A   1      30.648  28.145  24.024  1.00  0.00     0.052 A 
ATOM     21  C   UNL A   1      32.167  26.130  22.913  1.00  0.00     0.030 A 
ATOM     22  C   UNL A   1      31.582  27.465  24.832  1.00  0.00    -0.024 A 
ATOM     23  C   UNL A   1      31.569  27.801  26.300  1.00  0.00     0.047 C 
BRANCH  18  24
ATOM     24  O   UNL A   1      29.596  28.631  22.001  1.00  0.00    -0.497 OA
ATOM     25  C   UNL A   1      29.833  30.032  22.029  1.00  0.00     0.278 C 
ENDBRANCH  18  24
ENDBRANCH  14  17
ENDBRANCH   8  13
ENDBRANCH   4   7
ENDBRANCH   2   3
ENDBRANCH   1   2
BRANCH   1  26
ATOM     26  C   UNL A   1      37.672  20.996  24.775  1.00  0.00     0.023 C 
BRANCH  26  27
ATOM     27  C   UNL A   1      37.992  22.150  25.708  1.00  0.00     0.116 C 
BRANCH  27  28
ATOM     28  N   UNL A   1      39.218  22.005  26.484  1.00  0.00    -0.352 N 
ATOM     29  C   UNL A   1      40.077  22.970  26.986  1.00  0.00     0.251 C 
ATOM     30  H   UNL A   1      39.476  21.075  26.683  1.00  0.00     0.163 HD
ATOM     31  O   UNL A   1      41.148  22.622  27.477  1.00  0.00    -0.269 OA
BRANCH  29  32
ATOM     32  C   UNL A   1      39.642  24.386  27.113  1.00  0.00     0.039 A 
ATOM     33  C   UNL A   1      40.301  25.341  26.323  1.00  0.00     0.014 A 
ATOM     34  C   UNL A   1      38.891  24.800  28.201  1.00  0.00     0.014 A 
ATOM     35  C   UNL A   1      40.477  26.629  26.815  1.00  0.00     0.010 A 
ATOM     36  C   UNL A   1      39.221  25.994  28.784  1.00  0.00     0.010 A 
ATOM     37  C   UNL A   1      40.066  26.879  28.114  1.00  0.00    -0.014 A 
BRANCH  37  38
ATOM     38  C   UNL A   1      40.393  28.053  28.892  1.00  0.00     0.031 A 
ATOM     39  C   UNL A   1      39.436  29.171  28.848  1.00  0.00     0.074 A 
ATOM     40  C   UNL A   1      41.368  27.947  29.821  1.00  0.00     0.049 A 
ATOM     41  N   UNL A   1      39.623  30.301  29.424  1.00  0.00    -0.248 NA
ATOM     42  C   UNL A   1      38.178  29.115  28.102  1.00  0.00     0.031 C 
ATOM     43  C   UNL A   1      41.573  28.777  31.005  1.00  0.00     0.029 A 
ATOM     44  N   UNL A   1      42.516  27.135  29.769  1.00  0.00    -0.354 N 
ATOM     45  C   UNL A   1      38.433  30.988  29.390  1.00  0.00     0.074 A 
ATOM     46  C   UNL A   1      37.611  30.272  28.454  1.00  0.00     0.031 C 
ATOM     47  C   UNL A   1      42.858  28.678  31.387  1.00  0.00     0.029 A 
ATOM     48  C   UNL A   1      43.541  27.919  30.356  1.00  0.00     0.049 A 
ATOM     49  H   UNL A   1      42.591  26.223  29.406  1.00  0.00     0.167 HD
ATOM     50  C   UNL A   1      38.272  32.007  30.277  1.00  0.00     0.037 A 
ATOM     51  C   UNL A   1      44.561  28.411  29.590  1.00  0.00     0.037 A 
ATOM     52  C   UNL A   1      39.567  32.343  30.872  1.00  0.00     0.049 A 
ATOM     53  C   UNL A   1      44.596  29.922  29.557  1.00  0.00     0.074 A 
ATOM     54  C   UNL A   1      40.155  32.063  32.092  1.00  0.00     0.029 A 
ATOM     55  N   UNL A   1      40.590  32.768  30.026  1.00  0.00    -0.354 N 
ATOM     56  N   UNL A   1      43.550  30.680  29.755  1.00  0.00    -0.248 NA
ATOM     57  C   UNL A   1      45.816  30.692  29.350  1.00  0.00     0.031 C 
ATOM     58  C   UNL A   1      41.562  32.221  31.937  1.00  0.00     0.029 A 
ATOM     59  C   UNL A   1      41.819  32.645  30.642  1.00  0.00     0.049 A 
ATOM     60  H   UNL A   1      40.455  33.111  29.113  1.00  0.00     0.167 HD
ATOM     61  C   UNL A   1      43.930  31.998  29.735  1.00  0.00     0.074 A 
ATOM     62  C   UNL A   1      45.358  31.950  29.479  1.00  0.00     0.031 C 
ATOM     63  C   UNL A   1      43.043  33.019  29.945  1.00  0.00     0.037 A 
BRANCH  50  64
ATOM     64  C   UNL A   1      36.958  32.581  30.761  1.00  0.00     0.064 A 
ATOM     65  C   UNL A   1      36.231  33.462  29.929  1.00  0.00     0.173 A 
ATOM     66  C   UNL A   1      36.411  32.421  32.054  1.00  0.00     0.173 A 
ATOM     67  F   UNL A   1      36.630  33.717  28.673  1.00  0.00    -0.203 F 
ATOM     68  C   UNL A   1      35.082  34.135  30.359  1.00  0.00     0.198 A 
ATOM     69  C   UNL A   1      35.240  33.061  32.468  1.00  0.00     0.198 A 
ATOM     70  F   UNL A   1      37.003  31.684  32.997  1.00  0.00    -0.203 F 
ATOM     71  F   UNL A   1      34.471  35.000  29.537  1.00  0.00    -0.200 F 
ATOM     72  C   UNL A   1      34.582  33.929  31.628  1.00  0.00     0.200 A 
ATOM     73  F   UNL A   1      34.772  32.845  33.708  1.00  0.00    -0.200 F 
ATOM     74  F   UNL A   1      33.482  34.573  32.043  1.00  0.00    -0.200 F 
ENDBRANCH  50  64
BRANCH  51  75
ATOM     75  C   UNL A   1      44.918  27.487  28.477  1.00  0.00     0.064 A 
ATOM     76  C   UNL A   1      45.533  26.269  28.836  1.00  0.00     0.173 A 
ATOM     77  C   UNL A   1      44.251  27.533  27.246  1.00  0.00     0.173 A 
ATOM     78  F   UNL A   1      46.203  26.177  29.996  1.00  0.00    -0.203 F 
ATOM     79  C   UNL A   1      45.326  25.107  28.097  1.00  0.00     0.198 A 
ATOM     80  C   UNL A   1      44.076  26.369  26.489  1.00  0.00     0.198 A 
ATOM     81  F   UNL A   1      43.646  28.659  26.842  1.00  0.00    -0.203 F 
ATOM     82  F   UNL A   1      45.785  23.933  28.555  1.00  0.00    -0.200 F 
ATOM     83  C   UNL A   1      44.562  25.151  26.944  1.00  0.00     0.200 A 
ATOM     84  F   UNL A   1      43.339  26.406  25.369  1.00  0.00    -0.200 F 
ATOM     85  F   UNL A   1      44.257  24.017  26.297  1.00  0.00    -0.200 F 
ENDBRANCH  51  75
BRANCH  63  86
ATOM     86  C   UNL A   1      43.267  34.480  29.604  1.00  0.00     0.064 A 
ATOM     87  C   UNL A   1      43.435  35.499  30.558  1.00  0.00     0.173 A 
ATOM     88  C   UNL A   1      43.484  34.882  28.260  1.00  0.00     0.173 A 
ATOM     89  F   UNL A   1      43.405  35.245  31.872  1.00  0.00    -0.203 F 
ATOM     90  C   UNL A   1      43.713  36.821  30.196  1.00  0.00     0.198 A 
ATOM     91  C   UNL A   1      43.837  36.185  27.909  1.00  0.00     0.198 A 
ATOM     92  F   UNL A   1      43.397  34.018  27.239  1.00  0.00    -0.203 F 
ATOM     93  F   UNL A   1      43.805  37.761  31.147  1.00  0.00    -0.200 F 
ATOM     94  C   UNL A   1      43.927  37.161  28.875  1.00  0.00     0.200 A 
ATOM     95  F   UNL A   1      44.110  36.478  26.630  1.00  0.00    -0.200 F 
ATOM     96  F   UNL A   1      44.246  38.417  28.540  1.00  0.00    -0.200 F 
ENDBRANCH  63  86
ENDBRANCH  37  38
ENDBRANCH  29  32
ENDBRANCH  27  28
ENDBRANCH  26  27
ENDBRANCH   1  26
TORSDOF 14
ENDMDL
