MODEL 1
REMARK VINA RESULT:     -12.7      0.000      0.000
REMARK SMILES Cc1ccccc1OCC(=O)N1C[C@H](O)C[C@H]1C(=O)NCCCCNC(=O)c1ccc(-c2c3nc(c(-c4c(F)c(F)c(F)c(F)c4F)c4ccc([nH]4)c(-c4c(F)c(F)c(F)c(F)c4F)c4nc(c(-c5c(F)c(F)c(F)c(F)c5F)c5ccc2[nH]5)C=C4)C=C3)cc1
REMARK SMILES IDX 21 1 20 2 18 3 19 4 17 6 12 7 13 8 14 9 16 10 10 11 11 12
REMARK SMILES IDX 9 13 8 14 7 15 1 16 2 17 3 18 4 19 6 20 5 21 15 22 22 24
REMARK SMILES IDX 23 25 24 26 25 27 26 28 27 30 28 31 29 32 90 33 30 34 89 35
REMARK SMILES IDX 31 36 32 37 33 38 83 39 34 40 88 41 82 42 84 43 35 44 87 45
REMARK SMILES IDX 81 46 80 47 36 49 68 50 48 51 67 52 49 53 52 54 66 55 85 56
REMARK SMILES IDX 50 57 51 58 65 60 86 61 53 62 37 63 38 64 46 65 39 66 40 67
REMARK SMILES IDX 44 68 47 69 41 70 42 71 45 72 43 73 69 74 70 75 78 76 71 77
REMARK SMILES IDX 72 78 76 79 79 80 73 81 74 82 77 83 75 84 54 85 55 86 63 87
REMARK SMILES IDX 56 88 57 89 61 90 64 91 58 92 59 93 62 94 60 95
REMARK H PARENT 20 5 15 23 25 29 84 48 52 59
REMARK Flexibility Score: inf
ROOT
ATOM      1  C   UNL A   1      35.714  20.529  24.890  1.00  0.00     0.116 C 
ENDROOT
BRANCH   1   2
ATOM      2  N   UNL A   1      35.090  20.923  26.138  1.00  0.00    -0.354 N 
ATOM      3  C   UNL A   1      34.001  21.696  26.405  1.00  0.00     0.242 C 
ATOM      4  O   UNL A   1      33.578  21.656  27.567  1.00  0.00    -0.273 OA
ATOM      5  H   UNL A   1      35.537  20.567  26.940  1.00  0.00     0.163 HD
BRANCH   3   6
ATOM      6  C   UNL A   1      33.190  22.424  25.315  1.00  0.00     0.177 C 
ATOM      7  N   UNL A   1      33.908  23.347  24.430  1.00  0.00    -0.325 N 
ATOM      8  C   UNL A   1      33.690  23.032  23.025  1.00  0.00     0.152 C 
ATOM      9  C   UNL A   1      32.468  22.113  23.026  1.00  0.00     0.136 C 
ATOM     10  C   UNL A   1      32.490  21.425  24.386  1.00  0.00     0.069 C 
BRANCH   7  11
ATOM     11  C   UNL A   1      34.442  24.512  24.945  1.00  0.00     0.261 C 
ATOM     12  O   UNL A   1      35.616  24.561  25.321  1.00  0.00    -0.271 OA
BRANCH  11  13
ATOM     13  C   UNL A   1      33.518  25.723  25.162  1.00  0.00     0.329 C 
BRANCH  13  14
ATOM     14  O   UNL A   1      33.978  27.028  24.930  1.00  0.00    -0.484 OA
BRANCH  14  15
ATOM     15  C   UNL A   1      33.421  28.141  25.480  1.00  0.00     0.122 A 
ATOM     16  C   UNL A   1      31.278  28.486  24.065  1.00  0.00     0.048 C 
ATOM     17  C   UNL A   1      32.244  28.835  25.162  1.00  0.00    -0.009 A 
ATOM     18  C   UNL A   1      31.886  29.943  25.967  1.00  0.00     0.007 A 
ATOM     19  C   UNL A   1      32.675  30.370  27.035  1.00  0.00     0.001 A 
ATOM     20  C   UNL A   1      34.224  28.612  26.536  1.00  0.00     0.047 A 
ATOM     21  C   UNL A   1      33.858  29.710  27.312  1.00  0.00     0.004 A 
ENDBRANCH  14  15
ENDBRANCH  13  14
ENDBRANCH  11  13
ENDBRANCH   7  11
BRANCH   9  22
ATOM     22  O   UNL A   1      31.268  22.873  22.889  1.00  0.00    -0.391 OA
ATOM     23  H   UNL A   1      31.264  23.316  22.026  1.00  0.00     0.211 HD
ENDBRANCH   9  22
ENDBRANCH   3   6
ENDBRANCH   1   2
BRANCH   1  24
ATOM     24  C   UNL A   1      36.895  21.409  24.492  1.00  0.00     0.023 C 
BRANCH  24  25
ATOM     25  C   UNL A   1      38.167  21.217  25.319  1.00  0.00     0.023 C 
BRANCH  25  26
ATOM     26  C   UNL A   1      38.628  22.458  26.064  1.00  0.00     0.116 C 
BRANCH  26  27
ATOM     27  N   UNL A   1      40.068  22.546  26.273  1.00  0.00    -0.352 N 
ATOM     28  C   UNL A   1      40.860  23.665  26.496  1.00  0.00     0.251 C 
ATOM     29  H   UNL A   1      40.550  21.688  26.253  1.00  0.00     0.163 HD
ATOM     30  O   UNL A   1      42.070  23.556  26.569  1.00  0.00    -0.269 OA
BRANCH  28  31
ATOM     31  C   UNL A   1      40.211  24.968  26.800  1.00  0.00     0.039 A 
ATOM     32  C   UNL A   1      40.647  26.093  26.087  1.00  0.00     0.014 A 
ATOM     33  C   UNL A   1      39.385  25.126  27.909  1.00  0.00     0.014 A 
ATOM     34  C   UNL A   1      40.499  27.357  26.650  1.00  0.00     0.010 A 
ATOM     35  C   UNL A   1      39.335  26.359  28.525  1.00  0.00     0.010 A 
ATOM     36  C   UNL A   1      39.969  27.456  27.934  1.00  0.00    -0.014 A 
BRANCH  36  37
ATOM     37  C   UNL A   1      40.179  28.609  28.801  1.00  0.00     0.031 A 
ATOM     38  C   UNL A   1      39.173  29.686  28.880  1.00  0.00     0.074 A 
ATOM     39  C   UNL A   1      41.248  28.605  29.632  1.00  0.00     0.049 A 
ATOM     40  N   UNL A   1      39.395  30.832  29.428  1.00  0.00    -0.248 NA
ATOM     41  C   UNL A   1      37.847  29.595  28.273  1.00  0.00     0.031 C 
ATOM     42  C   UNL A   1      41.465  29.443  30.810  1.00  0.00     0.029 A 
ATOM     43  N   UNL A   1      42.478  27.944  29.447  1.00  0.00    -0.354 N 
ATOM     44  C   UNL A   1      38.197  31.497  29.510  1.00  0.00     0.074 A 
ATOM     45  C   UNL A   1      37.303  30.753  28.662  1.00  0.00     0.031 C 
ATOM     46  C   UNL A   1      42.780  29.489  31.074  1.00  0.00     0.029 A 
ATOM     47  C   UNL A   1      43.456  28.816  29.982  1.00  0.00     0.049 A 
ATOM     48  H   UNL A   1      42.625  27.063  29.033  1.00  0.00     0.167 HD
ATOM     49  C   UNL A   1      38.086  32.523  30.399  1.00  0.00     0.037 A 
ATOM     50  C   UNL A   1      44.410  29.391  29.194  1.00  0.00     0.037 A 
ATOM     51  C   UNL A   1      39.406  32.948  30.864  1.00  0.00     0.049 A 
ATOM     52  C   UNL A   1      44.397  30.901  29.208  1.00  0.00     0.074 A 
ATOM     53  C   UNL A   1      40.096  32.801  32.054  1.00  0.00     0.029 A 
ATOM     54  N   UNL A   1      40.323  33.425  29.930  1.00  0.00    -0.354 N 
ATOM     55  N   UNL A   1      43.378  31.616  29.595  1.00  0.00    -0.248 NA
ATOM     56  C   UNL A   1      45.515  31.723  28.752  1.00  0.00     0.031 C 
ATOM     57  C   UNL A   1      41.463  33.102  31.799  1.00  0.00     0.029 A 
ATOM     58  C   UNL A   1      41.591  33.479  30.472  1.00  0.00     0.049 A 
ATOM     59  H   UNL A   1      40.098  33.687  29.007  1.00  0.00     0.167 HD
ATOM     60  C   UNL A   1      43.656  32.945  29.414  1.00  0.00     0.074 A 
ATOM     61  C   UNL A   1      45.016  32.961  28.911  1.00  0.00     0.031 C 
ATOM     62  C   UNL A   1      42.726  33.913  29.668  1.00  0.00     0.037 A 
BRANCH  49  63
ATOM     63  C   UNL A   1      36.793  33.042  31.001  1.00  0.00     0.064 A 
ATOM     64  C   UNL A   1      35.947  33.880  30.239  1.00  0.00     0.173 A 
ATOM     65  C   UNL A   1      36.392  32.876  32.344  1.00  0.00     0.173 A 
ATOM     66  F   UNL A   1      36.204  34.139  28.949  1.00  0.00    -0.203 F 
ATOM     67  C   UNL A   1      34.816  34.506  30.782  1.00  0.00     0.198 A 
ATOM     68  C   UNL A   1      35.234  33.458  32.870  1.00  0.00     0.198 A 
ATOM     69  F   UNL A   1      37.126  32.200  33.232  1.00  0.00    -0.203 F 
ATOM     70  F   UNL A   1      34.088  35.340  30.026  1.00  0.00    -0.200 F 
ATOM     71  C   UNL A   1      34.454  34.286  32.095  1.00  0.00     0.200 A 
ATOM     72  F   UNL A   1      34.903  33.232  34.150  1.00  0.00    -0.200 F 
ATOM     73  F   UNL A   1      33.374  34.882  32.616  1.00  0.00    -0.200 F 
ENDBRANCH  49  63
BRANCH  50  74
ATOM     74  C   UNL A   1      44.790  28.554  28.026  1.00  0.00     0.064 A 
ATOM     75  C   UNL A   1      45.600  27.424  28.251  1.00  0.00     0.173 A 
ATOM     76  C   UNL A   1      44.080  28.612  26.820  1.00  0.00     0.173 A 
ATOM     77  F   UNL A   1      46.298  27.318  29.393  1.00  0.00    -0.203 F 
ATOM     78  C   UNL A   1      45.606  26.349  27.366  1.00  0.00     0.198 A 
ATOM     79  C   UNL A   1      44.098  27.536  25.930  1.00  0.00     0.198 A 
ATOM     80  F   UNL A   1      43.274  29.650  26.559  1.00  0.00    -0.203 F 
ATOM     81  F   UNL A   1      46.298  25.240  27.665  1.00  0.00    -0.200 F 
ATOM     82  C   UNL A   1      44.830  26.394  26.220  1.00  0.00     0.200 A 
ATOM     83  F   UNL A   1      43.322  27.564  24.836  1.00  0.00    -0.200 F 
ATOM     84  F   UNL A   1      44.754  25.323  25.417  1.00  0.00    -0.200 F 
ENDBRANCH  50  74
BRANCH  62  85
ATOM     85  C   UNL A   1      42.821  35.364  29.250  1.00  0.00     0.064 A 
ATOM     86  C   UNL A   1      42.256  35.886  28.074  1.00  0.00     0.173 A 
ATOM     87  C   UNL A   1      43.377  36.326  30.130  1.00  0.00     0.173 A 
ATOM     88  F   UNL A   1      41.581  35.109  27.218  1.00  0.00    -0.203 F 
ATOM     89  C   UNL A   1      42.306  37.250  27.767  1.00  0.00     0.198 A 
ATOM     90  C   UNL A   1      43.372  37.693  29.849  1.00  0.00     0.198 A 
ATOM     91  F   UNL A   1      43.918  35.970  31.304  1.00  0.00    -0.203 F 
ATOM     92  F   UNL A   1      41.791  37.687  26.609  1.00  0.00    -0.200 F 
ATOM     93  C   UNL A   1      42.853  38.153  28.658  1.00  0.00     0.200 A 
ATOM     94  F   UNL A   1      43.853  38.561  30.750  1.00  0.00    -0.200 F 
ATOM     95  F   UNL A   1      42.857  39.464  28.380  1.00  0.00    -0.200 F 
ENDBRANCH  62  85
ENDBRANCH  36  37
ENDBRANCH  28  31
ENDBRANCH  26  27
ENDBRANCH  25  26
ENDBRANCH  24  25
ENDBRANCH   1  24
TORSDOF 16
ENDMDL
MODEL 2
REMARK VINA RESULT:     -12.6      1.312      3.660
REMARK SMILES Cc1ccccc1OCC(=O)N1C[C@H](O)C[C@H]1C(=O)NCCCCNC(=O)c1ccc(-c2c3nc(c(-c4c(F)c(F)c(F)c(F)c4F)c4ccc([nH]4)c(-c4c(F)c(F)c(F)c(F)c4F)c4nc(c(-c5c(F)c(F)c(F)c(F)c5F)c5ccc2[nH]5)C=C4)C=C3)cc1
REMARK SMILES IDX 21 1 20 2 18 3 19 4 17 6 12 7 13 8 14 9 16 10 10 11 11 12
REMARK SMILES IDX 9 13 8 14 7 15 1 16 2 17 3 18 4 19 6 20 5 21 15 22 22 24
REMARK SMILES IDX 23 25 24 26 25 27 26 28 27 30 28 31 29 32 90 33 30 34 89 35
REMARK SMILES IDX 31 36 32 37 33 38 83 39 34 40 88 41 82 42 84 43 35 44 87 45
REMARK SMILES IDX 81 46 80 47 36 49 68 50 48 51 67 52 49 53 52 54 66 55 85 56
REMARK SMILES IDX 50 57 51 58 65 60 86 61 53 62 37 63 38 64 46 65 39 66 40 67
REMARK SMILES IDX 44 68 47 69 41 70 42 71 45 72 43 73 69 74 70 75 78 76 71 77
REMARK SMILES IDX 72 78 76 79 79 80 73 81 74 82 77 83 75 84 54 85 55 86 63 87
REMARK SMILES IDX 56 88 57 89 61 90 64 91 58 92 59 93 62 94 60 95
REMARK H PARENT 20 5 15 23 25 29 84 48 52 59
REMARK Flexibility Score: inf
ROOT
ATOM      1  C   UNL A   1      35.973  20.777  24.987  1.00  0.00     0.116 C 
ENDROOT
BRANCH   1   2
ATOM      2  N   UNL A   1      35.539  21.439  26.201  1.00  0.00    -0.354 N 
ATOM      3  C   UNL A   1      34.771  22.544  26.408  1.00  0.00     0.242 C 
ATOM      4  O   UNL A   1      34.380  22.726  27.568  1.00  0.00    -0.273 OA
ATOM      5  H   UNL A   1      35.858  21.010  27.028  1.00  0.00     0.163 HD
BRANCH   3   6
ATOM      6  C   UNL A   1      34.225  23.424  25.265  1.00  0.00     0.177 C 
ATOM      7  N   UNL A   1      32.825  23.242  24.871  1.00  0.00    -0.325 N 
ATOM      8  C   UNL A   1      32.088  24.497  24.894  1.00  0.00     0.152 C 
ATOM      9  C   UNL A   1      33.171  25.575  24.926  1.00  0.00     0.136 C 
ATOM     10  C   UNL A   1      34.369  24.914  25.597  1.00  0.00     0.069 C 
BRANCH   7  11
ATOM     11  C   UNL A   1      32.430  22.059  24.276  1.00  0.00     0.261 C 
ATOM     12  O   UNL A   1      32.081  22.029  23.094  1.00  0.00    -0.271 OA
BRANCH  11  13
ATOM     13  C   UNL A   1      32.312  20.794  25.143  1.00  0.00     0.329 C 
BRANCH  13  14
ATOM     14  O   UNL A   1      31.778  19.608  24.614  1.00  0.00    -0.484 OA
BRANCH  14  15
ATOM     15  C   UNL A   1      32.514  18.497  24.340  1.00  0.00     0.122 A 
ATOM     16  C   UNL A   1      32.528  18.424  21.751  1.00  0.00     0.048 C 
ATOM     17  C   UNL A   1      32.888  17.918  23.119  1.00  0.00    -0.009 A 
ATOM     18  C   UNL A   1      33.724  16.777  23.151  1.00  0.00     0.007 A 
ATOM     19  C   UNL A   1      34.157  16.207  24.348  1.00  0.00     0.001 A 
ATOM     20  C   UNL A   1      32.928  17.884  25.539  1.00  0.00     0.047 A 
ATOM     21  C   UNL A   1      33.744  16.756  25.549  1.00  0.00     0.004 A 
ENDBRANCH  14  15
ENDBRANCH  13  14
ENDBRANCH  11  13
ENDBRANCH   7  11
BRANCH   9  22
ATOM     22  O   UNL A   1      33.520  25.977  23.602  1.00  0.00    -0.391 OA
ATOM     23  H   UNL A   1      33.514  25.202  23.018  1.00  0.00     0.211 HD
ENDBRANCH   9  22
ENDBRANCH   3   6
ENDBRANCH   1   2
BRANCH   1  24
ATOM     24  C   UNL A   1      37.418  21.084  24.606  1.00  0.00     0.023 C 
BRANCH  24  25
ATOM     25  C   UNL A   1      38.376  21.297  25.778  1.00  0.00     0.023 C 
BRANCH  25  26
ATOM     26  C   UNL A   1      38.920  22.711  25.900  1.00  0.00     0.116 C 
BRANCH  26  27
ATOM     27  N   UNL A   1      40.314  22.797  26.316  1.00  0.00    -0.352 N 
ATOM     28  C   UNL A   1      41.038  23.900  26.751  1.00  0.00     0.251 C 
ATOM     29  H   UNL A   1      40.816  21.950  26.286  1.00  0.00     0.163 HD
ATOM     30  O   UNL A   1      42.229  23.799  26.983  1.00  0.00    -0.269 OA
BRANCH  28  31
ATOM     31  C   UNL A   1      40.320  25.161  27.078  1.00  0.00     0.039 A 
ATOM     32  C   UNL A   1      40.595  26.287  26.291  1.00  0.00     0.014 A 
ATOM     33  C   UNL A   1      39.596  25.297  28.258  1.00  0.00     0.014 A 
ATOM     34  C   UNL A   1      40.403  27.556  26.828  1.00  0.00     0.010 A 
ATOM     35  C   UNL A   1      39.507  26.544  28.838  1.00  0.00     0.010 A 
ATOM     36  C   UNL A   1      39.992  27.663  28.155  1.00  0.00    -0.014 A 
BRANCH  36  37
ATOM     37  C   UNL A   1      40.193  28.861  28.961  1.00  0.00     0.031 A 
ATOM     38  C   UNL A   1      39.158  29.912  29.021  1.00  0.00     0.074 A 
ATOM     39  C   UNL A   1      41.285  28.926  29.760  1.00  0.00     0.049 A 
ATOM     40  N   UNL A   1      39.362  31.088  29.509  1.00  0.00    -0.248 NA
ATOM     41  C   UNL A   1      37.819  29.755  28.458  1.00  0.00     0.031 C 
ATOM     42  C   UNL A   1      41.510  29.823  30.891  1.00  0.00     0.029 A 
ATOM     43  N   UNL A   1      42.528  28.292  29.569  1.00  0.00    -0.354 N 
ATOM     44  C   UNL A   1      38.148  31.722  29.597  1.00  0.00     0.074 A 
ATOM     45  C   UNL A   1      37.252  30.915  28.811  1.00  0.00     0.031 C 
ATOM     46  C   UNL A   1      42.831  29.918  31.114  1.00  0.00     0.029 A 
ATOM     47  C   UNL A   1      43.495  29.215  30.034  1.00  0.00     0.049 A 
ATOM     48  H   UNL A   1      42.689  27.397  29.191  1.00  0.00     0.167 HD
ATOM     49  C   UNL A   1      38.032  32.785  30.441  1.00  0.00     0.037 A 
ATOM     50  C   UNL A   1      44.409  29.779  29.192  1.00  0.00     0.037 A 
ATOM     51  C   UNL A   1      39.352  33.268  30.846  1.00  0.00     0.049 A 
ATOM     52  C   UNL A   1      44.352  31.287  29.137  1.00  0.00     0.074 A 
ATOM     53  C   UNL A   1      40.079  33.196  32.020  1.00  0.00     0.029 A 
ATOM     54  N   UNL A   1      40.227  33.727  29.865  1.00  0.00    -0.354 N 
ATOM     55  N   UNL A   1      43.323  31.990  29.522  1.00  0.00    -0.248 NA
ATOM     56  C   UNL A   1      45.431  32.118  28.612  1.00  0.00     0.031 C 
ATOM     57  C   UNL A   1      41.429  33.523  31.712  1.00  0.00     0.029 A 
ATOM     58  C   UNL A   1      41.507  33.841  30.366  1.00  0.00     0.049 A 
ATOM     59  H   UNL A   1      39.968  33.939  28.938  1.00  0.00     0.167 HD
ATOM     60  C   UNL A   1      43.556  33.317  29.272  1.00  0.00     0.074 A 
ATOM     61  C   UNL A   1      44.901  33.348  28.729  1.00  0.00     0.031 C 
ATOM     62  C   UNL A   1      42.606  34.269  29.510  1.00  0.00     0.037 A 
BRANCH  49  63
ATOM     63  C   UNL A   1      36.741  33.295  31.056  1.00  0.00     0.064 A 
ATOM     64  C   UNL A   1      35.800  33.980  30.255  1.00  0.00     0.173 A 
ATOM     65  C   UNL A   1      36.427  33.271  32.432  1.00  0.00     0.173 A 
ATOM     66  F   UNL A   1      35.968  34.093  28.930  1.00  0.00    -0.203 F 
ATOM     67  C   UNL A   1      34.661  34.598  30.789  1.00  0.00     0.198 A 
ATOM     68  C   UNL A   1      35.263  33.843  32.957  1.00  0.00     0.198 A 
ATOM     69  F   UNL A   1      37.253  32.755  33.347  1.00  0.00    -0.203 F 
ATOM     70  F   UNL A   1      33.838  35.287  29.986  1.00  0.00    -0.200 F 
ATOM     71  C   UNL A   1      34.388  34.520  32.139  1.00  0.00     0.200 A 
ATOM     72  F   UNL A   1      35.020  33.756  34.273  1.00  0.00    -0.200 F 
ATOM     73  F   UNL A   1      33.300  35.109  32.653  1.00  0.00    -0.200 F 
ENDBRANCH  49  63
BRANCH  50  74
ATOM     74  C   UNL A   1      44.780  28.900  28.053  1.00  0.00     0.064 A 
ATOM     75  C   UNL A   1      45.656  27.824  28.298  1.00  0.00     0.173 A 
ATOM     76  C   UNL A   1      44.016  28.858  26.880  1.00  0.00     0.173 A 
ATOM     77  F   UNL A   1      46.407  27.815  29.411  1.00  0.00    -0.203 F 
ATOM     78  C   UNL A   1      45.678  26.705  27.471  1.00  0.00     0.198 A 
ATOM     79  C   UNL A   1      44.050  27.737  26.047  1.00  0.00     0.198 A 
ATOM     80  F   UNL A   1      43.146  29.839  26.603  1.00  0.00    -0.203 F 
ATOM     81  F   UNL A   1      46.439  25.649  27.795  1.00  0.00    -0.200 F 
ATOM     82  C   UNL A   1      44.852  26.650  26.361  1.00  0.00     0.200 A 
ATOM     83  F   UNL A   1      43.226  27.668  24.991  1.00  0.00    -0.200 F 
ATOM     84  F   UNL A   1      44.796  25.534  25.620  1.00  0.00    -0.200 F 
ENDBRANCH  50  74
BRANCH  62  85
ATOM     85  C   UNL A   1      42.647  35.702  29.023  1.00  0.00     0.064 A 
ATOM     86  C   UNL A   1      41.897  36.189  27.939  1.00  0.00     0.173 A 
ATOM     87  C   UNL A   1      43.355  36.685  29.757  1.00  0.00     0.173 A 
ATOM     88  F   UNL A   1      41.078  35.392  27.240  1.00  0.00    -0.203 F 
ATOM     89  C   UNL A   1      41.911  37.539  27.572  1.00  0.00     0.198 A 
ATOM     90  C   UNL A   1      43.319  38.040  29.426  1.00  0.00     0.198 A 
ATOM     91  F   UNL A   1      44.082  36.365  30.837  1.00  0.00    -0.203 F 
ATOM     92  F   UNL A   1      41.213  37.941  26.501  1.00  0.00    -0.200 F 
ATOM     93  C   UNL A   1      42.611  38.465  28.322  1.00  0.00     0.200 A 
ATOM     94  F   UNL A   1      43.955  38.933  30.197  1.00  0.00    -0.200 F 
ATOM     95  F   UNL A   1      42.583  39.764  27.994  1.00  0.00    -0.200 F 
ENDBRANCH  62  85
ENDBRANCH  36  37
ENDBRANCH  28  31
ENDBRANCH  26  27
ENDBRANCH  25  26
ENDBRANCH  24  25
ENDBRANCH   1  24
TORSDOF 16
ENDMDL
MODEL 3
REMARK VINA RESULT:     -12.6      1.035      1.963
REMARK SMILES Cc1ccccc1OCC(=O)N1C[C@H](O)C[C@H]1C(=O)NCCCCNC(=O)c1ccc(-c2c3nc(c(-c4c(F)c(F)c(F)c(F)c4F)c4ccc([nH]4)c(-c4c(F)c(F)c(F)c(F)c4F)c4nc(c(-c5c(F)c(F)c(F)c(F)c5F)c5ccc2[nH]5)C=C4)C=C3)cc1
REMARK SMILES IDX 21 1 20 2 18 3 19 4 17 6 12 7 13 8 14 9 16 10 10 11 11 12
REMARK SMILES IDX 9 13 8 14 7 15 1 16 2 17 3 18 4 19 6 20 5 21 15 22 22 24
REMARK SMILES IDX 23 25 24 26 25 27 26 28 27 30 28 31 29 32 90 33 30 34 89 35
REMARK SMILES IDX 31 36 32 37 33 38 83 39 34 40 88 41 82 42 84 43 35 44 87 45
REMARK SMILES IDX 81 46 80 47 36 49 68 50 48 51 67 52 49 53 52 54 66 55 85 56
REMARK SMILES IDX 50 57 51 58 65 60 86 61 53 62 37 63 38 64 46 65 39 66 40 67
REMARK SMILES IDX 44 68 47 69 41 70 42 71 45 72 43 73 69 74 70 75 78 76 71 77
REMARK SMILES IDX 72 78 76 79 79 80 73 81 74 82 77 83 75 84 54 85 55 86 63 87
REMARK SMILES IDX 56 88 57 89 61 90 64 91 58 92 59 93 62 94 60 95
REMARK H PARENT 20 5 15 23 25 29 84 48 52 59
REMARK Flexibility Score: inf
ROOT
ATOM      1  C   UNL A   1      36.012  21.661  25.323  1.00  0.00     0.116 C 
ENDROOT
BRANCH   1   2
ATOM      2  N   UNL A   1      34.847  20.871  24.978  1.00  0.00    -0.354 N 
ATOM      3  C   UNL A   1      33.615  21.223  24.514  1.00  0.00     0.242 C 
ATOM      4  O   UNL A   1      32.909  20.300  24.090  1.00  0.00    -0.273 OA
ATOM      5  H   UNL A   1      34.967  19.902  25.103  1.00  0.00     0.163 HD
BRANCH   3   6
ATOM      6  C   UNL A   1      33.170  22.686  24.317  1.00  0.00     0.177 C 
ATOM      7  N   UNL A   1      33.238  23.584  25.474  1.00  0.00    -0.325 N 
ATOM      8  C   UNL A   1      34.002  24.788  25.182  1.00  0.00     0.152 C 
ATOM      9  C   UNL A   1      34.085  24.827  23.656  1.00  0.00     0.136 C 
ATOM     10  C   UNL A   1      33.991  23.370  23.216  1.00  0.00     0.069 C 
BRANCH   7  11
ATOM     11  C   UNL A   1      32.399  23.374  26.551  1.00  0.00     0.261 C 
ATOM     12  O   UNL A   1      32.767  22.708  27.522  1.00  0.00    -0.271 OA
BRANCH  11  13
ATOM     13  C   UNL A   1      30.948  23.880  26.475  1.00  0.00     0.329 C 
BRANCH  13  14
ATOM     14  O   UNL A   1      30.627  25.199  26.833  1.00  0.00    -0.484 OA
BRANCH  14  15
ATOM     15  C   UNL A   1      30.710  26.260  25.985  1.00  0.00     0.122 A 
ATOM     16  C   UNL A   1      32.355  27.853  27.197  1.00  0.00     0.048 C 
ATOM     17  C   UNL A   1      31.444  27.452  26.072  1.00  0.00    -0.009 A 
ATOM     18  C   UNL A   1      31.375  28.356  24.985  1.00  0.00     0.007 A 
ATOM     19  C   UNL A   1      30.588  28.108  23.861  1.00  0.00     0.001 A 
ATOM     20  C   UNL A   1      29.890  26.046  24.861  1.00  0.00     0.047 A 
ATOM     21  C   UNL A   1      29.830  26.952  23.805  1.00  0.00     0.004 A 
ENDBRANCH  14  15
ENDBRANCH  13  14
ENDBRANCH  11  13
ENDBRANCH   7  11
BRANCH   9  22
ATOM     22  O   UNL A   1      32.994  25.567  23.112  1.00  0.00    -0.391 OA
ATOM     23  H   UNL A   1      32.797  25.242  22.219  1.00  0.00     0.211 HD
ENDBRANCH   9  22
ENDBRANCH   3   6
ENDBRANCH   1   2
BRANCH   1  24
ATOM     24  C   UNL A   1      37.312  21.121  24.734  1.00  0.00     0.023 C 
BRANCH  24  25
ATOM     25  C   UNL A   1      38.532  21.198  25.652  1.00  0.00     0.023 C 
BRANCH  25  26
ATOM     26  C   UNL A   1      38.977  22.610  25.994  1.00  0.00     0.116 C 
BRANCH  26  27
ATOM     27  N   UNL A   1      40.403  22.754  26.261  1.00  0.00    -0.352 N 
ATOM     28  C   UNL A   1      41.134  23.898  26.553  1.00  0.00     0.251 C 
ATOM     29  H   UNL A   1      40.923  21.919  26.232  1.00  0.00     0.163 HD
ATOM     30  O   UNL A   1      42.345  23.840  26.669  1.00  0.00    -0.269 OA
BRANCH  28  31
ATOM     31  C   UNL A   1      40.415  25.161  26.875  1.00  0.00     0.039 A 
ATOM     32  C   UNL A   1      40.786  26.315  26.172  1.00  0.00     0.014 A 
ATOM     33  C   UNL A   1      39.588  25.260  27.988  1.00  0.00     0.014 A 
ATOM     34  C   UNL A   1      40.571  27.563  26.750  1.00  0.00     0.010 A 
ATOM     35  C   UNL A   1      39.472  26.481  28.618  1.00  0.00     0.010 A 
ATOM     36  C   UNL A   1      40.042  27.618  28.038  1.00  0.00    -0.014 A 
BRANCH  36  37
ATOM     37  C   UNL A   1      40.193  28.771  28.917  1.00  0.00     0.031 A 
ATOM     38  C   UNL A   1      39.157  29.822  28.966  1.00  0.00     0.074 A 
ATOM     39  C   UNL A   1      41.233  28.790  29.784  1.00  0.00     0.049 A 
ATOM     40  N   UNL A   1      39.331  30.970  29.527  1.00  0.00    -0.248 NA
ATOM     41  C   UNL A   1      37.855  29.700  28.313  1.00  0.00     0.031 C 
ATOM     42  C   UNL A   1      41.387  29.626  30.972  1.00  0.00     0.029 A 
ATOM     43  N   UNL A   1      42.484  28.162  29.638  1.00  0.00    -0.354 N 
ATOM     44  C   UNL A   1      38.114  31.604  29.571  1.00  0.00     0.074 A 
ATOM     45  C   UNL A   1      37.269  30.842  28.689  1.00  0.00     0.031 C 
ATOM     46  C   UNL A   1      42.691  29.705  31.283  1.00  0.00     0.029 A 
ATOM     47  C   UNL A   1      43.421  29.056  30.211  1.00  0.00     0.049 A 
ATOM     48  H   UNL A   1      42.669  27.288  29.226  1.00  0.00     0.167 HD
ATOM     49  C   UNL A   1      37.946  32.622  30.460  1.00  0.00     0.037 A 
ATOM     50  C   UNL A   1      44.386  29.659  29.459  1.00  0.00     0.037 A 
ATOM     51  C   UNL A   1      39.238  33.078  30.972  1.00  0.00     0.049 A 
ATOM     52  C   UNL A   1      44.334  31.169  29.479  1.00  0.00     0.074 A 
ATOM     53  C   UNL A   1      39.890  32.942  32.184  1.00  0.00     0.029 A 
ATOM     54  N   UNL A   1      40.174  33.584  30.073  1.00  0.00    -0.354 N 
ATOM     55  N   UNL A   1      43.283  31.855  29.834  1.00  0.00    -0.248 NA
ATOM     56  C   UNL A   1      45.445  32.021  29.066  1.00  0.00     0.031 C 
ATOM     57  C   UNL A   1      41.256  33.279  31.978  1.00  0.00     0.029 A 
ATOM     58  C   UNL A   1      41.420  33.667  30.658  1.00  0.00     0.049 A 
ATOM     59  H   UNL A   1      39.973  33.845  29.144  1.00  0.00     0.167 HD
ATOM     60  C   UNL A   1      43.533  33.192  29.670  1.00  0.00     0.074 A 
ATOM     61  C   UNL A   1      44.910  33.246  29.214  1.00  0.00     0.031 C 
ATOM     62  C   UNL A   1      42.571  34.134  29.896  1.00  0.00     0.037 A 
BRANCH  49  63
ATOM     63  C   UNL A   1      36.619  33.104  31.019  1.00  0.00     0.064 A 
ATOM     64  C   UNL A   1      35.784  33.934  30.237  1.00  0.00     0.173 A 
ATOM     65  C   UNL A   1      36.173  32.911  32.344  1.00  0.00     0.173 A 
ATOM     66  F   UNL A   1      36.083  34.215  28.961  1.00  0.00    -0.203 F 
ATOM     67  C   UNL A   1      34.620  34.526  30.744  1.00  0.00     0.198 A 
ATOM     68  C   UNL A   1      34.983  33.460  32.833  1.00  0.00     0.198 A 
ATOM     69  F   UNL A   1      36.888  32.239  33.251  1.00  0.00    -0.203 F 
ATOM     70  F   UNL A   1      33.902  35.355  29.972  1.00  0.00    -0.200 F 
ATOM     71  C   UNL A   1      34.215  34.282  32.040  1.00  0.00     0.200 A 
ATOM     72  F   UNL A   1      34.610  33.210  34.097  1.00  0.00    -0.200 F 
ATOM     73  F   UNL A   1      33.102  34.846  32.528  1.00  0.00    -0.200 F 
ENDBRANCH  49  63
BRANCH  50  74
ATOM     74  C   UNL A   1      44.828  28.839  28.301  1.00  0.00     0.064 A 
ATOM     75  C   UNL A   1      45.680  27.745  28.545  1.00  0.00     0.173 A 
ATOM     76  C   UNL A   1      44.143  28.866  27.080  1.00  0.00     0.173 A 
ATOM     77  F   UNL A   1      46.357  27.670  29.703  1.00  0.00    -0.203 F 
ATOM     78  C   UNL A   1      45.752  26.671  27.662  1.00  0.00     0.198 A 
ATOM     79  C   UNL A   1      44.226  27.791  26.192  1.00  0.00     0.198 A 
ATOM     80  F   UNL A   1      43.298  29.867  26.800  1.00  0.00    -0.203 F 
ATOM     81  F   UNL A   1      46.486  25.593  27.978  1.00  0.00    -0.200 F 
ATOM     82  C   UNL A   1      45.001  26.682  26.499  1.00  0.00     0.200 A 
ATOM     83  F   UNL A   1      43.474  27.785  25.082  1.00  0.00    -0.200 F 
ATOM     84  F   UNL A   1      44.989  25.607  25.697  1.00  0.00    -0.200 F 
ENDBRANCH  50  74
BRANCH  62  85
ATOM     85  C   UNL A   1      42.643  35.590  29.489  1.00  0.00     0.064 A 
ATOM     86  C   UNL A   1      43.417  36.558  30.151  1.00  0.00     0.173 A 
ATOM     87  C   UNL A   1      42.028  36.027  28.290  1.00  0.00     0.173 A 
ATOM     88  F   UNL A   1      44.159  36.248  31.222  1.00  0.00    -0.203 F 
ATOM     89  C   UNL A   1      43.510  37.876  29.693  1.00  0.00     0.198 A 
ATOM     90  C   UNL A   1      42.172  37.326  27.802  1.00  0.00     0.198 A 
ATOM     91  F   UNL A   1      41.290  35.197  27.538  1.00  0.00    -0.203 F 
ATOM     92  F   UNL A   1      44.226  38.771  30.390  1.00  0.00    -0.200 F 
ATOM     93  C   UNL A   1      42.898  38.257  28.514  1.00  0.00     0.200 A 
ATOM     94  F   UNL A   1      41.621  37.663  26.628  1.00  0.00    -0.200 F 
ATOM     95  F   UNL A   1      43.029  39.509  28.054  1.00  0.00    -0.200 F 
ENDBRANCH  62  85
ENDBRANCH  36  37
ENDBRANCH  28  31
ENDBRANCH  26  27
ENDBRANCH  25  26
ENDBRANCH  24  25
ENDBRANCH   1  24
TORSDOF 16
ENDMDL
