MODEL 1
REMARK VINA RESULT:     -13.2      0.000      0.000
REMARK SMILES COc1cccc([C@@H]2CN(C(=O)CSc3nc(C)n[nH]3)C[C@H]2C(=O)NCCCCNC(=O)c2ccc(-c3c4nc(c(-c5c(F)c(F)c(F)c(F)c5F)c5ccc([nH]5)c(-c5c(F)c(F)c(F)c(F)c5F)c5nc(c(-c6c(F)c(F)c(F)c(F)c6F)c6ccc3[nH]6)C=C5)C=C4)cc2)c1
REMARK SMILES IDX 26 1 25 2 23 3 24 4 22 6 8 7 9 8 10 9 21 10 7 11 3 12 4 13
REMARK SMILES IDX 96 14 5 15 6 16 2 17 1 18 11 19 12 20 13 21 14 22 15 23
REMARK SMILES IDX 16 24 20 25 17 26 19 27 18 29 27 30 28 31 29 32 30 33 31 34
REMARK SMILES IDX 32 36 33 37 34 38 95 39 35 40 94 41 36 42 37 43 38 44 88 45
REMARK SMILES IDX 39 46 93 47 87 48 89 49 40 50 92 51 86 52 85 53 41 55 73 56
REMARK SMILES IDX 53 57 72 58 54 59 57 60 71 61 90 62 55 63 56 64 70 66 91 67
REMARK SMILES IDX 58 68 42 69 43 70 51 71 44 72 45 73 49 74 52 75 46 76 47 77
REMARK SMILES IDX 50 78 48 79 74 80 75 81 83 82 76 83 77 84 81 85 84 86 78 87
REMARK SMILES IDX 79 88 82 89 80 90 59 91 60 92 68 93 61 94 62 95 66 96 69 97
REMARK SMILES IDX 63 98 64 99 67 100 65 101
REMARK H PARENT 25 5 20 28 30 35 89 54 57 65
REMARK Flexibility Score: inf
ROOT
ATOM      1  C   UNL A   1      36.994  21.269  25.443  1.00  0.00     0.116 C 
ENDROOT
BRANCH   1   2
ATOM      2  N   UNL A   1      35.967  22.086  26.069  1.00  0.00    -0.356 N 
ATOM      3  C   UNL A   1      34.837  22.658  25.572  1.00  0.00     0.225 C 
ATOM      4  O   UNL A   1      34.121  23.266  26.374  1.00  0.00    -0.275 OA
ATOM      5  H   UNL A   1      36.118  22.258  27.027  1.00  0.00     0.163 HD
BRANCH   3   6
ATOM      6  C   UNL A   1      34.430  22.567  24.111  1.00  0.00     0.107 C 
ATOM      7  C   UNL A   1      32.987  22.075  23.894  1.00  0.00     0.053 C 
ATOM      8  C   UNL A   1      32.531  22.825  22.641  1.00  0.00     0.128 C 
ATOM      9  N   UNL A   1      33.245  24.087  22.721  1.00  0.00    -0.341 N 
ATOM     10  C   UNL A   1      34.524  23.912  23.391  1.00  0.00     0.133 C 
BRANCH   7  11
ATOM     11  C   UNL A   1      32.803  20.578  23.826  1.00  0.00    -0.039 A 
ATOM     12  C   UNL A   1      32.960  18.359  24.806  1.00  0.00     0.119 A 
ATOM     13  C   UNL A   1      32.492  17.797  23.620  1.00  0.00     0.046 A 
ATOM     14  C   UNL A   1      33.135  19.741  24.902  1.00  0.00     0.050 A 
ATOM     15  C   UNL A   1      32.153  18.614  22.546  1.00  0.00     0.004 A 
ATOM     16  C   UNL A   1      32.302  19.997  22.650  1.00  0.00     0.004 A 
BRANCH  12  17
ATOM     17  O   UNL A   1      33.283  17.480  25.805  1.00  0.00    -0.497 OA
ATOM     18  C   UNL A   1      32.623  16.220  25.700  1.00  0.00     0.278 C 
ENDBRANCH  12  17
ENDBRANCH   7  11
BRANCH   9  19
ATOM     19  C   UNL A   1      32.881  25.309  22.198  1.00  0.00     0.233 C 
ATOM     20  O   UNL A   1      33.648  25.941  21.464  1.00  0.00    -0.274 OA
BRANCH  19  21
ATOM     21  C   UNL A   1      31.578  25.944  22.650  1.00  0.00     0.178 C 
BRANCH  21  22
ATOM     22  S   UNL A   1      31.668  26.829  24.225  1.00  0.00    -0.077 SA
BRANCH  22  23
ATOM     23  C   UNL A   1      31.268  25.592  25.345  1.00  0.00     0.184 A 
ATOM     24  N   UNL A   1      30.518  24.541  25.141  1.00  0.00    -0.206 NA
ATOM     25  N   UNL A   1      31.809  25.551  26.590  1.00  0.00    -0.254 N 
ATOM     26  C   UNL A   1      30.623  23.866  26.333  1.00  0.00     0.148 A 
ATOM     27  N   UNL A   1      31.407  24.453  27.251  1.00  0.00    -0.158 NA
ATOM     28  H   UNL A   1      32.415  26.235  26.958  1.00  0.00     0.192 HD
ATOM     29  C   UNL A   1      29.952  22.572  26.566  1.00  0.00     0.092 C 
ENDBRANCH  22  23
ENDBRANCH  21  22
ENDBRANCH  19  21
ENDBRANCH   9  19
ENDBRANCH   3   6
ENDBRANCH   1   2
BRANCH   1  30
ATOM     30  C   UNL A   1      38.396  21.871  25.581  1.00  0.00     0.023 C 
BRANCH  30  31
ATOM     31  C   UNL A   1      39.477  20.937  26.135  1.00  0.00     0.023 C 
BRANCH  31  32
ATOM     32  C   UNL A   1      40.556  21.635  26.947  1.00  0.00     0.116 C 
BRANCH  32  33
ATOM     33  N   UNL A   1      41.778  21.885  26.186  1.00  0.00    -0.352 N 
ATOM     34  C   UNL A   1      42.306  23.112  25.839  1.00  0.00     0.251 C 
ATOM     35  H   UNL A   1      42.280  21.092  25.889  1.00  0.00     0.163 HD
ATOM     36  O   UNL A   1      43.093  23.224  24.901  1.00  0.00    -0.269 OA
BRANCH  34  37
ATOM     37  C   UNL A   1      41.902  24.293  26.617  1.00  0.00     0.039 A 
ATOM     38  C   UNL A   1      42.488  24.585  27.848  1.00  0.00     0.014 A 
ATOM     39  C   UNL A   1      40.957  25.149  26.053  1.00  0.00     0.014 A 
ATOM     40  C   UNL A   1      42.183  25.797  28.460  1.00  0.00     0.010 A 
ATOM     41  C   UNL A   1      40.766  26.402  26.583  1.00  0.00     0.010 A 
ATOM     42  C   UNL A   1      41.347  26.722  27.803  1.00  0.00    -0.014 A 
BRANCH  42  43
ATOM     43  C   UNL A   1      41.206  28.082  28.323  1.00  0.00     0.031 A 
ATOM     44  C   UNL A   1      42.271  29.006  27.849  1.00  0.00     0.074 A 
ATOM     45  C   UNL A   1      40.136  28.528  29.019  1.00  0.00     0.049 A 
ATOM     46  N   UNL A   1      43.245  29.484  28.548  1.00  0.00    -0.248 NA
ATOM     47  C   UNL A   1      42.373  29.314  26.413  1.00  0.00     0.031 C 
ATOM     48  C   UNL A   1      38.875  27.822  29.278  1.00  0.00     0.029 A 
ATOM     49  N   UNL A   1      39.907  29.753  29.581  1.00  0.00    -0.354 N 
ATOM     50  C   UNL A   1      43.941  30.345  27.704  1.00  0.00     0.074 A 
ATOM     51  C   UNL A   1      43.486  30.054  26.371  1.00  0.00     0.031 C 
ATOM     52  C   UNL A   1      37.943  28.694  29.723  1.00  0.00     0.029 A 
ATOM     53  C   UNL A   1      38.587  29.968  29.969  1.00  0.00     0.049 A 
ATOM     54  H   UNL A   1      40.616  30.427  29.701  1.00  0.00     0.167 HD
ATOM     55  C   UNL A   1      44.597  31.419  28.228  1.00  0.00     0.037 A 
ATOM     56  C   UNL A   1      38.057  31.105  30.484  1.00  0.00     0.037 A 
ATOM     57  C   UNL A   1      44.680  31.299  29.662  1.00  0.00     0.049 A 
ATOM     58  C   UNL A   1      39.167  31.889  31.063  1.00  0.00     0.074 A 
ATOM     59  C   UNL A   1      45.448  30.618  30.578  1.00  0.00     0.029 A 
ATOM     60  N   UNL A   1      43.535  31.694  30.299  1.00  0.00    -0.354 N 
ATOM     61  N   UNL A   1      39.836  31.509  32.116  1.00  0.00    -0.248 NA
ATOM     62  C   UNL A   1      39.787  32.945  30.271  1.00  0.00     0.031 C 
ATOM     63  C   UNL A   1      44.658  30.514  31.764  1.00  0.00     0.029 A 
ATOM     64  C   UNL A   1      43.451  31.178  31.560  1.00  0.00     0.049 A 
ATOM     65  H   UNL A   1      42.855  32.281  29.897  1.00  0.00     0.167 HD
ATOM     66  C   UNL A   1      41.120  31.942  31.868  1.00  0.00     0.074 A 
ATOM     67  C   UNL A   1      40.996  32.965  30.837  1.00  0.00     0.031 C 
ATOM     68  C   UNL A   1      42.190  31.196  32.262  1.00  0.00     0.037 A 
BRANCH  55  69
ATOM     69  C   UNL A   1      44.695  32.790  27.587  1.00  0.00     0.064 A 
ATOM     70  C   UNL A   1      45.869  33.120  26.872  1.00  0.00     0.173 A 
ATOM     71  C   UNL A   1      43.870  33.881  27.926  1.00  0.00     0.173 A 
ATOM     72  F   UNL A   1      46.739  32.166  26.508  1.00  0.00    -0.203 F 
ATOM     73  C   UNL A   1      46.223  34.445  26.597  1.00  0.00     0.198 A 
ATOM     74  C   UNL A   1      44.203  35.198  27.607  1.00  0.00     0.198 A 
ATOM     75  F   UNL A   1      42.773  33.739  28.677  1.00  0.00    -0.203 F 
ATOM     76  F   UNL A   1      47.404  34.715  26.026  1.00  0.00    -0.200 F 
ATOM     77  C   UNL A   1      45.392  35.484  26.971  1.00  0.00     0.200 A 
ATOM     78  F   UNL A   1      43.396  36.194  28.001  1.00  0.00    -0.200 F 
ATOM     79  F   UNL A   1      45.755  36.757  26.763  1.00  0.00    -0.200 F 
ENDBRANCH  55  69
BRANCH  56  80
ATOM     80  C   UNL A   1      36.694  31.666  30.358  1.00  0.00     0.064 A 
ATOM     81  C   UNL A   1      35.898  31.919  31.487  1.00  0.00     0.173 A 
ATOM     82  C   UNL A   1      36.279  32.256  29.150  1.00  0.00     0.173 A 
ATOM     83  F   UNL A   1      36.247  31.423  32.683  1.00  0.00    -0.203 F 
ATOM     84  C   UNL A   1      34.775  32.750  31.421  1.00  0.00     0.198 A 
ATOM     85  C   UNL A   1      35.160  33.087  29.085  1.00  0.00     0.198 A 
ATOM     86  F   UNL A   1      37.017  32.119  28.038  1.00  0.00    -0.203 F 
ATOM     87  F   UNL A   1      34.080  33.026  32.534  1.00  0.00    -0.200 F 
ATOM     88  C   UNL A   1      34.417  33.348  30.224  1.00  0.00     0.200 A 
ATOM     89  F   UNL A   1      34.846  33.693  27.931  1.00  0.00    -0.200 F 
ATOM     90  F   UNL A   1      33.389  34.206  30.176  1.00  0.00    -0.200 F 
ENDBRANCH  56  80
BRANCH  68  91
ATOM     91  C   UNL A   1      41.988  30.246  33.397  1.00  0.00     0.064 A 
ATOM     92  C   UNL A   1      41.668  28.886  33.260  1.00  0.00     0.173 A 
ATOM     93  C   UNL A   1      42.194  30.739  34.692  1.00  0.00     0.173 A 
ATOM     94  F   UNL A   1      41.524  28.330  32.051  1.00  0.00    -0.203 F 
ATOM     95  C   UNL A   1      41.526  28.068  34.380  1.00  0.00     0.198 A 
ATOM     96  C   UNL A   1      42.088  29.913  35.804  1.00  0.00     0.198 A 
ATOM     97  F   UNL A   1      42.535  32.024  34.875  1.00  0.00    -0.203 F 
ATOM     98  F   UNL A   1      41.202  26.775  34.232  1.00  0.00    -0.200 F 
ATOM     99  C   UNL A   1      41.743  28.581  35.649  1.00  0.00     0.200 A 
ATOM    100  F   UNL A   1      42.338  30.407  37.025  1.00  0.00    -0.200 F 
ATOM    101  F   UNL A   1      41.638  27.787  36.725  1.00  0.00    -0.200 F 
ENDBRANCH  68  91
ENDBRANCH  42  43
ENDBRANCH  34  37
ENDBRANCH  32  33
ENDBRANCH  31  32
ENDBRANCH  30  31
ENDBRANCH   1  30
TORSDOF 17
ENDMDL
MODEL 2
REMARK VINA RESULT:     -13.1      3.444      9.275
REMARK SMILES COc1cccc([C@@H]2CN(C(=O)CSc3nc(C)n[nH]3)C[C@H]2C(=O)NCCCCNC(=O)c2ccc(-c3c4nc(c(-c5c(F)c(F)c(F)c(F)c5F)c5ccc([nH]5)c(-c5c(F)c(F)c(F)c(F)c5F)c5nc(c(-c6c(F)c(F)c(F)c(F)c6F)c6ccc3[nH]6)C=C5)C=C4)cc2)c1
REMARK SMILES IDX 26 1 25 2 23 3 24 4 22 6 8 7 9 8 10 9 21 10 7 11 3 12 4 13
REMARK SMILES IDX 96 14 5 15 6 16 2 17 1 18 11 19 12 20 13 21 14 22 15 23
REMARK SMILES IDX 16 24 20 25 17 26 19 27 18 29 27 30 28 31 29 32 30 33 31 34
REMARK SMILES IDX 32 36 33 37 34 38 95 39 35 40 94 41 36 42 37 43 38 44 88 45
REMARK SMILES IDX 39 46 93 47 87 48 89 49 40 50 92 51 86 52 85 53 41 55 73 56
REMARK SMILES IDX 53 57 72 58 54 59 57 60 71 61 90 62 55 63 56 64 70 66 91 67
REMARK SMILES IDX 58 68 42 69 43 70 51 71 44 72 45 73 49 74 52 75 46 76 47 77
REMARK SMILES IDX 50 78 48 79 74 80 75 81 83 82 76 83 77 84 81 85 84 86 78 87
REMARK SMILES IDX 79 88 82 89 80 90 59 91 60 92 68 93 61 94 62 95 66 96 69 97
REMARK SMILES IDX 63 98 64 99 67 100 65 101
REMARK H PARENT 25 5 20 28 30 35 89 54 57 65
REMARK Flexibility Score: inf
ROOT
ATOM      1  C   UNL A   1      32.767  29.863  25.721  1.00  0.00     0.116 C 
ENDROOT
BRANCH   1   2
ATOM      2  N   UNL A   1      33.496  29.555  24.501  1.00  0.00    -0.356 N 
ATOM      3  C   UNL A   1      33.339  28.568  23.578  1.00  0.00     0.225 C 
ATOM      4  O   UNL A   1      34.095  28.593  22.602  1.00  0.00    -0.275 OA
ATOM      5  H   UNL A   1      34.239  30.171  24.310  1.00  0.00     0.163 HD
BRANCH   3   6
ATOM      6  C   UNL A   1      32.289  27.476  23.695  1.00  0.00     0.107 C 
ATOM      7  C   UNL A   1      31.340  27.390  22.485  1.00  0.00     0.053 C 
ATOM      8  C   UNL A   1      31.025  25.897  22.376  1.00  0.00     0.128 C 
ATOM      9  N   UNL A   1      32.240  25.257  22.847  1.00  0.00    -0.341 N 
ATOM     10  C   UNL A   1      32.904  26.084  23.843  1.00  0.00     0.133 C 
BRANCH   7  11
ATOM     11  C   UNL A   1      30.123  28.282  22.536  1.00  0.00    -0.039 A 
ATOM     12  C   UNL A   1      28.994  30.385  22.077  1.00  0.00     0.119 A 
ATOM     13  C   UNL A   1      27.846  29.913  22.710  1.00  0.00     0.046 A 
ATOM     14  C   UNL A   1      30.135  29.582  22.010  1.00  0.00     0.050 A 
ATOM     15  C   UNL A   1      27.817  28.623  23.233  1.00  0.00     0.004 A 
ATOM     16  C   UNL A   1      28.946  27.810  23.141  1.00  0.00     0.004 A 
BRANCH  12  17
ATOM     17  O   UNL A   1      28.939  31.670  21.607  1.00  0.00    -0.497 OA
ATOM     18  C   UNL A   1      28.677  32.642  22.616  1.00  0.00     0.278 C 
ENDBRANCH  12  17
ENDBRANCH   7  11
BRANCH   9  19
ATOM     19  C   UNL A   1      32.734  24.013  22.519  1.00  0.00     0.233 C 
ATOM     20  O   UNL A   1      33.597  23.881  21.645  1.00  0.00    -0.274 OA
BRANCH  19  21
ATOM     21  C   UNL A   1      32.100  22.782  23.142  1.00  0.00     0.178 C 
BRANCH  21  22
ATOM     22  S   UNL A   1      32.487  22.527  24.890  1.00  0.00    -0.077 SA
BRANCH  22  23
ATOM     23  C   UNL A   1      32.889  20.860  24.921  1.00  0.00     0.184 A 
ATOM     24  N   UNL A   1      32.079  19.844  25.065  1.00  0.00    -0.206 NA
ATOM     25  N   UNL A   1      34.154  20.424  24.690  1.00  0.00    -0.254 N 
ATOM     26  C   UNL A   1      32.922  18.769  24.921  1.00  0.00     0.148 A 
ATOM     27  N   UNL A   1      34.206  19.081  24.689  1.00  0.00    -0.158 NA
ATOM     28  H   UNL A   1      34.929  21.013  24.542  1.00  0.00     0.192 HD
ATOM     29  C   UNL A   1      32.436  17.376  24.978  1.00  0.00     0.092 C 
ENDBRANCH  22  23
ENDBRANCH  21  22
ENDBRANCH  19  21
ENDBRANCH   9  19
ENDBRANCH   3   6
ENDBRANCH   1   2
BRANCH   1  30
ATOM     30  C   UNL A   1      33.692  30.206  26.893  1.00  0.00     0.023 C 
BRANCH  30  31
ATOM     31  C   UNL A   1      33.382  31.510  27.636  1.00  0.00     0.023 C 
BRANCH  31  32
ATOM     32  C   UNL A   1      34.609  32.289  28.079  1.00  0.00     0.116 C 
BRANCH  32  33
ATOM     33  N   UNL A   1      34.579  32.655  29.494  1.00  0.00    -0.352 N 
ATOM     34  C   UNL A   1      35.345  32.118  30.508  1.00  0.00     0.251 C 
ATOM     35  H   UNL A   1      33.943  33.361  29.751  1.00  0.00     0.163 HD
ATOM     36  O   UNL A   1      34.993  32.202  31.684  1.00  0.00    -0.269 OA
BRANCH  34  37
ATOM     37  C   UNL A   1      36.598  31.435  30.153  1.00  0.00     0.039 A 
ATOM     38  C   UNL A   1      37.807  32.128  30.086  1.00  0.00     0.014 A 
ATOM     39  C   UNL A   1      36.550  30.057  29.947  1.00  0.00     0.014 A 
ATOM     40  C   UNL A   1      38.980  31.401  29.904  1.00  0.00     0.010 A 
ATOM     41  C   UNL A   1      37.715  29.329  29.911  1.00  0.00     0.010 A 
ATOM     42  C   UNL A   1      38.932  29.995  29.854  1.00  0.00    -0.014 A 
BRANCH  42  43
ATOM     43  C   UNL A   1      40.170  29.216  29.897  1.00  0.00     0.031 A 
ATOM     44  C   UNL A   1      40.693  29.018  31.275  1.00  0.00     0.074 A 
ATOM     45  C   UNL A   1      40.712  28.581  28.833  1.00  0.00     0.049 A 
ATOM     46  N   UNL A   1      41.735  29.577  31.793  1.00  0.00    -0.248 NA
ATOM     47  C   UNL A   1      39.898  28.246  32.245  1.00  0.00     0.031 C 
ATOM     48  C   UNL A   1      40.134  28.422  27.492  1.00  0.00     0.029 A 
ATOM     49  N   UNL A   1      41.870  27.860  28.742  1.00  0.00    -0.354 N 
ATOM     50  C   UNL A   1      41.866  29.041  33.071  1.00  0.00     0.074 A 
ATOM     51  C   UNL A   1      40.618  28.388  33.363  1.00  0.00     0.031 C 
ATOM     52  C   UNL A   1      40.811  27.471  26.810  1.00  0.00     0.029 A 
ATOM     53  C   UNL A   1      41.981  27.099  27.581  1.00  0.00     0.049 A 
ATOM     54  H   UNL A   1      42.566  27.877  29.438  1.00  0.00     0.167 HD
ATOM     55  C   UNL A   1      43.103  28.932  33.633  1.00  0.00     0.037 A 
ATOM     56  C   UNL A   1      42.976  26.237  27.255  1.00  0.00     0.037 A 
ATOM     57  C   UNL A   1      44.064  29.685  32.867  1.00  0.00     0.049 A 
ATOM     58  C   UNL A   1      44.167  26.618  28.042  1.00  0.00     0.074 A 
ATOM     59  C   UNL A   1      44.445  31.001  32.735  1.00  0.00     0.029 A 
ATOM     60  N   UNL A   1      44.513  29.015  31.763  1.00  0.00    -0.354 N 
ATOM     61  N   UNL A   1      44.821  27.731  27.853  1.00  0.00    -0.248 NA
ATOM     62  C   UNL A   1      44.446  25.928  29.295  1.00  0.00     0.031 C 
ATOM     63  C   UNL A   1      45.037  31.117  31.439  1.00  0.00     0.029 A 
ATOM     64  C   UNL A   1      45.049  29.862  30.836  1.00  0.00     0.049 A 
ATOM     65  H   UNL A   1      44.456  28.038  31.649  1.00  0.00     0.167 HD
ATOM     66  C   UNL A   1      45.231  28.093  29.118  1.00  0.00     0.074 A 
ATOM     67  C   UNL A   1      45.145  26.879  29.920  1.00  0.00     0.031 C 
ATOM     68  C   UNL A   1      45.267  29.405  29.484  1.00  0.00     0.037 A 
BRANCH  55  69
ATOM     69  C   UNL A   1      43.578  27.784  34.503  1.00  0.00     0.064 A 
ATOM     70  C   UNL A   1      43.597  26.481  33.954  1.00  0.00     0.173 A 
ATOM     71  C   UNL A   1      43.677  27.847  35.907  1.00  0.00     0.173 A 
ATOM     72  F   UNL A   1      43.493  26.296  32.630  1.00  0.00    -0.203 F 
ATOM     73  C   UNL A   1      43.628  25.337  34.758  1.00  0.00     0.198 A 
ATOM     74  C   UNL A   1      43.757  26.704  36.704  1.00  0.00     0.198 A 
ATOM     75  F   UNL A   1      43.584  29.000  36.578  1.00  0.00    -0.203 F 
ATOM     76  F   UNL A   1      43.520  24.125  34.199  1.00  0.00    -0.200 F 
ATOM     77  C   UNL A   1      43.701  25.450  36.134  1.00  0.00     0.200 A 
ATOM     78  F   UNL A   1      43.801  26.833  38.038  1.00  0.00    -0.200 F 
ATOM     79  F   UNL A   1      43.669  24.358  36.911  1.00  0.00    -0.200 F 
ENDBRANCH  55  69
BRANCH  56  80
ATOM     80  C   UNL A   1      42.939  24.994  26.456  1.00  0.00     0.064 A 
ATOM     81  C   UNL A   1      43.766  24.818  25.333  1.00  0.00     0.173 A 
ATOM     82  C   UNL A   1      42.324  23.838  26.971  1.00  0.00     0.173 A 
ATOM     83  F   UNL A   1      44.416  25.865  24.805  1.00  0.00    -0.203 F 
ATOM     84  C   UNL A   1      43.997  23.553  24.783  1.00  0.00     0.198 A 
ATOM     85  C   UNL A   1      42.558  22.575  26.423  1.00  0.00     0.198 A 
ATOM     86  F   UNL A   1      41.573  23.905  28.080  1.00  0.00    -0.203 F 
ATOM     87  F   UNL A   1      44.847  23.415  23.755  1.00  0.00    -0.200 F 
ATOM     88  C   UNL A   1      43.407  22.431  25.340  1.00  0.00     0.200 A 
ATOM     89  F   UNL A   1      42.015  21.490  26.995  1.00  0.00    -0.200 F 
ATOM     90  F   UNL A   1      43.689  21.210  24.863  1.00  0.00    -0.200 F 
ENDBRANCH  56  80
BRANCH  68  91
ATOM     91  C   UNL A   1      45.399  30.421  28.397  1.00  0.00     0.064 A 
ATOM     92  C   UNL A   1      44.324  31.033  27.734  1.00  0.00     0.173 A 
ATOM     93  C   UNL A   1      46.694  30.837  28.059  1.00  0.00     0.173 A 
ATOM     94  F   UNL A   1      43.058  30.737  28.052  1.00  0.00    -0.203 F 
ATOM     95  C   UNL A   1      44.545  31.994  26.748  1.00  0.00     0.198 A 
ATOM     96  C   UNL A   1      46.910  31.821  27.103  1.00  0.00     0.198 A 
ATOM     97  F   UNL A   1      47.754  30.306  28.689  1.00  0.00    -0.203 F 
ATOM     98  F   UNL A   1      43.507  32.555  26.111  1.00  0.00    -0.200 F 
ATOM     99  C   UNL A   1      45.837  32.391  26.439  1.00  0.00     0.200 A 
ATOM    100  F   UNL A   1      48.159  32.226  26.838  1.00  0.00    -0.200 F 
ATOM    101  F   UNL A   1      46.049  33.338  25.514  1.00  0.00    -0.200 F 
ENDBRANCH  68  91
ENDBRANCH  42  43
ENDBRANCH  34  37
ENDBRANCH  32  33
ENDBRANCH  31  32
ENDBRANCH  30  31
ENDBRANCH   1  30
TORSDOF 17
ENDMDL
MODEL 3
REMARK VINA RESULT:     -13.0      3.580      9.307
REMARK SMILES COc1cccc([C@@H]2CN(C(=O)CSc3nc(C)n[nH]3)C[C@H]2C(=O)NCCCCNC(=O)c2ccc(-c3c4nc(c(-c5c(F)c(F)c(F)c(F)c5F)c5ccc([nH]5)c(-c5c(F)c(F)c(F)c(F)c5F)c5nc(c(-c6c(F)c(F)c(F)c(F)c6F)c6ccc3[nH]6)C=C5)C=C4)cc2)c1
REMARK SMILES IDX 26 1 25 2 23 3 24 4 22 6 8 7 9 8 10 9 21 10 7 11 3 12 4 13
REMARK SMILES IDX 96 14 5 15 6 16 2 17 1 18 11 19 12 20 13 21 14 22 15 23
REMARK SMILES IDX 16 24 20 25 17 26 19 27 18 29 27 30 28 31 29 32 30 33 31 34
REMARK SMILES IDX 32 36 33 37 34 38 95 39 35 40 94 41 36 42 37 43 38 44 88 45
REMARK SMILES IDX 39 46 93 47 87 48 89 49 40 50 92 51 86 52 85 53 41 55 73 56
REMARK SMILES IDX 53 57 72 58 54 59 57 60 71 61 90 62 55 63 56 64 70 66 91 67
REMARK SMILES IDX 58 68 42 69 43 70 51 71 44 72 45 73 49 74 52 75 46 76 47 77
REMARK SMILES IDX 50 78 48 79 74 80 75 81 83 82 76 83 77 84 81 85 84 86 78 87
REMARK SMILES IDX 79 88 82 89 80 90 59 91 60 92 68 93 61 94 62 95 66 96 69 97
REMARK SMILES IDX 63 98 64 99 67 100 65 101
REMARK H PARENT 25 5 20 28 30 35 89 54 57 65
REMARK Flexibility Score: inf
ROOT
ATOM      1  C   UNL A   1      33.117  29.599  26.141  1.00  0.00     0.116 C 
ENDROOT
BRANCH   1   2
ATOM      2  N   UNL A   1      33.809  29.330  24.891  1.00  0.00    -0.356 N 
ATOM      3  C   UNL A   1      33.697  28.312  23.995  1.00  0.00     0.225 C 
ATOM      4  O   UNL A   1      34.397  28.383  22.980  1.00  0.00    -0.275 OA
ATOM      5  H   UNL A   1      34.481  30.007  24.648  1.00  0.00     0.163 HD
BRANCH   3   6
ATOM      6  C   UNL A   1      32.760  27.132  24.188  1.00  0.00     0.107 C 
ATOM      7  C   UNL A   1      31.853  26.850  22.976  1.00  0.00     0.053 C 
ATOM      8  C   UNL A   1      31.692  25.329  22.987  1.00  0.00     0.128 C 
ATOM      9  N   UNL A   1      32.954  24.857  23.528  1.00  0.00    -0.341 N 
ATOM     10  C   UNL A   1      33.508  25.826  24.461  1.00  0.00     0.133 C 
BRANCH   7  11
ATOM     11  C   UNL A   1      30.551  27.614  22.934  1.00  0.00    -0.039 A 
ATOM     12  C   UNL A   1      29.243  29.575  22.345  1.00  0.00     0.119 A 
ATOM     13  C   UNL A   1      28.116  29.008  22.936  1.00  0.00     0.046 A 
ATOM     14  C   UNL A   1      30.460  28.892  22.363  1.00  0.00     0.050 A 
ATOM     15  C   UNL A   1      28.189  27.738  23.502  1.00  0.00     0.004 A 
ATOM     16  C   UNL A   1      29.397  27.043  23.496  1.00  0.00     0.004 A 
BRANCH  12  17
ATOM     17  O   UNL A   1      29.084  30.833  21.826  1.00  0.00    -0.497 OA
ATOM     18  C   UNL A   1      28.024  30.936  20.878  1.00  0.00     0.278 C 
ENDBRANCH  12  17
ENDBRANCH   7  11
BRANCH   9  19
ATOM     19  C   UNL A   1      33.578  23.648  23.312  1.00  0.00     0.233 C 
ATOM     20  O   UNL A   1      34.522  23.550  22.521  1.00  0.00    -0.274 OA
BRANCH  19  21
ATOM     21  C   UNL A   1      33.000  22.397  23.950  1.00  0.00     0.178 C 
BRANCH  21  22
ATOM     22  S   UNL A   1      34.058  21.615  25.192  1.00  0.00    -0.077 SA
BRANCH  22  23
ATOM     23  C   UNL A   1      33.545  19.981  25.112  1.00  0.00     0.184 A 
ATOM     24  N   UNL A   1      33.805  19.105  24.176  1.00  0.00    -0.206 NA
ATOM     25  N   UNL A   1      32.859  19.395  26.126  1.00  0.00    -0.254 N 
ATOM     26  C   UNL A   1      33.229  17.961  24.672  1.00  0.00     0.148 A 
ATOM     27  N   UNL A   1      32.637  18.095  25.868  1.00  0.00    -0.158 NA
ATOM     28  H   UNL A   1      32.564  19.861  26.943  1.00  0.00     0.192 HD
ATOM     29  C   UNL A   1      33.296  16.673  23.953  1.00  0.00     0.092 C 
ENDBRANCH  22  23
ENDBRANCH  21  22
ENDBRANCH  19  21
ENDBRANCH   9  19
ENDBRANCH   3   6
ENDBRANCH   1   2
BRANCH   1  30
ATOM     30  C   UNL A   1      34.039  30.193  27.211  1.00  0.00     0.023 C 
BRANCH  30  31
ATOM     31  C   UNL A   1      33.754  31.643  27.616  1.00  0.00     0.023 C 
BRANCH  31  32
ATOM     32  C   UNL A   1      34.962  32.398  28.144  1.00  0.00     0.116 C 
BRANCH  32  33
ATOM     33  N   UNL A   1      34.877  32.692  29.573  1.00  0.00    -0.352 N 
ATOM     34  C   UNL A   1      35.513  32.022  30.599  1.00  0.00     0.251 C 
ATOM     35  H   UNL A   1      34.305  33.450  29.832  1.00  0.00     0.163 HD
ATOM     36  O   UNL A   1      35.095  32.085  31.754  1.00  0.00    -0.269 OA
BRANCH  34  37
ATOM     37  C   UNL A   1      36.706  31.224  30.281  1.00  0.00     0.039 A 
ATOM     38  C   UNL A   1      37.957  31.821  30.128  1.00  0.00     0.014 A 
ATOM     39  C   UNL A   1      36.558  29.840  30.199  1.00  0.00     0.014 A 
ATOM     40  C   UNL A   1      39.073  31.000  29.988  1.00  0.00     0.010 A 
ATOM     41  C   UNL A   1      37.668  29.031  30.205  1.00  0.00     0.010 A 
ATOM     42  C   UNL A   1      38.927  29.601  30.064  1.00  0.00    -0.014 A 
BRANCH  42  43
ATOM     43  C   UNL A   1      40.109  28.744  30.151  1.00  0.00     0.031 A 
ATOM     44  C   UNL A   1      40.596  28.552  31.543  1.00  0.00     0.074 A 
ATOM     45  C   UNL A   1      40.624  28.043  29.115  1.00  0.00     0.049 A 
ATOM     46  N   UNL A   1      41.665  29.056  32.063  1.00  0.00    -0.248 NA
ATOM     47  C   UNL A   1      39.735  27.865  32.521  1.00  0.00     0.031 C 
ATOM     48  C   UNL A   1      40.058  27.883  27.770  1.00  0.00     0.029 A 
ATOM     49  N   UNL A   1      41.732  27.244  29.065  1.00  0.00    -0.354 N 
ATOM     50  C   UNL A   1      41.739  28.551  33.359  1.00  0.00     0.074 A 
ATOM     51  C   UNL A   1      40.446  27.991  33.647  1.00  0.00     0.031 C 
ATOM     52  C   UNL A   1      40.680  26.869  27.127  1.00  0.00     0.029 A 
ATOM     53  C   UNL A   1      41.810  26.443  27.929  1.00  0.00     0.049 A 
ATOM     54  H   UNL A   1      42.417  27.236  29.773  1.00  0.00     0.167 HD
ATOM     55  C   UNL A   1      42.957  28.376  33.945  1.00  0.00     0.037 A 
ATOM     56  C   UNL A   1      42.750  25.508  27.645  1.00  0.00     0.037 A 
ATOM     57  C   UNL A   1      43.979  29.041  33.176  1.00  0.00     0.049 A 
ATOM     58  C   UNL A   1      43.952  25.832  28.442  1.00  0.00     0.074 A 
ATOM     59  C   UNL A   1      44.448  30.324  33.012  1.00  0.00     0.029 A 
ATOM     60  N   UNL A   1      44.398  28.310  32.098  1.00  0.00    -0.354 N 
ATOM     61  N   UNL A   1      44.682  26.893  28.234  1.00  0.00    -0.248 NA
ATOM     62  C   UNL A   1      44.164  25.162  29.720  1.00  0.00     0.031 C 
ATOM     63  C   UNL A   1      45.067  30.362  31.724  1.00  0.00     0.029 A 
ATOM     64  C   UNL A   1      45.005  29.091  31.157  1.00  0.00     0.049 A 
ATOM     65  H   UNL A   1      44.278  27.336  32.012  1.00  0.00     0.167 HD
ATOM     66  C   UNL A   1      45.095  27.264  29.495  1.00  0.00     0.074 A 
ATOM     67  C   UNL A   1      44.915  26.083  30.329  1.00  0.00     0.031 C 
ATOM     68  C   UNL A   1      45.213  28.581  29.824  1.00  0.00     0.037 A 
BRANCH  55  69
ATOM     69  C   UNL A   1      43.340  27.226  34.856  1.00  0.00     0.064 A 
ATOM     70  C   UNL A   1      43.752  27.517  36.177  1.00  0.00     0.173 A 
ATOM     71  C   UNL A   1      43.647  25.927  34.402  1.00  0.00     0.173 A 
ATOM     72  F   UNL A   1      43.528  28.726  36.712  1.00  0.00    -0.203 F 
ATOM     73  C   UNL A   1      44.485  26.605  36.943  1.00  0.00     0.198 A 
ATOM     74  C   UNL A   1      44.336  25.004  35.188  1.00  0.00     0.198 A 
ATOM     75  F   UNL A   1      43.401  25.534  33.148  1.00  0.00    -0.203 F 
ATOM     76  F   UNL A   1      44.960  26.971  38.142  1.00  0.00    -0.200 F 
ATOM     77  C   UNL A   1      44.783  25.351  36.445  1.00  0.00     0.200 A 
ATOM     78  F   UNL A   1      44.638  23.800  34.678  1.00  0.00    -0.200 F 
ATOM     79  F   UNL A   1      45.536  24.497  37.151  1.00  0.00    -0.200 F 
ENDBRANCH  55  69
BRANCH  56  80
ATOM     80  C   UNL A   1      42.643  24.246  26.882  1.00  0.00     0.064 A 
ATOM     81  C   UNL A   1      43.248  24.097  25.622  1.00  0.00     0.173 A 
ATOM     82  C   UNL A   1      42.216  23.066  27.518  1.00  0.00     0.173 A 
ATOM     83  F   UNL A   1      43.715  25.170  24.968  1.00  0.00    -0.203 F 
ATOM     84  C   UNL A   1      43.452  22.837  25.052  1.00  0.00     0.198 A 
ATOM     85  C   UNL A   1      42.423  21.809  26.949  1.00  0.00     0.198 A 
ATOM     86  F   UNL A   1      41.689  23.112  28.751  1.00  0.00    -0.203 F 
ATOM     87  F   UNL A   1      44.096  22.729  23.880  1.00  0.00    -0.200 F 
ATOM     88  C   UNL A   1      43.056  21.693  25.724  1.00  0.00     0.200 A 
ATOM     89  F   UNL A   1      42.073  20.705  27.626  1.00  0.00    -0.200 F 
ATOM     90  F   UNL A   1      43.321  20.481  25.215  1.00  0.00    -0.200 F 
ENDBRANCH  56  80
BRANCH  68  91
ATOM     91  C   UNL A   1      45.430  29.554  28.711  1.00  0.00     0.064 A 
ATOM     92  C   UNL A   1      44.411  30.242  28.035  1.00  0.00     0.173 A 
ATOM     93  C   UNL A   1      46.755  29.842  28.358  1.00  0.00     0.173 A 
ATOM     94  F   UNL A   1      43.125  30.069  28.365  1.00  0.00    -0.203 F 
ATOM     95  C   UNL A   1      44.712  31.155  27.024  1.00  0.00     0.198 A 
ATOM     96  C   UNL A   1      47.053  30.779  27.376  1.00  0.00     0.198 A 
ATOM     97  F   UNL A   1      47.767  29.235  28.998  1.00  0.00    -0.203 F 
ATOM     98  F   UNL A   1      43.725  31.790  26.376  1.00  0.00    -0.200 F 
ATOM     99  C   UNL A   1      46.032  31.426  26.701  1.00  0.00     0.200 A 
ATOM    100  F   UNL A   1      48.333  31.063  27.098  1.00  0.00    -0.200 F 
ATOM    101  F   UNL A   1      46.323  32.326  25.752  1.00  0.00    -0.200 F 
ENDBRANCH  68  91
ENDBRANCH  42  43
ENDBRANCH  34  37
ENDBRANCH  32  33
ENDBRANCH  31  32
ENDBRANCH  30  31
ENDBRANCH   1  30
TORSDOF 17
ENDMDL
