MODEL 1
REMARK VINA RESULT:     -12.6      0.000      0.000
REMARK SMILES C[C@H](NC(=O)OCc1ccccc1)C(=O)NCC(=O)N1CCC[C@H]1C(=O)NCCCCNC(=O)c1ccc(-c2c3nc(c(-c4c(F)c(F)c(F)c(F)c4F)c4ccc([nH]4)c(-c4c(F)c(F)c(F)c(F)c4F)c4nc(c(-c5c(F)c(F)c(F)c(F)c5F)c5ccc2[nH]5)C=C4)C=C3)cc1
REMARK SMILES IDX 20 1 21 2 22 3 23 4 24 5 18 6 19 7 17 8 16 9 14 10 15 11
REMARK SMILES IDX 2 13 1 14 3 15 4 16 5 18 6 19 7 20 8 21 9 22 13 23 10 24
REMARK SMILES IDX 12 25 11 26 25 27 26 28 27 29 28 31 29 32 30 33 31 34 32 35
REMARK SMILES IDX 33 36 34 38 35 39 36 40 97 41 37 42 96 43 38 44 39 45 40 46
REMARK SMILES IDX 90 47 41 48 95 49 89 50 91 51 42 52 94 53 88 54 87 55 43 57
REMARK SMILES IDX 75 58 55 59 74 60 56 61 59 62 73 63 92 64 57 65 58 66 72 68
REMARK SMILES IDX 93 69 60 70 44 71 45 72 53 73 46 74 47 75 51 76 54 77 48 78
REMARK SMILES IDX 49 79 52 80 50 81 76 82 77 83 85 84 78 85 79 86 83 87 86 88
REMARK SMILES IDX 80 89 81 90 84 91 82 92 61 93 62 94 70 95 63 96 64 97 68 98
REMARK SMILES IDX 71 99 65 100 66 101 69 102 67 103
REMARK H PARENT 16 12 3 17 27 30 32 37 91 56 59 67
REMARK Flexibility Score: inf
ROOT
ATOM      1  N   UNL A   1      32.950  25.903  23.594  1.00  0.00    -0.329 N 
ATOM      2  C   UNL A   1      34.212  25.276  23.923  1.00  0.00     0.120 C 
ATOM      3  C   UNL A   1      34.340  25.504  25.415  1.00  0.00     0.024 C 
ATOM      4  C   UNL A   1      33.723  26.877  25.630  1.00  0.00     0.037 C 
ATOM      5  C   UNL A   1      32.772  27.109  24.429  1.00  0.00     0.174 C 
ENDROOT
BRANCH   1   6
ATOM      6  C   UNL A   1      31.893  25.412  22.866  1.00  0.00     0.242 C 
ATOM      7  O   UNL A   1      31.971  25.367  21.630  1.00  0.00    -0.273 OA
BRANCH   6   8
ATOM      8  C   UNL A   1      30.651  24.748  23.487  1.00  0.00     0.216 C 
BRANCH   8   9
ATOM      9  N   UNL A   1      29.979  25.247  24.660  1.00  0.00    -0.345 N 
ATOM     10  C   UNL A   1      29.913  24.752  25.923  1.00  0.00     0.242 C 
ATOM     11  O   UNL A   1      29.395  25.489  26.770  1.00  0.00    -0.273 OA
ATOM     12  H   UNL A   1      29.487  26.088  24.524  1.00  0.00     0.164 HD
BRANCH  10  13
ATOM     13  C   UNL A   1      30.501  23.387  26.343  1.00  0.00     0.171 C 
ATOM     14  C   UNL A   1      29.488  22.532  27.087  1.00  0.00     0.042 C 
BRANCH  13  15
ATOM     15  N   UNL A   1      31.850  23.457  26.900  1.00  0.00    -0.310 N 
ATOM     16  C   UNL A   1      32.892  22.584  26.915  1.00  0.00     0.408 C 
ATOM     17  H   UNL A   1      32.042  24.308  27.356  1.00  0.00     0.167 HD
ATOM     18  O   UNL A   1      33.878  22.826  27.596  1.00  0.00    -0.225 OA
BRANCH  16  19
ATOM     19  O   UNL A   1      32.688  21.469  26.181  1.00  0.00    -0.445 OA
BRANCH  19  20
ATOM     20  C   UNL A   1      33.623  21.255  25.109  1.00  0.00     0.270 C 
BRANCH  20  21
ATOM     21  C   UNL A   1      33.452  19.944  24.394  1.00  0.00    -0.011 A 
ATOM     22  C   UNL A   1      34.272  18.847  24.668  1.00  0.00     0.007 A 
ATOM     23  C   UNL A   1      32.452  19.831  23.414  1.00  0.00     0.007 A 
ATOM     24  C   UNL A   1      34.068  17.641  23.998  1.00  0.00     0.000 A 
ATOM     25  C   UNL A   1      32.252  18.628  22.745  1.00  0.00     0.000 A 
ATOM     26  C   UNL A   1      33.057  17.531  23.042  1.00  0.00     0.000 A 
ENDBRANCH  20  21
ENDBRANCH  19  20
ENDBRANCH  16  19
ENDBRANCH  13  15
ENDBRANCH  10  13
ENDBRANCH   8   9
ENDBRANCH   6   8
ENDBRANCH   1   6
BRANCH   5  27
ATOM     27  C   UNL A   1      33.075  28.536  23.883  1.00  0.00     0.242 C 
ATOM     28  O   UNL A   1      34.005  28.709  23.083  1.00  0.00    -0.273 OA
ATOM     29  N   UNL A   1      32.468  29.675  24.295  1.00  0.00    -0.354 N 
ATOM     30  H   UNL A   1      32.733  30.478  23.791  1.00  0.00     0.163 HD
BRANCH  29  31
ATOM     31  C   UNL A   1      31.505  29.926  25.336  1.00  0.00     0.116 C 
BRANCH  31  32
ATOM     32  C   UNL A   1      32.179  30.497  26.585  1.00  0.00     0.023 C 
BRANCH  32  33
ATOM     33  C   UNL A   1      31.764  31.930  26.905  1.00  0.00     0.023 C 
BRANCH  33  34
ATOM     34  C   UNL A   1      32.901  32.802  27.417  1.00  0.00     0.116 C 
BRANCH  34  35
ATOM     35  N   UNL A   1      32.510  34.177  27.702  1.00  0.00    -0.352 N 
ATOM     36  C   UNL A   1      33.060  35.018  28.641  1.00  0.00     0.251 C 
ATOM     37  H   UNL A   1      31.771  34.544  27.165  1.00  0.00     0.163 HD
ATOM     38  O   UNL A   1      32.592  36.126  28.865  1.00  0.00    -0.269 OA
BRANCH  36  39
ATOM     39  C   UNL A   1      34.214  34.516  29.409  1.00  0.00     0.039 A 
ATOM     40  C   UNL A   1      33.985  33.744  30.547  1.00  0.00     0.014 A 
ATOM     41  C   UNL A   1      35.505  34.691  28.904  1.00  0.00     0.014 A 
ATOM     42  C   UNL A   1      35.058  33.082  31.144  1.00  0.00     0.010 A 
ATOM     43  C   UNL A   1      36.548  33.949  29.435  1.00  0.00     0.010 A 
ATOM     44  C   UNL A   1      36.338  33.145  30.566  1.00  0.00    -0.014 A 
BRANCH  44  45
ATOM     45  C   UNL A   1      37.479  32.390  31.137  1.00  0.00     0.031 A 
ATOM     46  C   UNL A   1      37.981  32.727  32.513  1.00  0.00     0.074 A 
ATOM     47  C   UNL A   1      38.103  31.454  30.398  1.00  0.00     0.049 A 
ATOM     48  N   UNL A   1      38.991  32.222  33.175  1.00  0.00    -0.248 NA
ATOM     49  C   UNL A   1      37.275  33.804  33.224  1.00  0.00     0.031 C 
ATOM     50  C   UNL A   1      37.741  31.071  29.033  1.00  0.00     0.029 A 
ATOM     51  N   UNL A   1      39.176  30.651  30.694  1.00  0.00    -0.354 N 
ATOM     52  C   UNL A   1      39.047  32.929  34.368  1.00  0.00     0.074 A 
ATOM     53  C   UNL A   1      38.024  33.949  34.304  1.00  0.00     0.031 C 
ATOM     54  C   UNL A   1      38.547  30.077  28.627  1.00  0.00     0.029 A 
ATOM     55  C   UNL A   1      39.510  29.783  29.684  1.00  0.00     0.049 A 
ATOM     56  H   UNL A   1      39.662  30.695  31.550  1.00  0.00     0.167 HD
ATOM     57  C   UNL A   1      39.857  32.726  35.435  1.00  0.00     0.037 A 
ATOM     58  C   UNL A   1      40.481  28.853  29.622  1.00  0.00     0.037 A 
ATOM     59  C   UNL A   1      40.864  31.701  35.493  1.00  0.00     0.049 A 
ATOM     60  C   UNL A   1      41.395  28.669  30.804  1.00  0.00     0.074 A 
ATOM     61  C   UNL A   1      41.699  31.368  36.544  1.00  0.00     0.029 A 
ATOM     62  N   UNL A   1      41.184  30.850  34.444  1.00  0.00    -0.354 N 
ATOM     63  N   UNL A   1      41.389  29.285  31.960  1.00  0.00    -0.248 NA
ATOM     64  C   UNL A   1      42.447  27.653  30.670  1.00  0.00     0.031 C 
ATOM     65  C   UNL A   1      42.569  30.363  36.109  1.00  0.00     0.029 A 
ATOM     66  C   UNL A   1      42.229  30.017  34.811  1.00  0.00     0.049 A 
ATOM     67  H   UNL A   1      40.733  30.838  33.568  1.00  0.00     0.167 HD
ATOM     68  C   UNL A   1      42.411  28.712  32.705  1.00  0.00     0.074 A 
ATOM     69  C   UNL A   1      43.008  27.690  31.870  1.00  0.00     0.031 C 
ATOM     70  C   UNL A   1      42.814  29.002  33.968  1.00  0.00     0.037 A 
BRANCH  57  71
ATOM     71  C   UNL A   1      39.686  33.650  36.609  1.00  0.00     0.064 A 
ATOM     72  C   UNL A   1      38.877  33.313  37.708  1.00  0.00     0.173 A 
ATOM     73  C   UNL A   1      40.321  34.900  36.628  1.00  0.00     0.173 A 
ATOM     74  F   UNL A   1      38.235  32.135  37.739  1.00  0.00    -0.203 F 
ATOM     75  C   UNL A   1      38.664  34.215  38.747  1.00  0.00     0.198 A 
ATOM     76  C   UNL A   1      40.141  35.783  37.690  1.00  0.00     0.198 A 
ATOM     77  F   UNL A   1      41.111  35.274  35.610  1.00  0.00    -0.203 F 
ATOM     78  F   UNL A   1      37.818  33.904  39.739  1.00  0.00    -0.200 F 
ATOM     79  C   UNL A   1      39.299  35.447  38.739  1.00  0.00     0.200 A 
ATOM     80  F   UNL A   1      40.768  36.967  37.689  1.00  0.00    -0.200 F 
ATOM     81  F   UNL A   1      39.088  36.318  39.736  1.00  0.00    -0.200 F 
ENDBRANCH  57  71
BRANCH  58  82
ATOM     82  C   UNL A   1      40.604  27.992  28.417  1.00  0.00     0.064 A 
ATOM     83  C   UNL A   1      41.369  28.409  27.317  1.00  0.00     0.173 A 
ATOM     84  C   UNL A   1      39.985  26.736  28.342  1.00  0.00     0.173 A 
ATOM     85  F   UNL A   1      41.965  29.610  27.334  1.00  0.00    -0.203 F 
ATOM     86  C   UNL A   1      41.500  27.607  26.186  1.00  0.00     0.198 A 
ATOM     87  C   UNL A   1      40.139  25.923  27.221  1.00  0.00     0.198 A 
ATOM     88  F   UNL A   1      39.247  26.288  29.368  1.00  0.00    -0.203 F 
ATOM     89  F   UNL A   1      42.206  28.046  25.136  1.00  0.00    -0.200 F 
ATOM     90  C   UNL A   1      40.892  26.362  26.141  1.00  0.00     0.200 A 
ATOM     91  F   UNL A   1      39.565  24.713  27.188  1.00  0.00    -0.200 F 
ATOM     92  F   UNL A   1      41.028  25.586  25.057  1.00  0.00    -0.200 F 
ENDBRANCH  58  82
BRANCH  70  93
ATOM     93  C   UNL A   1      43.931  28.177  34.543  1.00  0.00     0.064 A 
ATOM     94  C   UNL A   1      45.269  28.592  34.479  1.00  0.00     0.173 A 
ATOM     95  C   UNL A   1      43.650  26.972  35.207  1.00  0.00     0.173 A 
ATOM     96  F   UNL A   1      45.595  29.728  33.844  1.00  0.00    -0.203 F 
ATOM     97  C   UNL A   1      46.287  27.817  35.031  1.00  0.00     0.198 A 
ATOM     98  C   UNL A   1      44.665  26.220  35.791  1.00  0.00     0.198 A 
ATOM     99  F   UNL A   1      42.386  26.532  35.305  1.00  0.00    -0.203 F 
ATOM    100  F   UNL A   1      47.564  28.206  34.910  1.00  0.00    -0.200 F 
ATOM    101  C   UNL A   1      45.983  26.638  35.694  1.00  0.00     0.200 A 
ATOM    102  F   UNL A   1      44.367  25.090  36.447  1.00  0.00    -0.200 F 
ATOM    103  F   UNL A   1      46.962  25.899  36.234  1.00  0.00    -0.200 F 
ENDBRANCH  70  93
ENDBRANCH  44  45
ENDBRANCH  36  39
ENDBRANCH  34  35
ENDBRANCH  33  34
ENDBRANCH  32  33
ENDBRANCH  31  32
ENDBRANCH  29  31
ENDBRANCH   5  27
TORSDOF 19
ENDMDL
MODEL 2
REMARK VINA RESULT:     -12.4      1.548      2.535
REMARK SMILES C[C@H](NC(=O)OCc1ccccc1)C(=O)NCC(=O)N1CCC[C@H]1C(=O)NCCCCNC(=O)c1ccc(-c2c3nc(c(-c4c(F)c(F)c(F)c(F)c4F)c4ccc([nH]4)c(-c4c(F)c(F)c(F)c(F)c4F)c4nc(c(-c5c(F)c(F)c(F)c(F)c5F)c5ccc2[nH]5)C=C4)C=C3)cc1
REMARK SMILES IDX 20 1 21 2 22 3 23 4 24 5 18 6 19 7 17 8 16 9 14 10 15 11
REMARK SMILES IDX 2 13 1 14 3 15 4 16 5 18 6 19 7 20 8 21 9 22 13 23 10 24
REMARK SMILES IDX 12 25 11 26 25 27 26 28 27 29 28 31 29 32 30 33 31 34 32 35
REMARK SMILES IDX 33 36 34 38 35 39 36 40 97 41 37 42 96 43 38 44 39 45 40 46
REMARK SMILES IDX 90 47 41 48 95 49 89 50 91 51 42 52 94 53 88 54 87 55 43 57
REMARK SMILES IDX 75 58 55 59 74 60 56 61 59 62 73 63 92 64 57 65 58 66 72 68
REMARK SMILES IDX 93 69 60 70 44 71 45 72 53 73 46 74 47 75 51 76 54 77 48 78
REMARK SMILES IDX 49 79 52 80 50 81 76 82 77 83 85 84 78 85 79 86 83 87 86 88
REMARK SMILES IDX 80 89 81 90 84 91 82 92 61 93 62 94 70 95 63 96 64 97 68 98
REMARK SMILES IDX 71 99 65 100 66 101 69 102 67 103
REMARK H PARENT 16 12 3 17 27 30 32 37 91 56 59 67
REMARK Flexibility Score: inf
ROOT
ATOM      1  N   UNL A   1      33.198  24.180  23.281  1.00  0.00    -0.329 N 
ATOM      2  C   UNL A   1      34.542  23.751  23.602  1.00  0.00     0.120 C 
ATOM      3  C   UNL A   1      34.880  24.552  24.843  1.00  0.00     0.024 C 
ATOM      4  C   UNL A   1      34.194  25.890  24.613  1.00  0.00     0.037 C 
ATOM      5  C   UNL A   1      33.052  25.615  23.602  1.00  0.00     0.174 C 
ENDROOT
BRANCH   1   6
ATOM      6  C   UNL A   1      32.085  23.425  22.996  1.00  0.00     0.242 C 
ATOM      7  O   UNL A   1      32.223  22.271  22.567  1.00  0.00    -0.273 OA
BRANCH   6   8
ATOM      8  C   UNL A   1      30.643  23.854  23.324  1.00  0.00     0.216 C 
BRANCH   8   9
ATOM      9  N   UNL A   1      30.287  24.650  24.471  1.00  0.00    -0.345 N 
ATOM     10  C   UNL A   1      30.307  24.355  25.796  1.00  0.00     0.242 C 
ATOM     11  O   UNL A   1      30.100  25.299  26.567  1.00  0.00    -0.273 OA
ATOM     12  H   UNL A   1      29.978  25.560  24.259  1.00  0.00     0.164 HD
BRANCH  10  13
ATOM     13  C   UNL A   1      30.635  22.954  26.360  1.00  0.00     0.171 C 
ATOM     14  C   UNL A   1      29.560  22.455  27.313  1.00  0.00     0.042 C 
BRANCH  13  15
ATOM     15  N   UNL A   1      32.025  22.782  26.776  1.00  0.00    -0.310 N 
ATOM     16  C   UNL A   1      32.955  21.824  26.521  1.00  0.00     0.408 C 
ATOM     17  H   UNL A   1      32.353  23.506  27.358  1.00  0.00     0.167 HD
ATOM     18  O   UNL A   1      34.016  21.832  27.127  1.00  0.00    -0.225 OA
BRANCH  16  19
ATOM     19  O   UNL A   1      32.562  20.899  25.621  1.00  0.00    -0.445 OA
BRANCH  19  20
ATOM     20  C   UNL A   1      33.622  20.248  24.899  1.00  0.00     0.270 C 
BRANCH  20  21
ATOM     21  C   UNL A   1      33.488  18.752  24.821  1.00  0.00    -0.011 A 
ATOM     22  C   UNL A   1      34.164  18.005  23.854  1.00  0.00     0.007 A 
ATOM     23  C   UNL A   1      32.647  18.099  25.736  1.00  0.00     0.007 A 
ATOM     24  C   UNL A   1      34.031  16.617  23.828  1.00  0.00     0.000 A 
ATOM     25  C   UNL A   1      32.513  16.713  25.707  1.00  0.00     0.000 A 
ATOM     26  C   UNL A   1      33.211  15.973  24.756  1.00  0.00     0.000 A 
ENDBRANCH  20  21
ENDBRANCH  19  20
ENDBRANCH  16  19
ENDBRANCH  13  15
ENDBRANCH  10  13
ENDBRANCH   8   9
ENDBRANCH   6   8
ENDBRANCH   1   6
BRANCH   5  27
ATOM     27  C   UNL A   1      33.150  26.714  22.502  1.00  0.00     0.242 C 
ATOM     28  O   UNL A   1      33.926  26.568  21.547  1.00  0.00    -0.273 OA
ATOM     29  N   UNL A   1      32.527  27.915  22.542  1.00  0.00    -0.354 N 
ATOM     30  H   UNL A   1      32.644  28.457  21.728  1.00  0.00     0.163 HD
BRANCH  29  31
ATOM     31  C   UNL A   1      31.723  28.546  23.557  1.00  0.00     0.116 C 
BRANCH  31  32
ATOM     32  C   UNL A   1      32.598  29.211  24.620  1.00  0.00     0.023 C 
BRANCH  32  33
ATOM     33  C   UNL A   1      31.813  30.045  25.627  1.00  0.00     0.023 C 
BRANCH  33  34
ATOM     34  C   UNL A   1      32.642  30.532  26.807  1.00  0.00     0.116 C 
BRANCH  34  35
ATOM     35  N   UNL A   1      32.569  31.971  27.029  1.00  0.00    -0.352 N 
ATOM     36  C   UNL A   1      33.513  32.765  27.636  1.00  0.00     0.251 C 
ATOM     37  H   UNL A   1      31.755  32.423  26.710  1.00  0.00     0.163 HD
ATOM     38  O   UNL A   1      33.310  33.951  27.857  1.00  0.00    -0.269 OA
BRANCH  36  39
ATOM     39  C   UNL A   1      34.771  32.122  28.059  1.00  0.00     0.039 A 
ATOM     40  C   UNL A   1      35.920  32.901  28.184  1.00  0.00     0.014 A 
ATOM     41  C   UNL A   1      34.756  30.787  28.470  1.00  0.00     0.014 A 
ATOM     42  C   UNL A   1      37.047  32.352  28.795  1.00  0.00     0.010 A 
ATOM     43  C   UNL A   1      35.839  30.281  29.170  1.00  0.00     0.010 A 
ATOM     44  C   UNL A   1      37.000  31.054  29.331  1.00  0.00    -0.014 A 
BRANCH  44  45
ATOM     45  C   UNL A   1      38.159  30.475  30.052  1.00  0.00     0.031 A 
ATOM     46  C   UNL A   1      38.416  30.859  31.481  1.00  0.00     0.074 A 
ATOM     47  C   UNL A   1      39.014  29.661  29.405  1.00  0.00     0.049 A 
ATOM     48  N   UNL A   1      39.396  30.504  32.273  1.00  0.00    -0.248 NA
ATOM     49  C   UNL A   1      37.463  31.800  32.090  1.00  0.00     0.031 C 
ATOM     50  C   UNL A   1      38.900  29.253  28.004  1.00  0.00     0.029 A 
ATOM     51  N   UNL A   1      40.151  29.029  29.843  1.00  0.00    -0.354 N 
ATOM     52  C   UNL A   1      39.181  31.189  33.462  1.00  0.00     0.074 A 
ATOM     53  C   UNL A   1      38.030  32.038  33.260  1.00  0.00     0.031 C 
ATOM     54  C   UNL A   1      39.898  28.403  27.711  1.00  0.00     0.029 A 
ATOM     55  C   UNL A   1      40.747  28.243  28.888  1.00  0.00     0.049 A 
ATOM     56  H   UNL A   1      40.506  29.131  30.756  1.00  0.00     0.167 HD
ATOM     57  C   UNL A   1      39.864  31.093  34.628  1.00  0.00     0.037 A 
ATOM     58  C   UNL A   1      41.851  27.476  28.958  1.00  0.00     0.037 A 
ATOM     59  C   UNL A   1      41.004  30.236  34.823  1.00  0.00     0.049 A 
ATOM     60  C   UNL A   1      42.617  27.413  30.252  1.00  0.00     0.074 A 
ATOM     61  C   UNL A   1      41.733  30.017  35.977  1.00  0.00     0.029 A 
ATOM     62  N   UNL A   1      41.588  29.465  33.827  1.00  0.00    -0.354 N 
ATOM     63  N   UNL A   1      42.362  27.998  31.396  1.00  0.00    -0.248 NA
ATOM     64  C   UNL A   1      43.824  26.575  30.263  1.00  0.00     0.031 C 
ATOM     65  C   UNL A   1      42.799  29.167  35.664  1.00  0.00     0.029 A 
ATOM     66  C   UNL A   1      42.693  28.797  34.332  1.00  0.00     0.049 A 
ATOM     67  H   UNL A   1      41.265  29.400  32.899  1.00  0.00     0.167 HD
ATOM     68  C   UNL A   1      43.354  27.576  32.273  1.00  0.00     0.074 A 
ATOM     69  C   UNL A   1      44.209  26.676  31.527  1.00  0.00     0.031 C 
ATOM     70  C   UNL A   1      43.535  27.902  33.577  1.00  0.00     0.037 A 
BRANCH  57  71
ATOM     71  C   UNL A   1      39.398  31.957  35.767  1.00  0.00     0.064 A 
ATOM     72  C   UNL A   1      39.928  33.240  35.992  1.00  0.00     0.173 A 
ATOM     73  C   UNL A   1      38.425  31.489  36.662  1.00  0.00     0.173 A 
ATOM     74  F   UNL A   1      40.870  33.735  35.175  1.00  0.00    -0.203 F 
ATOM     75  C   UNL A   1      39.545  33.991  37.100  1.00  0.00     0.198 A 
ATOM     76  C   UNL A   1      38.012  32.261  37.745  1.00  0.00     0.198 A 
ATOM     77  F   UNL A   1      37.878  30.275  36.495  1.00  0.00    -0.203 F 
ATOM     78  F   UNL A   1      40.129  35.174  37.339  1.00  0.00    -0.200 F 
ATOM     79  C   UNL A   1      38.585  33.503  37.973  1.00  0.00     0.200 A 
ATOM     80  F   UNL A   1      37.073  31.796  38.579  1.00  0.00    -0.200 F 
ATOM     81  F   UNL A   1      38.222  34.225  39.043  1.00  0.00    -0.200 F 
ENDBRANCH  57  71
BRANCH  58  82
ATOM     82  C   UNL A   1      42.265  26.667  27.782  1.00  0.00     0.064 A 
ATOM     83  C   UNL A   1      41.706  25.401  27.555  1.00  0.00     0.173 A 
ATOM     84  C   UNL A   1      43.203  27.142  26.854  1.00  0.00     0.173 A 
ATOM     85  F   UNL A   1      40.818  24.896  28.425  1.00  0.00    -0.203 F 
ATOM     86  C   UNL A   1      42.078  24.637  26.451  1.00  0.00     0.198 A 
ATOM     87  C   UNL A   1      43.554  26.388  25.735  1.00  0.00     0.198 A 
ATOM     88  F   UNL A   1      43.764  28.349  27.022  1.00  0.00    -0.203 F 
ATOM     89  F   UNL A   1      41.555  23.416  26.278  1.00  0.00    -0.200 F 
ATOM     90  C   UNL A   1      42.995  25.134  25.538  1.00  0.00     0.200 A 
ATOM     91  F   UNL A   1      44.427  26.879  24.846  1.00  0.00    -0.200 F 
ATOM     92  F   UNL A   1      43.343  24.403  24.471  1.00  0.00    -0.200 F 
ENDBRANCH  58  82
BRANCH  70  93
ATOM     93  C   UNL A   1      44.681  27.249  34.298  1.00  0.00     0.064 A 
ATOM     94  C   UNL A   1      45.939  27.861  34.399  1.00  0.00     0.173 A 
ATOM     95  C   UNL A   1      44.503  26.010  34.935  1.00  0.00     0.173 A 
ATOM     96  F   UNL A   1      46.170  29.038  33.798  1.00  0.00    -0.203 F 
ATOM     97  C   UNL A   1      46.984  27.243  35.085  1.00  0.00     0.198 A 
ATOM     98  C   UNL A   1      45.537  25.415  35.650  1.00  0.00     0.198 A 
ATOM     99  F   UNL A   1      43.317  25.385  34.877  1.00  0.00    -0.203 F 
ATOM    100  F   UNL A   1      48.193  27.820  35.121  1.00  0.00    -0.200 F 
ATOM    101  C   UNL A   1      46.779  26.026  35.717  1.00  0.00     0.200 A 
ATOM    102  F   UNL A   1      45.330  24.248  36.276  1.00  0.00    -0.200 F 
ATOM    103  F   UNL A   1      47.781  25.439  36.385  1.00  0.00    -0.200 F 
ENDBRANCH  70  93
ENDBRANCH  44  45
ENDBRANCH  36  39
ENDBRANCH  34  35
ENDBRANCH  33  34
ENDBRANCH  32  33
ENDBRANCH  31  32
ENDBRANCH  29  31
ENDBRANCH   5  27
TORSDOF 19
ENDMDL
MODEL 3
REMARK VINA RESULT:     -12.4      1.375      7.236
REMARK SMILES C[C@H](NC(=O)OCc1ccccc1)C(=O)NCC(=O)N1CCC[C@H]1C(=O)NCCCCNC(=O)c1ccc(-c2c3nc(c(-c4c(F)c(F)c(F)c(F)c4F)c4ccc([nH]4)c(-c4c(F)c(F)c(F)c(F)c4F)c4nc(c(-c5c(F)c(F)c(F)c(F)c5F)c5ccc2[nH]5)C=C4)C=C3)cc1
REMARK SMILES IDX 20 1 21 2 22 3 23 4 24 5 18 6 19 7 17 8 16 9 14 10 15 11
REMARK SMILES IDX 2 13 1 14 3 15 4 16 5 18 6 19 7 20 8 21 9 22 13 23 10 24
REMARK SMILES IDX 12 25 11 26 25 27 26 28 27 29 28 31 29 32 30 33 31 34 32 35
REMARK SMILES IDX 33 36 34 38 35 39 36 40 97 41 37 42 96 43 38 44 39 45 40 46
REMARK SMILES IDX 90 47 41 48 95 49 89 50 91 51 42 52 94 53 88 54 87 55 43 57
REMARK SMILES IDX 75 58 55 59 74 60 56 61 59 62 73 63 92 64 57 65 58 66 72 68
REMARK SMILES IDX 93 69 60 70 44 71 45 72 53 73 46 74 47 75 51 76 54 77 48 78
REMARK SMILES IDX 49 79 52 80 50 81 76 82 77 83 85 84 78 85 79 86 83 87 86 88
REMARK SMILES IDX 80 89 81 90 84 91 82 92 61 93 62 94 70 95 63 96 64 97 68 98
REMARK SMILES IDX 71 99 65 100 66 101 69 102 67 103
REMARK H PARENT 16 12 3 17 27 30 32 37 91 56 59 67
REMARK Flexibility Score: inf
ROOT
ATOM      1  N   UNL A   1      31.192  26.314  22.971  1.00  0.00    -0.329 N 
ATOM      2  C   UNL A   1      31.781  25.911  21.713  1.00  0.00     0.120 C 
ATOM      3  C   UNL A   1      33.239  26.292  21.869  1.00  0.00     0.024 C 
ATOM      4  C   UNL A   1      33.196  27.575  22.685  1.00  0.00     0.037 C 
ATOM      5  C   UNL A   1      31.845  27.553  23.442  1.00  0.00     0.174 C 
ENDROOT
BRANCH   1   6
ATOM      6  C   UNL A   1      30.371  25.608  23.818  1.00  0.00     0.242 C 
ATOM      7  O   UNL A   1      29.301  26.110  24.190  1.00  0.00    -0.273 OA
BRANCH   6   8
ATOM      8  C   UNL A   1      30.605  24.142  24.225  1.00  0.00     0.216 C 
BRANCH   8   9
ATOM      9  N   UNL A   1      30.168  23.580  25.477  1.00  0.00    -0.345 N 
ATOM     10  C   UNL A   1      30.864  23.264  26.599  1.00  0.00     0.242 C 
ATOM     11  O   UNL A   1      30.191  22.947  27.587  1.00  0.00    -0.273 OA
ATOM     12  H   UNL A   1      29.203  23.395  25.530  1.00  0.00     0.164 HD
BRANCH  10  13
ATOM     13  C   UNL A   1      32.403  23.351  26.709  1.00  0.00     0.171 C 
ATOM     14  C   UNL A   1      32.943  22.506  27.852  1.00  0.00     0.042 C 
BRANCH  13  15
ATOM     15  N   UNL A   1      32.943  24.701  26.566  1.00  0.00    -0.310 N 
ATOM     16  C   UNL A   1      33.772  25.274  25.653  1.00  0.00     0.408 C 
ATOM     17  H   UNL A   1      32.647  25.319  27.272  1.00  0.00     0.167 HD
ATOM     18  O   UNL A   1      34.204  26.400  25.849  1.00  0.00    -0.225 OA
BRANCH  16  19
ATOM     19  O   UNL A   1      34.078  24.476  24.608  1.00  0.00    -0.445 OA
BRANCH  19  20
ATOM     20  C   UNL A   1      35.477  24.188  24.439  1.00  0.00     0.270 C 
BRANCH  20  21
ATOM     21  C   UNL A   1      35.834  22.738  24.620  1.00  0.00    -0.011 A 
ATOM     22  C   UNL A   1      34.854  21.749  24.725  1.00  0.00     0.007 A 
ATOM     23  C   UNL A   1      37.189  22.379  24.703  1.00  0.00     0.007 A 
ATOM     24  C   UNL A   1      35.226  20.413  24.871  1.00  0.00     0.000 A 
ATOM     25  C   UNL A   1      37.558  21.045  24.851  1.00  0.00     0.000 A 
ATOM     26  C   UNL A   1      36.575  20.062  24.929  1.00  0.00     0.000 A 
ENDBRANCH  20  21
ENDBRANCH  19  20
ENDBRANCH  16  19
ENDBRANCH  13  15
ENDBRANCH  10  13
ENDBRANCH   8   9
ENDBRANCH   6   8
ENDBRANCH   1   6
BRANCH   5  27
ATOM     27  C   UNL A   1      31.192  28.952  23.238  1.00  0.00     0.242 C 
ATOM     28  O   UNL A   1      30.695  29.251  22.142  1.00  0.00    -0.273 OA
ATOM     29  N   UNL A   1      31.209  29.961  24.141  1.00  0.00    -0.354 N 
ATOM     30  H   UNL A   1      30.684  30.751  23.873  1.00  0.00     0.163 HD
BRANCH  29  31
ATOM     31  C   UNL A   1      31.852  30.091  25.423  1.00  0.00     0.116 C 
BRANCH  31  32
ATOM     32  C   UNL A   1      31.425  31.380  26.126  1.00  0.00     0.023 C 
BRANCH  32  33
ATOM     33  C   UNL A   1      32.161  31.635  27.438  1.00  0.00     0.023 C 
BRANCH  33  34
ATOM     34  C   UNL A   1      33.193  32.750  27.361  1.00  0.00     0.116 C 
BRANCH  34  35
ATOM     35  N   UNL A   1      32.652  34.078  27.626  1.00  0.00    -0.352 N 
ATOM     36  C   UNL A   1      33.054  34.958  28.604  1.00  0.00     0.251 C 
ATOM     37  H   UNL A   1      31.919  34.378  27.041  1.00  0.00     0.163 HD
ATOM     38  O   UNL A   1      32.467  36.013  28.800  1.00  0.00    -0.269 OA
BRANCH  36  39
ATOM     39  C   UNL A   1      34.197  34.560  29.447  1.00  0.00     0.039 A 
ATOM     40  C   UNL A   1      33.951  33.950  30.675  1.00  0.00     0.014 A 
ATOM     41  C   UNL A   1      35.494  34.660  28.937  1.00  0.00     0.014 A 
ATOM     42  C   UNL A   1      35.014  33.372  31.369  1.00  0.00     0.010 A 
ATOM     43  C   UNL A   1      36.527  33.994  29.576  1.00  0.00     0.010 A 
ATOM     44  C   UNL A   1      36.300  33.351  30.803  1.00  0.00    -0.014 A 
BRANCH  44  45
ATOM     45  C   UNL A   1      37.431  32.677  31.485  1.00  0.00     0.031 A 
ATOM     46  C   UNL A   1      38.121  31.521  30.818  1.00  0.00     0.074 A 
ATOM     47  C   UNL A   1      37.792  33.058  32.725  1.00  0.00     0.049 A 
ATOM     48  N   UNL A   1      39.096  30.769  31.262  1.00  0.00    -0.248 NA
ATOM     49  C   UNL A   1      37.623  31.137  29.489  1.00  0.00     0.031 C 
ATOM     50  C   UNL A   1      37.167  34.133  33.497  1.00  0.00     0.029 A 
ATOM     51  N   UNL A   1      38.775  32.581  33.556  1.00  0.00    -0.354 N 
ATOM     52  C   UNL A   1      39.313  29.818  30.273  1.00  0.00     0.074 A 
ATOM     53  C   UNL A   1      38.318  30.038  29.248  1.00  0.00     0.031 C 
ATOM     54  C   UNL A   1      37.811  34.265  34.668  1.00  0.00     0.029 A 
ATOM     55  C   UNL A   1      38.863  33.256  34.748  1.00  0.00     0.049 A 
ATOM     56  H   UNL A   1      39.361  31.826  33.319  1.00  0.00     0.167 HD
ATOM     57  C   UNL A   1      40.275  28.867  30.211  1.00  0.00     0.037 A 
ATOM     58  C   UNL A   1      39.702  33.081  35.786  1.00  0.00     0.037 A 
ATOM     59  C   UNL A   1      41.268  28.662  31.231  1.00  0.00     0.049 A 
ATOM     60  C   UNL A   1      40.741  31.994  35.713  1.00  0.00     0.074 A 
ATOM     61  C   UNL A   1      42.324  27.769  31.243  1.00  0.00     0.029 A 
ATOM     62  N   UNL A   1      41.317  29.355  32.433  1.00  0.00    -0.354 N 
ATOM     63  N   UNL A   1      40.993  31.153  34.741  1.00  0.00    -0.248 NA
ATOM     64  C   UNL A   1      41.615  31.838  36.883  1.00  0.00     0.031 C 
ATOM     65  C   UNL A   1      42.969  27.874  32.480  1.00  0.00     0.029 A 
ATOM     66  C   UNL A   1      42.363  28.883  33.211  1.00  0.00     0.049 A 
ATOM     67  H   UNL A   1      40.700  30.077  32.695  1.00  0.00     0.167 HD
ATOM     68  C   UNL A   1      42.074  30.390  35.164  1.00  0.00     0.074 A 
ATOM     69  C   UNL A   1      42.434  30.878  36.479  1.00  0.00     0.031 C 
ATOM     70  C   UNL A   1      42.711  29.381  34.519  1.00  0.00     0.037 A 
BRANCH  57  71
ATOM     71  C   UNL A   1      40.276  27.971  29.002  1.00  0.00     0.064 A 
ATOM     72  C   UNL A   1      39.586  26.747  28.985  1.00  0.00     0.173 A 
ATOM     73  C   UNL A   1      40.994  28.329  27.852  1.00  0.00     0.173 A 
ATOM     74  F   UNL A   1      38.891  26.347  30.061  1.00  0.00    -0.203 F 
ATOM     75  C   UNL A   1      39.666  25.892  27.889  1.00  0.00     0.198 A 
ATOM     76  C   UNL A   1      41.037  27.492  26.740  1.00  0.00     0.198 A 
ATOM     77  F   UNL A   1      41.667  29.490  27.807  1.00  0.00    -0.203 F 
ATOM     78  F   UNL A   1      39.071  24.691  27.933  1.00  0.00    -0.200 F 
ATOM     79  C   UNL A   1      40.388  26.267  26.766  1.00  0.00     0.200 A 
ATOM     80  F   UNL A   1      41.721  27.863  25.650  1.00  0.00    -0.200 F 
ATOM     81  F   UNL A   1      40.470  25.441  25.714  1.00  0.00    -0.200 F 
ENDBRANCH  57  71
BRANCH  58  82
ATOM     82  C   UNL A   1      39.627  33.991  36.959  1.00  0.00     0.064 A 
ATOM     83  C   UNL A   1      38.863  33.643  38.083  1.00  0.00     0.173 A 
ATOM     84  C   UNL A   1      40.325  35.206  36.995  1.00  0.00     0.173 A 
ATOM     85  F   UNL A   1      38.162  32.500  38.088  1.00  0.00    -0.203 F 
ATOM     86  C   UNL A   1      38.792  34.483  39.193  1.00  0.00     0.198 A 
ATOM     87  C   UNL A   1      40.275  36.032  38.117  1.00  0.00     0.198 A 
ATOM     88  F   UNL A   1      41.074  35.583  35.949  1.00  0.00    -0.203 F 
ATOM     89  F   UNL A   1      38.025  34.143  40.238  1.00  0.00    -0.200 F 
ATOM     90  C   UNL A   1      39.504  35.672  39.213  1.00  0.00     0.200 A 
ATOM     91  F   UNL A   1      40.977  37.172  38.140  1.00  0.00    -0.200 F 
ATOM     92  F   UNL A   1      39.444  36.473  40.285  1.00  0.00    -0.200 F 
ENDBRANCH  58  82
BRANCH  70  93
ATOM     93  C   UNL A   1      43.894  28.760  35.208  1.00  0.00     0.064 A 
ATOM     94  C   UNL A   1      45.193  29.267  35.057  1.00  0.00     0.173 A 
ATOM     95  C   UNL A   1      43.716  27.664  36.069  1.00  0.00     0.173 A 
ATOM     96  F   UNL A   1      45.423  30.303  34.236  1.00  0.00    -0.203 F 
ATOM     97  C   UNL A   1      46.272  28.683  35.717  1.00  0.00     0.198 A 
ATOM     98  C   UNL A   1      44.790  27.108  36.756  1.00  0.00     0.198 A 
ATOM     99  F   UNL A   1      42.493  27.144  36.257  1.00  0.00    -0.203 F 
ATOM    100  F   UNL A   1      47.512  29.150  35.514  1.00  0.00    -0.200 F 
ATOM    101  C   UNL A   1      46.068  27.611  36.572  1.00  0.00     0.200 A 
ATOM    102  F   UNL A   1      44.587  26.084  37.596  1.00  0.00    -0.200 F 
ATOM    103  F   UNL A   1      47.106  27.057  37.215  1.00  0.00    -0.200 F 
ENDBRANCH  70  93
ENDBRANCH  44  45
ENDBRANCH  36  39
ENDBRANCH  34  35
ENDBRANCH  33  34
ENDBRANCH  32  33
ENDBRANCH  31  32
ENDBRANCH  29  31
ENDBRANCH   5  27
TORSDOF 19
ENDMDL
