MODEL 1
REMARK VINA RESULT:     -12.4      0.000      0.000
REMARK SMILES CCc1c(C(=O)NCCCCNC(=O)c2ccc(-c3c4nc(c(-c5c(F)c(F)c(F)c(F)c5F)c5ccc([nH]5)c(-c5c(F)c(F)c(F)c(F)c5F)c5nc(c(-c6c(F)c(F)c(F)c(F)c6F)c6ccc3[nH]6)C=C5)C=C4)cc2)nnn1-c1ccc(OC)cc1
REMARK SMILES IDX 9 1 8 2 7 3 5 4 6 5 4 7 3 8 80 9 78 10 79 11 2 12 1 13 81 14
REMARK SMILES IDX 82 15 88 16 83 17 87 18 84 19 85 20 86 21 10 22 11 23 12 24
REMARK SMILES IDX 13 25 14 27 15 28 16 29 77 30 17 31 76 32 18 33 19 34 20 35
REMARK SMILES IDX 70 36 21 37 75 38 69 39 71 40 22 41 74 42 68 43 67 44 23 46
REMARK SMILES IDX 55 47 35 48 54 49 36 50 39 51 53 52 72 53 37 54 38 55 52 57
REMARK SMILES IDX 73 58 40 59 24 60 25 61 33 62 26 63 27 64 31 65 34 66 28 67
REMARK SMILES IDX 29 68 32 69 30 70 56 71 57 72 65 73 58 74 59 75 63 76 66 77
REMARK SMILES IDX 60 78 61 79 64 80 62 81 41 82 42 83 50 84 43 85 44 86 48 87
REMARK SMILES IDX 51 88 45 89 46 90 49 91 47 92
REMARK H PARENT 7 6 12 26 71 45 39 56
REMARK Flexibility Score: inf
ROOT
ATOM      1  C   UNL A   1      36.082  23.701  24.684  1.00  0.00     0.023 C 
ENDROOT
BRANCH   1   2
ATOM      2  C   UNL A   1      35.134  24.478  25.588  1.00  0.00     0.116 C 
BRANCH   2   3
ATOM      3  N   UNL A   1      33.829  24.844  25.109  1.00  0.00    -0.351 N 
ATOM      4  C   UNL A   1      32.772  24.023  24.744  1.00  0.00     0.273 C 
ATOM      5  O   UNL A   1      31.722  24.606  24.460  1.00  0.00    -0.267 OA
ATOM      6  H   UNL A   1      33.663  25.811  25.027  1.00  0.00     0.163 HD
BRANCH   4   7
ATOM      7  C   UNL A   1      32.875  22.554  24.606  1.00  0.00     0.174 A 
ATOM      8  C   UNL A   1      33.233  21.486  25.449  1.00  0.00     0.077 A 
ATOM      9  N   UNL A   1      33.150  20.374  24.604  1.00  0.00    -0.217 N 
ATOM     10  N   UNL A   1      32.593  22.038  23.355  1.00  0.00    -0.124 NA
ATOM     11  N   UNL A   1      32.875  20.751  23.344  1.00  0.00    -0.061 NA
BRANCH   8  12
ATOM     12  C   UNL A   1      33.838  21.432  26.824  1.00  0.00     0.055 C 
ATOM     13  C   UNL A   1      33.248  22.221  27.969  1.00  0.00     0.011 C 
ENDBRANCH   8  12
BRANCH   9  14
ATOM     14  C   UNL A   1      33.418  19.022  24.890  1.00  0.00     0.067 A 
ATOM     15  C   UNL A   1      32.491  18.265  25.611  1.00  0.00     0.032 A 
ATOM     16  C   UNL A   1      34.598  18.439  24.432  1.00  0.00     0.032 A 
ATOM     17  C   UNL A   1      32.692  16.887  25.731  1.00  0.00     0.048 A 
ATOM     18  C   UNL A   1      34.786  17.062  24.547  1.00  0.00     0.048 A 
ATOM     19  C   UNL A   1      33.814  16.274  25.160  1.00  0.00     0.119 A 
BRANCH  19  20
ATOM     20  O   UNL A   1      33.861  14.912  25.275  1.00  0.00    -0.497 OA
ATOM     21  C   UNL A   1      32.634  14.271  25.616  1.00  0.00     0.278 C 
ENDBRANCH  19  20
ENDBRANCH   9  14
ENDBRANCH   4   7
ENDBRANCH   2   3
ENDBRANCH   1   2
BRANCH   1  22
ATOM     22  C   UNL A   1      36.896  22.547  25.263  1.00  0.00     0.023 C 
BRANCH  22  23
ATOM     23  C   UNL A   1      38.391  22.783  25.390  1.00  0.00     0.116 C 
BRANCH  23  24
ATOM     24  N   UNL A   1      39.079  22.049  26.462  1.00  0.00    -0.352 N 
ATOM     25  C   UNL A   1      40.035  22.562  27.351  1.00  0.00     0.251 C 
ATOM     26  H   UNL A   1      38.845  21.098  26.567  1.00  0.00     0.163 HD
ATOM     27  O   UNL A   1      40.759  21.856  28.011  1.00  0.00    -0.269 OA
BRANCH  25  28
ATOM     28  C   UNL A   1      40.097  24.035  27.468  1.00  0.00     0.039 A 
ATOM     29  C   UNL A   1      38.977  24.873  27.435  1.00  0.00     0.014 A 
ATOM     30  C   UNL A   1      41.349  24.531  27.783  1.00  0.00     0.014 A 
ATOM     31  C   UNL A   1      39.137  26.205  27.827  1.00  0.00     0.010 A 
ATOM     32  C   UNL A   1      41.422  25.710  28.456  1.00  0.00     0.010 A 
ATOM     33  C   UNL A   1      40.370  26.608  28.359  1.00  0.00    -0.014 A 
BRANCH  33  34
ATOM     34  C   UNL A   1      40.659  27.961  28.809  1.00  0.00     0.031 A 
ATOM     35  C   UNL A   1      41.850  28.633  28.230  1.00  0.00     0.074 A 
ATOM     36  C   UNL A   1      39.757  28.654  29.540  1.00  0.00     0.049 A 
ATOM     37  N   UNL A   1      42.921  29.002  28.852  1.00  0.00    -0.248 NA
ATOM     38  C   UNL A   1      41.886  28.877  26.782  1.00  0.00     0.031 C 
ATOM     39  C   UNL A   1      38.399  28.268  29.965  1.00  0.00     0.029 A 
ATOM     40  N   UNL A   1      39.848  29.931  29.991  1.00  0.00    -0.354 N 
ATOM     41  C   UNL A   1      43.710  29.665  27.916  1.00  0.00     0.074 A 
ATOM     42  C   UNL A   1      43.087  29.443  26.635  1.00  0.00     0.031 C 
ATOM     43  C   UNL A   1      37.726  29.353  30.401  1.00  0.00     0.029 A 
ATOM     44  C   UNL A   1      38.665  30.450  30.488  1.00  0.00     0.049 A 
ATOM     45  H   UNL A   1      40.687  30.445  29.966  1.00  0.00     0.167 HD
ATOM     46  C   UNL A   1      44.711  30.507  28.302  1.00  0.00     0.037 A 
ATOM     47  C   UNL A   1      38.468  31.702  30.958  1.00  0.00     0.037 A 
ATOM     48  C   UNL A   1      45.031  30.338  29.697  1.00  0.00     0.049 A 
ATOM     49  C   UNL A   1      39.800  32.220  31.353  1.00  0.00     0.074 A 
ATOM     50  C   UNL A   1      45.520  29.293  30.458  1.00  0.00     0.029 A 
ATOM     51  N   UNL A   1      44.493  31.224  30.599  1.00  0.00    -0.354 N 
ATOM     52  N   UNL A   1      40.507  31.714  32.328  1.00  0.00    -0.248 NA
ATOM     53  C   UNL A   1      40.553  32.975  30.363  1.00  0.00     0.031 C 
ATOM     54  C   UNL A   1      44.798  29.367  31.688  1.00  0.00     0.029 A 
ATOM     55  C   UNL A   1      43.959  30.481  31.622  1.00  0.00     0.049 A 
ATOM     56  H   UNL A   1      44.492  32.206  30.525  1.00  0.00     0.167 HD
ATOM     57  C   UNL A   1      41.816  31.729  31.867  1.00  0.00     0.074 A 
ATOM     58  C   UNL A   1      41.792  32.596  30.690  1.00  0.00     0.031 C 
ATOM     59  C   UNL A   1      42.737  30.823  32.313  1.00  0.00     0.037 A 
BRANCH  46  60
ATOM     60  C   UNL A   1      45.191  31.701  27.519  1.00  0.00     0.064 A 
ATOM     61  C   UNL A   1      46.521  31.733  27.048  1.00  0.00     0.173 A 
ATOM     62  C   UNL A   1      44.496  32.926  27.465  1.00  0.00     0.173 A 
ATOM     63  F   UNL A   1      47.279  30.626  27.069  1.00  0.00    -0.203 F 
ATOM     64  C   UNL A   1      47.127  32.920  26.627  1.00  0.00     0.198 A 
ATOM     65  C   UNL A   1      45.087  34.098  26.993  1.00  0.00     0.198 A 
ATOM     66  F   UNL A   1      43.263  33.062  27.968  1.00  0.00    -0.203 F 
ATOM     67  F   UNL A   1      48.427  32.925  26.305  1.00  0.00    -0.200 F 
ATOM     68  C   UNL A   1      46.411  34.103  26.606  1.00  0.00     0.200 A 
ATOM     69  F   UNL A   1      44.383  35.238  26.996  1.00  0.00    -0.200 F 
ATOM     70  F   UNL A   1      47.006  35.253  26.263  1.00  0.00    -0.200 F 
ENDBRANCH  46  60
BRANCH  47  71
ATOM     71  C   UNL A   1      37.267  32.540  30.766  1.00  0.00     0.064 A 
ATOM     72  C   UNL A   1      36.951  33.085  29.515  1.00  0.00     0.173 A 
ATOM     73  C   UNL A   1      36.264  32.608  31.756  1.00  0.00     0.173 A 
ATOM     74  F   UNL A   1      37.839  33.023  28.512  1.00  0.00    -0.203 F 
ATOM     75  C   UNL A   1      35.694  33.641  29.258  1.00  0.00     0.198 A 
ATOM     76  C   UNL A   1      35.012  33.167  31.501  1.00  0.00     0.198 A 
ATOM     77  F   UNL A   1      36.449  32.050  32.962  1.00  0.00    -0.203 F 
ATOM     78  F   UNL A   1      35.406  34.101  28.033  1.00  0.00    -0.200 F 
ATOM     79  C   UNL A   1      34.723  33.671  30.247  1.00  0.00     0.200 A 
ATOM     80  F   UNL A   1      34.071  33.155  32.454  1.00  0.00    -0.200 F 
ATOM     81  F   UNL A   1      33.498  34.149  29.982  1.00  0.00    -0.200 F 
ENDBRANCH  47  71
BRANCH  59  82
ATOM     82  C   UNL A   1      42.340  29.939  33.465  1.00  0.00     0.064 A 
ATOM     83  C   UNL A   1      41.814  28.645  33.304  1.00  0.00     0.173 A 
ATOM     84  C   UNL A   1      42.642  30.344  34.769  1.00  0.00     0.173 A 
ATOM     85  F   UNL A   1      41.602  28.137  32.088  1.00  0.00    -0.203 F 
ATOM     86  C   UNL A   1      41.558  27.816  34.395  1.00  0.00     0.198 A 
ATOM     87  C   UNL A   1      42.416  29.503  35.859  1.00  0.00     0.198 A 
ATOM     88  F   UNL A   1      43.208  31.541  34.985  1.00  0.00    -0.203 F 
ATOM     89  F   UNL A   1      41.051  26.589  34.204  1.00  0.00    -0.200 F 
ATOM     90  C   UNL A   1      41.866  28.245  35.673  1.00  0.00     0.200 A 
ATOM     91  F   UNL A   1      42.763  29.902  37.090  1.00  0.00    -0.200 F 
ATOM     92  F   UNL A   1      41.660  27.435  36.722  1.00  0.00    -0.200 F 
ENDBRANCH  59  82
ENDBRANCH  33  34
ENDBRANCH  25  28
ENDBRANCH  23  24
ENDBRANCH  22  23
ENDBRANCH   1  22
TORSDOF 14
ENDMDL
MODEL 2
REMARK VINA RESULT:     -12.4      5.847     11.780
REMARK SMILES CCc1c(C(=O)NCCCCNC(=O)c2ccc(-c3c4nc(c(-c5c(F)c(F)c(F)c(F)c5F)c5ccc([nH]5)c(-c5c(F)c(F)c(F)c(F)c5F)c5nc(c(-c6c(F)c(F)c(F)c(F)c6F)c6ccc3[nH]6)C=C5)C=C4)cc2)nnn1-c1ccc(OC)cc1
REMARK SMILES IDX 9 1 8 2 7 3 5 4 6 5 4 7 3 8 80 9 78 10 79 11 2 12 1 13 81 14
REMARK SMILES IDX 82 15 88 16 83 17 87 18 84 19 85 20 86 21 10 22 11 23 12 24
REMARK SMILES IDX 13 25 14 27 15 28 16 29 77 30 17 31 76 32 18 33 19 34 20 35
REMARK SMILES IDX 70 36 21 37 75 38 69 39 71 40 22 41 74 42 68 43 67 44 23 46
REMARK SMILES IDX 55 47 35 48 54 49 36 50 39 51 53 52 72 53 37 54 38 55 52 57
REMARK SMILES IDX 73 58 40 59 24 60 25 61 33 62 26 63 27 64 31 65 34 66 28 67
REMARK SMILES IDX 29 68 32 69 30 70 56 71 57 72 65 73 58 74 59 75 63 76 66 77
REMARK SMILES IDX 60 78 61 79 64 80 62 81 41 82 42 83 50 84 43 85 44 86 48 87
REMARK SMILES IDX 51 88 45 89 46 90 49 91 47 92
REMARK H PARENT 7 6 12 26 71 45 39 56
REMARK Flexibility Score: inf
ROOT
ATOM      1  C   UNL A   1      35.352  34.578  32.784  1.00  0.00     0.023 C 
ENDROOT
BRANCH   1   2
ATOM      2  C   UNL A   1      35.193  34.850  34.275  1.00  0.00     0.116 C 
BRANCH   2   3
ATOM      3  N   UNL A   1      35.663  33.886  35.232  1.00  0.00    -0.351 N 
ATOM      4  C   UNL A   1      36.965  33.489  35.501  1.00  0.00     0.273 C 
ATOM      5  O   UNL A   1      37.094  32.708  36.450  1.00  0.00    -0.267 OA
ATOM      6  H   UNL A   1      34.965  33.445  35.769  1.00  0.00     0.163 HD
BRANCH   4   7
ATOM      7  C   UNL A   1      38.134  33.876  34.684  1.00  0.00     0.174 A 
ATOM      8  C   UNL A   1      38.864  33.294  33.630  1.00  0.00     0.077 A 
ATOM      9  N   UNL A   1      39.881  34.225  33.398  1.00  0.00    -0.217 N 
ATOM     10  N   UNL A   1      38.726  35.085  34.998  1.00  0.00    -0.124 NA
ATOM     11  N   UNL A   1      39.834  35.220  34.299  1.00  0.00    -0.061 NA
BRANCH   8  12
ATOM     12  C   UNL A   1      38.845  31.923  33.013  1.00  0.00     0.055 C 
ATOM     13  C   UNL A   1      37.593  31.077  33.029  1.00  0.00     0.011 C 
ENDBRANCH   8  12
BRANCH   9  14
ATOM     14  C   UNL A   1      40.935  34.171  32.466  1.00  0.00     0.067 A 
ATOM     15  C   UNL A   1      40.665  33.900  31.123  1.00  0.00     0.032 A 
ATOM     16  C   UNL A   1      42.242  34.411  32.886  1.00  0.00     0.032 A 
ATOM     17  C   UNL A   1      41.696  34.026  30.187  1.00  0.00     0.048 A 
ATOM     18  C   UNL A   1      43.263  34.545  31.946  1.00  0.00     0.048 A 
ATOM     19  C   UNL A   1      42.986  34.393  30.589  1.00  0.00     0.119 A 
BRANCH  19  20
ATOM     20  O   UNL A   1      43.890  34.562  29.576  1.00  0.00    -0.497 OA
ATOM     21  C   UNL A   1      43.531  35.504  28.568  1.00  0.00     0.278 C 
ENDBRANCH  19  20
ENDBRANCH   9  14
ENDBRANCH   4   7
ENDBRANCH   2   3
ENDBRANCH   1   2
BRANCH   1  22
ATOM     22  C   UNL A   1      34.255  33.824  32.037  1.00  0.00     0.023 C 
BRANCH  22  23
ATOM     23  C   UNL A   1      34.714  32.658  31.179  1.00  0.00     0.116 C 
BRANCH  23  24
ATOM     24  N   UNL A   1      34.693  32.870  29.724  1.00  0.00    -0.352 N 
ATOM     25  C   UNL A   1      35.707  32.541  28.813  1.00  0.00     0.251 C 
ATOM     26  H   UNL A   1      33.883  33.288  29.350  1.00  0.00     0.163 HD
ATOM     27  O   UNL A   1      35.749  32.990  27.692  1.00  0.00    -0.269 OA
BRANCH  25  28
ATOM     28  C   UNL A   1      36.723  31.577  29.284  1.00  0.00     0.039 A 
ATOM     29  C   UNL A   1      36.511  30.198  29.383  1.00  0.00     0.014 A 
ATOM     30  C   UNL A   1      37.982  32.118  29.472  1.00  0.00     0.014 A 
ATOM     31  C   UNL A   1      37.621  29.370  29.577  1.00  0.00     0.010 A 
ATOM     32  C   UNL A   1      39.060  31.301  29.335  1.00  0.00     0.010 A 
ATOM     33  C   UNL A   1      38.901  29.937  29.529  1.00  0.00    -0.014 A 
BRANCH  33  34
ATOM     34  C   UNL A   1      40.133  29.183  29.708  1.00  0.00     0.031 A 
ATOM     35  C   UNL A   1      40.610  28.975  31.099  1.00  0.00     0.074 A 
ATOM     36  C   UNL A   1      40.687  28.510  28.675  1.00  0.00     0.049 A 
ATOM     37  N   UNL A   1      41.695  29.431  31.631  1.00  0.00    -0.248 NA
ATOM     38  C   UNL A   1      39.761  28.219  32.028  1.00  0.00     0.031 C 
ATOM     39  C   UNL A   1      40.205  28.354  27.290  1.00  0.00     0.029 A 
ATOM     40  N   UNL A   1      41.794  27.725  28.685  1.00  0.00    -0.354 N 
ATOM     41  C   UNL A   1      41.756  28.900  32.917  1.00  0.00     0.074 A 
ATOM     42  C   UNL A   1      40.479  28.272  33.153  1.00  0.00     0.031 C 
ATOM     43  C   UNL A   1      40.879  27.359  26.677  1.00  0.00     0.029 A 
ATOM     44  C   UNL A   1      41.969  26.964  27.542  1.00  0.00     0.049 A 
ATOM     45  H   UNL A   1      42.421  27.699  29.444  1.00  0.00     0.167 HD
ATOM     46  C   UNL A   1      42.928  28.855  33.611  1.00  0.00     0.037 A 
ATOM     47  C   UNL A   1      42.957  26.073  27.309  1.00  0.00     0.037 A 
ATOM     48  C   UNL A   1      43.930  29.696  33.006  1.00  0.00     0.049 A 
ATOM     49  C   UNL A   1      44.079  26.441  28.207  1.00  0.00     0.074 A 
ATOM     50  C   UNL A   1      44.039  31.053  32.769  1.00  0.00     0.029 A 
ATOM     51  N   UNL A   1      44.865  29.107  32.189  1.00  0.00    -0.354 N 
ATOM     52  N   UNL A   1      44.745  27.560  28.101  1.00  0.00    -0.248 NA
ATOM     53  C   UNL A   1      44.141  25.799  29.510  1.00  0.00     0.031 C 
ATOM     54  C   UNL A   1      44.647  31.152  31.481  1.00  0.00     0.029 A 
ATOM     55  C   UNL A   1      44.921  29.856  31.039  1.00  0.00     0.049 A 
ATOM     56  H   UNL A   1      45.394  28.302  32.390  1.00  0.00     0.167 HD
ATOM     57  C   UNL A   1      44.963  27.973  29.408  1.00  0.00     0.074 A 
ATOM     58  C   UNL A   1      44.646  26.805  30.230  1.00  0.00     0.031 C 
ATOM     59  C   UNL A   1      45.110  29.294  29.722  1.00  0.00     0.037 A 
BRANCH  46  60
ATOM     60  C   UNL A   1      43.284  27.822  34.649  1.00  0.00     0.064 A 
ATOM     61  C   UNL A   1      43.577  28.233  35.965  1.00  0.00     0.173 A 
ATOM     62  C   UNL A   1      43.630  26.491  34.334  1.00  0.00     0.173 A 
ATOM     63  F   UNL A   1      43.303  29.484  36.367  1.00  0.00    -0.203 F 
ATOM     64  C   UNL A   1      44.235  27.396  36.871  1.00  0.00     0.198 A 
ATOM     65  C   UNL A   1      44.238  25.642  35.258  1.00  0.00     0.198 A 
ATOM     66  F   UNL A   1      43.499  26.001  33.096  1.00  0.00    -0.203 F 
ATOM     67  F   UNL A   1      44.602  27.871  38.070  1.00  0.00    -0.200 F 
ATOM     68  C   UNL A   1      44.570  26.103  36.514  1.00  0.00     0.200 A 
ATOM     69  F   UNL A   1      44.571  24.397  34.888  1.00  0.00    -0.200 F 
ATOM     70  F   UNL A   1      45.256  25.320  37.358  1.00  0.00    -0.200 F 
ENDBRANCH  46  60
BRANCH  47  71
ATOM     71  C   UNL A   1      42.834  24.776  26.613  1.00  0.00     0.064 A 
ATOM     72  C   UNL A   1      43.524  24.521  25.421  1.00  0.00     0.173 A 
ATOM     73  C   UNL A   1      42.235  23.666  27.246  1.00  0.00     0.173 A 
ATOM     74  F   UNL A   1      44.153  25.519  24.782  1.00  0.00    -0.203 F 
ATOM     75  C   UNL A   1      43.634  23.226  24.905  1.00  0.00     0.198 A 
ATOM     76  C   UNL A   1      42.341  22.376  26.728  1.00  0.00     0.198 A 
ATOM     77  F   UNL A   1      41.615  23.802  28.427  1.00  0.00    -0.203 F 
ATOM     78  F   UNL A   1      44.350  23.009  23.793  1.00  0.00    -0.200 F 
ATOM     79  C   UNL A   1      43.052  22.154  25.564  1.00  0.00     0.200 A 
ATOM     80  F   UNL A   1      41.806  21.345  27.396  1.00  0.00    -0.200 F 
ATOM     81  F   UNL A   1      43.210  20.906  25.101  1.00  0.00    -0.200 F 
ENDBRANCH  47  71
BRANCH  59  82
ATOM     82  C   UNL A   1      45.228  30.270  28.580  1.00  0.00     0.064 A 
ATOM     83  C   UNL A   1      44.153  31.038  28.103  1.00  0.00     0.173 A 
ATOM     84  C   UNL A   1      46.494  30.552  28.055  1.00  0.00     0.173 A 
ATOM     85  F   UNL A   1      42.933  30.912  28.629  1.00  0.00    -0.203 F 
ATOM     86  C   UNL A   1      44.325  32.008  27.116  1.00  0.00     0.198 A 
ATOM     87  C   UNL A   1      46.672  31.543  27.091  1.00  0.00     0.198 A 
ATOM     88  F   UNL A   1      47.571  29.900  28.517  1.00  0.00    -0.203 F 
ATOM     89  F   UNL A   1      43.274  32.719  26.681  1.00  0.00    -0.200 F 
ATOM     90  C   UNL A   1      45.587  32.264  26.615  1.00  0.00     0.200 A 
ATOM     91  F   UNL A   1      47.904  31.824  26.644  1.00  0.00    -0.200 F 
ATOM     92  F   UNL A   1      45.765  33.223  25.696  1.00  0.00    -0.200 F 
ENDBRANCH  59  82
ENDBRANCH  33  34
ENDBRANCH  25  28
ENDBRANCH  23  24
ENDBRANCH  22  23
ENDBRANCH   1  22
TORSDOF 14
ENDMDL
MODEL 3
REMARK VINA RESULT:     -12.4      3.365      8.486
REMARK SMILES CCc1c(C(=O)NCCCCNC(=O)c2ccc(-c3c4nc(c(-c5c(F)c(F)c(F)c(F)c5F)c5ccc([nH]5)c(-c5c(F)c(F)c(F)c(F)c5F)c5nc(c(-c6c(F)c(F)c(F)c(F)c6F)c6ccc3[nH]6)C=C5)C=C4)cc2)nnn1-c1ccc(OC)cc1
REMARK SMILES IDX 9 1 8 2 7 3 5 4 6 5 4 7 3 8 80 9 78 10 79 11 2 12 1 13 81 14
REMARK SMILES IDX 82 15 88 16 83 17 87 18 84 19 85 20 86 21 10 22 11 23 12 24
REMARK SMILES IDX 13 25 14 27 15 28 16 29 77 30 17 31 76 32 18 33 19 34 20 35
REMARK SMILES IDX 70 36 21 37 75 38 69 39 71 40 22 41 74 42 68 43 67 44 23 46
REMARK SMILES IDX 55 47 35 48 54 49 36 50 39 51 53 52 72 53 37 54 38 55 52 57
REMARK SMILES IDX 73 58 40 59 24 60 25 61 33 62 26 63 27 64 31 65 34 66 28 67
REMARK SMILES IDX 29 68 32 69 30 70 56 71 57 72 65 73 58 74 59 75 63 76 66 77
REMARK SMILES IDX 60 78 61 79 64 80 62 81 41 82 42 83 50 84 43 85 44 86 48 87
REMARK SMILES IDX 51 88 45 89 46 90 49 91 47 92
REMARK H PARENT 7 6 12 26 71 45 39 56
REMARK Flexibility Score: inf
ROOT
ATOM      1  C   UNL A   1      33.321  28.813  25.711  1.00  0.00     0.023 C 
ENDROOT
BRANCH   1   2
ATOM      2  C   UNL A   1      33.513  28.886  24.201  1.00  0.00     0.116 C 
BRANCH   2   3
ATOM      3  N   UNL A   1      32.366  28.980  23.339  1.00  0.00    -0.351 N 
ATOM      4  C   UNL A   1      31.659  27.962  22.716  1.00  0.00     0.273 C 
ATOM      5  O   UNL A   1      30.647  28.318  22.105  1.00  0.00    -0.267 OA
ATOM      6  H   UNL A   1      32.038  29.892  23.166  1.00  0.00     0.163 HD
BRANCH   4   7
ATOM      7  C   UNL A   1      32.096  26.550  22.684  1.00  0.00     0.174 A 
ATOM      8  C   UNL A   1      32.102  25.476  23.593  1.00  0.00     0.077 A 
ATOM      9  N   UNL A   1      32.726  24.454  22.871  1.00  0.00    -0.217 N 
ATOM     10  N   UNL A   1      32.682  26.119  21.508  1.00  0.00    -0.124 NA
ATOM     11  N   UNL A   1      33.155  24.902  21.680  1.00  0.00    -0.061 NA
BRANCH   8  12
ATOM     12  C   UNL A   1      31.809  25.386  25.065  1.00  0.00     0.055 C 
ATOM     13  C   UNL A   1      30.486  25.847  25.628  1.00  0.00     0.011 C 
ENDBRANCH   8  12
BRANCH   9  14
ATOM     14  C   UNL A   1      33.031  23.141  23.279  1.00  0.00     0.067 A 
ATOM     15  C   UNL A   1      34.197  22.889  24.005  1.00  0.00     0.032 A 
ATOM     16  C   UNL A   1      32.154  22.102  22.975  1.00  0.00     0.032 A 
ATOM     17  C   UNL A   1      34.392  21.617  24.552  1.00  0.00     0.048 A 
ATOM     18  C   UNL A   1      32.350  20.838  23.532  1.00  0.00     0.048 A 
ATOM     19  C   UNL A   1      33.448  20.602  24.356  1.00  0.00     0.119 A 
BRANCH  19  20
ATOM     20  O   UNL A   1      33.708  19.426  25.004  1.00  0.00    -0.497 OA
ATOM     21  C   UNL A   1      32.920  18.306  24.607  1.00  0.00     0.278 C 
ENDBRANCH  19  20
ENDBRANCH   9  14
ENDBRANCH   4   7
ENDBRANCH   2   3
ENDBRANCH   1   2
BRANCH   1  22
ATOM     22  C   UNL A   1      32.855  30.052  26.471  1.00  0.00     0.023 C 
BRANCH  22  23
ATOM     23  C   UNL A   1      33.760  30.524  27.596  1.00  0.00     0.116 C 
BRANCH  23  24
ATOM     24  N   UNL A   1      34.341  31.866  27.446  1.00  0.00    -0.352 N 
ATOM     25  C   UNL A   1      35.583  32.302  27.929  1.00  0.00     0.251 C 
ATOM     26  H   UNL A   1      33.801  32.529  26.956  1.00  0.00     0.163 HD
ATOM     27  O   UNL A   1      35.875  33.471  28.020  1.00  0.00    -0.269 OA
BRANCH  25  28
ATOM     28  C   UNL A   1      36.550  31.246  28.299  1.00  0.00     0.039 A 
ATOM     29  C   UNL A   1      36.673  30.025  27.627  1.00  0.00     0.014 A 
ATOM     30  C   UNL A   1      37.456  31.617  29.275  1.00  0.00     0.014 A 
ATOM     31  C   UNL A   1      37.795  29.234  27.895  1.00  0.00     0.010 A 
ATOM     32  C   UNL A   1      38.673  31.011  29.284  1.00  0.00     0.010 A 
ATOM     33  C   UNL A   1      38.805  29.753  28.717  1.00  0.00    -0.014 A 
BRANCH  33  34
ATOM     34  C   UNL A   1      40.021  29.034  29.065  1.00  0.00     0.031 A 
ATOM     35  C   UNL A   1      40.281  28.789  30.506  1.00  0.00     0.074 A 
ATOM     36  C   UNL A   1      40.756  28.417  28.111  1.00  0.00     0.049 A 
ATOM     37  N   UNL A   1      41.251  29.261  31.218  1.00  0.00    -0.248 NA
ATOM     38  C   UNL A   1      39.325  27.972  31.265  1.00  0.00     0.031 C 
ATOM     39  C   UNL A   1      40.503  28.297  26.664  1.00  0.00     0.029 A 
ATOM     40  N   UNL A   1      41.877  27.670  28.272  1.00  0.00    -0.354 N 
ATOM     41  C   UNL A   1      41.129  28.684  32.480  1.00  0.00     0.074 A 
ATOM     42  C   UNL A   1      39.855  28.007  32.490  1.00  0.00     0.031 C 
ATOM     43  C   UNL A   1      41.303  27.348  26.134  1.00  0.00     0.029 A 
ATOM     44  C   UNL A   1      42.258  26.958  27.147  1.00  0.00     0.049 A 
ATOM     45  H   UNL A   1      42.377  27.636  29.119  1.00  0.00     0.167 HD
ATOM     46  C   UNL A   1      42.178  28.652  33.349  1.00  0.00     0.037 A 
ATOM     47  C   UNL A   1      43.304  26.108  27.047  1.00  0.00     0.037 A 
ATOM     48  C   UNL A   1      43.230  29.547  32.937  1.00  0.00     0.049 A 
ATOM     49  C   UNL A   1      44.255  26.479  28.122  1.00  0.00     0.074 A 
ATOM     50  C   UNL A   1      43.323  30.915  32.763  1.00  0.00     0.029 A 
ATOM     51  N   UNL A   1      44.303  29.020  32.260  1.00  0.00    -0.354 N 
ATOM     52  N   UNL A   1      44.887  27.623  28.158  1.00  0.00    -0.248 NA
ATOM     53  C   UNL A   1      44.137  25.791  29.398  1.00  0.00     0.031 C 
ATOM     54  C   UNL A   1      44.122  31.081  31.591  1.00  0.00     0.029 A 
ATOM     55  C   UNL A   1      44.511  29.812  31.158  1.00  0.00     0.049 A 
ATOM     56  H   UNL A   1      44.824  28.226  32.517  1.00  0.00     0.167 HD
ATOM     57  C   UNL A   1      44.881  27.993  29.496  1.00  0.00     0.074 A 
ATOM     58  C   UNL A   1      44.483  26.786  30.220  1.00  0.00     0.031 C 
ATOM     59  C   UNL A   1      44.926  29.307  29.870  1.00  0.00     0.037 A 
BRANCH  46  60
ATOM     60  C   UNL A   1      42.406  27.593  34.397  1.00  0.00     0.064 A 
ATOM     61  C   UNL A   1      43.020  26.377  34.032  1.00  0.00     0.173 A 
ATOM     62  C   UNL A   1      41.789  27.609  35.664  1.00  0.00     0.173 A 
ATOM     63  F   UNL A   1      43.623  26.247  32.841  1.00  0.00    -0.203 F 
ATOM     64  C   UNL A   1      42.953  25.243  34.846  1.00  0.00     0.198 A 
ATOM     65  C   UNL A   1      41.771  26.491  36.498  1.00  0.00     0.198 A 
ATOM     66  F   UNL A   1      41.087  28.664  36.096  1.00  0.00    -0.203 F 
ATOM     67  F   UNL A   1      43.443  24.077  34.405  1.00  0.00    -0.200 F 
ATOM     68  C   UNL A   1      42.323  25.300  36.076  1.00  0.00     0.200 A 
ATOM     69  F   UNL A   1      41.141  26.560  37.678  1.00  0.00    -0.200 F 
ATOM     70  F   UNL A   1      42.202  24.199  36.831  1.00  0.00    -0.200 F 
ENDBRANCH  46  60
BRANCH  47  71
ATOM     71  C   UNL A   1      43.341  24.834  26.299  1.00  0.00     0.064 A 
ATOM     72  C   UNL A   1      44.211  24.651  25.217  1.00  0.00     0.173 A 
ATOM     73  C   UNL A   1      42.703  23.680  26.800  1.00  0.00     0.173 A 
ATOM     74  F   UNL A   1      44.884  25.695  24.711  1.00  0.00    -0.203 F 
ATOM     75  C   UNL A   1      44.451  23.381  24.682  1.00  0.00     0.198 A 
ATOM     76  C   UNL A   1      42.940  22.415  26.263  1.00  0.00     0.198 A 
ATOM     77  F   UNL A   1      41.909  23.747  27.879  1.00  0.00    -0.203 F 
ATOM     78  F   UNL A   1      45.334  23.234  23.684  1.00  0.00    -0.200 F 
ATOM     79  C   UNL A   1      43.825  22.265  25.213  1.00  0.00     0.200 A 
ATOM     80  F   UNL A   1      42.357  21.340  26.810  1.00  0.00    -0.200 F 
ATOM     81  F   UNL A   1      44.103  21.041  24.740  1.00  0.00    -0.200 F 
ENDBRANCH  47  71
BRANCH  59  82
ATOM     82  C   UNL A   1      45.185  30.327  28.793  1.00  0.00     0.064 A 
ATOM     83  C   UNL A   1      44.164  30.976  28.079  1.00  0.00     0.173 A 
ATOM     84  C   UNL A   1      46.493  30.777  28.583  1.00  0.00     0.173 A 
ATOM     85  F   UNL A   1      42.880  30.686  28.302  1.00  0.00    -0.203 F 
ATOM     86  C   UNL A   1      44.439  31.992  27.164  1.00  0.00     0.198 A 
ATOM     87  C   UNL A   1      46.766  31.815  27.692  1.00  0.00     0.198 A 
ATOM     88  F   UNL A   1      47.506  30.244  29.283  1.00  0.00    -0.203 F 
ATOM     89  F   UNL A   1      43.439  32.586  26.497  1.00  0.00    -0.200 F 
ATOM     90  C   UNL A   1      45.742  32.415  26.977  1.00  0.00     0.200 A 
ATOM     91  F   UNL A   1      48.023  32.256  27.550  1.00  0.00    -0.200 F 
ATOM     92  F   UNL A   1      46.008  33.419  26.130  1.00  0.00    -0.200 F 
ENDBRANCH  59  82
ENDBRANCH  33  34
ENDBRANCH  25  28
ENDBRANCH  23  24
ENDBRANCH  22  23
ENDBRANCH   1  22
TORSDOF 14
ENDMDL
