MODEL 1
REMARK VINA RESULT:     -12.8      0.000      0.000
REMARK SMILES CC(C)c1nc(N2C[C@H](C)OC(C)(C)C2)sc1C(=O)NCCCCNC(=O)c1ccc(-c2c3nc(c(-c4c(F)c(F)c(F)c(F)c4F)c4ccc([nH]4)c(-c4c(F)c(F)c(F)c(F)c4F)c4nc(c(-c5c(F)c(F)c(F)c(F)c5F)c5ccc2[nH]5)C=C4)C=C3)cc1
REMARK SMILES IDX 23 1 22 2 21 3 20 4 18 5 19 6 17 8 4 9 5 10 6 11 16 12 2 13
REMARK SMILES IDX 1 14 3 15 7 16 8 17 15 18 9 19 12 20 11 21 10 22 13 23 14 24
REMARK SMILES IDX 24 25 25 26 26 27 27 29 28 30 29 31 90 32 30 33 89 34 31 35
REMARK SMILES IDX 32 36 33 37 83 38 34 39 88 40 82 41 84 42 35 43 87 44 81 45
REMARK SMILES IDX 80 46 36 48 68 49 48 50 67 51 49 52 52 53 66 54 85 55 50 56
REMARK SMILES IDX 51 57 65 59 86 60 53 61 37 62 38 63 46 64 39 65 40 66 44 67
REMARK SMILES IDX 47 68 41 69 42 70 45 71 43 72 69 73 70 74 78 75 71 76 72 77
REMARK SMILES IDX 76 78 79 79 73 80 74 81 77 82 75 83 54 84 55 85 63 86 56 87
REMARK SMILES IDX 57 88 61 89 64 90 58 91 59 92 62 93 60 94
REMARK H PARENT 20 7 25 28 84 47 52 58
REMARK Flexibility Score: inf
ROOT
ATOM      1  C   UNL A   1      31.941  31.461  26.825  1.00  0.00     0.023 C 
ENDROOT
BRANCH   1   2
ATOM      2  C   UNL A   1      32.216  29.972  27.021  1.00  0.00     0.023 C 
BRANCH   2   3
ATOM      3  C   UNL A   1      33.594  29.497  26.552  1.00  0.00     0.116 C 
BRANCH   3   4
ATOM      4  N   UNL A   1      33.679  29.597  25.117  1.00  0.00    -0.351 N 
ATOM      5  C   UNL A   1      33.394  28.746  24.082  1.00  0.00     0.263 C 
ATOM      6  O   UNL A   1      33.650  29.251  22.979  1.00  0.00    -0.268 OA
ATOM      7  H   UNL A   1      34.017  30.470  24.813  1.00  0.00     0.163 HD
BRANCH   5   8
ATOM      8  C   UNL A   1      32.807  27.416  24.206  1.00  0.00     0.117 A 
ATOM      9  C   UNL A   1      31.545  26.816  24.157  1.00  0.00     0.069 A 
ATOM     10  N   UNL A   1      31.549  25.441  24.413  1.00  0.00    -0.224 NA
ATOM     11  C   UNL A   1      32.719  25.023  24.813  1.00  0.00     0.186 A 
ATOM     12  S   UNL A   1      33.953  26.195  24.693  1.00  0.00    -0.091 S 
BRANCH   9  13
ATOM     13  C   UNL A   1      30.171  27.414  23.985  1.00  0.00     0.034 C 
ATOM     14  C   UNL A   1      30.019  28.247  22.703  1.00  0.00     0.014 C 
ATOM     15  C   UNL A   1      29.091  26.331  24.003  1.00  0.00     0.014 C 
ENDBRANCH   9  13
BRANCH  11  16
ATOM     16  N   UNL A   1      32.970  23.780  25.285  1.00  0.00    -0.343 N 
ATOM     17  C   UNL A   1      32.176  22.654  24.793  1.00  0.00     0.150 C 
ATOM     18  C   UNL A   1      34.296  23.434  25.792  1.00  0.00     0.153 C 
ATOM     19  C   UNL A   1      33.004  21.837  23.782  1.00  0.00     0.135 C 
ATOM     20  C   UNL A   1      35.068  22.449  24.869  1.00  0.00     0.081 C 
ATOM     21  O   UNL A   1      34.227  21.376  24.385  1.00  0.00    -0.369 OA
ATOM     22  C   UNL A   1      32.238  20.608  23.311  1.00  0.00     0.040 C 
ATOM     23  C   UNL A   1      35.745  23.165  23.694  1.00  0.00     0.044 C 
ATOM     24  C   UNL A   1      36.160  21.758  25.702  1.00  0.00     0.044 C 
ENDBRANCH  11  16
ENDBRANCH   5   8
ENDBRANCH   3   4
ENDBRANCH   2   3
ENDBRANCH   1   2
BRANCH   1  25
ATOM     25  C   UNL A   1      32.974  32.383  27.455  1.00  0.00     0.116 C 
BRANCH  25  26
ATOM     26  N   UNL A   1      32.514  33.753  27.640  1.00  0.00    -0.352 N 
ATOM     27  C   UNL A   1      33.018  34.720  28.480  1.00  0.00     0.251 C 
ATOM     28  H   UNL A   1      31.741  34.023  27.094  1.00  0.00     0.163 HD
ATOM     29  O   UNL A   1      32.480  35.818  28.567  1.00  0.00    -0.269 OA
BRANCH  27  30
ATOM     30  C   UNL A   1      34.186  34.391  29.320  1.00  0.00     0.039 A 
ATOM     31  C   UNL A   1      33.972  33.818  30.575  1.00  0.00     0.014 A 
ATOM     32  C   UNL A   1      35.481  34.559  28.826  1.00  0.00     0.014 A 
ATOM     33  C   UNL A   1      35.058  33.317  31.293  1.00  0.00     0.010 A 
ATOM     34  C   UNL A   1      36.548  33.980  29.499  1.00  0.00     0.010 A 
ATOM     35  C   UNL A   1      36.346  33.344  30.734  1.00  0.00    -0.014 A 
BRANCH  35  36
ATOM     36  C   UNL A   1      37.501  32.705  31.410  1.00  0.00     0.031 A 
ATOM     37  C   UNL A   1      38.214  31.561  30.748  1.00  0.00     0.074 A 
ATOM     38  C   UNL A   1      37.837  33.084  32.659  1.00  0.00     0.049 A 
ATOM     39  N   UNL A   1      39.153  30.784  31.224  1.00  0.00    -0.248 NA
ATOM     40  C   UNL A   1      37.782  31.217  29.385  1.00  0.00     0.031 C 
ATOM     41  C   UNL A   1      37.173  34.132  33.437  1.00  0.00     0.029 A 
ATOM     42  N   UNL A   1      38.816  32.617  33.500  1.00  0.00    -0.354 N 
ATOM     43  C   UNL A   1      39.391  29.837  30.237  1.00  0.00     0.074 A 
ATOM     44  C   UNL A   1      38.470  30.109  29.156  1.00  0.00     0.031 C 
ATOM     45  C   UNL A   1      37.782  34.248  34.629  1.00  0.00     0.029 A 
ATOM     46  C   UNL A   1      38.855  33.263  34.711  1.00  0.00     0.049 A 
ATOM     47  H   UNL A   1      39.432  31.889  33.258  1.00  0.00     0.167 HD
ATOM     48  C   UNL A   1      40.311  28.846  30.224  1.00  0.00     0.037 A 
ATOM     49  C   UNL A   1      39.667  33.078  35.769  1.00  0.00     0.037 A 
ATOM     50  C   UNL A   1      41.270  28.620  31.272  1.00  0.00     0.049 A 
ATOM     51  C   UNL A   1      40.730  32.017  35.700  1.00  0.00     0.074 A 
ATOM     52  C   UNL A   1      42.299  27.698  31.318  1.00  0.00     0.029 A 
ATOM     53  N   UNL A   1      41.321  29.339  32.457  1.00  0.00    -0.354 N 
ATOM     54  N   UNL A   1      40.988  31.167  34.736  1.00  0.00    -0.248 NA
ATOM     55  C   UNL A   1      41.619  31.894  36.863  1.00  0.00     0.031 C 
ATOM     56  C   UNL A   1      42.964  27.847  32.541  1.00  0.00     0.029 A 
ATOM     57  C   UNL A   1      42.365  28.880  33.243  1.00  0.00     0.049 A 
ATOM     58  H   UNL A   1      40.708  30.069  32.702  1.00  0.00     0.167 HD
ATOM     59  C   UNL A   1      42.077  30.425  35.164  1.00  0.00     0.074 A 
ATOM     60  C   UNL A   1      42.443  30.932  36.471  1.00  0.00     0.031 C 
ATOM     61  C   UNL A   1      42.717  29.410  34.534  1.00  0.00     0.037 A 
BRANCH  48  62
ATOM     62  C   UNL A   1      40.333  27.943  29.028  1.00  0.00     0.064 A 
ATOM     63  C   UNL A   1      41.091  28.252  27.888  1.00  0.00     0.173 A 
ATOM     64  C   UNL A   1      39.593  26.751  29.022  1.00  0.00     0.173 A 
ATOM     65  F   UNL A   1      41.801  29.390  27.839  1.00  0.00    -0.203 F 
ATOM     66  C   UNL A   1      41.082  27.418  26.774  1.00  0.00     0.198 A 
ATOM     67  C   UNL A   1      39.608  25.905  27.915  1.00  0.00     0.198 A 
ATOM     68  F   UNL A   1      38.854  26.408  30.087  1.00  0.00    -0.203 F 
ATOM     69  F   UNL A   1      41.769  27.763  25.676  1.00  0.00    -0.200 F 
ATOM     70  C   UNL A   1      40.345  26.244  26.790  1.00  0.00     0.200 A 
ATOM     71  F   UNL A   1      38.903  24.766  27.935  1.00  0.00    -0.200 F 
ATOM     72  F   UNL A   1      40.337  25.442  25.716  1.00  0.00    -0.200 F 
ENDBRANCH  48  62
BRANCH  49  73
ATOM     73  C   UNL A   1      39.538  33.948  36.964  1.00  0.00     0.064 A 
ATOM     74  C   UNL A   1      38.793  33.528  38.075  1.00  0.00     0.173 A 
ATOM     75  C   UNL A   1      40.154  35.206  37.028  1.00  0.00     0.173 A 
ATOM     76  F   UNL A   1      38.171  32.339  38.050  1.00  0.00    -0.203 F 
ATOM     77  C   UNL A   1      38.652  34.339  39.197  1.00  0.00     0.198 A 
ATOM     78  C   UNL A   1      40.031  36.009  38.160  1.00  0.00     0.198 A 
ATOM     79  F   UNL A   1      40.883  35.649  35.994  1.00  0.00    -0.203 F 
ATOM     80  F   UNL A   1      37.903  33.928  40.229  1.00  0.00    -0.200 F 
ATOM     81  C   UNL A   1      39.274  35.578  39.241  1.00  0.00     0.200 A 
ATOM     82  F   UNL A   1      40.642  37.200  38.203  1.00  0.00    -0.200 F 
ATOM     83  F   UNL A   1      39.141  36.359  40.321  1.00  0.00    -0.200 F 
ENDBRANCH  49  73
BRANCH  61  84
ATOM     84  C   UNL A   1      43.893  28.803  35.235  1.00  0.00     0.064 A 
ATOM     85  C   UNL A   1      45.191  29.299  35.048  1.00  0.00     0.173 A 
ATOM     86  C   UNL A   1      43.713  27.745  36.138  1.00  0.00     0.173 A 
ATOM     87  F   UNL A   1      45.413  30.300  34.182  1.00  0.00    -0.203 F 
ATOM     88  C   UNL A   1      46.271  28.746  35.730  1.00  0.00     0.198 A 
ATOM     89  C   UNL A   1      44.791  27.209  36.833  1.00  0.00     0.198 A 
ATOM     90  F   UNL A   1      42.488  27.240  36.351  1.00  0.00    -0.203 F 
ATOM     91  F   UNL A   1      47.508  29.212  35.512  1.00  0.00    -0.200 F 
ATOM     92  C   UNL A   1      46.069  27.707  36.626  1.00  0.00     0.200 A 
ATOM     93  F   UNL A   1      44.595  26.210  37.706  1.00  0.00    -0.200 F 
ATOM     94  F   UNL A   1      47.110  27.180  37.287  1.00  0.00    -0.200 F 
ENDBRANCH  61  84
ENDBRANCH  35  36
ENDBRANCH  27  30
ENDBRANCH  25  26
ENDBRANCH   1  25
TORSDOF 13
ENDMDL
MODEL 2
REMARK VINA RESULT:     -12.8      0.086      1.123
REMARK SMILES CC(C)c1nc(N2C[C@H](C)OC(C)(C)C2)sc1C(=O)NCCCCNC(=O)c1ccc(-c2c3nc(c(-c4c(F)c(F)c(F)c(F)c4F)c4ccc([nH]4)c(-c4c(F)c(F)c(F)c(F)c4F)c4nc(c(-c5c(F)c(F)c(F)c(F)c5F)c5ccc2[nH]5)C=C4)C=C3)cc1
REMARK SMILES IDX 23 1 22 2 21 3 20 4 18 5 19 6 17 8 4 9 5 10 6 11 16 12 2 13
REMARK SMILES IDX 1 14 3 15 7 16 8 17 15 18 9 19 12 20 11 21 10 22 13 23 14 24
REMARK SMILES IDX 24 25 25 26 26 27 27 29 28 30 29 31 90 32 30 33 89 34 31 35
REMARK SMILES IDX 32 36 33 37 83 38 34 39 88 40 82 41 84 42 35 43 87 44 81 45
REMARK SMILES IDX 80 46 36 48 68 49 48 50 67 51 49 52 52 53 66 54 85 55 50 56
REMARK SMILES IDX 51 57 65 59 86 60 53 61 37 62 38 63 46 64 39 65 40 66 44 67
REMARK SMILES IDX 47 68 41 69 42 70 45 71 43 72 69 73 70 74 78 75 71 76 72 77
REMARK SMILES IDX 76 78 79 79 73 80 74 81 77 82 75 83 54 84 55 85 63 86 56 87
REMARK SMILES IDX 57 88 61 89 64 90 58 91 59 92 62 93 60 94
REMARK H PARENT 20 7 25 28 84 47 52 58
REMARK Flexibility Score: inf
ROOT
ATOM      1  C   UNL A   1      31.946  31.554  26.760  1.00  0.00     0.023 C 
ENDROOT
BRANCH   1   2
ATOM      2  C   UNL A   1      32.169  30.058  26.968  1.00  0.00     0.023 C 
BRANCH   2   3
ATOM      3  C   UNL A   1      33.537  29.535  26.522  1.00  0.00     0.116 C 
BRANCH   3   4
ATOM      4  N   UNL A   1      33.640  29.608  25.086  1.00  0.00    -0.351 N 
ATOM      5  C   UNL A   1      33.375  28.737  24.063  1.00  0.00     0.263 C 
ATOM      6  O   UNL A   1      33.642  29.223  22.955  1.00  0.00    -0.268 OA
ATOM      7  H   UNL A   1      33.976  30.478  24.771  1.00  0.00     0.163 HD
BRANCH   5   8
ATOM      8  C   UNL A   1      32.797  27.404  24.205  1.00  0.00     0.117 A 
ATOM      9  C   UNL A   1      31.537  26.798  24.178  1.00  0.00     0.069 A 
ATOM     10  N   UNL A   1      31.551  25.425  24.443  1.00  0.00    -0.224 NA
ATOM     11  C   UNL A   1      32.729  25.015  24.828  1.00  0.00     0.186 A 
ATOM     12  S   UNL A   1      33.956  26.192  24.683  1.00  0.00    -0.091 S 
BRANCH   9  13
ATOM     13  C   UNL A   1      30.158  27.388  24.023  1.00  0.00     0.034 C 
ATOM     14  C   UNL A   1      29.990  28.232  22.750  1.00  0.00     0.014 C 
ATOM     15  C   UNL A   1      29.085  26.298  24.039  1.00  0.00     0.014 C 
ENDBRANCH   9  13
BRANCH  11  16
ATOM     16  N   UNL A   1      32.994  23.776  25.304  1.00  0.00    -0.343 N 
ATOM     17  C   UNL A   1      32.200  22.642  24.828  1.00  0.00     0.150 C 
ATOM     18  C   UNL A   1      34.328  23.441  25.798  1.00  0.00     0.153 C 
ATOM     19  C   UNL A   1      33.021  21.825  23.812  1.00  0.00     0.135 C 
ATOM     20  C   UNL A   1      35.093  22.455  24.871  1.00  0.00     0.081 C 
ATOM     21  O   UNL A   1      34.253  21.375  24.403  1.00  0.00    -0.369 OA
ATOM     22  C   UNL A   1      32.257  20.589  23.358  1.00  0.00     0.040 C 
ATOM     23  C   UNL A   1      35.753  23.168  23.684  1.00  0.00     0.044 C 
ATOM     24  C   UNL A   1      36.200  21.775  25.695  1.00  0.00     0.044 C 
ENDBRANCH  11  16
ENDBRANCH   5   8
ENDBRANCH   3   4
ENDBRANCH   2   3
ENDBRANCH   1   2
BRANCH   1  25
ATOM     25  C   UNL A   1      32.937  32.447  27.490  1.00  0.00     0.116 C 
BRANCH  25  26
ATOM     26  N   UNL A   1      32.476  33.816  27.679  1.00  0.00    -0.352 N 
ATOM     27  C   UNL A   1      32.987  34.784  28.513  1.00  0.00     0.251 C 
ATOM     28  H   UNL A   1      31.697  34.084  27.141  1.00  0.00     0.163 HD
ATOM     29  O   UNL A   1      32.447  35.881  28.607  1.00  0.00    -0.269 OA
BRANCH  27  30
ATOM     30  C   UNL A   1      34.165  34.459  29.341  1.00  0.00     0.039 A 
ATOM     31  C   UNL A   1      33.964  33.927  30.617  1.00  0.00     0.014 A 
ATOM     32  C   UNL A   1      35.453  34.588  28.818  1.00  0.00     0.014 A 
ATOM     33  C   UNL A   1      35.054  33.427  31.329  1.00  0.00     0.010 A 
ATOM     34  C   UNL A   1      36.521  34.008  29.488  1.00  0.00     0.010 A 
ATOM     35  C   UNL A   1      36.332  33.413  30.745  1.00  0.00    -0.014 A 
BRANCH  35  36
ATOM     36  C   UNL A   1      37.487  32.773  31.419  1.00  0.00     0.031 A 
ATOM     37  C   UNL A   1      38.205  31.636  30.750  1.00  0.00     0.074 A 
ATOM     38  C   UNL A   1      37.820  33.143  32.671  1.00  0.00     0.049 A 
ATOM     39  N   UNL A   1      39.146  30.859  31.221  1.00  0.00    -0.248 NA
ATOM     40  C   UNL A   1      37.776  31.301  29.383  1.00  0.00     0.031 C 
ATOM     41  C   UNL A   1      37.151  34.183  33.456  1.00  0.00     0.029 A 
ATOM     42  N   UNL A   1      38.799  32.673  33.510  1.00  0.00    -0.354 N 
ATOM     43  C   UNL A   1      39.389  29.920  30.227  1.00  0.00     0.074 A 
ATOM     44  C   UNL A   1      38.469  30.198  29.146  1.00  0.00     0.031 C 
ATOM     45  C   UNL A   1      37.757  34.292  34.650  1.00  0.00     0.029 A 
ATOM     46  C   UNL A   1      38.833  33.309  34.727  1.00  0.00     0.049 A 
ATOM     47  H   UNL A   1      39.418  31.948  33.264  1.00  0.00     0.167 HD
ATOM     48  C   UNL A   1      40.312  28.932  30.208  1.00  0.00     0.037 A 
ATOM     49  C   UNL A   1      39.644  33.119  35.785  1.00  0.00     0.037 A 
ATOM     50  C   UNL A   1      41.270  28.701  31.256  1.00  0.00     0.049 A 
ATOM     51  C   UNL A   1      40.711  32.062  35.710  1.00  0.00     0.074 A 
ATOM     52  C   UNL A   1      42.302  27.782  31.297  1.00  0.00     0.029 A 
ATOM     53  N   UNL A   1      41.316  29.411  32.447  1.00  0.00    -0.354 N 
ATOM     54  N   UNL A   1      40.973  31.220  34.739  1.00  0.00    -0.248 NA
ATOM     55  C   UNL A   1      41.598  31.932  36.873  1.00  0.00     0.031 C 
ATOM     56  C   UNL A   1      42.964  27.923  32.522  1.00  0.00     0.029 A 
ATOM     57  C   UNL A   1      42.360  28.949  33.231  1.00  0.00     0.049 A 
ATOM     58  H   UNL A   1      40.700  30.137  32.697  1.00  0.00     0.167 HD
ATOM     59  C   UNL A   1      42.064  30.478  35.164  1.00  0.00     0.074 A 
ATOM     60  C   UNL A   1      42.425  30.976  36.475  1.00  0.00     0.031 C 
ATOM     61  C   UNL A   1      42.709  29.470  34.527  1.00  0.00     0.037 A 
BRANCH  48  62
ATOM     62  C   UNL A   1      40.339  28.038  29.005  1.00  0.00     0.064 A 
ATOM     63  C   UNL A   1      41.080  28.370  27.860  1.00  0.00     0.173 A 
ATOM     64  C   UNL A   1      39.622  26.833  28.997  1.00  0.00     0.173 A 
ATOM     65  F   UNL A   1      41.767  29.522  27.813  1.00  0.00    -0.203 F 
ATOM     66  C   UNL A   1      41.076  27.545  26.740  1.00  0.00     0.198 A 
ATOM     67  C   UNL A   1      39.642  25.995  27.884  1.00  0.00     0.198 A 
ATOM     68  F   UNL A   1      38.900  26.468  30.067  1.00  0.00    -0.203 F 
ATOM     69  F   UNL A   1      41.745  27.910  25.638  1.00  0.00    -0.200 F 
ATOM     70  C   UNL A   1      40.361  26.357  26.754  1.00  0.00     0.200 A 
ATOM     71  F   UNL A   1      38.958  24.843  27.902  1.00  0.00    -0.200 F 
ATOM     72  F   UNL A   1      40.357  25.563  25.674  1.00  0.00    -0.200 F 
ENDBRANCH  48  62
BRANCH  49  73
ATOM     73  C   UNL A   1      39.510  33.979  36.986  1.00  0.00     0.064 A 
ATOM     74  C   UNL A   1      38.779  33.540  38.099  1.00  0.00     0.173 A 
ATOM     75  C   UNL A   1      40.107  35.246  37.054  1.00  0.00     0.173 A 
ATOM     76  F   UNL A   1      38.176  32.342  38.071  1.00  0.00    -0.203 F 
ATOM     77  C   UNL A   1      38.633  34.342  39.227  1.00  0.00     0.198 A 
ATOM     78  C   UNL A   1      39.979  36.039  38.192  1.00  0.00     0.198 A 
ATOM     79  F   UNL A   1      40.822  35.707  36.018  1.00  0.00    -0.203 F 
ATOM     80  F   UNL A   1      37.898  33.913  40.262  1.00  0.00    -0.200 F 
ATOM     81  C   UNL A   1      39.237  35.590  39.275  1.00  0.00     0.200 A 
ATOM     82  F   UNL A   1      40.572  37.240  38.239  1.00  0.00    -0.200 F 
ATOM     83  F   UNL A   1      39.099  36.362  40.361  1.00  0.00    -0.200 F 
ENDBRANCH  49  73
BRANCH  61  84
ATOM     84  C   UNL A   1      43.885  28.861  35.225  1.00  0.00     0.064 A 
ATOM     85  C   UNL A   1      43.739  27.757  36.075  1.00  0.00     0.173 A 
ATOM     86  C   UNL A   1      45.178  29.360  35.003  1.00  0.00     0.173 A 
ATOM     87  F   UNL A   1      42.520  27.256  36.328  1.00  0.00    -0.203 F 
ATOM     88  C   UNL A   1      44.845  27.181  36.693  1.00  0.00     0.198 A 
ATOM     89  C   UNL A   1      46.283  28.769  35.606  1.00  0.00     0.198 A 
ATOM     90  F   UNL A   1      45.366  30.414  34.195  1.00  0.00    -0.203 F 
ATOM     91  F   UNL A   1      44.681  26.147  37.529  1.00  0.00    -0.200 F 
ATOM     92  C   UNL A   1      46.116  27.683  36.452  1.00  0.00     0.200 A 
ATOM     93  F   UNL A   1      47.512  29.249  35.366  1.00  0.00    -0.200 F 
ATOM     94  F   UNL A   1      47.181  27.123  37.043  1.00  0.00    -0.200 F 
ENDBRANCH  61  84
ENDBRANCH  35  36
ENDBRANCH  27  30
ENDBRANCH  25  26
ENDBRANCH   1  25
TORSDOF 13
ENDMDL
MODEL 3
REMARK VINA RESULT:     -12.8      1.913      7.686
REMARK SMILES CC(C)c1nc(N2C[C@H](C)OC(C)(C)C2)sc1C(=O)NCCCCNC(=O)c1ccc(-c2c3nc(c(-c4c(F)c(F)c(F)c(F)c4F)c4ccc([nH]4)c(-c4c(F)c(F)c(F)c(F)c4F)c4nc(c(-c5c(F)c(F)c(F)c(F)c5F)c5ccc2[nH]5)C=C4)C=C3)cc1
REMARK SMILES IDX 23 1 22 2 21 3 20 4 18 5 19 6 17 8 4 9 5 10 6 11 16 12 2 13
REMARK SMILES IDX 1 14 3 15 7 16 8 17 15 18 9 19 12 20 11 21 10 22 13 23 14 24
REMARK SMILES IDX 24 25 25 26 26 27 27 29 28 30 29 31 90 32 30 33 89 34 31 35
REMARK SMILES IDX 32 36 33 37 83 38 34 39 88 40 82 41 84 42 35 43 87 44 81 45
REMARK SMILES IDX 80 46 36 48 68 49 48 50 67 51 49 52 52 53 66 54 85 55 50 56
REMARK SMILES IDX 51 57 65 59 86 60 53 61 37 62 38 63 46 64 39 65 40 66 44 67
REMARK SMILES IDX 47 68 41 69 42 70 45 71 43 72 69 73 70 74 78 75 71 76 72 77
REMARK SMILES IDX 76 78 79 79 73 80 74 81 77 82 75 83 54 84 55 85 63 86 56 87
REMARK SMILES IDX 57 88 61 89 64 90 58 91 59 92 62 93 60 94
REMARK H PARENT 20 7 25 28 84 47 52 58
REMARK Flexibility Score: inf
ROOT
ATOM      1  C   UNL A   1      32.219  29.704  25.231  1.00  0.00     0.023 C 
ENDROOT
BRANCH   1   2
ATOM      2  C   UNL A   1      33.371  28.993  24.525  1.00  0.00     0.023 C 
BRANCH   2   3
ATOM      3  C   UNL A   1      33.322  29.034  22.995  1.00  0.00     0.116 C 
BRANCH   3   4
ATOM      4  N   UNL A   1      31.958  28.902  22.550  1.00  0.00    -0.351 N 
ATOM      5  C   UNL A   1      31.066  27.863  22.496  1.00  0.00     0.263 C 
ATOM      6  O   UNL A   1      29.983  28.204  22.001  1.00  0.00    -0.268 OA
ATOM      7  H   UNL A   1      31.584  29.746  22.208  1.00  0.00     0.163 HD
BRANCH   5   8
ATOM      8  C   UNL A   1      31.297  26.512  22.999  1.00  0.00     0.117 A 
ATOM      9  C   UNL A   1      31.130  25.790  24.184  1.00  0.00     0.069 A 
ATOM     10  N   UNL A   1      31.596  24.473  24.128  1.00  0.00    -0.224 NA
ATOM     11  C   UNL A   1      32.249  24.233  23.023  1.00  0.00     0.186 A 
ATOM     12  S   UNL A   1      32.157  25.492  21.875  1.00  0.00    -0.091 S 
BRANCH   9  13
ATOM     13  C   UNL A   1      30.638  26.219  25.543  1.00  0.00     0.034 C 
ATOM     14  C   UNL A   1      29.555  25.296  26.124  1.00  0.00     0.014 C 
ATOM     15  C   UNL A   1      31.791  26.319  26.543  1.00  0.00     0.014 C 
ENDBRANCH   9  13
BRANCH  11  16
ATOM     16  N   UNL A   1      32.946  23.100  22.772  1.00  0.00    -0.343 N 
ATOM     17  C   UNL A   1      34.401  23.108  22.927  1.00  0.00     0.150 C 
ATOM     18  C   UNL A   1      32.310  21.792  22.910  1.00  0.00     0.153 C 
ATOM     19  C   UNL A   1      34.786  22.396  24.238  1.00  0.00     0.135 C 
ATOM     20  C   UNL A   1      32.838  20.980  24.127  1.00  0.00     0.081 C 
ATOM     21  O   UNL A   1      34.277  21.050  24.252  1.00  0.00    -0.369 OA
ATOM     22  C   UNL A   1      36.299  22.311  24.392  1.00  0.00     0.040 C 
ATOM     23  C   UNL A   1      32.169  21.402  25.441  1.00  0.00     0.044 C 
ATOM     24  C   UNL A   1      32.528  19.493  23.889  1.00  0.00     0.044 C 
ENDBRANCH  11  16
ENDBRANCH   5   8
ENDBRANCH   3   4
ENDBRANCH   2   3
ENDBRANCH   1   2
BRANCH   1  25
ATOM     25  C   UNL A   1      32.512  30.109  26.667  1.00  0.00     0.116 C 
BRANCH  25  26
ATOM     26  N   UNL A   1      32.473  31.547  26.899  1.00  0.00    -0.352 N 
ATOM     27  C   UNL A   1      33.433  32.349  27.472  1.00  0.00     0.251 C 
ATOM     28  H   UNL A   1      31.651  32.005  26.609  1.00  0.00     0.163 HD
ATOM     29  O   UNL A   1      33.226  33.543  27.655  1.00  0.00    -0.269 OA
BRANCH  27  30
ATOM     30  C   UNL A   1      34.698  31.733  27.919  1.00  0.00     0.039 A 
ATOM     31  C   UNL A   1      35.800  32.557  28.158  1.00  0.00     0.014 A 
ATOM     32  C   UNL A   1      34.759  30.365  28.193  1.00  0.00     0.014 A 
ATOM     33  C   UNL A   1      36.933  32.022  28.771  1.00  0.00     0.010 A 
ATOM     34  C   UNL A   1      35.850  29.857  28.884  1.00  0.00     0.010 A 
ATOM     35  C   UNL A   1      36.943  30.682  29.189  1.00  0.00    -0.014 A 
BRANCH  35  36
ATOM     36  C   UNL A   1      38.078  30.116  29.958  1.00  0.00     0.031 A 
ATOM     37  C   UNL A   1      38.293  30.531  31.385  1.00  0.00     0.074 A 
ATOM     38  C   UNL A   1      38.970  29.316  29.342  1.00  0.00     0.049 A 
ATOM     39  N   UNL A   1      39.292  30.260  32.185  1.00  0.00    -0.248 NA
ATOM     40  C   UNL A   1      37.269  31.406  31.977  1.00  0.00     0.031 C 
ATOM     41  C   UNL A   1      38.912  28.900  27.939  1.00  0.00     0.029 A 
ATOM     42  N   UNL A   1      40.111  28.720  29.817  1.00  0.00    -0.354 N 
ATOM     43  C   UNL A   1      39.037  30.963  33.355  1.00  0.00     0.074 A 
ATOM     44  C   UNL A   1      37.814  31.706  33.146  1.00  0.00     0.031 C 
ATOM     45  C   UNL A   1      39.953  28.094  27.675  1.00  0.00     0.029 A 
ATOM     46  C   UNL A   1      40.769  27.964  28.878  1.00  0.00     0.049 A 
ATOM     47  H   UNL A   1      40.430  28.825  30.742  1.00  0.00     0.167 HD
ATOM     48  C   UNL A   1      39.745  30.968  34.507  1.00  0.00     0.037 A 
ATOM     49  C   UNL A   1      41.903  27.245  28.979  1.00  0.00     0.037 A 
ATOM     50  C   UNL A   1      40.924  30.176  34.734  1.00  0.00     0.049 A 
ATOM     51  C   UNL A   1      42.633  27.210  30.293  1.00  0.00     0.074 A 
ATOM     52  C   UNL A   1      41.667  30.044  35.893  1.00  0.00     0.029 A 
ATOM     53  N   UNL A   1      41.523  29.369  33.778  1.00  0.00    -0.354 N 
ATOM     54  N   UNL A   1      42.349  27.829  31.413  1.00  0.00    -0.248 NA
ATOM     55  C   UNL A   1      43.837  26.371  30.360  1.00  0.00     0.031 C 
ATOM     56  C   UNL A   1      42.728  29.169  35.633  1.00  0.00     0.029 A 
ATOM     57  C   UNL A   1      42.629  28.736  34.321  1.00  0.00     0.049 A 
ATOM     58  H   UNL A   1      41.208  29.261  32.852  1.00  0.00     0.167 HD
ATOM     59  C   UNL A   1      43.322  27.440  32.321  1.00  0.00     0.074 A 
ATOM     60  C   UNL A   1      44.199  26.520  31.626  1.00  0.00     0.031 C 
ATOM     61  C   UNL A   1      43.479  27.814  33.614  1.00  0.00     0.037 A 
BRANCH  48  62
ATOM     62  C   UNL A   1      39.250  31.848  35.616  1.00  0.00     0.064 A 
ATOM     63  C   UNL A   1      39.657  33.187  35.727  1.00  0.00     0.173 A 
ATOM     64  C   UNL A   1      38.355  31.350  36.574  1.00  0.00     0.173 A 
ATOM     65  F   UNL A   1      40.526  33.703  34.845  1.00  0.00    -0.203 F 
ATOM     66  C   UNL A   1      39.210  33.985  36.776  1.00  0.00     0.198 A 
ATOM     67  C   UNL A   1      37.889  32.160  37.607  1.00  0.00     0.198 A 
ATOM     68  F   UNL A   1      37.935  30.078  36.511  1.00  0.00    -0.203 F 
ATOM     69  F   UNL A   1      39.656  35.243  36.893  1.00  0.00    -0.200 F 
ATOM     70  C   UNL A   1      38.324  33.473  37.711  1.00  0.00     0.200 A 
ATOM     71  F   UNL A   1      37.026  31.667  38.505  1.00  0.00    -0.200 F 
ATOM     72  F   UNL A   1      37.896  34.243  38.721  1.00  0.00    -0.200 F 
ENDBRANCH  48  62
BRANCH  49  73
ATOM     73  C   UNL A   1      42.393  26.464  27.817  1.00  0.00     0.064 A 
ATOM     74  C   UNL A   1      43.345  27.008  26.942  1.00  0.00     0.173 A 
ATOM     75  C   UNL A   1      41.930  25.167  27.555  1.00  0.00     0.173 A 
ATOM     76  F   UNL A   1      43.803  28.253  27.144  1.00  0.00    -0.203 F 
ATOM     77  C   UNL A   1      43.803  26.291  25.840  1.00  0.00     0.198 A 
ATOM     78  C   UNL A   1      42.405  24.442  26.464  1.00  0.00     0.198 A 
ATOM     79  F   UNL A   1      41.025  24.602  28.366  1.00  0.00    -0.203 F 
ATOM     80  F   UNL A   1      44.685  26.849  25.000  1.00  0.00    -0.200 F 
ATOM     81  C   UNL A   1      43.336  25.007  25.603  1.00  0.00     0.200 A 
ATOM     82  F   UNL A   1      41.959  23.198  26.244  1.00  0.00    -0.200 F 
ATOM     83  F   UNL A   1      43.777  24.316  24.544  1.00  0.00    -0.200 F 
ENDBRANCH  49  73
BRANCH  61  84
ATOM     84  C   UNL A   1      44.621  27.206  34.368  1.00  0.00     0.064 A 
ATOM     85  C   UNL A   1      45.869  27.840  34.439  1.00  0.00     0.173 A 
ATOM     86  C   UNL A   1      44.449  26.001  35.066  1.00  0.00     0.173 A 
ATOM     87  F   UNL A   1      46.083  28.986  33.774  1.00  0.00    -0.203 F 
ATOM     88  C   UNL A   1      46.912  27.279  35.169  1.00  0.00     0.198 A 
ATOM     89  C   UNL A   1      45.488  25.455  35.812  1.00  0.00     0.198 A 
ATOM     90  F   UNL A   1      43.271  25.361  35.029  1.00  0.00    -0.203 F 
ATOM     91  F   UNL A   1      48.108  27.883  35.197  1.00  0.00    -0.200 F 
ATOM     92  C   UNL A   1      46.719  26.092  35.860  1.00  0.00     0.200 A 
ATOM     93  F   UNL A   1      45.298  24.312  36.487  1.00  0.00    -0.200 F 
ATOM     94  F   UNL A   1      47.724  25.557  36.569  1.00  0.00    -0.200 F 
ENDBRANCH  61  84
ENDBRANCH  35  36
ENDBRANCH  27  30
ENDBRANCH  25  26
ENDBRANCH   1  25
TORSDOF 13
ENDMDL
