MODEL 1
REMARK VINA RESULT:     -11.6      0.000      0.000
REMARK SMILES Cc1n[nH]c(C(=O)N[C@@H](CC(C)C)C(=O)NCCCCNC(=O)c2ccc(-c3c4nc(c(-c5c(F)c(F)c(F)c(F)c5F)c5ccc([nH]5)c(-c5c(F)c(F)c(F)c(F)c5F)c5nc(c(-c6c(F)c(F)c(F)c(F)c6F)c6ccc3[nH]6)C=C5)C=C4)cc2)n1
REMARK SMILES IDX 18 1 17 2 16 3 14 4 15 5 9 7 8 8 6 9 7 10 5 12 1 13 2 14
REMARK SMILES IDX 3 15 87 16 4 17 10 19 11 20 12 21 13 22 19 23 20 24 21 25
REMARK SMILES IDX 22 26 23 28 24 29 25 30 86 31 26 32 85 33 27 34 28 35 29 36
REMARK SMILES IDX 79 37 30 38 84 39 78 40 80 41 31 42 83 43 77 44 76 45 32 47
REMARK SMILES IDX 64 48 44 49 63 50 45 51 48 52 62 53 81 54 46 55 47 56 61 58
REMARK SMILES IDX 82 59 49 60 33 61 34 62 42 63 35 64 36 65 40 66 43 67 37 68
REMARK SMILES IDX 38 69 41 70 39 71 65 72 66 73 74 74 67 75 68 76 72 77 75 78
REMARK SMILES IDX 69 79 70 80 73 81 71 82 50 83 51 84 59 85 52 86 53 87 57 88
REMARK SMILES IDX 60 89 54 90 55 91 58 92 56 93
REMARK H PARENT 16 6 8 11 4 18 21 27 80 46 48 57
REMARK Flexibility Score: inf
ROOT
ATOM      1  C   UNL A   1      40.193  20.947  26.131  1.00  0.00     0.023 C 
ENDROOT
BRANCH   1   2
ATOM      2  C   UNL A   1      38.768  20.842  25.588  1.00  0.00     0.116 C 
BRANCH   2   3
ATOM      3  N   UNL A   1      38.069  22.113  25.499  1.00  0.00    -0.354 N 
ATOM      4  C   UNL A   1      36.784  22.459  25.794  1.00  0.00     0.242 C 
ATOM      5  O   UNL A   1      36.556  23.665  25.946  1.00  0.00    -0.273 OA
ATOM      6  H   UNL A   1      38.622  22.856  25.166  1.00  0.00     0.163 HD
BRANCH   4   7
ATOM      7  C   UNL A   1      35.636  21.447  26.030  1.00  0.00     0.172 C 
BRANCH   7   8
ATOM      8  N   UNL A   1      34.764  21.837  27.133  1.00  0.00    -0.338 N 
ATOM      9  C   UNL A   1      33.605  22.575  27.219  1.00  0.00     0.289 C 
ATOM     10  O   UNL A   1      33.010  22.408  28.291  1.00  0.00    -0.266 OA
ATOM     11  H   UNL A   1      35.071  21.500  28.005  1.00  0.00     0.164 HD
BRANCH   9  12
ATOM     12  C   UNL A   1      33.132  23.508  26.206  1.00  0.00     0.214 A 
ATOM     13  C   UNL A   1      30.742  24.534  23.781  1.00  0.00     0.092 C 
ATOM     14  C   UNL A   1      31.870  24.376  24.721  1.00  0.00     0.148 A 
ATOM     15  N   UNL A   1      32.773  25.334  24.936  1.00  0.00    -0.159 NA
ATOM     16  N   UNL A   1      32.066  23.244  25.459  1.00  0.00    -0.207 NA
ATOM     17  N   UNL A   1      33.557  24.759  25.864  1.00  0.00    -0.255 N 
ATOM     18  H   UNL A   1      34.351  25.193  26.253  1.00  0.00     0.192 HD
ENDBRANCH   9  12
ENDBRANCH   7   8
BRANCH   7  19
ATOM     19  C   UNL A   1      34.847  20.926  24.808  1.00  0.00     0.038 C 
BRANCH  19  20
ATOM     20  C   UNL A   1      33.890  19.736  24.983  1.00  0.00    -0.015 C 
ATOM     21  C   UNL A   1      32.559  19.958  24.257  1.00  0.00     0.007 C 
ATOM     22  C   UNL A   1      34.518  18.449  24.431  1.00  0.00     0.007 C 
ENDBRANCH  19  20
ENDBRANCH   7  19
ENDBRANCH   4   7
ENDBRANCH   2   3
ENDBRANCH   1   2
BRANCH   1  23
ATOM     23  C   UNL A   1      41.022  19.656  26.120  1.00  0.00     0.023 C 
BRANCH  23  24
ATOM     24  C   UNL A   1      42.437  19.789  26.669  1.00  0.00     0.116 C 
BRANCH  24  25
ATOM     25  N   UNL A   1      43.477  19.522  25.681  1.00  0.00    -0.352 N 
ATOM     26  C   UNL A   1      44.170  20.449  24.920  1.00  0.00     0.251 C 
ATOM     27  H   UNL A   1      43.714  18.577  25.540  1.00  0.00     0.163 HD
ATOM     28  O   UNL A   1      44.780  20.123  23.919  1.00  0.00    -0.269 OA
BRANCH  26  29
ATOM     29  C   UNL A   1      44.144  21.861  25.351  1.00  0.00     0.039 A 
ATOM     30  C   UNL A   1      43.223  22.760  24.808  1.00  0.00     0.014 A 
ATOM     31  C   UNL A   1      45.031  22.263  26.347  1.00  0.00     0.014 A 
ATOM     32  C   UNL A   1      43.142  24.044  25.344  1.00  0.00     0.010 A 
ATOM     33  C   UNL A   1      44.871  23.486  26.954  1.00  0.00     0.010 A 
ATOM     34  C   UNL A   1      43.951  24.394  26.439  1.00  0.00    -0.014 A 
BRANCH  34  35
ATOM     35  C   UNL A   1      43.740  25.667  27.127  1.00  0.00     0.031 A 
ATOM     36  C   UNL A   1      44.718  26.734  26.773  1.00  0.00     0.074 A 
ATOM     37  C   UNL A   1      42.636  25.954  27.854  1.00  0.00     0.049 A 
ATOM     38  N   UNL A   1      45.582  27.301  27.547  1.00  0.00    -0.248 NA
ATOM     39  C   UNL A   1      44.820  27.153  25.365  1.00  0.00     0.031 C 
ATOM     40  C   UNL A   1      41.432  25.127  28.001  1.00  0.00     0.029 A 
ATOM     41  N   UNL A   1      42.304  27.095  28.529  1.00  0.00    -0.354 N 
ATOM     42  C   UNL A   1      46.193  28.294  26.781  1.00  0.00     0.074 A 
ATOM     43  C   UNL A   1      45.813  28.044  25.417  1.00  0.00     0.031 C 
ATOM     44  C   UNL A   1      40.427  25.875  28.503  1.00  0.00     0.029 A 
ATOM     45  C   UNL A   1      40.965  27.164  28.893  1.00  0.00     0.049 A 
ATOM     46  H   UNL A   1      42.954  27.803  28.738  1.00  0.00     0.167 HD
ATOM     47  C   UNL A   1      46.718  29.399  27.381  1.00  0.00     0.037 A 
ATOM     48  C   UNL A   1      40.323  28.196  29.487  1.00  0.00     0.037 A 
ATOM     49  C   UNL A   1      46.828  29.202  28.803  1.00  0.00     0.049 A 
ATOM     50  C   UNL A   1      41.334  29.037  30.164  1.00  0.00     0.074 A 
ATOM     51  C   UNL A   1      47.686  28.574  29.676  1.00  0.00     0.029 A 
ATOM     52  N   UNL A   1      45.665  29.449  29.478  1.00  0.00    -0.354 N 
ATOM     53  N   UNL A   1      42.026  28.638  31.194  1.00  0.00    -0.248 NA
ATOM     54  C   UNL A   1      41.825  30.242  29.505  1.00  0.00     0.031 C 
ATOM     55  C   UNL A   1      46.937  28.328  30.867  1.00  0.00     0.029 A 
ATOM     56  C   UNL A   1      45.652  28.838  30.700  1.00  0.00     0.049 A 
ATOM     57  H   UNL A   1      44.929  30.000  29.127  1.00  0.00     0.167 HD
ATOM     58  C   UNL A   1      43.244  29.265  31.041  1.00  0.00     0.074 A 
ATOM     59  C   UNL A   1      43.003  30.368  30.121  1.00  0.00     0.031 C 
ATOM     60  C   UNL A   1      44.399  28.632  31.387  1.00  0.00     0.037 A 
BRANCH  47  61
ATOM     61  C   UNL A   1      46.672  30.810  26.823  1.00  0.00     0.064 A 
ATOM     62  C   UNL A   1      47.841  31.603  26.876  1.00  0.00     0.173 A 
ATOM     63  C   UNL A   1      45.478  31.516  26.566  1.00  0.00     0.173 A 
ATOM     64  F   UNL A   1      49.035  31.044  27.128  1.00  0.00    -0.203 F 
ATOM     65  C   UNL A   1      47.800  32.996  26.764  1.00  0.00     0.198 A 
ATOM     66  C   UNL A   1      45.448  32.902  26.405  1.00  0.00     0.198 A 
ATOM     67  F   UNL A   1      44.280  30.920  26.579  1.00  0.00    -0.203 F 
ATOM     68  F   UNL A   1      48.917  33.713  26.947  1.00  0.00    -0.200 F 
ATOM     69  C   UNL A   1      46.601  33.645  26.536  1.00  0.00     0.200 A 
ATOM     70  F   UNL A   1      44.273  33.515  26.207  1.00  0.00    -0.200 F 
ATOM     71  F   UNL A   1      46.547  34.983  26.489  1.00  0.00    -0.200 F 
ENDBRANCH  47  61
BRANCH  48  72
ATOM     72  C   UNL A   1      38.907  28.599  29.381  1.00  0.00     0.064 A 
ATOM     73  C   UNL A   1      38.104  28.759  30.520  1.00  0.00     0.173 A 
ATOM     74  C   UNL A   1      38.398  29.109  28.171  1.00  0.00     0.173 A 
ATOM     75  F   UNL A   1      38.534  28.325  31.714  1.00  0.00    -0.203 F 
ATOM     76  C   UNL A   1      36.877  29.425  30.462  1.00  0.00     0.198 A 
ATOM     77  C   UNL A   1      37.173  29.773  28.113  1.00  0.00     0.198 A 
ATOM     78  F   UNL A   1      39.127  29.054  27.047  1.00  0.00    -0.203 F 
ATOM     79  F   UNL A   1      36.166  29.616  31.581  1.00  0.00    -0.200 F 
ATOM     80  C   UNL A   1      36.420  29.946  29.260  1.00  0.00     0.200 A 
ATOM     81  F   UNL A   1      36.756  30.300  26.953  1.00  0.00    -0.200 F 
ATOM     82  F   UNL A   1      35.278  30.645  29.217  1.00  0.00    -0.200 F 
ENDBRANCH  48  72
BRANCH  60  83
ATOM     83  C   UNL A   1      44.310  27.549  32.413  1.00  0.00     0.064 A 
ATOM     84  C   UNL A   1      44.207  26.180  32.120  1.00  0.00     0.173 A 
ATOM     85  C   UNL A   1      44.386  27.921  33.762  1.00  0.00     0.173 A 
ATOM     86  F   UNL A   1      44.203  25.743  30.855  1.00  0.00    -0.203 F 
ATOM     87  C   UNL A   1      44.141  25.231  33.139  1.00  0.00     0.198 A 
ATOM     88  C   UNL A   1      44.355  26.971  34.775  1.00  0.00     0.198 A 
ATOM     89  F   UNL A   1      44.522  29.214  34.095  1.00  0.00    -0.203 F 
ATOM     90  F   UNL A   1      44.018  23.930  32.839  1.00  0.00    -0.200 F 
ATOM     91  C   UNL A   1      44.219  25.627  34.465  1.00  0.00     0.200 A 
ATOM     92  F   UNL A   1      44.471  27.357  36.053  1.00  0.00    -0.200 F 
ATOM     93  F   UNL A   1      44.183  24.713  35.445  1.00  0.00    -0.200 F 
ENDBRANCH  60  83
ENDBRANCH  34  35
ENDBRANCH  26  29
ENDBRANCH  24  25
ENDBRANCH  23  24
ENDBRANCH   1  23
TORSDOF 15
ENDMDL
MODEL 2
REMARK VINA RESULT:     -11.6      2.642      3.738
REMARK SMILES Cc1n[nH]c(C(=O)N[C@@H](CC(C)C)C(=O)NCCCCNC(=O)c2ccc(-c3c4nc(c(-c5c(F)c(F)c(F)c(F)c5F)c5ccc([nH]5)c(-c5c(F)c(F)c(F)c(F)c5F)c5nc(c(-c6c(F)c(F)c(F)c(F)c6F)c6ccc3[nH]6)C=C5)C=C4)cc2)n1
REMARK SMILES IDX 18 1 17 2 16 3 14 4 15 5 9 7 8 8 6 9 7 10 5 12 1 13 2 14
REMARK SMILES IDX 3 15 87 16 4 17 10 19 11 20 12 21 13 22 19 23 20 24 21 25
REMARK SMILES IDX 22 26 23 28 24 29 25 30 86 31 26 32 85 33 27 34 28 35 29 36
REMARK SMILES IDX 79 37 30 38 84 39 78 40 80 41 31 42 83 43 77 44 76 45 32 47
REMARK SMILES IDX 64 48 44 49 63 50 45 51 48 52 62 53 81 54 46 55 47 56 61 58
REMARK SMILES IDX 82 59 49 60 33 61 34 62 42 63 35 64 36 65 40 66 43 67 37 68
REMARK SMILES IDX 38 69 41 70 39 71 65 72 66 73 74 74 67 75 68 76 72 77 75 78
REMARK SMILES IDX 69 79 70 80 73 81 71 82 50 83 51 84 59 85 52 86 53 87 57 88
REMARK SMILES IDX 60 89 54 90 55 91 58 92 56 93
REMARK H PARENT 16 6 8 11 4 18 21 27 80 46 48 57
REMARK Flexibility Score: inf
ROOT
ATOM      1  C   UNL A   1      37.731  21.352  24.965  1.00  0.00     0.023 C 
ENDROOT
BRANCH   1   2
ATOM      2  C   UNL A   1      36.238  21.545  24.700  1.00  0.00     0.116 C 
BRANCH   2   3
ATOM      3  N   UNL A   1      35.373  20.941  25.697  1.00  0.00    -0.354 N 
ATOM      4  C   UNL A   1      34.206  21.368  26.260  1.00  0.00     0.242 C 
ATOM      5  O   UNL A   1      33.515  20.510  26.822  1.00  0.00    -0.273 OA
ATOM      6  H   UNL A   1      35.683  20.066  26.026  1.00  0.00     0.163 HD
BRANCH   4   7
ATOM      7  C   UNL A   1      33.667  22.816  26.164  1.00  0.00     0.172 C 
BRANCH   7   8
ATOM      8  N   UNL A   1      32.467  23.021  26.967  1.00  0.00    -0.338 N 
ATOM      9  C   UNL A   1      31.173  23.393  26.675  1.00  0.00     0.289 C 
ATOM     10  O   UNL A   1      30.384  23.145  27.595  1.00  0.00    -0.266 OA
ATOM     11  H   UNL A   1      32.612  22.857  27.927  1.00  0.00     0.164 HD
BRANCH   9  12
ATOM     12  C   UNL A   1      30.754  24.065  25.454  1.00  0.00     0.214 A 
ATOM     13  C   UNL A   1      29.840  26.998  23.662  1.00  0.00     0.092 C 
ATOM     14  C   UNL A   1      30.194  25.643  24.131  1.00  0.00     0.148 A 
ATOM     15  N   UNL A   1      30.347  24.607  23.305  1.00  0.00    -0.159 NA
ATOM     16  N   UNL A   1      30.413  25.349  25.446  1.00  0.00    -0.207 NA
ATOM     17  N   UNL A   1      30.688  23.629  24.161  1.00  0.00    -0.255 N 
ATOM     18  H   UNL A   1      30.870  22.701  23.887  1.00  0.00     0.192 HD
ENDBRANCH   9  12
ENDBRANCH   7   8
BRANCH   7  19
ATOM     19  C   UNL A   1      34.667  23.987  26.285  1.00  0.00     0.038 C 
BRANCH  19  20
ATOM     20  C   UNL A   1      34.697  25.066  25.190  1.00  0.00    -0.015 C 
ATOM     21  C   UNL A   1      34.154  24.546  23.855  1.00  0.00     0.007 C 
ATOM     22  C   UNL A   1      33.851  26.279  25.601  1.00  0.00     0.007 C 
ENDBRANCH  19  20
ENDBRANCH   7  19
ENDBRANCH   4   7
ENDBRANCH   2   3
ENDBRANCH   1   2
BRANCH   1  23
ATOM     23  C   UNL A   1      38.446  22.497  25.695  1.00  0.00     0.023 C 
BRANCH  23  24
ATOM     24  C   UNL A   1      39.559  22.067  26.641  1.00  0.00     0.116 C 
BRANCH  24  25
ATOM     25  N   UNL A   1      40.885  22.079  26.032  1.00  0.00    -0.352 N 
ATOM     26  C   UNL A   1      41.713  23.174  25.842  1.00  0.00     0.251 C 
ATOM     27  H   UNL A   1      41.231  21.211  25.721  1.00  0.00     0.163 HD
ATOM     28  O   UNL A   1      42.643  23.141  25.058  1.00  0.00    -0.269 OA
BRANCH  26  29
ATOM     29  C   UNL A   1      41.432  24.400  26.615  1.00  0.00     0.039 A 
ATOM     30  C   UNL A   1      41.924  24.558  27.912  1.00  0.00     0.014 A 
ATOM     31  C   UNL A   1      40.702  25.414  25.999  1.00  0.00     0.014 A 
ATOM     32  C   UNL A   1      41.753  25.786  28.549  1.00  0.00     0.010 A 
ATOM     33  C   UNL A   1      40.637  26.659  26.579  1.00  0.00     0.010 A 
ATOM     34  C   UNL A   1      41.132  26.845  27.866  1.00  0.00    -0.014 A 
BRANCH  34  35
ATOM     35  C   UNL A   1      41.117  28.186  28.452  1.00  0.00     0.031 A 
ATOM     36  C   UNL A   1      42.229  29.071  28.003  1.00  0.00     0.074 A 
ATOM     37  C   UNL A   1      40.080  28.683  29.162  1.00  0.00     0.049 A 
ATOM     38  N   UNL A   1      43.180  29.568  28.722  1.00  0.00    -0.248 NA
ATOM     39  C   UNL A   1      42.361  29.359  26.566  1.00  0.00     0.031 C 
ATOM     40  C   UNL A   1      38.774  28.050  29.386  1.00  0.00     0.029 A 
ATOM     41  N   UNL A   1      39.926  29.910  29.745  1.00  0.00    -0.354 N 
ATOM     42  C   UNL A   1      43.909  30.400  27.873  1.00  0.00     0.074 A 
ATOM     43  C   UNL A   1      43.471  30.100  26.537  1.00  0.00     0.031 C 
ATOM     44  C   UNL A   1      37.895  28.971  29.835  1.00  0.00     0.029 A 
ATOM     45  C   UNL A   1      38.618  30.197  30.115  1.00  0.00     0.049 A 
ATOM     46  H   UNL A   1      40.673  30.532  29.891  1.00  0.00     0.167 HD
ATOM     47  C   UNL A   1      44.598  31.463  28.377  1.00  0.00     0.037 A 
ATOM     48  C   UNL A   1      38.140  31.354  30.628  1.00  0.00     0.037 A 
ATOM     49  C   UNL A   1      44.707  31.365  29.810  1.00  0.00     0.049 A 
ATOM     50  C   UNL A   1      39.273  32.093  31.226  1.00  0.00     0.074 A 
ATOM     51  C   UNL A   1      45.485  30.692  30.724  1.00  0.00     0.029 A 
ATOM     52  N   UNL A   1      43.604  31.828  30.472  1.00  0.00    -0.354 N 
ATOM     53  N   UNL A   1      39.922  31.682  32.279  1.00  0.00    -0.248 NA
ATOM     54  C   UNL A   1      39.917  33.160  30.468  1.00  0.00     0.031 C 
ATOM     55  C   UNL A   1      44.733  30.649  31.937  1.00  0.00     0.029 A 
ATOM     56  C   UNL A   1      43.529  31.323  31.740  1.00  0.00     0.049 A 
ATOM     57  H   UNL A   1      42.946  32.448  30.085  1.00  0.00     0.167 HD
ATOM     58  C   UNL A   1      41.213  32.114  32.065  1.00  0.00     0.074 A 
ATOM     59  C   UNL A   1      41.112  33.165  31.062  1.00  0.00     0.031 C 
ATOM     60  C   UNL A   1      42.274  31.352  32.452  1.00  0.00     0.037 A 
BRANCH  47  61
ATOM     61  C   UNL A   1      44.740  32.818  27.707  1.00  0.00     0.064 A 
ATOM     62  C   UNL A   1      45.979  33.161  27.121  1.00  0.00     0.173 A 
ATOM     63  C   UNL A   1      43.855  33.896  27.916  1.00  0.00     0.173 A 
ATOM     64  F   UNL A   1      46.909  32.222  26.887  1.00  0.00    -0.203 F 
ATOM     65  C   UNL A   1      46.329  34.486  26.844  1.00  0.00     0.198 A 
ATOM     66  C   UNL A   1      44.188  35.211  27.593  1.00  0.00     0.198 A 
ATOM     67  F   UNL A   1      42.684  33.745  28.546  1.00  0.00    -0.203 F 
ATOM     68  F   UNL A   1      47.563  34.774  26.406  1.00  0.00    -0.200 F 
ATOM     69  C   UNL A   1      45.436  35.512  27.088  1.00  0.00     0.200 A 
ATOM     70  F   UNL A   1      43.317  36.195  27.857  1.00  0.00    -0.200 F 
ATOM     71  F   UNL A   1      45.788  36.788  26.884  1.00  0.00    -0.200 F 
ENDBRANCH  47  61
BRANCH  48  72
ATOM     72  C   UNL A   1      36.793  31.945  30.502  1.00  0.00     0.064 A 
ATOM     73  C   UNL A   1      35.910  31.994  31.591  1.00  0.00     0.173 A 
ATOM     74  C   UNL A   1      36.458  32.728  29.380  1.00  0.00     0.173 A 
ATOM     75  F   UNL A   1      36.177  31.299  32.706  1.00  0.00    -0.203 F 
ATOM     76  C   UNL A   1      34.775  32.809  31.575  1.00  0.00     0.198 A 
ATOM     77  C   UNL A   1      35.325  33.540  29.365  1.00  0.00     0.198 A 
ATOM     78  F   UNL A   1      37.279  32.787  28.320  1.00  0.00    -0.203 F 
ATOM     79  F   UNL A   1      33.988  32.881  32.657  1.00  0.00    -0.200 F 
ATOM     80  C   UNL A   1      34.493  33.594  30.468  1.00  0.00     0.200 A 
ATOM     81  F   UNL A   1      35.080  34.319  28.301  1.00  0.00    -0.200 F 
ATOM     82  F   UNL A   1      33.444  34.429  30.480  1.00  0.00    -0.200 F 
ENDBRANCH  48  72
BRANCH  60  83
ATOM     83  C   UNL A   1      42.053  30.377  33.563  1.00  0.00     0.064 A 
ATOM     84  C   UNL A   1      41.683  29.035  33.384  1.00  0.00     0.173 A 
ATOM     85  C   UNL A   1      42.281  30.819  34.873  1.00  0.00     0.173 A 
ATOM     86  F   UNL A   1      41.519  28.522  32.158  1.00  0.00    -0.203 F 
ATOM     87  C   UNL A   1      41.508  28.187  34.476  1.00  0.00     0.198 A 
ATOM     88  C   UNL A   1      42.141  29.963  35.958  1.00  0.00     0.198 A 
ATOM     89  F   UNL A   1      42.672  32.084  35.096  1.00  0.00    -0.203 F 
ATOM     90  F   UNL A   1      41.130  26.915  34.286  1.00  0.00    -0.200 F 
ATOM     91  C   UNL A   1      41.742  28.651  35.762  1.00  0.00     0.200 A 
ATOM     92  F   UNL A   1      42.406  30.406  37.194  1.00  0.00    -0.200 F 
ATOM     93  F   UNL A   1      41.601  27.828  36.810  1.00  0.00    -0.200 F 
ENDBRANCH  60  83
ENDBRANCH  34  35
ENDBRANCH  26  29
ENDBRANCH  24  25
ENDBRANCH  23  24
ENDBRANCH   1  23
TORSDOF 15
ENDMDL
MODEL 3
REMARK VINA RESULT:     -11.5      3.351      8.762
REMARK SMILES Cc1n[nH]c(C(=O)N[C@@H](CC(C)C)C(=O)NCCCCNC(=O)c2ccc(-c3c4nc(c(-c5c(F)c(F)c(F)c(F)c5F)c5ccc([nH]5)c(-c5c(F)c(F)c(F)c(F)c5F)c5nc(c(-c6c(F)c(F)c(F)c(F)c6F)c6ccc3[nH]6)C=C5)C=C4)cc2)n1
REMARK SMILES IDX 18 1 17 2 16 3 14 4 15 5 9 7 8 8 6 9 7 10 5 12 1 13 2 14
REMARK SMILES IDX 3 15 87 16 4 17 10 19 11 20 12 21 13 22 19 23 20 24 21 25
REMARK SMILES IDX 22 26 23 28 24 29 25 30 86 31 26 32 85 33 27 34 28 35 29 36
REMARK SMILES IDX 79 37 30 38 84 39 78 40 80 41 31 42 83 43 77 44 76 45 32 47
REMARK SMILES IDX 64 48 44 49 63 50 45 51 48 52 62 53 81 54 46 55 47 56 61 58
REMARK SMILES IDX 82 59 49 60 33 61 34 62 42 63 35 64 36 65 40 66 43 67 37 68
REMARK SMILES IDX 38 69 41 70 39 71 65 72 66 73 74 74 67 75 68 76 72 77 75 78
REMARK SMILES IDX 69 79 70 80 73 81 71 82 50 83 51 84 59 85 52 86 53 87 57 88
REMARK SMILES IDX 60 89 54 90 55 91 58 92 56 93
REMARK H PARENT 16 6 8 11 4 18 21 27 80 46 48 57
REMARK Flexibility Score: inf
ROOT
ATOM      1  C   UNL A   1      32.673  29.871  26.804  1.00  0.00     0.023 C 
ENDROOT
BRANCH   1   2
ATOM      2  C   UNL A   1      32.170  29.824  25.362  1.00  0.00     0.116 C 
BRANCH   2   3
ATOM      3  N   UNL A   1      33.210  29.592  24.375  1.00  0.00    -0.354 N 
ATOM      4  C   UNL A   1      33.473  28.520  23.574  1.00  0.00     0.242 C 
ATOM      5  O   UNL A   1      34.205  28.724  22.598  1.00  0.00    -0.273 OA
ATOM      6  H   UNL A   1      33.837  30.343  24.264  1.00  0.00     0.163 HD
BRANCH   4   7
ATOM      7  C   UNL A   1      32.853  27.114  23.761  1.00  0.00     0.172 C 
BRANCH   7   8
ATOM      8  N   UNL A   1      31.419  27.095  23.494  1.00  0.00    -0.338 N 
ATOM      9  C   UNL A   1      30.337  26.517  24.121  1.00  0.00     0.289 C 
ATOM     10  O   UNL A   1      29.259  27.001  23.758  1.00  0.00    -0.266 OA
ATOM     11  H   UNL A   1      31.170  27.606  22.691  1.00  0.00     0.164 HD
BRANCH   9  12
ATOM     12  C   UNL A   1      30.414  25.413  25.067  1.00  0.00     0.214 A 
ATOM     13  C   UNL A   1      31.241  22.051  25.879  1.00  0.00     0.092 C 
ATOM     14  C   UNL A   1      30.830  23.469  25.842  1.00  0.00     0.148 A 
ATOM     15  N   UNL A   1      30.512  24.160  26.937  1.00  0.00    -0.159 NA
ATOM     16  N   UNL A   1      30.763  24.190  24.684  1.00  0.00    -0.207 NA
ATOM     17  N   UNL A   1      30.246  25.372  26.422  1.00  0.00    -0.255 N 
ATOM     18  H   UNL A   1      29.961  26.146  26.961  1.00  0.00     0.192 HD
ENDBRANCH   9  12
ENDBRANCH   7   8
BRANCH   7  19
ATOM     19  C   UNL A   1      33.585  25.897  23.154  1.00  0.00     0.038 C 
BRANCH  19  20
ATOM     20  C   UNL A   1      34.428  24.994  24.068  1.00  0.00    -0.015 C 
ATOM     21  C   UNL A   1      34.118  25.227  25.550  1.00  0.00     0.007 C 
ATOM     22  C   UNL A   1      34.165  23.513  23.761  1.00  0.00     0.007 C 
ENDBRANCH  19  20
ENDBRANCH   7  19
ENDBRANCH   4   7
ENDBRANCH   2   3
ENDBRANCH   1   2
BRANCH   1  23
ATOM     23  C   UNL A   1      33.082  31.250  27.338  1.00  0.00     0.023 C 
BRANCH  23  24
ATOM     24  C   UNL A   1      34.456  31.311  27.993  1.00  0.00     0.116 C 
BRANCH  24  25
ATOM     25  N   UNL A   1      34.467  32.022  29.267  1.00  0.00    -0.352 N 
ATOM     26  C   UNL A   1      35.311  31.803  30.344  1.00  0.00     0.251 C 
ATOM     27  H   UNL A   1      33.800  32.738  29.374  1.00  0.00     0.163 HD
ATOM     28  O   UNL A   1      35.046  32.220  31.455  1.00  0.00    -0.269 OA
BRANCH  26  29
ATOM     29  C   UNL A   1      36.550  31.034  30.111  1.00  0.00     0.039 A 
ATOM     30  C   UNL A   1      37.743  31.681  29.780  1.00  0.00     0.014 A 
ATOM     31  C   UNL A   1      36.508  29.652  30.274  1.00  0.00     0.014 A 
ATOM     32  C   UNL A   1      38.915  30.929  29.708  1.00  0.00     0.010 A 
ATOM     33  C   UNL A   1      37.679  28.932  30.319  1.00  0.00     0.010 A 
ATOM     34  C   UNL A   1      38.883  29.557  30.006  1.00  0.00    -0.014 A 
BRANCH  34  35
ATOM     35  C   UNL A   1      40.131  28.802  30.118  1.00  0.00     0.031 A 
ATOM     36  C   UNL A   1      40.652  28.667  31.507  1.00  0.00     0.074 A 
ATOM     37  C   UNL A   1      40.668  28.087  29.104  1.00  0.00     0.049 A 
ATOM     38  N   UNL A   1      41.755  29.140  31.984  1.00  0.00    -0.248 NA
ATOM     39  C   UNL A   1      39.801  28.016  32.516  1.00  0.00     0.031 C 
ATOM     40  C   UNL A   1      40.080  27.843  27.781  1.00  0.00     0.029 A 
ATOM     41  N   UNL A   1      41.806  27.329  29.073  1.00  0.00    -0.354 N 
ATOM     42  C   UNL A   1      41.841  28.669  33.294  1.00  0.00     0.074 A 
ATOM     43  C   UNL A   1      40.545  28.136  33.618  1.00  0.00     0.031 C 
ATOM     44  C   UNL A   1      40.728  26.824  27.177  1.00  0.00     0.029 A 
ATOM     45  C   UNL A   1      41.887  26.479  27.978  1.00  0.00     0.049 A 
ATOM     46  H   UNL A   1      42.504  27.382  29.764  1.00  0.00     0.167 HD
ATOM     47  C   UNL A   1      43.056  28.502  33.887  1.00  0.00     0.037 A 
ATOM     48  C   UNL A   1      42.839  25.553  27.719  1.00  0.00     0.037 A 
ATOM     49  C   UNL A   1      44.088  29.159  33.127  1.00  0.00     0.049 A 
ATOM     50  C   UNL A   1      44.052  25.917  28.484  1.00  0.00     0.074 A 
ATOM     51  C   UNL A   1      44.571  30.438  32.967  1.00  0.00     0.029 A 
ATOM     52  N   UNL A   1      44.550  28.412  32.079  1.00  0.00    -0.354 N 
ATOM     53  N   UNL A   1      44.763  26.982  28.238  1.00  0.00    -0.248 NA
ATOM     54  C   UNL A   1      44.324  25.261  29.758  1.00  0.00     0.031 C 
ATOM     55  C   UNL A   1      45.232  30.462  31.702  1.00  0.00     0.029 A 
ATOM     56  C   UNL A   1      45.159  29.192  31.135  1.00  0.00     0.049 A 
ATOM     57  H   UNL A   1      44.457  27.435  32.013  1.00  0.00     0.167 HD
ATOM     58  C   UNL A   1      45.232  27.363  29.476  1.00  0.00     0.074 A 
ATOM     59  C   UNL A   1      45.103  26.186  30.323  1.00  0.00     0.031 C 
ATOM     60  C   UNL A   1      45.350  28.682  29.798  1.00  0.00     0.037 A 
BRANCH  47  61
ATOM     61  C   UNL A   1      43.428  27.373  34.831  1.00  0.00     0.064 A 
ATOM     62  C   UNL A   1      43.821  27.690  36.151  1.00  0.00     0.173 A 
ATOM     63  C   UNL A   1      43.743  26.065  34.408  1.00  0.00     0.173 A 
ATOM     64  F   UNL A   1      43.588  28.910  36.660  1.00  0.00    -0.203 F 
ATOM     65  C   UNL A   1      44.543  26.795  36.947  1.00  0.00     0.198 A 
ATOM     66  C   UNL A   1      44.420  25.157  35.224  1.00  0.00     0.198 A 
ATOM     67  F   UNL A   1      43.520  25.647  33.157  1.00  0.00    -0.203 F 
ATOM     68  F   UNL A   1      45.002  27.187  38.144  1.00  0.00    -0.200 F 
ATOM     69  C   UNL A   1      44.848  25.531  36.479  1.00  0.00     0.200 A 
ATOM     70  F   UNL A   1      44.726  23.944  34.744  1.00  0.00    -0.200 F 
ATOM     71  F   UNL A   1      45.592  24.692  37.213  1.00  0.00    -0.200 F 
ENDBRANCH  47  61
BRANCH  48  72
ATOM     72  C   UNL A   1      42.729  24.282  26.977  1.00  0.00     0.064 A 
ATOM     73  C   UNL A   1      43.219  24.153  25.669  1.00  0.00     0.173 A 
ATOM     74  C   UNL A   1      42.390  23.091  27.647  1.00  0.00     0.173 A 
ATOM     75  F   UNL A   1      43.590  25.240  24.978  1.00  0.00    -0.203 F 
ATOM     76  C   UNL A   1      43.399  22.899  25.078  1.00  0.00     0.198 A 
ATOM     77  C   UNL A   1      42.569  21.841  27.056  1.00  0.00     0.198 A 
ATOM     78  F   UNL A   1      41.972  23.120  28.922  1.00  0.00    -0.203 F 
ATOM     79  F   UNL A   1      43.930  22.809  23.851  1.00  0.00    -0.200 F 
ATOM     80  C   UNL A   1      43.089  21.744  25.778  1.00  0.00     0.200 A 
ATOM     81  F   UNL A   1      42.296  20.730  27.754  1.00  0.00    -0.200 F 
ATOM     82  F   UNL A   1      43.327  20.541  25.238  1.00  0.00    -0.200 F 
ENDBRANCH  48  72
BRANCH  60  83
ATOM     83  C   UNL A   1      45.515  29.653  28.674  1.00  0.00     0.064 A 
ATOM     84  C   UNL A   1      44.457  30.307  28.025  1.00  0.00     0.173 A 
ATOM     85  C   UNL A   1      46.820  29.972  28.274  1.00  0.00     0.173 A 
ATOM     86  F   UNL A   1      43.187  30.108  28.401  1.00  0.00    -0.203 F 
ATOM     87  C   UNL A   1      44.698  31.210  26.991  1.00  0.00     0.198 A 
ATOM     88  C   UNL A   1      47.059  30.898  27.267  1.00  0.00     0.198 A 
ATOM     89  F   UNL A   1      47.868  29.402  28.888  1.00  0.00    -0.203 F 
ATOM     90  F   UNL A   1      43.672  31.806  26.366  1.00  0.00    -0.200 F 
ATOM     91  C   UNL A   1      45.999  31.508  26.616  1.00  0.00     0.200 A 
ATOM     92  F   UNL A   1      48.319  31.212  26.937  1.00  0.00    -0.200 F 
ATOM     93  F   UNL A   1      46.232  32.396  25.640  1.00  0.00    -0.200 F 
ENDBRANCH  60  83
ENDBRANCH  34  35
ENDBRANCH  26  29
ENDBRANCH  24  25
ENDBRANCH  23  24
ENDBRANCH   1  23
TORSDOF 15
ENDMDL
