MODEL 1
REMARK VINA RESULT:     -11.1      0.000      0.000
REMARK SMILES CN(CCOCC1CC1)C(=O)N1[C@@H]2CC[C@H]1[C@H](C(=O)NCCCCNC(=O)c1ccc(-c3c4nc(c(-c5c(F)c(F)c(F)c(F)c5F)c5ccc([nH]5)c(-c5c(F)c(F)c(F)c(F)c5F)c5nc(c(-c6c(F)c(F)c(F)c(F)c6F)c6ccc3[nH]6)C=C5)C=C4)cc1)C2
REMARK SMILES IDX 18 1 19 2 20 3 17 5 12 6 13 7 16 8 14 9 91 10 15 11 10 12
REMARK SMILES IDX 11 13 2 14 1 15 3 16 4 17 5 18 6 19 7 20 8 21 9 22 21 23
REMARK SMILES IDX 22 24 23 25 24 26 25 27 26 28 27 30 28 31 29 32 90 33 30 34
REMARK SMILES IDX 89 35 31 36 32 37 33 38 83 39 34 40 88 41 82 42 84 43 35 44
REMARK SMILES IDX 87 45 81 46 80 47 36 49 68 50 48 51 67 52 49 53 52 54 66 55
REMARK SMILES IDX 85 56 50 57 51 58 65 60 86 61 53 62 37 63 38 64 46 65 39 66
REMARK SMILES IDX 40 67 44 68 47 69 41 70 42 71 45 72 43 73 69 74 70 75 78 76
REMARK SMILES IDX 71 77 72 78 76 79 79 80 73 81 74 82 77 83 75 84 54 85 55 86
REMARK SMILES IDX 63 87 56 88 57 89 61 90 64 91 58 92 59 93 62 94 60 95
REMARK H PARENT 20 4 25 29 84 48 52 59
REMARK Flexibility Score: inf
ROOT
ATOM      1  C   UNL A   1      30.116  26.439  24.339  1.00  0.00     0.225 C 
ATOM      2  O   UNL A   1      28.966  26.331  23.887  1.00  0.00    -0.275 OA
ATOM      3  N   UNL A   1      30.920  27.296  23.660  1.00  0.00    -0.356 N 
ATOM      4  H   UNL A   1      30.433  27.814  22.980  1.00  0.00     0.163 HD
ENDROOT
BRANCH   1   5
ATOM      5  C   UNL A   1      30.498  25.566  25.536  1.00  0.00     0.103 C 
ATOM      6  N   UNL A   1      32.220  24.228  24.825  1.00  0.00    -0.318 N 
ATOM      7  C   UNL A   1      32.671  24.727  26.116  1.00  0.00     0.088 C 
ATOM      8  C   UNL A   1      30.803  24.119  25.106  1.00  0.00     0.099 C 
ATOM      9  C   UNL A   1      32.190  23.585  27.023  1.00  0.00     0.027 C 
ATOM     10  C   UNL A   1      31.733  25.934  26.372  1.00  0.00     0.040 C 
ATOM     11  C   UNL A   1      30.846  23.206  26.359  1.00  0.00     0.028 C 
BRANCH   6  12
ATOM     12  C   UNL A   1      33.055  23.690  23.896  1.00  0.00     0.320 C 
ATOM     13  O   UNL A   1      33.278  24.320  22.855  1.00  0.00    -0.248 OA
BRANCH  12  14
ATOM     14  N   UNL A   1      33.591  22.420  24.069  1.00  0.00    -0.325 N 
ATOM     15  C   UNL A   1      35.048  22.351  23.991  1.00  0.00     0.148 C 
BRANCH  14  16
ATOM     16  C   UNL A   1      32.882  21.134  24.035  1.00  0.00     0.149 C 
BRANCH  16  17
ATOM     17  C   UNL A   1      32.851  20.247  25.289  1.00  0.00     0.181 C 
BRANCH  17  18
ATOM     18  O   UNL A   1      32.165  19.010  25.290  1.00  0.00    -0.379 OA
BRANCH  18  19
ATOM     19  C   UNL A   1      32.392  18.074  24.246  1.00  0.00     0.163 C 
BRANCH  19  20
ATOM     20  C   UNL A   1      33.806  17.784  23.843  1.00  0.00     0.015 C 
ATOM     21  C   UNL A   1      34.634  16.781  24.603  1.00  0.00     0.006 C 
ATOM     22  C   UNL A   1      34.378  16.574  23.137  1.00  0.00     0.006 C 
ENDBRANCH  19  20
ENDBRANCH  18  19
ENDBRANCH  17  18
ENDBRANCH  16  17
ENDBRANCH  14  16
ENDBRANCH  12  14
ENDBRANCH   6  12
ENDBRANCH   1   5
BRANCH   3  23
ATOM     23  C   UNL A   1      32.341  27.626  23.705  1.00  0.00     0.116 C 
BRANCH  23  24
ATOM     24  C   UNL A   1      32.563  29.073  24.105  1.00  0.00     0.023 C 
BRANCH  24  25
ATOM     25  C   UNL A   1      31.773  29.592  25.284  1.00  0.00     0.023 C 
BRANCH  25  26
ATOM     26  C   UNL A   1      32.646  29.981  26.454  1.00  0.00     0.116 C 
BRANCH  26  27
ATOM     27  N   UNL A   1      32.551  31.392  26.826  1.00  0.00    -0.352 N 
ATOM     28  C   UNL A   1      33.452  32.185  27.504  1.00  0.00     0.251 C 
ATOM     29  H   UNL A   1      31.719  31.843  26.554  1.00  0.00     0.163 HD
ATOM     30  O   UNL A   1      33.175  33.342  27.801  1.00  0.00    -0.269 OA
BRANCH  28  31
ATOM     31  C   UNL A   1      34.742  31.603  27.922  1.00  0.00     0.039 A 
ATOM     32  C   UNL A   1      35.843  32.437  28.133  1.00  0.00     0.014 A 
ATOM     33  C   UNL A   1      34.823  30.247  28.222  1.00  0.00     0.014 A 
ATOM     34  C   UNL A   1      36.984  31.921  28.752  1.00  0.00     0.010 A 
ATOM     35  C   UNL A   1      35.873  29.788  28.995  1.00  0.00     0.010 A 
ATOM     36  C   UNL A   1      36.982  30.608  29.248  1.00  0.00    -0.014 A 
BRANCH  36  37
ATOM     37  C   UNL A   1      38.129  30.023  29.991  1.00  0.00     0.031 A 
ATOM     38  C   UNL A   1      38.339  30.419  31.431  1.00  0.00     0.074 A 
ATOM     39  C   UNL A   1      39.034  29.251  29.359  1.00  0.00     0.049 A 
ATOM     40  N   UNL A   1      39.379  30.231  32.203  1.00  0.00    -0.248 NA
ATOM     41  C   UNL A   1      37.267  31.209  32.061  1.00  0.00     0.031 C 
ATOM     42  C   UNL A   1      38.989  28.857  27.950  1.00  0.00     0.029 A 
ATOM     43  N   UNL A   1      40.185  28.668  29.826  1.00  0.00    -0.354 N 
ATOM     44  C   UNL A   1      39.108  30.936  33.369  1.00  0.00     0.074 A 
ATOM     45  C   UNL A   1      37.852  31.621  33.173  1.00  0.00     0.031 C 
ATOM     46  C   UNL A   1      40.037  28.063  27.679  1.00  0.00     0.029 A 
ATOM     47  C   UNL A   1      40.855  27.930  28.879  1.00  0.00     0.049 A 
ATOM     48  H   UNL A   1      40.504  28.769  30.752  1.00  0.00     0.167 HD
ATOM     49  C   UNL A   1      39.820  30.974  34.520  1.00  0.00     0.037 A 
ATOM     50  C   UNL A   1      41.999  27.227  28.977  1.00  0.00     0.037 A 
ATOM     51  C   UNL A   1      41.008  30.198  34.741  1.00  0.00     0.049 A 
ATOM     52  C   UNL A   1      42.724  27.203  30.296  1.00  0.00     0.074 A 
ATOM     53  C   UNL A   1      41.756  30.073  35.897  1.00  0.00     0.029 A 
ATOM     54  N   UNL A   1      41.603  29.388  33.784  1.00  0.00    -0.354 N 
ATOM     55  N   UNL A   1      42.433  27.829  31.411  1.00  0.00    -0.248 NA
ATOM     56  C   UNL A   1      43.932  26.370  30.374  1.00  0.00     0.031 C 
ATOM     57  C   UNL A   1      42.819  29.202  35.632  1.00  0.00     0.029 A 
ATOM     58  C   UNL A   1      42.708  28.757  34.324  1.00  0.00     0.049 A 
ATOM     59  H   UNL A   1      41.285  29.279  32.859  1.00  0.00     0.167 HD
ATOM     60  C   UNL A   1      43.398  27.442  32.330  1.00  0.00     0.074 A 
ATOM     61  C   UNL A   1      44.278  26.518  31.645  1.00  0.00     0.031 C 
ATOM     62  C   UNL A   1      43.548  27.820  33.624  1.00  0.00     0.037 A 
BRANCH  49  63
ATOM     63  C   UNL A   1      39.308  31.850  35.627  1.00  0.00     0.064 A 
ATOM     64  C   UNL A   1      39.718  33.186  35.763  1.00  0.00     0.173 A 
ATOM     65  C   UNL A   1      38.393  31.349  36.566  1.00  0.00     0.173 A 
ATOM     66  F   UNL A   1      40.602  33.712  34.902  1.00  0.00    -0.203 F 
ATOM     67  C   UNL A   1      39.269  33.972  36.821  1.00  0.00     0.198 A 
ATOM     68  C   UNL A   1      37.916  32.151  37.601  1.00  0.00     0.198 A 
ATOM     69  F   UNL A   1      37.963  30.081  36.482  1.00  0.00    -0.203 F 
ATOM     70  F   UNL A   1      39.733  35.220  36.969  1.00  0.00    -0.200 F 
ATOM     71  C   UNL A   1      38.364  33.456  37.735  1.00  0.00     0.200 A 
ATOM     72  F   UNL A   1      37.031  31.654  38.476  1.00  0.00    -0.200 F 
ATOM     73  F   UNL A   1      37.931  34.213  38.752  1.00  0.00    -0.200 F 
ENDBRANCH  49  63
BRANCH  50  74
ATOM     74  C   UNL A   1      42.498  26.446  27.814  1.00  0.00     0.064 A 
ATOM     75  C   UNL A   1      43.453  26.994  26.944  1.00  0.00     0.173 A 
ATOM     76  C   UNL A   1      42.043  25.147  27.546  1.00  0.00     0.173 A 
ATOM     77  F   UNL A   1      43.908  28.239  27.149  1.00  0.00    -0.203 F 
ATOM     78  C   UNL A   1      43.916  26.282  25.840  1.00  0.00     0.198 A 
ATOM     79  C   UNL A   1      42.526  24.427  26.455  1.00  0.00     0.198 A 
ATOM     80  F   UNL A   1      41.137  24.574  28.351  1.00  0.00    -0.203 F 
ATOM     81  F   UNL A   1      44.794  26.848  25.002  1.00  0.00    -0.200 F 
ATOM     82  C   UNL A   1      43.456  24.997  25.598  1.00  0.00     0.200 A 
ATOM     83  F   UNL A   1      42.091  23.179  26.234  1.00  0.00    -0.200 F 
ATOM     84  F   UNL A   1      43.903  24.311  24.537  1.00  0.00    -0.200 F 
ENDBRANCH  50  74
BRANCH  62  85
ATOM     85  C   UNL A   1      44.671  27.196  34.395  1.00  0.00     0.064 A 
ATOM     86  C   UNL A   1      45.933  27.802  34.475  1.00  0.00     0.173 A 
ATOM     87  C   UNL A   1      44.459  26.009  35.113  1.00  0.00     0.173 A 
ATOM     88  F   UNL A   1      46.185  28.930  33.795  1.00  0.00    -0.203 F 
ATOM     89  C   UNL A   1      46.950  27.229  35.232  1.00  0.00     0.198 A 
ATOM     90  C   UNL A   1      45.471  25.456  35.892  1.00  0.00     0.198 A 
ATOM     91  F   UNL A   1      43.265  25.399  35.074  1.00  0.00    -0.203 F 
ATOM     92  F   UNL A   1      48.161  27.803  35.265  1.00  0.00    -0.200 F 
ATOM     93  C   UNL A   1      46.716  26.062  35.945  1.00  0.00     0.200 A 
ATOM     94  F   UNL A   1      45.238  24.337  36.592  1.00  0.00    -0.200 F 
ATOM     95  F   UNL A   1      47.694  25.521  36.684  1.00  0.00    -0.200 F 
ENDBRANCH  62  85
ENDBRANCH  36  37
ENDBRANCH  28  31
ENDBRANCH  26  27
ENDBRANCH  25  26
ENDBRANCH  24  25
ENDBRANCH  23  24
ENDBRANCH   3  23
TORSDOF 18
ENDMDL
MODEL 2
REMARK VINA RESULT:     -11.1      1.341      3.757
REMARK SMILES CN(CCOCC1CC1)C(=O)N1[C@@H]2CC[C@H]1[C@H](C(=O)NCCCCNC(=O)c1ccc(-c3c4nc(c(-c5c(F)c(F)c(F)c(F)c5F)c5ccc([nH]5)c(-c5c(F)c(F)c(F)c(F)c5F)c5nc(c(-c6c(F)c(F)c(F)c(F)c6F)c6ccc3[nH]6)C=C5)C=C4)cc1)C2
REMARK SMILES IDX 18 1 19 2 20 3 17 5 12 6 13 7 16 8 14 9 91 10 15 11 10 12
REMARK SMILES IDX 11 13 2 14 1 15 3 16 4 17 5 18 6 19 7 20 8 21 9 22 21 23
REMARK SMILES IDX 22 24 23 25 24 26 25 27 26 28 27 30 28 31 29 32 90 33 30 34
REMARK SMILES IDX 89 35 31 36 32 37 33 38 83 39 34 40 88 41 82 42 84 43 35 44
REMARK SMILES IDX 87 45 81 46 80 47 36 49 68 50 48 51 67 52 49 53 52 54 66 55
REMARK SMILES IDX 85 56 50 57 51 58 65 60 86 61 53 62 37 63 38 64 46 65 39 66
REMARK SMILES IDX 40 67 44 68 47 69 41 70 42 71 45 72 43 73 69 74 70 75 78 76
REMARK SMILES IDX 71 77 72 78 76 79 79 80 73 81 74 82 77 83 75 84 54 85 55 86
REMARK SMILES IDX 63 87 56 88 57 89 61 90 64 91 58 92 59 93 62 94 60 95
REMARK H PARENT 20 4 25 29 84 48 52 59
REMARK Flexibility Score: inf
ROOT
ATOM      1  C   UNL A   1      33.970  25.605  23.811  1.00  0.00     0.225 C 
ATOM      2  O   UNL A   1      33.764  25.479  22.594  1.00  0.00    -0.275 OA
ATOM      3  N   UNL A   1      33.526  26.768  24.350  1.00  0.00    -0.356 N 
ATOM      4  H   UNL A   1      32.981  27.293  23.722  1.00  0.00     0.163 HD
ENDROOT
BRANCH   1   5
ATOM      5  C   UNL A   1      34.740  24.491  24.524  1.00  0.00     0.103 C 
ATOM      6  N   UNL A   1      33.164  22.999  25.264  1.00  0.00    -0.318 N 
ATOM      7  C   UNL A   1      34.184  22.160  24.651  1.00  0.00     0.088 C 
ATOM      8  C   UNL A   1      34.018  24.035  25.806  1.00  0.00     0.099 C 
ATOM      9  C   UNL A   1      35.036  21.835  25.887  1.00  0.00     0.027 C 
ATOM     10  C   UNL A   1      34.995  23.164  23.794  1.00  0.00     0.040 C 
ATOM     11  C   UNL A   1      34.981  23.171  26.662  1.00  0.00     0.028 C 
BRANCH   6  12
ATOM     12  C   UNL A   1      31.897  22.574  25.517  1.00  0.00     0.320 C 
ATOM     13  O   UNL A   1      31.615  21.385  25.323  1.00  0.00    -0.248 OA
BRANCH  12  14
ATOM     14  N   UNL A   1      30.909  23.468  25.910  1.00  0.00    -0.325 N 
ATOM     15  C   UNL A   1      29.950  22.941  26.876  1.00  0.00     0.148 C 
BRANCH  14  16
ATOM     16  C   UNL A   1      30.552  24.745  25.278  1.00  0.00     0.149 C 
BRANCH  16  17
ATOM     17  C   UNL A   1      30.463  24.840  23.748  1.00  0.00     0.181 C 
BRANCH  17  18
ATOM     18  O   UNL A   1      30.577  26.086  23.086  1.00  0.00    -0.379 OA
BRANCH  18  19
ATOM     19  C   UNL A   1      29.911  27.227  23.607  1.00  0.00     0.163 C 
BRANCH  19  20
ATOM     20  C   UNL A   1      30.461  28.584  23.287  1.00  0.00     0.015 C 
ATOM     21  C   UNL A   1      29.907  29.391  22.143  1.00  0.00     0.006 C 
ATOM     22  C   UNL A   1      29.862  29.951  23.536  1.00  0.00     0.006 C 
ENDBRANCH  19  20
ENDBRANCH  18  19
ENDBRANCH  17  18
ENDBRANCH  16  17
ENDBRANCH  14  16
ENDBRANCH  12  14
ENDBRANCH   6  12
ENDBRANCH   1   5
BRANCH   3  23
ATOM     23  C   UNL A   1      33.670  27.421  25.647  1.00  0.00     0.116 C 
BRANCH  23  24
ATOM     24  C   UNL A   1      32.327  27.610  26.327  1.00  0.00     0.023 C 
BRANCH  24  25
ATOM     25  C   UNL A   1      31.958  29.014  26.745  1.00  0.00     0.023 C 
BRANCH  25  26
ATOM     26  C   UNL A   1      32.836  30.068  26.111  1.00  0.00     0.116 C 
BRANCH  26  27
ATOM     27  N   UNL A   1      32.654  31.409  26.666  1.00  0.00    -0.352 N 
ATOM     28  C   UNL A   1      33.477  32.133  27.500  1.00  0.00     0.251 C 
ATOM     29  H   UNL A   1      31.820  31.861  26.405  1.00  0.00     0.163 HD
ATOM     30  O   UNL A   1      33.130  33.227  27.934  1.00  0.00    -0.269 OA
BRANCH  28  31
ATOM     31  C   UNL A   1      34.767  31.549  27.917  1.00  0.00     0.039 A 
ATOM     32  C   UNL A   1      35.867  32.380  28.134  1.00  0.00     0.014 A 
ATOM     33  C   UNL A   1      34.847  30.190  28.209  1.00  0.00     0.014 A 
ATOM     34  C   UNL A   1      37.007  31.861  28.751  1.00  0.00     0.010 A 
ATOM     35  C   UNL A   1      35.896  29.727  28.980  1.00  0.00     0.010 A 
ATOM     36  C   UNL A   1      37.004  30.545  29.239  1.00  0.00    -0.014 A 
BRANCH  36  37
ATOM     37  C   UNL A   1      38.150  29.954  29.980  1.00  0.00     0.031 A 
ATOM     38  C   UNL A   1      38.372  30.359  31.416  1.00  0.00     0.074 A 
ATOM     39  C   UNL A   1      39.045  29.170  29.348  1.00  0.00     0.049 A 
ATOM     40  N   UNL A   1      39.414  30.167  32.184  1.00  0.00    -0.248 NA
ATOM     41  C   UNL A   1      37.310  31.163  32.046  1.00  0.00     0.031 C 
ATOM     42  C   UNL A   1      38.988  28.767  27.942  1.00  0.00     0.029 A 
ATOM     43  N   UNL A   1      40.194  28.580  29.813  1.00  0.00    -0.354 N 
ATOM     44  C   UNL A   1      39.156  30.883  33.346  1.00  0.00     0.074 A 
ATOM     45  C   UNL A   1      37.906  31.577  33.152  1.00  0.00     0.031 C 
ATOM     46  C   UNL A   1      40.028  27.961  27.671  1.00  0.00     0.029 A 
ATOM     47  C   UNL A   1      40.851  27.829  28.867  1.00  0.00     0.049 A 
ATOM     48  H   UNL A   1      40.518  28.685  30.736  1.00  0.00     0.167 HD
ATOM     49  C   UNL A   1      39.875  30.922  34.492  1.00  0.00     0.037 A 
ATOM     50  C   UNL A   1      41.989  27.117  28.964  1.00  0.00     0.037 A 
ATOM     51  C   UNL A   1      41.057  30.137  34.712  1.00  0.00     0.049 A 
ATOM     52  C   UNL A   1      42.721  27.096  30.279  1.00  0.00     0.074 A 
ATOM     53  C   UNL A   1      41.811  30.013  35.865  1.00  0.00     0.029 A 
ATOM     54  N   UNL A   1      41.639  29.315  33.758  1.00  0.00    -0.354 N 
ATOM     55  N   UNL A   1      42.442  27.732  31.391  1.00  0.00    -0.248 NA
ATOM     56  C   UNL A   1      43.923  26.253  30.357  1.00  0.00     0.031 C 
ATOM     57  C   UNL A   1      42.864  29.131  35.601  1.00  0.00     0.029 A 
ATOM     58  C   UNL A   1      42.742  28.678  34.296  1.00  0.00     0.049 A 
ATOM     59  H   UNL A   1      41.316  29.202  32.835  1.00  0.00     0.167 HD
ATOM     60  C   UNL A   1      43.409  27.343  32.307  1.00  0.00     0.074 A 
ATOM     61  C   UNL A   1      44.277  26.407  31.624  1.00  0.00     0.031 C 
ATOM     62  C   UNL A   1      43.570  27.729  33.598  1.00  0.00     0.037 A 
BRANCH  49  63
ATOM     63  C   UNL A   1      39.377  31.810  35.597  1.00  0.00     0.064 A 
ATOM     64  C   UNL A   1      38.487  31.343  36.577  1.00  0.00     0.173 A 
ATOM     65  C   UNL A   1      39.796  33.146  35.679  1.00  0.00     0.173 A 
ATOM     66  F   UNL A   1      38.042  30.078  36.538  1.00  0.00    -0.203 F 
ATOM     67  C   UNL A   1      38.000  32.190  37.568  1.00  0.00     0.198 A 
ATOM     68  C   UNL A   1      39.337  33.981  36.696  1.00  0.00     0.198 A 
ATOM     69  F   UNL A   1      40.650  33.645  34.772  1.00  0.00    -0.203 F 
ATOM     70  F   UNL A   1      37.095  31.739  38.448  1.00  0.00    -0.200 F 
ATOM     71  C   UNL A   1      38.430  33.507  37.631  1.00  0.00     0.200 A 
ATOM     72  F   UNL A   1      39.764  35.249  36.762  1.00  0.00    -0.200 F 
ATOM     73  F   UNL A   1      37.963  34.321  38.586  1.00  0.00    -0.200 F 
ENDBRANCH  49  63
BRANCH  50  74
ATOM     74  C   UNL A   1      42.475  26.324  27.804  1.00  0.00     0.064 A 
ATOM     75  C   UNL A   1      41.964  25.042  27.552  1.00  0.00     0.173 A 
ATOM     76  C   UNL A   1      43.449  26.820  26.925  1.00  0.00     0.173 A 
ATOM     77  F   UNL A   1      41.043  24.516  28.373  1.00  0.00    -0.203 F 
ATOM     78  C   UNL A   1      42.424  24.279  26.481  1.00  0.00     0.198 A 
ATOM     79  C   UNL A   1      43.889  26.066  25.839  1.00  0.00     0.198 A 
ATOM     80  F   UNL A   1      43.963  28.044  27.115  1.00  0.00    -0.203 F 
ATOM     81  F   UNL A   1      41.950  23.040  26.291  1.00  0.00    -0.200 F 
ATOM     82  C   UNL A   1      43.382  24.793  25.622  1.00  0.00     0.200 A 
ATOM     83  F   UNL A   1      44.804  26.574  25.001  1.00  0.00    -0.200 F 
ATOM     84  F   UNL A   1      43.822  24.061  24.589  1.00  0.00    -0.200 F 
ENDBRANCH  50  74
BRANCH  62  85
ATOM     85  C   UNL A   1      44.691  27.100  34.367  1.00  0.00     0.064 A 
ATOM     86  C   UNL A   1      44.534  25.871  35.023  1.00  0.00     0.173 A 
ATOM     87  C   UNL A   1      45.955  27.709  34.394  1.00  0.00     0.173 A 
ATOM     88  F   UNL A   1      43.341  25.260  35.035  1.00  0.00    -0.203 F 
ATOM     89  C   UNL A   1      45.601  25.283  35.696  1.00  0.00     0.198 A 
ATOM     90  C   UNL A   1      47.026  27.103  35.044  1.00  0.00     0.198 A 
ATOM     91  F   UNL A   1      46.155  28.881  33.773  1.00  0.00    -0.203 F 
ATOM     92  F   UNL A   1      45.420  24.127  36.350  1.00  0.00    -0.200 F 
ATOM     93  C   UNL A   1      46.846  25.894  35.700  1.00  0.00     0.200 A 
ATOM     94  F   UNL A   1      48.232  27.688  35.034  1.00  0.00    -0.200 F 
ATOM     95  F   UNL A   1      47.874  25.319  36.338  1.00  0.00    -0.200 F 
ENDBRANCH  62  85
ENDBRANCH  36  37
ENDBRANCH  28  31
ENDBRANCH  26  27
ENDBRANCH  25  26
ENDBRANCH  24  25
ENDBRANCH  23  24
ENDBRANCH   3  23
TORSDOF 18
ENDMDL
MODEL 3
REMARK VINA RESULT:     -11.0      2.020      7.806
REMARK SMILES CN(CCOCC1CC1)C(=O)N1[C@@H]2CC[C@H]1[C@H](C(=O)NCCCCNC(=O)c1ccc(-c3c4nc(c(-c5c(F)c(F)c(F)c(F)c5F)c5ccc([nH]5)c(-c5c(F)c(F)c(F)c(F)c5F)c5nc(c(-c6c(F)c(F)c(F)c(F)c6F)c6ccc3[nH]6)C=C5)C=C4)cc1)C2
REMARK SMILES IDX 18 1 19 2 20 3 17 5 12 6 13 7 16 8 14 9 91 10 15 11 10 12
REMARK SMILES IDX 11 13 2 14 1 15 3 16 4 17 5 18 6 19 7 20 8 21 9 22 21 23
REMARK SMILES IDX 22 24 23 25 24 26 25 27 26 28 27 30 28 31 29 32 90 33 30 34
REMARK SMILES IDX 89 35 31 36 32 37 33 38 83 39 34 40 88 41 82 42 84 43 35 44
REMARK SMILES IDX 87 45 81 46 80 47 36 49 68 50 48 51 67 52 49 53 52 54 66 55
REMARK SMILES IDX 85 56 50 57 51 58 65 60 86 61 53 62 37 63 38 64 46 65 39 66
REMARK SMILES IDX 40 67 44 68 47 69 41 70 42 71 45 72 43 73 69 74 70 75 78 76
REMARK SMILES IDX 71 77 72 78 76 79 79 80 73 81 74 82 77 83 75 84 54 85 55 86
REMARK SMILES IDX 63 87 56 88 57 89 61 90 64 91 58 92 59 93 62 94 60 95
REMARK H PARENT 20 4 25 29 84 48 52 59
REMARK Flexibility Score: inf
ROOT
ATOM      1  C   UNL A   1      32.420  28.095  27.151  1.00  0.00     0.225 C 
ATOM      2  O   UNL A   1      31.415  27.845  27.835  1.00  0.00    -0.275 OA
ATOM      3  N   UNL A   1      33.397  28.777  27.799  1.00  0.00    -0.356 N 
ATOM      4  H   UNL A   1      33.226  28.861  28.764  1.00  0.00     0.163 HD
ENDROOT
BRANCH   1   5
ATOM      5  C   UNL A   1      32.406  27.674  25.681  1.00  0.00     0.103 C 
ATOM      6  N   UNL A   1      32.078  25.404  25.670  1.00  0.00    -0.318 N 
ATOM      7  C   UNL A   1      31.148  25.900  24.665  1.00  0.00     0.088 C 
ATOM      8  C   UNL A   1      33.157  26.347  25.464  1.00  0.00     0.099 C 
ATOM      9  C   UNL A   1      32.017  25.755  23.407  1.00  0.00     0.027 C 
ATOM     10  C   UNL A   1      31.061  27.413  24.984  1.00  0.00     0.040 C 
ATOM     11  C   UNL A   1      33.413  26.139  23.949  1.00  0.00     0.028 C 
BRANCH   6  12
ATOM     12  C   UNL A   1      31.977  24.174  26.243  1.00  0.00     0.320 C 
ATOM     13  O   UNL A   1      31.534  24.084  27.394  1.00  0.00    -0.248 OA
BRANCH  12  14
ATOM     14  N   UNL A   1      32.436  23.041  25.583  1.00  0.00    -0.325 N 
ATOM     15  C   UNL A   1      31.459  21.963  25.460  1.00  0.00     0.148 C 
BRANCH  14  16
ATOM     16  C   UNL A   1      33.825  22.692  25.258  1.00  0.00     0.149 C 
BRANCH  16  17
ATOM     17  C   UNL A   1      34.126  21.399  24.485  1.00  0.00     0.181 C 
BRANCH  17  18
ATOM     18  O   UNL A   1      34.393  20.187  25.166  1.00  0.00    -0.379 OA
BRANCH  18  19
ATOM     19  C   UNL A   1      33.692  19.005  24.807  1.00  0.00     0.163 C 
BRANCH  19  20
ATOM     20  C   UNL A   1      34.459  17.887  24.168  1.00  0.00     0.015 C 
ATOM     21  C   UNL A   1      34.127  16.451  24.476  1.00  0.00     0.006 C 
ATOM     22  C   UNL A   1      34.043  16.944  23.059  1.00  0.00     0.006 C 
ENDBRANCH  19  20
ENDBRANCH  18  19
ENDBRANCH  17  18
ENDBRANCH  16  17
ENDBRANCH  14  16
ENDBRANCH  12  14
ENDBRANCH   6  12
ENDBRANCH   1   5
BRANCH   3  23
ATOM     23  C   UNL A   1      34.645  29.416  27.394  1.00  0.00     0.116 C 
BRANCH  23  24
ATOM     24  C   UNL A   1      34.837  30.753  28.088  1.00  0.00     0.023 C 
BRANCH  24  25
ATOM     25  C   UNL A   1      34.293  31.976  27.388  1.00  0.00     0.023 C 
BRANCH  25  26
ATOM     26  C   UNL A   1      32.889  32.328  27.820  1.00  0.00     0.116 C 
BRANCH  26  27
ATOM     27  N   UNL A   1      32.603  33.762  27.814  1.00  0.00    -0.352 N 
ATOM     28  C   UNL A   1      33.194  34.777  28.534  1.00  0.00     0.251 C 
ATOM     29  H   UNL A   1      31.882  34.043  27.206  1.00  0.00     0.163 HD
ATOM     30  O   UNL A   1      32.774  35.928  28.461  1.00  0.00    -0.269 OA
BRANCH  28  31
ATOM     31  C   UNL A   1      34.307  34.454  29.446  1.00  0.00     0.039 A 
ATOM     32  C   UNL A   1      34.049  33.800  30.653  1.00  0.00     0.014 A 
ATOM     33  C   UNL A   1      35.619  34.693  29.046  1.00  0.00     0.014 A 
ATOM     34  C   UNL A   1      35.114  33.288  31.396  1.00  0.00     0.010 A 
ATOM     35  C   UNL A   1      36.650  34.029  29.684  1.00  0.00     0.010 A 
ATOM     36  C   UNL A   1      36.419  33.341  30.883  1.00  0.00    -0.014 A 
BRANCH  36  37
ATOM     37  C   UNL A   1      37.587  32.741  31.580  1.00  0.00     0.031 A 
ATOM     38  C   UNL A   1      38.335  31.617  30.908  1.00  0.00     0.074 A 
ATOM     39  C   UNL A   1      37.897  33.107  32.839  1.00  0.00     0.049 A 
ATOM     40  N   UNL A   1      39.222  30.793  31.404  1.00  0.00    -0.248 NA
ATOM     41  C   UNL A   1      37.974  31.329  29.509  1.00  0.00     0.031 C 
ATOM     42  C   UNL A   1      37.205  34.126  33.630  1.00  0.00     0.029 A 
ATOM     43  N   UNL A   1      38.877  32.647  33.683  1.00  0.00    -0.354 N 
ATOM     44  C   UNL A   1      39.462  29.859  30.405  1.00  0.00     0.074 A 
ATOM     45  C   UNL A   1      38.572  30.166  29.310  1.00  0.00     0.031 C 
ATOM     46  C   UNL A   1      37.808  34.244  34.824  1.00  0.00     0.029 A 
ATOM     47  C   UNL A   1      38.897  33.278  34.904  1.00  0.00     0.049 A 
ATOM     48  H   UNL A   1      39.506  31.930  33.438  1.00  0.00     0.167 HD
ATOM     49  C   UNL A   1      40.375  28.860  30.381  1.00  0.00     0.037 A 
ATOM     50  C   UNL A   1      39.708  33.093  35.962  1.00  0.00     0.037 A 
ATOM     51  C   UNL A   1      41.331  28.637  31.430  1.00  0.00     0.049 A 
ATOM     52  C   UNL A   1      40.782  32.042  35.877  1.00  0.00     0.074 A 
ATOM     53  C   UNL A   1      42.370  27.726  31.473  1.00  0.00     0.029 A 
ATOM     54  N   UNL A   1      41.378  29.361  32.612  1.00  0.00    -0.354 N 
ATOM     55  N   UNL A   1      41.039  31.198  34.906  1.00  0.00    -0.248 NA
ATOM     56  C   UNL A   1      41.685  31.920  37.030  1.00  0.00     0.031 C 
ATOM     57  C   UNL A   1      43.034  27.884  32.694  1.00  0.00     0.029 A 
ATOM     58  C   UNL A   1      42.431  28.920  33.392  1.00  0.00     0.049 A 
ATOM     59  H   UNL A   1      40.755  30.083  32.859  1.00  0.00     0.167 HD
ATOM     60  C   UNL A   1      42.147  30.470  35.315  1.00  0.00     0.074 A 
ATOM     61  C   UNL A   1      42.522  30.979  36.618  1.00  0.00     0.031 C 
ATOM     62  C   UNL A   1      42.795  29.467  34.673  1.00  0.00     0.037 A 
BRANCH  49  63
ATOM     63  C   UNL A   1      40.403  27.970  29.172  1.00  0.00     0.064 A 
ATOM     64  C   UNL A   1      39.647  26.787  29.107  1.00  0.00     0.173 A 
ATOM     65  C   UNL A   1      41.192  28.302  28.061  1.00  0.00     0.173 A 
ATOM     66  F   UNL A   1      38.886  26.414  30.146  1.00  0.00    -0.203 F 
ATOM     67  C   UNL A   1      39.718  25.950  27.998  1.00  0.00     0.198 A 
ATOM     68  C   UNL A   1      41.230  27.480  26.936  1.00  0.00     0.198 A 
ATOM     69  F   UNL A   1      41.931  29.421  28.065  1.00  0.00    -0.203 F 
ATOM     70  F   UNL A   1      39.044  24.791  27.992  1.00  0.00    -0.200 F 
ATOM     71  C   UNL A   1      40.504  26.299  26.910  1.00  0.00     0.200 A 
ATOM     72  F   UNL A   1      41.980  27.826  25.881  1.00  0.00    -0.200 F 
ATOM     73  F   UNL A   1      40.570  25.493  25.842  1.00  0.00    -0.200 F 
ENDBRANCH  49  63
BRANCH  50  74
ATOM     74  C   UNL A   1      39.574  33.955  37.166  1.00  0.00     0.064 A 
ATOM     75  C   UNL A   1      38.853  33.511  38.285  1.00  0.00     0.173 A 
ATOM     76  C   UNL A   1      40.158  35.228  37.232  1.00  0.00     0.173 A 
ATOM     77  F   UNL A   1      38.261  32.307  38.264  1.00  0.00    -0.203 F 
ATOM     78  C   UNL A   1      38.702  34.315  39.412  1.00  0.00     0.198 A 
ATOM     79  C   UNL A   1      40.028  36.021  38.371  1.00  0.00     0.198 A 
ATOM     80  F   UNL A   1      40.867  35.697  36.194  1.00  0.00    -0.203 F 
ATOM     81  F   UNL A   1      37.969  33.883  40.447  1.00  0.00    -0.200 F 
ATOM     82  C   UNL A   1      39.294  35.568  39.457  1.00  0.00     0.200 A 
ATOM     83  F   UNL A   1      40.616  37.225  38.417  1.00  0.00    -0.200 F 
ATOM     84  F   UNL A   1      39.151  36.340  40.543  1.00  0.00    -0.200 F 
ENDBRANCH  50  74
BRANCH  62  85
ATOM     85  C   UNL A   1      44.005  28.890  35.345  1.00  0.00     0.064 A 
ATOM     86  C   UNL A   1      45.289  29.401  35.110  1.00  0.00     0.173 A 
ATOM     87  C   UNL A   1      43.863  27.856  36.283  1.00  0.00     0.173 A 
ATOM     88  F   UNL A   1      45.473  30.381  34.214  1.00  0.00    -0.203 F 
ATOM     89  C   UNL A   1      46.394  28.881  35.777  1.00  0.00     0.198 A 
ATOM     90  C   UNL A   1      44.968  27.359  36.968  1.00  0.00     0.198 A 
ATOM     91  F   UNL A   1      42.653  27.342  36.546  1.00  0.00    -0.203 F 
ATOM     92  F   UNL A   1      47.618  29.356  35.511  1.00  0.00    -0.200 F 
ATOM     93  C   UNL A   1      46.232  27.867  36.710  1.00  0.00     0.200 A 
ATOM     94  F   UNL A   1      44.808  26.389  37.879  1.00  0.00    -0.200 F 
ATOM     95  F   UNL A   1      47.296  27.377  37.361  1.00  0.00    -0.200 F 
ENDBRANCH  62  85
ENDBRANCH  36  37
ENDBRANCH  28  31
ENDBRANCH  26  27
ENDBRANCH  25  26
ENDBRANCH  24  25
ENDBRANCH  23  24
ENDBRANCH   3  23
TORSDOF 18
ENDMDL
