MODEL 1
REMARK VINA RESULT:     -12.5      0.000      0.000
REMARK SMILES CC1(C)C(CNC(=O)N2C[C@H](O)C[C@@H]2C(=O)NCCCCNC(=O)c2ccc(-c3c4nc(c(-c5c(F)c(F)c(F)c(F)c5F)c5ccc([nH]5)c(-c5c(F)c(F)c(F)c(F)c5F)c5nc(c(-c6c(F)c(F)c(F)c(F)c6F)c6ccc3[nH]6)C=C5)C=C4)cc2)C1(C)C
REMARK SMILES IDX 19 1 18 2 17 3 15 4 16 5 14 7 9 8 10 9 11 10 13 11 7 12 6 13
REMARK SMILES IDX 8 15 5 16 4 17 1 18 2 19 3 20 88 21 89 22 90 23 12 24 20 26
REMARK SMILES IDX 21 27 22 28 23 29 24 31 25 32 26 33 87 34 27 35 86 36 28 37
REMARK SMILES IDX 29 38 30 39 80 40 31 41 85 42 79 43 81 44 32 45 84 46 78 47
REMARK SMILES IDX 77 48 33 50 65 51 45 52 64 53 46 54 49 55 63 56 82 57 47 58
REMARK SMILES IDX 48 59 62 61 83 62 50 63 34 64 35 65 43 66 36 67 37 68 41 69
REMARK SMILES IDX 44 70 38 71 39 72 42 73 40 74 66 75 67 76 75 77 68 78 69 79
REMARK SMILES IDX 73 80 76 81 70 82 71 83 74 84 72 85 51 86 52 87 60 88 53 89
REMARK SMILES IDX 54 90 58 91 61 92 55 93 56 94 59 95 57 96
REMARK H PARENT 17 6 6 14 12 25 22 30 81 49 49 60
REMARK Flexibility Score: inf
ROOT
ATOM      1  C   UNL A   1      31.514  30.506  26.517  1.00  0.00     0.023 C 
ENDROOT
BRANCH   1   2
ATOM      2  C   UNL A   1      32.861  29.872  26.182  1.00  0.00     0.116 C 
BRANCH   2   3
ATOM      3  N   UNL A   1      33.150  29.897  24.761  1.00  0.00    -0.354 N 
ATOM      4  C   UNL A   1      32.819  28.982  23.802  1.00  0.00     0.242 C 
ATOM      5  O   UNL A   1      33.021  29.279  22.621  1.00  0.00    -0.273 OA
ATOM      6  H   UNL A   1      33.653  30.681  24.443  1.00  0.00     0.163 HD
BRANCH   4   7
ATOM      7  C   UNL A   1      32.098  27.686  24.212  1.00  0.00     0.179 C 
ATOM      8  N   UNL A   1      32.326  26.643  23.208  1.00  0.00    -0.310 N 
ATOM      9  C   UNL A   1      31.056  26.173  22.670  1.00  0.00     0.154 C 
ATOM     10  C   UNL A   1      30.149  27.384  22.840  1.00  0.00     0.136 C 
ATOM     11  C   UNL A   1      30.581  27.924  24.201  1.00  0.00     0.069 C 
BRANCH   8  12
ATOM     12  C   UNL A   1      33.542  26.043  23.130  1.00  0.00     0.318 C 
ATOM     13  N   UNL A   1      34.124  25.546  24.244  1.00  0.00    -0.338 N 
ATOM     14  H   UNL A   1      35.107  25.494  24.219  1.00  0.00     0.165 HD
ATOM     15  O   UNL A   1      34.115  25.884  22.051  1.00  0.00    -0.249 OA
BRANCH  13  16
ATOM     16  C   UNL A   1      33.513  25.079  25.471  1.00  0.00     0.122 C 
BRANCH  16  17
ATOM     17  C   UNL A   1      34.018  23.716  25.826  1.00  0.00     0.021 C 
ATOM     18  C   UNL A   1      34.103  21.804  27.577  1.00  0.00     0.012 C 
ATOM     19  C   UNL A   1      33.274  22.668  26.647  1.00  0.00    -0.025 C 
ATOM     20  C   UNL A   1      31.915  22.976  27.233  1.00  0.00     0.012 C 
ATOM     21  C   UNL A   1      33.450  22.487  25.121  1.00  0.00    -0.025 C 
ATOM     22  C   UNL A   1      34.456  21.489  24.585  1.00  0.00     0.012 C 
ATOM     23  C   UNL A   1      32.273  22.643  24.181  1.00  0.00     0.012 C 
ENDBRANCH  16  17
ENDBRANCH  13  16
ENDBRANCH   8  12
BRANCH  10  24
ATOM     24  O   UNL A   1      30.392  28.353  21.819  1.00  0.00    -0.391 OA
ATOM     25  H   UNL A   1      30.816  27.923  21.060  1.00  0.00     0.211 HD
ENDBRANCH  10  24
ENDBRANCH   4   7
ENDBRANCH   2   3
ENDBRANCH   1   2
BRANCH   1  26
ATOM     26  C   UNL A   1      31.499  32.038  26.517  1.00  0.00     0.023 C 
BRANCH  26  27
ATOM     27  C   UNL A   1      32.675  32.708  27.219  1.00  0.00     0.116 C 
BRANCH  27  28
ATOM     28  N   UNL A   1      32.403  34.087  27.594  1.00  0.00    -0.352 N 
ATOM     29  C   UNL A   1      32.999  34.866  28.555  1.00  0.00     0.251 C 
ATOM     30  H   UNL A   1      31.685  34.526  27.084  1.00  0.00     0.163 HD
ATOM     31  O   UNL A   1      32.532  35.972  28.822  1.00  0.00    -0.269 OA
BRANCH  29  32
ATOM     32  C   UNL A   1      34.180  34.373  29.298  1.00  0.00     0.039 A 
ATOM     33  C   UNL A   1      33.981  33.698  30.506  1.00  0.00     0.014 A 
ATOM     34  C   UNL A   1      35.477  34.575  28.820  1.00  0.00     0.014 A 
ATOM     35  C   UNL A   1      35.074  33.163  31.194  1.00  0.00     0.010 A 
ATOM     36  C   UNL A   1      36.558  33.976  29.466  1.00  0.00     0.010 A 
ATOM     37  C   UNL A   1      36.369  33.261  30.659  1.00  0.00    -0.014 A 
BRANCH  37  38
ATOM     38  C   UNL A   1      37.530  32.612  31.326  1.00  0.00     0.031 A 
ATOM     39  C   UNL A   1      38.251  31.472  30.661  1.00  0.00     0.074 A 
ATOM     40  C   UNL A   1      37.901  33.013  32.558  1.00  0.00     0.049 A 
ATOM     41  N   UNL A   1      39.236  30.738  31.113  1.00  0.00    -0.248 NA
ATOM     42  C   UNL A   1      37.788  31.090  29.318  1.00  0.00     0.031 C 
ATOM     43  C   UNL A   1      37.262  34.082  33.328  1.00  0.00     0.029 A 
ATOM     44  N   UNL A   1      38.901  32.563  33.385  1.00  0.00    -0.354 N 
ATOM     45  C   UNL A   1      39.504  29.807  30.118  1.00  0.00     0.074 A 
ATOM     46  C   UNL A   1      38.541  30.031  29.061  1.00  0.00     0.031 C 
ATOM     47  C   UNL A   1      37.899  34.220  34.502  1.00  0.00     0.029 A 
ATOM     48  C   UNL A   1      38.961  33.222  34.589  1.00  0.00     0.049 A 
ATOM     49  H   UNL A   1      39.518  31.836  33.139  1.00  0.00     0.167 HD
ATOM     50  C   UNL A   1      40.481  28.868  30.075  1.00  0.00     0.037 A 
ATOM     51  C   UNL A   1      39.770  33.035  35.650  1.00  0.00     0.037 A 
ATOM     52  C   UNL A   1      41.448  28.656  31.122  1.00  0.00     0.049 A 
ATOM     53  C   UNL A   1      40.824  31.960  35.589  1.00  0.00     0.074 A 
ATOM     54  C   UNL A   1      42.502  27.759  31.152  1.00  0.00     0.029 A 
ATOM     55  N   UNL A   1      41.477  29.346  32.325  1.00  0.00    -0.354 N 
ATOM     56  N   UNL A   1      41.108  31.131  34.616  1.00  0.00    -0.248 NA
ATOM     57  C   UNL A   1      41.673  31.798  36.780  1.00  0.00     0.031 C 
ATOM     58  C   UNL A   1      43.136  27.868  32.393  1.00  0.00     0.029 A 
ATOM     59  C   UNL A   1      42.516  28.877  33.114  1.00  0.00     0.049 A 
ATOM     60  H   UNL A   1      40.852  30.062  32.580  1.00  0.00     0.167 HD
ATOM     61  C   UNL A   1      42.188  30.376  35.059  1.00  0.00     0.074 A 
ATOM     62  C   UNL A   1      42.517  30.857  36.383  1.00  0.00     0.031 C 
ATOM     63  C   UNL A   1      42.844  29.374  34.426  1.00  0.00     0.037 A 
BRANCH  50  64
ATOM     64  C   UNL A   1      40.559  27.998  28.854  1.00  0.00     0.064 A 
ATOM     65  C   UNL A   1      39.831  26.801  28.757  1.00  0.00     0.173 A 
ATOM     66  C   UNL A   1      41.326  28.387  27.746  1.00  0.00     0.173 A 
ATOM     67  F   UNL A   1      39.087  26.378  29.790  1.00  0.00    -0.203 F 
ATOM     68  C   UNL A   1      39.891  26.016  27.609  1.00  0.00     0.198 A 
ATOM     69  C   UNL A   1      41.358  27.616  26.587  1.00  0.00     0.198 A 
ATOM     70  F   UNL A   1      42.036  29.526  27.781  1.00  0.00    -0.203 F 
ATOM     71  F   UNL A   1      39.224  24.854  27.558  1.00  0.00    -0.200 F 
ATOM     72  C   UNL A   1      40.646  26.428  26.522  1.00  0.00     0.200 A 
ATOM     73  F   UNL A   1      42.075  28.025  25.531  1.00  0.00    -0.200 F 
ATOM     74  F   UNL A   1      40.693  25.677  25.413  1.00  0.00    -0.200 F 
ENDBRANCH  50  64
BRANCH  51  75
ATOM     75  C   UNL A   1      39.632  33.890  36.860  1.00  0.00     0.064 A 
ATOM     76  C   UNL A   1      38.844  33.481  37.945  1.00  0.00     0.173 A 
ATOM     77  C   UNL A   1      40.257  35.143  36.945  1.00  0.00     0.173 A 
ATOM     78  F   UNL A   1      38.207  32.301  37.902  1.00  0.00    -0.203 F 
ATOM     79  C   UNL A   1      38.660  34.304  39.053  1.00  0.00     0.198 A 
ATOM     80  C   UNL A   1      40.100  35.951  38.069  1.00  0.00     0.198 A 
ATOM     81  F   UNL A   1      41.025  35.582  35.937  1.00  0.00    -0.203 F 
ATOM     82  F   UNL A   1      37.851  33.914  40.048  1.00  0.00    -0.200 F 
ATOM     83  C   UNL A   1      39.292  35.537  39.117  1.00  0.00     0.200 A 
ATOM     84  F   UNL A   1      40.725  37.135  38.133  1.00  0.00    -0.200 F 
ATOM     85  F   UNL A   1      39.113  36.329  40.183  1.00  0.00    -0.200 F 
ENDBRANCH  51  75
BRANCH  63  86
ATOM     86  C   UNL A   1      44.017  28.759  35.136  1.00  0.00     0.064 A 
ATOM     87  C   UNL A   1      45.317  29.265  34.994  1.00  0.00     0.173 A 
ATOM     88  C   UNL A   1      43.828  27.668  35.999  1.00  0.00     0.173 A 
ATOM     89  F   UNL A   1      45.554  30.296  34.169  1.00  0.00    -0.203 F 
ATOM     90  C   UNL A   1      46.390  28.683  35.666  1.00  0.00     0.198 A 
ATOM     91  C   UNL A   1      44.897  27.111  36.697  1.00  0.00     0.198 A 
ATOM     92  F   UNL A   1      42.604  27.150  36.178  1.00  0.00    -0.203 F 
ATOM     93  F   UNL A   1      47.631  29.148  35.472  1.00  0.00    -0.200 F 
ATOM     94  C   UNL A   1      46.177  27.612  36.523  1.00  0.00     0.200 A 
ATOM     95  F   UNL A   1      44.687  26.089  37.537  1.00  0.00    -0.200 F 
ATOM     96  F   UNL A   1      47.209  27.061  37.175  1.00  0.00    -0.200 F 
ENDBRANCH  63  86
ENDBRANCH  37  38
ENDBRANCH  29  32
ENDBRANCH  27  28
ENDBRANCH  26  27
ENDBRANCH   1  26
TORSDOF 15
ENDMDL
MODEL 2
REMARK VINA RESULT:     -12.4      5.569     10.898
REMARK SMILES CC1(C)C(CNC(=O)N2C[C@H](O)C[C@@H]2C(=O)NCCCCNC(=O)c2ccc(-c3c4nc(c(-c5c(F)c(F)c(F)c(F)c5F)c5ccc([nH]5)c(-c5c(F)c(F)c(F)c(F)c5F)c5nc(c(-c6c(F)c(F)c(F)c(F)c6F)c6ccc3[nH]6)C=C5)C=C4)cc2)C1(C)C
REMARK SMILES IDX 19 1 18 2 17 3 15 4 16 5 14 7 9 8 10 9 11 10 13 11 7 12 6 13
REMARK SMILES IDX 8 15 5 16 4 17 1 18 2 19 3 20 88 21 89 22 90 23 12 24 20 26
REMARK SMILES IDX 21 27 22 28 23 29 24 31 25 32 26 33 87 34 27 35 86 36 28 37
REMARK SMILES IDX 29 38 30 39 80 40 31 41 85 42 79 43 81 44 32 45 84 46 78 47
REMARK SMILES IDX 77 48 33 50 65 51 45 52 64 53 46 54 49 55 63 56 82 57 47 58
REMARK SMILES IDX 48 59 62 61 83 62 50 63 34 64 35 65 43 66 36 67 37 68 41 69
REMARK SMILES IDX 44 70 38 71 39 72 42 73 40 74 66 75 67 76 75 77 68 78 69 79
REMARK SMILES IDX 73 80 76 81 70 82 71 83 74 84 72 85 51 86 52 87 60 88 53 89
REMARK SMILES IDX 54 90 58 91 61 92 55 93 56 94 59 95 57 96
REMARK H PARENT 17 6 6 14 12 25 22 30 81 49 49 60
REMARK Flexibility Score: inf
ROOT
ATOM      1  C   UNL A   1      37.183  20.884  24.635  1.00  0.00     0.023 C 
ENDROOT
BRANCH   1   2
ATOM      2  C   UNL A   1      35.753  20.769  25.154  1.00  0.00     0.116 C 
BRANCH   2   3
ATOM      3  N   UNL A   1      35.406  21.837  26.071  1.00  0.00    -0.354 N 
ATOM      4  C   UNL A   1      34.259  22.576  26.134  1.00  0.00     0.242 C 
ATOM      5  O   UNL A   1      34.103  23.328  27.100  1.00  0.00    -0.273 OA
ATOM      6  H   UNL A   1      36.091  22.062  26.742  1.00  0.00     0.163 HD
BRANCH   4   7
ATOM      7  C   UNL A   1      33.158  22.351  25.081  1.00  0.00     0.179 C 
ATOM      8  N   UNL A   1      32.694  23.637  24.555  1.00  0.00    -0.310 N 
ATOM      9  C   UNL A   1      31.262  23.788  24.780  1.00  0.00     0.154 C 
ATOM     10  C   UNL A   1      31.023  22.933  26.017  1.00  0.00     0.136 C 
ATOM     11  C   UNL A   1      31.928  21.730  25.758  1.00  0.00     0.069 C 
BRANCH   8  12
ATOM     12  C   UNL A   1      33.486  24.338  23.702  1.00  0.00     0.318 C 
ATOM     13  N   UNL A   1      33.875  25.593  24.016  1.00  0.00    -0.338 N 
ATOM     14  H   UNL A   1      34.087  26.173  23.250  1.00  0.00     0.165 HD
ATOM     15  O   UNL A   1      33.914  23.837  22.661  1.00  0.00    -0.249 OA
BRANCH  13  16
ATOM     16  C   UNL A   1      34.025  26.210  25.318  1.00  0.00     0.122 C 
BRANCH  16  17
ATOM     17  C   UNL A   1      32.764  26.908  25.720  1.00  0.00     0.021 C 
ATOM     18  C   UNL A   1      31.473  28.203  27.560  1.00  0.00     0.012 C 
ATOM     19  C   UNL A   1      32.664  28.132  26.624  1.00  0.00    -0.025 C 
ATOM     20  C   UNL A   1      33.904  28.725  27.252  1.00  0.00     0.012 C 
ATOM     21  C   UNL A   1      32.414  28.260  25.103  1.00  0.00    -0.025 C 
ATOM     22  C   UNL A   1      31.003  28.418  24.575  1.00  0.00     0.012 C 
ATOM     23  C   UNL A   1      33.419  28.955  24.208  1.00  0.00     0.012 C 
ENDBRANCH  16  17
ENDBRANCH  13  16
ENDBRANCH   8  12
BRANCH  10  24
ATOM     24  O   UNL A   1      31.431  23.619  27.201  1.00  0.00    -0.391 OA
ATOM     25  H   UNL A   1      32.355  23.400  27.399  1.00  0.00     0.211 HD
ENDBRANCH  10  24
ENDBRANCH   4   7
ENDBRANCH   2   3
ENDBRANCH   1   2
BRANCH   1  26
ATOM     26  C   UNL A   1      38.102  19.713  24.995  1.00  0.00     0.023 C 
BRANCH  26  27
ATOM     27  C   UNL A   1      39.283  20.055  25.896  1.00  0.00     0.116 C 
BRANCH  27  28
ATOM     28  N   UNL A   1      40.323  19.037  25.881  1.00  0.00    -0.352 N 
ATOM     29  C   UNL A   1      41.681  19.171  26.037  1.00  0.00     0.251 C 
ATOM     30  H   UNL A   1      40.006  18.117  25.738  1.00  0.00     0.163 HD
ATOM     31  O   UNL A   1      42.417  18.203  25.851  1.00  0.00    -0.269 OA
BRANCH  29  32
ATOM     32  C   UNL A   1      42.272  20.480  26.394  1.00  0.00     0.039 A 
ATOM     33  C   UNL A   1      42.820  21.270  25.379  1.00  0.00     0.014 A 
ATOM     34  C   UNL A   1      42.297  20.932  27.716  1.00  0.00     0.014 A 
ATOM     35  C   UNL A   1      43.323  22.539  25.678  1.00  0.00     0.010 A 
ATOM     36  C   UNL A   1      42.729  22.226  28.001  1.00  0.00     0.010 A 
ATOM     37  C   UNL A   1      43.244  23.046  26.986  1.00  0.00    -0.014 A 
BRANCH  37  38
ATOM     38  C   UNL A   1      43.684  24.431  27.304  1.00  0.00     0.031 A 
ATOM     39  C   UNL A   1      42.681  25.473  27.716  1.00  0.00     0.074 A 
ATOM     40  C   UNL A   1      44.982  24.769  27.166  1.00  0.00     0.049 A 
ATOM     41  N   UNL A   1      42.861  26.746  27.966  1.00  0.00    -0.248 NA
ATOM     42  C   UNL A   1      41.283  25.031  27.844  1.00  0.00     0.031 C 
ATOM     43  C   UNL A   1      46.050  23.863  26.737  1.00  0.00     0.029 A 
ATOM     44  N   UNL A   1      45.624  25.966  27.362  1.00  0.00    -0.354 N 
ATOM     45  C   UNL A   1      41.606  27.255  28.271  1.00  0.00     0.074 A 
ATOM     46  C   UNL A   1      40.662  26.169  28.120  1.00  0.00     0.031 C 
ATOM     47  C   UNL A   1      47.215  24.530  26.725  1.00  0.00     0.029 A 
ATOM     48  C   UNL A   1      46.972  25.920  27.101  1.00  0.00     0.049 A 
ATOM     49  H   UNL A   1      45.162  26.783  27.663  1.00  0.00     0.167 HD
ATOM     50  C   UNL A   1      41.272  28.508  28.667  1.00  0.00     0.037 A 
ATOM     51  C   UNL A   1      47.906  26.890  27.146  1.00  0.00     0.037 A 
ATOM     52  C   UNL A   1      42.215  29.585  28.831  1.00  0.00     0.049 A 
ATOM     53  C   UNL A   1      47.500  28.282  27.554  1.00  0.00     0.074 A 
ATOM     54  C   UNL A   1      41.979  30.877  29.269  1.00  0.00     0.029 A 
ATOM     55  N   UNL A   1      43.572  29.497  28.558  1.00  0.00    -0.354 N 
ATOM     56  N   UNL A   1      46.321  28.734  27.903  1.00  0.00    -0.248 NA
ATOM     57  C   UNL A   1      48.562  29.300  27.578  1.00  0.00     0.031 C 
ATOM     58  C   UNL A   1      43.183  31.586  29.211  1.00  0.00     0.029 A 
ATOM     59  C   UNL A   1      44.182  30.719  28.796  1.00  0.00     0.049 A 
ATOM     60  H   UNL A   1      44.033  28.687  28.243  1.00  0.00     0.167 HD
ATOM     61  C   UNL A   1      46.503  30.074  28.222  1.00  0.00     0.074 A 
ATOM     62  C   UNL A   1      47.911  30.357  28.040  1.00  0.00     0.031 C 
ATOM     63  C   UNL A   1      45.587  30.986  28.626  1.00  0.00     0.037 A 
BRANCH  50  64
ATOM     64  C   UNL A   1      39.825  28.785  28.957  1.00  0.00     0.064 A 
ATOM     65  C   UNL A   1      39.288  28.620  30.243  1.00  0.00     0.173 A 
ATOM     66  C   UNL A   1      38.975  29.272  27.951  1.00  0.00     0.173 A 
ATOM     67  F   UNL A   1      40.053  28.150  31.239  1.00  0.00    -0.203 F 
ATOM     68  C   UNL A   1      37.950  28.905  30.504  1.00  0.00     0.198 A 
ATOM     69  C   UNL A   1      37.647  29.588  28.224  1.00  0.00     0.198 A 
ATOM     70  F   UNL A   1      39.438  29.456  26.705  1.00  0.00    -0.203 F 
ATOM     71  F   UNL A   1      37.449  28.695  31.730  1.00  0.00    -0.200 F 
ATOM     72  C   UNL A   1      37.133  29.397  29.498  1.00  0.00     0.200 A 
ATOM     73  F   UNL A   1      36.863  30.079  27.253  1.00  0.00    -0.200 F 
ATOM     74  F   UNL A   1      35.849  29.683  29.754  1.00  0.00    -0.200 F 
ENDBRANCH  50  64
BRANCH  51  75
ATOM     75  C   UNL A   1      49.323  26.584  26.809  1.00  0.00     0.064 A 
ATOM     76  C   UNL A   1      50.254  26.282  27.812  1.00  0.00     0.173 A 
ATOM     77  C   UNL A   1      49.783  26.619  25.484  1.00  0.00     0.173 A 
ATOM     78  F   UNL A   1      49.868  26.257  29.097  1.00  0.00    -0.203 F 
ATOM     79  C   UNL A   1      51.594  26.056  27.509  1.00  0.00     0.198 A 
ATOM     80  C   UNL A   1      51.117  26.361  25.177  1.00  0.00     0.198 A 
ATOM     81  F   UNL A   1      48.934  26.901  24.484  1.00  0.00    -0.203 F 
ATOM     82  F   UNL A   1      52.473  25.830  28.495  1.00  0.00    -0.200 F 
ATOM     83  C   UNL A   1      52.025  26.092  26.191  1.00  0.00     0.200 A 
ATOM     84  F   UNL A   1      51.526  26.381  23.901  1.00  0.00    -0.200 F 
ATOM     85  F   UNL A   1      53.315  25.878  25.900  1.00  0.00    -0.200 F 
ENDBRANCH  51  75
BRANCH  63  86
ATOM     86  C   UNL A   1      46.082  32.369  28.946  1.00  0.00     0.064 A 
ATOM     87  C   UNL A   1      46.148  33.376  27.973  1.00  0.00     0.173 A 
ATOM     88  C   UNL A   1      46.463  32.698  30.258  1.00  0.00     0.173 A 
ATOM     89  F   UNL A   1      45.811  33.109  26.702  1.00  0.00    -0.203 F 
ATOM     90  C   UNL A   1      46.605  34.652  28.293  1.00  0.00     0.198 A 
ATOM     91  C   UNL A   1      46.885  33.984  30.581  1.00  0.00     0.198 A 
ATOM     92  F   UNL A   1      46.411  31.774  31.230  1.00  0.00    -0.203 F 
ATOM     93  F   UNL A   1      46.711  35.583  27.334  1.00  0.00    -0.200 F 
ATOM     94  C   UNL A   1      46.965  34.958  29.597  1.00  0.00     0.200 A 
ATOM     95  F   UNL A   1      47.215  34.281  31.845  1.00  0.00    -0.200 F 
ATOM     96  F   UNL A   1      47.395  36.189  29.904  1.00  0.00    -0.200 F 
ENDBRANCH  63  86
ENDBRANCH  37  38
ENDBRANCH  29  32
ENDBRANCH  27  28
ENDBRANCH  26  27
ENDBRANCH   1  26
TORSDOF 15
ENDMDL
MODEL 3
REMARK VINA RESULT:     -12.3      0.466      1.713
REMARK SMILES CC1(C)C(CNC(=O)N2C[C@H](O)C[C@@H]2C(=O)NCCCCNC(=O)c2ccc(-c3c4nc(c(-c5c(F)c(F)c(F)c(F)c5F)c5ccc([nH]5)c(-c5c(F)c(F)c(F)c(F)c5F)c5nc(c(-c6c(F)c(F)c(F)c(F)c6F)c6ccc3[nH]6)C=C5)C=C4)cc2)C1(C)C
REMARK SMILES IDX 19 1 18 2 17 3 15 4 16 5 14 7 9 8 10 9 11 10 13 11 7 12 6 13
REMARK SMILES IDX 8 15 5 16 4 17 1 18 2 19 3 20 88 21 89 22 90 23 12 24 20 26
REMARK SMILES IDX 21 27 22 28 23 29 24 31 25 32 26 33 87 34 27 35 86 36 28 37
REMARK SMILES IDX 29 38 30 39 80 40 31 41 85 42 79 43 81 44 32 45 84 46 78 47
REMARK SMILES IDX 77 48 33 50 65 51 45 52 64 53 46 54 49 55 63 56 82 57 47 58
REMARK SMILES IDX 48 59 62 61 83 62 50 63 34 64 35 65 43 66 36 67 37 68 41 69
REMARK SMILES IDX 44 70 38 71 39 72 42 73 40 74 66 75 67 76 75 77 68 78 69 79
REMARK SMILES IDX 73 80 76 81 70 82 71 83 74 84 72 85 51 86 52 87 60 88 53 89
REMARK SMILES IDX 54 90 58 91 61 92 55 93 56 94 59 95 57 96
REMARK H PARENT 17 6 6 14 12 25 22 30 81 49 49 60
REMARK Flexibility Score: inf
ROOT
ATOM      1  C   UNL A   1      31.827  30.131  26.755  1.00  0.00     0.023 C 
ENDROOT
BRANCH   1   2
ATOM      2  C   UNL A   1      33.126  29.578  26.174  1.00  0.00     0.116 C 
BRANCH   2   3
ATOM      3  N   UNL A   1      33.187  29.701  24.730  1.00  0.00    -0.354 N 
ATOM      4  C   UNL A   1      32.741  28.833  23.775  1.00  0.00     0.242 C 
ATOM      5  O   UNL A   1      32.745  29.209  22.599  1.00  0.00    -0.273 OA
ATOM      6  H   UNL A   1      33.607  30.525  24.391  1.00  0.00     0.163 HD
BRANCH   4   7
ATOM      7  C   UNL A   1      32.138  27.483  24.204  1.00  0.00     0.179 C 
ATOM      8  N   UNL A   1      32.250  26.511  23.114  1.00  0.00    -0.310 N 
ATOM      9  C   UNL A   1      30.931  26.015  22.742  1.00  0.00     0.154 C 
ATOM     10  C   UNL A   1      30.016  27.172  23.121  1.00  0.00     0.136 C 
ATOM     11  C   UNL A   1      30.629  27.652  24.434  1.00  0.00     0.069 C 
BRANCH   8  12
ATOM     12  C   UNL A   1      33.461  25.973  22.818  1.00  0.00     0.318 C 
ATOM     13  N   UNL A   1      34.045  25.107  23.676  1.00  0.00    -0.338 N 
ATOM     14  H   UNL A   1      35.027  25.063  23.628  1.00  0.00     0.165 HD
ATOM     15  O   UNL A   1      34.029  26.208  21.750  1.00  0.00    -0.249 OA
BRANCH  13  16
ATOM     16  C   UNL A   1      33.435  24.233  24.658  1.00  0.00     0.122 C 
BRANCH  16  17
ATOM     17  C   UNL A   1      33.789  22.805  24.385  1.00  0.00     0.021 C 
ATOM     18  C   UNL A   1      35.262  20.762  25.004  1.00  0.00     0.012 C 
ATOM     19  C   UNL A   1      34.210  21.771  25.423  1.00  0.00    -0.025 C 
ATOM     20  C   UNL A   1      34.356  22.158  26.877  1.00  0.00     0.012 C 
ATOM     21  C   UNL A   1      32.813  21.695  24.765  1.00  0.00    -0.025 C 
ATOM     22  C   UNL A   1      32.528  20.652  23.704  1.00  0.00     0.012 C 
ATOM     23  C   UNL A   1      31.565  22.035  25.553  1.00  0.00     0.012 C 
ENDBRANCH  16  17
ENDBRANCH  13  16
ENDBRANCH   8  12
BRANCH  10  24
ATOM     24  O   UNL A   1      30.067  28.207  22.139  1.00  0.00    -0.391 OA
ATOM     25  H   UNL A   1      29.499  27.970  21.389  1.00  0.00     0.211 HD
ENDBRANCH  10  24
ENDBRANCH   4   7
ENDBRANCH   2   3
ENDBRANCH   1   2
BRANCH   1  26
ATOM     26  C   UNL A   1      31.654  31.647  26.631  1.00  0.00     0.023 C 
BRANCH  26  27
ATOM     27  C   UNL A   1      32.873  32.483  27.009  1.00  0.00     0.116 C 
BRANCH  27  28
ATOM     28  N   UNL A   1      32.529  33.830  27.434  1.00  0.00    -0.352 N 
ATOM     29  C   UNL A   1      33.050  34.586  28.456  1.00  0.00     0.251 C 
ATOM     30  H   UNL A   1      31.816  34.265  26.913  1.00  0.00     0.163 HD
ATOM     31  O   UNL A   1      32.528  35.659  28.752  1.00  0.00    -0.269 OA
BRANCH  29  32
ATOM     32  C   UNL A   1      34.217  34.104  29.229  1.00  0.00     0.039 A 
ATOM     33  C   UNL A   1      34.000  33.241  30.307  1.00  0.00     0.014 A 
ATOM     34  C   UNL A   1      35.518  34.498  28.905  1.00  0.00     0.014 A 
ATOM     35  C   UNL A   1      35.087  32.717  31.012  1.00  0.00     0.010 A 
ATOM     36  C   UNL A   1      36.604  33.916  29.558  1.00  0.00     0.010 A 
ATOM     37  C   UNL A   1      36.402  33.018  30.617  1.00  0.00    -0.014 A 
BRANCH  37  38
ATOM     38  C   UNL A   1      37.571  32.392  31.291  1.00  0.00     0.031 A 
ATOM     39  C   UNL A   1      38.325  31.273  30.626  1.00  0.00     0.074 A 
ATOM     40  C   UNL A   1      37.921  32.793  32.530  1.00  0.00     0.049 A 
ATOM     41  N   UNL A   1      39.323  30.559  31.083  1.00  0.00    -0.248 NA
ATOM     42  C   UNL A   1      37.884  30.890  29.275  1.00  0.00     0.031 C 
ATOM     43  C   UNL A   1      37.250  33.841  33.300  1.00  0.00     0.029 A 
ATOM     44  N   UNL A   1      38.923  32.360  33.363  1.00  0.00    -0.354 N 
ATOM     45  C   UNL A   1      39.623  29.642  30.084  1.00  0.00     0.074 A 
ATOM     46  C   UNL A   1      38.665  29.850  29.019  1.00  0.00     0.031 C 
ATOM     47  C   UNL A   1      37.872  33.986  34.481  1.00  0.00     0.029 A 
ATOM     48  C   UNL A   1      38.956  33.012  34.572  1.00  0.00     0.049 A 
ATOM     49  H   UNL A   1      39.559  31.650  33.118  1.00  0.00     0.167 HD
ATOM     50  C   UNL A   1      40.622  28.727  30.045  1.00  0.00     0.037 A 
ATOM     51  C   UNL A   1      39.759  32.838  35.639  1.00  0.00     0.037 A 
ATOM     52  C   UNL A   1      41.583  28.530  31.099  1.00  0.00     0.049 A 
ATOM     53  C   UNL A   1      40.838  31.788  35.582  1.00  0.00     0.074 A 
ATOM     54  C   UNL A   1      42.658  27.658  31.134  1.00  0.00     0.029 A 
ATOM     55  N   UNL A   1      41.584  29.212  32.307  1.00  0.00    -0.354 N 
ATOM     56  N   UNL A   1      41.151  30.972  34.606  1.00  0.00    -0.248 NA
ATOM     57  C   UNL A   1      41.679  31.638  36.780  1.00  0.00     0.031 C 
ATOM     58  C   UNL A   1      43.276  27.773  32.382  1.00  0.00     0.029 A 
ATOM     59  C   UNL A   1      42.626  28.762  33.104  1.00  0.00     0.049 A 
ATOM     60  H   UNL A   1      40.940  29.912  32.560  1.00  0.00     0.167 HD
ATOM     61  C   UNL A   1      42.244  30.240  35.054  1.00  0.00     0.074 A 
ATOM     62  C   UNL A   1      42.549  30.720  36.385  1.00  0.00     0.031 C 
ATOM     63  C   UNL A   1      42.930  29.258  34.421  1.00  0.00     0.037 A 
BRANCH  50  64
ATOM     64  C   UNL A   1      40.731  27.866  28.819  1.00  0.00     0.064 A 
ATOM     65  C   UNL A   1      40.012  26.668  28.695  1.00  0.00     0.173 A 
ATOM     66  C   UNL A   1      41.522  28.269  27.731  1.00  0.00     0.173 A 
ATOM     67  F   UNL A   1      39.247  26.232  29.707  1.00  0.00    -0.203 F 
ATOM     68  C   UNL A   1      40.102  25.892  27.542  1.00  0.00     0.198 A 
ATOM     69  C   UNL A   1      41.584  27.508  26.567  1.00  0.00     0.198 A 
ATOM     70  F   UNL A   1      42.225  29.410  27.792  1.00  0.00    -0.203 F 
ATOM     71  F   UNL A   1      39.442  24.727  27.467  1.00  0.00    -0.200 F 
ATOM     72  C   UNL A   1      40.880  26.316  26.476  1.00  0.00     0.200 A 
ATOM     73  F   UNL A   1      42.323  27.928  25.531  1.00  0.00    -0.200 F 
ATOM     74  F   UNL A   1      40.956  25.575  25.363  1.00  0.00    -0.200 F 
ENDBRANCH  50  64
BRANCH  51  75
ATOM     75  C   UNL A   1      39.590  33.681  36.853  1.00  0.00     0.064 A 
ATOM     76  C   UNL A   1      40.301  34.880  37.003  1.00  0.00     0.173 A 
ATOM     77  C   UNL A   1      38.740  33.294  37.900  1.00  0.00     0.173 A 
ATOM     78  F   UNL A   1      41.143  35.283  36.040  1.00  0.00    -0.203 F 
ATOM     79  C   UNL A   1      40.194  35.642  38.164  1.00  0.00     0.198 A 
ATOM     80  C   UNL A   1      38.607  34.073  39.047  1.00  0.00     0.198 A 
ATOM     81  F   UNL A   1      38.033  32.157  37.808  1.00  0.00    -0.203 F 
ATOM     82  F   UNL A   1      40.934  36.750  38.306  1.00  0.00    -0.200 F 
ATOM     83  C   UNL A   1      39.344  35.240  39.184  1.00  0.00     0.200 A 
ATOM     84  F   UNL A   1      37.773  33.690  40.023  1.00  0.00    -0.200 F 
ATOM     85  F   UNL A   1      39.244  35.972  40.302  1.00  0.00    -0.200 F 
ENDBRANCH  51  75
BRANCH  63  86
ATOM     86  C   UNL A   1      44.110  28.666  35.139  1.00  0.00     0.064 A 
ATOM     87  C   UNL A   1      43.988  27.534  35.958  1.00  0.00     0.173 A 
ATOM     88  C   UNL A   1      45.390  29.221  34.973  1.00  0.00     0.173 A 
ATOM     89  F   UNL A   1      42.785  26.976  36.161  1.00  0.00    -0.203 F 
ATOM     90  C   UNL A   1      45.096  26.998  36.609  1.00  0.00     0.198 A 
ATOM     91  C   UNL A   1      46.501  28.661  35.597  1.00  0.00     0.198 A 
ATOM     92  F   UNL A   1      45.565  30.298  34.194  1.00  0.00    -0.203 F 
ATOM     93  F   UNL A   1      44.945  25.950  37.430  1.00  0.00    -0.200 F 
ATOM     94  C   UNL A   1      46.352  27.556  36.422  1.00  0.00     0.200 A 
ATOM     95  F   UNL A   1      47.716  29.191  35.401  1.00  0.00    -0.200 F 
ATOM     96  F   UNL A   1      47.418  27.032  37.042  1.00  0.00    -0.200 F 
ENDBRANCH  63  86
ENDBRANCH  37  38
ENDBRANCH  29  32
ENDBRANCH  27  28
ENDBRANCH  26  27
ENDBRANCH   1  26
TORSDOF 15
ENDMDL
