MODEL 1
REMARK VINA RESULT:     -11.8      0.000      0.000
REMARK SMILES CC[C@@H](C)[C@H](C(=O)NCCCCNC(=O)c1ccc(-c2c3nc(c(-c4c(F)c(F)c(F)c(F)c4F)c4ccc([nH]4)c(-c4c(F)c(F)c(F)c(F)c4F)c4nc(c(-c5c(F)c(F)c(F)c(F)c5F)c5ccc2[nH]5)C=C4)C=C3)cc1)S(=O)(=O)c1cccc(OC)c1
REMARK SMILES IDX 10 1 9 2 8 3 6 4 7 5 5 7 3 8 4 9 2 10 1 11 79 12 80 13 81 14
REMARK SMILES IDX 82 15 83 16 89 17 84 18 86 19 85 20 87 21 88 22 11 23 12 24
REMARK SMILES IDX 13 25 14 26 15 28 16 29 17 30 78 31 18 32 77 33 19 34 20 35
REMARK SMILES IDX 21 36 71 37 22 38 76 39 70 40 72 41 23 42 75 43 69 44 68 45
REMARK SMILES IDX 24 47 56 48 36 49 55 50 37 51 40 52 54 53 73 54 38 55 39 56
REMARK SMILES IDX 53 58 74 59 41 60 25 61 26 62 34 63 27 64 28 65 32 66 35 67
REMARK SMILES IDX 29 68 30 69 33 70 31 71 57 72 58 73 66 74 59 75 60 76 64 77
REMARK SMILES IDX 67 78 61 79 62 80 65 81 63 82 42 83 43 84 51 85 44 86 45 87
REMARK SMILES IDX 49 88 52 89 46 90 47 91 50 92 48 93
REMARK H PARENT 8 6 13 27 72 46 40 57
REMARK Flexibility Score: inf
ROOT
ATOM      1  C   UNL A   1      32.105  30.410  26.867  1.00  0.00     0.023 C 
ENDROOT
BRANCH   1   2
ATOM      2  C   UNL A   1      32.525  29.893  25.489  1.00  0.00     0.116 C 
BRANCH   2   3
ATOM      3  N   UNL A   1      31.417  29.864  24.561  1.00  0.00    -0.355 N 
ATOM      4  C   UNL A   1      30.766  28.885  23.890  1.00  0.00     0.239 C 
ATOM      5  O   UNL A   1      29.865  29.315  23.157  1.00  0.00    -0.274 OA
ATOM      6  H   UNL A   1      31.054  30.759  24.375  1.00  0.00     0.163 HD
BRANCH   4   7
ATOM      7  C   UNL A   1      31.024  27.380  23.956  1.00  0.00     0.205 C 
BRANCH   7   8
ATOM      8  C   UNL A   1      29.945  26.330  24.346  1.00  0.00     0.014 C 
ATOM      9  C   UNL A   1      28.520  26.641  23.862  1.00  0.00     0.009 C 
BRANCH   8  10
ATOM     10  C   UNL A   1      30.114  25.881  25.825  1.00  0.00     0.002 C 
ATOM     11  C   UNL A   1      31.034  24.696  26.075  1.00  0.00     0.004 C 
ENDBRANCH   8  10
ENDBRANCH   7   8
BRANCH   7  12
ATOM     12  S   UNL A   1      32.077  26.898  22.574  1.00  0.00     0.190 S 
ATOM     13  O   UNL A   1      31.271  26.504  21.435  1.00  0.00    -0.223 OA
ATOM     14  O   UNL A   1      33.071  27.944  22.389  1.00  0.00    -0.223 OA
BRANCH  12  15
ATOM     15  C   UNL A   1      32.965  25.439  23.088  1.00  0.00     0.071 A 
ATOM     16  C   UNL A   1      32.650  24.200  22.528  1.00  0.00     0.020 A 
ATOM     17  C   UNL A   1      34.013  25.562  24.011  1.00  0.00     0.066 A 
ATOM     18  C   UNL A   1      33.337  23.065  22.957  1.00  0.00     0.005 A 
ATOM     19  C   UNL A   1      34.681  24.425  24.457  1.00  0.00     0.120 A 
ATOM     20  C   UNL A   1      34.337  23.179  23.925  1.00  0.00     0.046 A 
BRANCH  19  21
ATOM     21  O   UNL A   1      35.676  24.400  25.395  1.00  0.00    -0.497 OA
ATOM     22  C   UNL A   1      35.986  23.135  25.971  1.00  0.00     0.278 C 
ENDBRANCH  19  21
ENDBRANCH  12  15
ENDBRANCH   7  12
ENDBRANCH   4   7
ENDBRANCH   2   3
ENDBRANCH   1   2
BRANCH   1  23
ATOM     23  C   UNL A   1      31.753  31.894  26.922  1.00  0.00     0.023 C 
BRANCH  23  24
ATOM     24  C   UNL A   1      32.857  32.813  27.432  1.00  0.00     0.116 C 
BRANCH  24  25
ATOM     25  N   UNL A   1      32.441  34.186  27.684  1.00  0.00    -0.352 N 
ATOM     26  C   UNL A   1      32.999  35.078  28.572  1.00  0.00     0.251 C 
ATOM     27  H   UNL A   1      31.674  34.514  27.161  1.00  0.00     0.163 HD
ATOM     28  O   UNL A   1      32.528  36.200  28.722  1.00  0.00    -0.269 OA
BRANCH  26  29
ATOM     29  C   UNL A   1      34.142  34.627  29.389  1.00  0.00     0.039 A 
ATOM     30  C   UNL A   1      33.891  34.066  30.642  1.00  0.00     0.014 A 
ATOM     31  C   UNL A   1      35.438  34.663  28.869  1.00  0.00     0.014 A 
ATOM     32  C   UNL A   1      34.937  33.466  31.344  1.00  0.00     0.010 A 
ATOM     33  C   UNL A   1      36.459  33.993  29.530  1.00  0.00     0.010 A 
ATOM     34  C   UNL A   1      36.218  33.389  30.774  1.00  0.00    -0.014 A 
BRANCH  34  35
ATOM     35  C   UNL A   1      37.325  32.694  31.476  1.00  0.00     0.031 A 
ATOM     36  C   UNL A   1      38.024  31.540  30.814  1.00  0.00     0.074 A 
ATOM     37  C   UNL A   1      37.658  33.063  32.728  1.00  0.00     0.049 A 
ATOM     38  N   UNL A   1      38.991  30.786  31.271  1.00  0.00    -0.248 NA
ATOM     39  C   UNL A   1      37.545  31.158  29.477  1.00  0.00     0.031 C 
ATOM     40  C   UNL A   1      37.001  34.114  33.507  1.00  0.00     0.029 A 
ATOM     41  N   UNL A   1      38.635  32.589  33.568  1.00  0.00    -0.354 N 
ATOM     42  C   UNL A   1      39.220  29.834  30.288  1.00  0.00     0.074 A 
ATOM     43  C   UNL A   1      38.249  30.062  29.239  1.00  0.00     0.031 C 
ATOM     44  C   UNL A   1      37.615  34.229  34.696  1.00  0.00     0.029 A 
ATOM     45  C   UNL A   1      38.695  33.249  34.771  1.00  0.00     0.049 A 
ATOM     46  H   UNL A   1      39.236  31.846  33.331  1.00  0.00     0.167 HD
ATOM     47  C   UNL A   1      40.173  28.874  30.246  1.00  0.00     0.037 A 
ATOM     48  C   UNL A   1      39.538  33.089  35.808  1.00  0.00     0.037 A 
ATOM     49  C   UNL A   1      41.166  28.679  31.267  1.00  0.00     0.049 A 
ATOM     50  C   UNL A   1      40.630  32.058  35.710  1.00  0.00     0.074 A 
ATOM     51  C   UNL A   1      42.219  27.783  31.291  1.00  0.00     0.029 A 
ATOM     52  N   UNL A   1      41.230  29.405  32.447  1.00  0.00    -0.354 N 
ATOM     53  N   UNL A   1      40.889  31.217  34.739  1.00  0.00    -0.248 NA
ATOM     54  C   UNL A   1      41.558  31.969  36.846  1.00  0.00     0.031 C 
ATOM     55  C   UNL A   1      42.907  27.949  32.498  1.00  0.00     0.029 A 
ATOM     56  C   UNL A   1      42.303  28.973  33.209  1.00  0.00     0.049 A 
ATOM     57  H   UNL A   1      40.605  30.121  32.705  1.00  0.00     0.167 HD
ATOM     58  C   UNL A   1      42.019  30.516  35.133  1.00  0.00     0.074 A 
ATOM     59  C   UNL A   1      42.409  31.045  36.424  1.00  0.00     0.031 C 
ATOM     60  C   UNL A   1      42.678  29.522  34.487  1.00  0.00     0.037 A 
BRANCH  47  61
ATOM     61  C   UNL A   1      40.194  27.979  29.042  1.00  0.00     0.064 A 
ATOM     62  C   UNL A   1      39.504  26.756  29.026  1.00  0.00     0.173 A 
ATOM     63  C   UNL A   1      40.905  28.345  27.891  1.00  0.00     0.173 A 
ATOM     64  F   UNL A   1      38.822  26.352  30.109  1.00  0.00    -0.203 F 
ATOM     65  C   UNL A   1      39.555  25.919  27.915  1.00  0.00     0.198 A 
ATOM     66  C   UNL A   1      40.930  27.519  26.771  1.00  0.00     0.198 A 
ATOM     67  F   UNL A   1      41.581  29.504  27.854  1.00  0.00    -0.203 F 
ATOM     68  F   UNL A   1      38.935  24.730  27.946  1.00  0.00    -0.200 F 
ATOM     69  C   UNL A   1      40.263  26.303  26.787  1.00  0.00     0.200 A 
ATOM     70  F   UNL A   1      41.609  27.894  25.678  1.00  0.00    -0.200 F 
ATOM     71  F   UNL A   1      40.313  25.495  25.719  1.00  0.00    -0.200 F 
ENDBRANCH  47  61
BRANCH  48  72
ATOM     72  C   UNL A   1      39.425  33.965  37.002  1.00  0.00     0.064 A 
ATOM     73  C   UNL A   1      38.710  33.545  38.132  1.00  0.00     0.173 A 
ATOM     74  C   UNL A   1      40.020  35.233  37.039  1.00  0.00     0.173 A 
ATOM     75  F   UNL A   1      38.108  32.346  38.135  1.00  0.00    -0.203 F 
ATOM     76  C   UNL A   1      38.572  34.370  39.246  1.00  0.00     0.198 A 
ATOM     77  C   UNL A   1      39.902  36.050  38.163  1.00  0.00     0.198 A 
ATOM     78  F   UNL A   1      40.722  35.677  35.986  1.00  0.00    -0.203 F 
ATOM     79  F   UNL A   1      37.846  33.962  40.294  1.00  0.00    -0.200 F 
ATOM     80  C   UNL A   1      39.171  35.620  39.262  1.00  0.00     0.200 A 
ATOM     81  F   UNL A   1      40.492  37.252  38.180  1.00  0.00    -0.200 F 
ATOM     82  F   UNL A   1      39.040  36.415  40.333  1.00  0.00    -0.200 F 
ENDBRANCH  48  72
BRANCH  60  83
ATOM     83  C   UNL A   1      43.899  28.967  35.154  1.00  0.00     0.064 A 
ATOM     84  C   UNL A   1      45.173  29.502  34.916  1.00  0.00     0.173 A 
ATOM     85  C   UNL A   1      43.789  27.906  36.066  1.00  0.00     0.173 A 
ATOM     86  F   UNL A   1      45.330  30.507  34.041  1.00  0.00    -0.203 F 
ATOM     87  C   UNL A   1      46.298  28.976  35.545  1.00  0.00     0.198 A 
ATOM     88  C   UNL A   1      44.912  27.401  36.714  1.00  0.00     0.198 A 
ATOM     89  F   UNL A   1      42.590  27.364  36.332  1.00  0.00    -0.203 F 
ATOM     90  F   UNL A   1      47.511  29.472  35.267  1.00  0.00    -0.200 F 
ATOM     91  C   UNL A   1      46.166  27.931  36.448  1.00  0.00     0.200 A 
ATOM     92  F   UNL A   1      44.782  26.398  37.594  1.00  0.00    -0.200 F 
ATOM     93  F   UNL A   1      47.249  27.428  37.055  1.00  0.00    -0.200 F 
ENDBRANCH  60  83
ENDBRANCH  34  35
ENDBRANCH  26  29
ENDBRANCH  24  25
ENDBRANCH  23  24
ENDBRANCH   1  23
TORSDOF 16
ENDMDL
MODEL 2
REMARK VINA RESULT:     -11.8      0.357      1.632
REMARK SMILES CC[C@@H](C)[C@H](C(=O)NCCCCNC(=O)c1ccc(-c2c3nc(c(-c4c(F)c(F)c(F)c(F)c4F)c4ccc([nH]4)c(-c4c(F)c(F)c(F)c(F)c4F)c4nc(c(-c5c(F)c(F)c(F)c(F)c5F)c5ccc2[nH]5)C=C4)C=C3)cc1)S(=O)(=O)c1cccc(OC)c1
REMARK SMILES IDX 10 1 9 2 8 3 6 4 7 5 5 7 3 8 4 9 2 10 1 11 79 12 80 13 81 14
REMARK SMILES IDX 82 15 83 16 89 17 84 18 86 19 85 20 87 21 88 22 11 23 12 24
REMARK SMILES IDX 13 25 14 26 15 28 16 29 17 30 78 31 18 32 77 33 19 34 20 35
REMARK SMILES IDX 21 36 71 37 22 38 76 39 70 40 72 41 23 42 75 43 69 44 68 45
REMARK SMILES IDX 24 47 56 48 36 49 55 50 37 51 40 52 54 53 73 54 38 55 39 56
REMARK SMILES IDX 53 58 74 59 41 60 25 61 26 62 34 63 27 64 28 65 32 66 35 67
REMARK SMILES IDX 29 68 30 69 33 70 31 71 57 72 58 73 66 74 59 75 60 76 64 77
REMARK SMILES IDX 67 78 61 79 62 80 65 81 63 82 42 83 43 84 51 85 44 86 45 87
REMARK SMILES IDX 49 88 52 89 46 90 47 91 50 92 48 93
REMARK H PARENT 8 6 13 27 72 46 40 57
REMARK Flexibility Score: inf
ROOT
ATOM      1  C   UNL A   1      32.113  30.309  26.848  1.00  0.00     0.023 C 
ENDROOT
BRANCH   1   2
ATOM      2  C   UNL A   1      32.816  29.761  25.604  1.00  0.00     0.116 C 
BRANCH   2   3
ATOM      3  N   UNL A   1      31.947  29.753  24.450  1.00  0.00    -0.355 N 
ATOM      4  C   UNL A   1      31.382  28.784  23.692  1.00  0.00     0.239 C 
ATOM      5  O   UNL A   1      30.708  29.230  22.754  1.00  0.00    -0.274 OA
ATOM      6  H   UNL A   1      31.711  30.659  24.145  1.00  0.00     0.163 HD
BRANCH   4   7
ATOM      7  C   UNL A   1      31.492  27.271  23.883  1.00  0.00     0.205 C 
BRANCH   7   8
ATOM      8  C   UNL A   1      30.308  26.363  24.325  1.00  0.00     0.014 C 
ATOM      9  C   UNL A   1      28.931  26.766  23.774  1.00  0.00     0.009 C 
BRANCH   8  10
ATOM     10  C   UNL A   1      30.399  26.027  25.839  1.00  0.00     0.002 C 
ATOM     11  C   UNL A   1      31.722  26.334  26.525  1.00  0.00     0.004 C 
ENDBRANCH   8  10
ENDBRANCH   7   8
BRANCH   7  12
ATOM     12  S   UNL A   1      32.520  26.580  22.574  1.00  0.00     0.190 S 
ATOM     13  O   UNL A   1      31.708  26.216  21.429  1.00  0.00    -0.223 OA
ATOM     14  O   UNL A   1      33.640  27.486  22.366  1.00  0.00    -0.223 OA
BRANCH  12  15
ATOM     15  C   UNL A   1      33.207  25.061  23.205  1.00  0.00     0.071 A 
ATOM     16  C   UNL A   1      32.729  23.835  22.740  1.00  0.00     0.020 A 
ATOM     17  C   UNL A   1      34.264  25.114  24.125  1.00  0.00     0.066 A 
ATOM     18  C   UNL A   1      33.259  22.655  23.260  1.00  0.00     0.005 A 
ATOM     19  C   UNL A   1      34.775  23.936  24.662  1.00  0.00     0.120 A 
ATOM     20  C   UNL A   1      34.267  22.710  24.225  1.00  0.00     0.046 A 
BRANCH  19  21
ATOM     21  O   UNL A   1      35.760  23.852  25.608  1.00  0.00    -0.497 OA
ATOM     22  C   UNL A   1      37.099  23.759  25.135  1.00  0.00     0.278 C 
ENDBRANCH  19  21
ENDBRANCH  12  15
ENDBRANCH   7  12
ENDBRANCH   4   7
ENDBRANCH   2   3
ENDBRANCH   1   2
BRANCH   1  23
ATOM     23  C   UNL A   1      31.802  31.802  26.812  1.00  0.00     0.023 C 
BRANCH  23  24
ATOM     24  C   UNL A   1      32.872  32.711  27.406  1.00  0.00     0.116 C 
BRANCH  24  25
ATOM     25  N   UNL A   1      32.444  34.081  27.651  1.00  0.00    -0.352 N 
ATOM     26  C   UNL A   1      32.993  34.982  28.534  1.00  0.00     0.251 C 
ATOM     27  H   UNL A   1      31.673  34.399  27.126  1.00  0.00     0.163 HD
ATOM     28  O   UNL A   1      32.512  36.101  28.679  1.00  0.00    -0.269 OA
BRANCH  26  29
ATOM     29  C   UNL A   1      34.140  34.547  29.353  1.00  0.00     0.039 A 
ATOM     30  C   UNL A   1      33.894  33.993  30.612  1.00  0.00     0.014 A 
ATOM     31  C   UNL A   1      35.435  34.589  28.832  1.00  0.00     0.014 A 
ATOM     32  C   UNL A   1      34.945  33.406  31.317  1.00  0.00     0.010 A 
ATOM     33  C   UNL A   1      36.462  33.931  29.497  1.00  0.00     0.010 A 
ATOM     34  C   UNL A   1      36.227  33.335  30.746  1.00  0.00    -0.014 A 
BRANCH  34  35
ATOM     35  C   UNL A   1      37.340  32.654  31.453  1.00  0.00     0.031 A 
ATOM     36  C   UNL A   1      38.054  31.508  30.794  1.00  0.00     0.074 A 
ATOM     37  C   UNL A   1      37.665  33.028  32.705  1.00  0.00     0.049 A 
ATOM     38  N   UNL A   1      39.029  30.766  31.254  1.00  0.00    -0.248 NA
ATOM     39  C   UNL A   1      37.584  31.119  29.456  1.00  0.00     0.031 C 
ATOM     40  C   UNL A   1      36.992  34.071  33.481  1.00  0.00     0.029 A 
ATOM     41  N   UNL A   1      38.644  32.567  33.549  1.00  0.00    -0.354 N 
ATOM     42  C   UNL A   1      39.272  29.815  30.273  1.00  0.00     0.074 A 
ATOM     43  C   UNL A   1      38.303  30.032  29.221  1.00  0.00     0.031 C 
ATOM     44  C   UNL A   1      37.601  34.195  34.672  1.00  0.00     0.029 A 
ATOM     45  C   UNL A   1      38.692  33.228  34.751  1.00  0.00     0.049 A 
ATOM     46  H   UNL A   1      39.254  31.831  33.314  1.00  0.00     0.167 HD
ATOM     47  C   UNL A   1      40.237  28.866  30.235  1.00  0.00     0.037 A 
ATOM     48  C   UNL A   1      39.533  33.079  35.791  1.00  0.00     0.037 A 
ATOM     49  C   UNL A   1      41.229  28.684  31.259  1.00  0.00     0.049 A 
ATOM     50  C   UNL A   1      40.638  32.061  35.697  1.00  0.00     0.074 A 
ATOM     51  C   UNL A   1      42.292  27.801  31.288  1.00  0.00     0.029 A 
ATOM     52  N   UNL A   1      41.281  29.412  32.439  1.00  0.00    -0.354 N 
ATOM     53  N   UNL A   1      40.910  31.222  34.728  1.00  0.00    -0.248 NA
ATOM     54  C   UNL A   1      41.563  31.983  36.837  1.00  0.00     0.031 C 
ATOM     55  C   UNL A   1      42.974  27.976  32.497  1.00  0.00     0.029 A 
ATOM     56  C   UNL A   1      42.356  28.994  33.205  1.00  0.00     0.049 A 
ATOM     57  H   UNL A   1      40.646  30.121  32.694  1.00  0.00     0.167 HD
ATOM     58  C   UNL A   1      42.048  30.535  35.127  1.00  0.00     0.074 A 
ATOM     59  C   UNL A   1      42.427  31.070  36.418  1.00  0.00     0.031 C 
ATOM     60  C   UNL A   1      42.720  29.549  34.484  1.00  0.00     0.037 A 
BRANCH  47  61
ATOM     61  C   UNL A   1      40.272  27.971  29.032  1.00  0.00     0.064 A 
ATOM     62  C   UNL A   1      40.999  28.316  27.882  1.00  0.00     0.173 A 
ATOM     63  C   UNL A   1      39.577  26.753  29.028  1.00  0.00     0.173 A 
ATOM     64  F   UNL A   1      41.667  29.479  27.830  1.00  0.00    -0.203 F 
ATOM     65  C   UNL A   1      41.000  27.492  26.760  1.00  0.00     0.198 A 
ATOM     66  C   UNL A   1      39.604  25.917  27.914  1.00  0.00     0.198 A 
ATOM     67  F   UNL A   1      38.867  26.375  30.102  1.00  0.00    -0.203 F 
ATOM     68  F   UNL A   1      41.654  27.872  25.654  1.00  0.00    -0.200 F 
ATOM     69  C   UNL A   1      40.307  26.292  26.779  1.00  0.00     0.200 A 
ATOM     70  F   UNL A   1      38.940  24.753  27.936  1.00  0.00    -0.200 F 
ATOM     71  F   UNL A   1      40.308  25.500  25.698  1.00  0.00    -0.200 F 
ENDBRANCH  47  61
BRANCH  48  72
ATOM     72  C   UNL A   1      39.407  33.954  36.984  1.00  0.00     0.064 A 
ATOM     73  C   UNL A   1      39.996  35.226  37.004  1.00  0.00     0.173 A 
ATOM     74  C   UNL A   1      38.704  33.542  38.125  1.00  0.00     0.173 A 
ATOM     75  F   UNL A   1      40.694  35.656  35.942  1.00  0.00    -0.203 F 
ATOM     76  C   UNL A   1      39.910  36.043  38.129  1.00  0.00     0.198 A 
ATOM     77  C   UNL A   1      38.598  34.369  39.241  1.00  0.00     0.198 A 
ATOM     78  F   UNL A   1      38.115  32.338  38.152  1.00  0.00    -0.203 F 
ATOM     79  F   UNL A   1      40.520  37.235  38.137  1.00  0.00    -0.200 F 
ATOM     80  C   UNL A   1      39.208  35.616  39.245  1.00  0.00     0.200 A 
ATOM     81  F   UNL A   1      37.908  33.959  40.314  1.00  0.00    -0.200 F 
ATOM     82  F   UNL A   1      39.124  36.402  40.328  1.00  0.00    -0.200 F 
ENDBRANCH  48  72
BRANCH  60  83
ATOM     83  C   UNL A   1      43.946  29.008  35.155  1.00  0.00     0.064 A 
ATOM     84  C   UNL A   1      45.216  29.549  34.909  1.00  0.00     0.173 A 
ATOM     85  C   UNL A   1      43.843  27.957  36.079  1.00  0.00     0.173 A 
ATOM     86  F   UNL A   1      45.365  30.544  34.023  1.00  0.00    -0.203 F 
ATOM     87  C   UNL A   1      46.345  29.037  35.543  1.00  0.00     0.198 A 
ATOM     88  C   UNL A   1      44.971  27.467  36.731  1.00  0.00     0.198 A 
ATOM     89  F   UNL A   1      42.648  27.411  36.353  1.00  0.00    -0.203 F 
ATOM     90  F   UNL A   1      47.555  29.537  35.257  1.00  0.00    -0.200 F 
ATOM     91  C   UNL A   1      46.220  28.001  36.457  1.00  0.00     0.200 A 
ATOM     92  F   UNL A   1      44.848  26.473  37.622  1.00  0.00    -0.200 F 
ATOM     93  F   UNL A   1      47.308  27.511  37.068  1.00  0.00    -0.200 F 
ENDBRANCH  60  83
ENDBRANCH  34  35
ENDBRANCH  26  29
ENDBRANCH  24  25
ENDBRANCH  23  24
ENDBRANCH   1  23
TORSDOF 16
ENDMDL
MODEL 3
REMARK VINA RESULT:     -11.8      2.519      8.015
REMARK SMILES CC[C@@H](C)[C@H](C(=O)NCCCCNC(=O)c1ccc(-c2c3nc(c(-c4c(F)c(F)c(F)c(F)c4F)c4ccc([nH]4)c(-c4c(F)c(F)c(F)c(F)c4F)c4nc(c(-c5c(F)c(F)c(F)c(F)c5F)c5ccc2[nH]5)C=C4)C=C3)cc1)S(=O)(=O)c1cccc(OC)c1
REMARK SMILES IDX 10 1 9 2 8 3 6 4 7 5 5 7 3 8 4 9 2 10 1 11 79 12 80 13 81 14
REMARK SMILES IDX 82 15 83 16 89 17 84 18 86 19 85 20 87 21 88 22 11 23 12 24
REMARK SMILES IDX 13 25 14 26 15 28 16 29 17 30 78 31 18 32 77 33 19 34 20 35
REMARK SMILES IDX 21 36 71 37 22 38 76 39 70 40 72 41 23 42 75 43 69 44 68 45
REMARK SMILES IDX 24 47 56 48 36 49 55 50 37 51 40 52 54 53 73 54 38 55 39 56
REMARK SMILES IDX 53 58 74 59 41 60 25 61 26 62 34 63 27 64 28 65 32 66 35 67
REMARK SMILES IDX 29 68 30 69 33 70 31 71 57 72 58 73 66 74 59 75 60 76 64 77
REMARK SMILES IDX 67 78 61 79 62 80 65 81 63 82 42 83 43 84 51 85 44 86 45 87
REMARK SMILES IDX 49 88 52 89 46 90 47 91 50 92 48 93
REMARK H PARENT 8 6 13 27 72 46 40 57
REMARK Flexibility Score: inf
ROOT
ATOM      1  C   UNL A   1      31.526  27.837  25.992  1.00  0.00     0.023 C 
ENDROOT
BRANCH   1   2
ATOM      2  C   UNL A   1      32.329  26.616  26.446  1.00  0.00     0.116 C 
BRANCH   2   3
ATOM      3  N   UNL A   1      31.473  25.539  26.889  1.00  0.00    -0.355 N 
ATOM      4  C   UNL A   1      31.256  24.268  26.477  1.00  0.00     0.239 C 
ATOM      5  O   UNL A   1      30.391  23.682  27.143  1.00  0.00    -0.274 OA
ATOM      6  H   UNL A   1      30.924  25.785  27.667  1.00  0.00     0.163 HD
BRANCH   4   7
ATOM      7  C   UNL A   1      31.946  23.530  25.331  1.00  0.00     0.205 C 
BRANCH   7   8
ATOM      8  C   UNL A   1      31.754  23.884  23.828  1.00  0.00     0.014 C 
ATOM      9  C   UNL A   1      30.444  24.613  23.488  1.00  0.00     0.009 C 
BRANCH   8  10
ATOM     10  C   UNL A   1      32.164  22.692  22.919  1.00  0.00     0.002 C 
ATOM     11  C   UNL A   1      33.278  22.954  21.916  1.00  0.00     0.004 C 
ENDBRANCH   8  10
ENDBRANCH   7   8
BRANCH   7  12
ATOM     12  S   UNL A   1      33.646  23.158  25.803  1.00  0.00     0.190 S 
ATOM     13  O   UNL A   1      34.576  23.915  24.988  1.00  0.00    -0.223 OA
ATOM     14  O   UNL A   1      33.740  23.277  27.251  1.00  0.00    -0.223 OA
BRANCH  12  15
ATOM     15  C   UNL A   1      33.924  21.439  25.417  1.00  0.00     0.071 A 
ATOM     16  C   UNL A   1      35.172  21.025  24.947  1.00  0.00     0.020 A 
ATOM     17  C   UNL A   1      32.900  20.509  25.644  1.00  0.00     0.066 A 
ATOM     18  C   UNL A   1      35.367  19.683  24.627  1.00  0.00     0.005 A 
ATOM     19  C   UNL A   1      33.088  19.173  25.300  1.00  0.00     0.120 A 
ATOM     20  C   UNL A   1      34.325  18.767  24.792  1.00  0.00     0.046 A 
BRANCH  19  21
ATOM     21  O   UNL A   1      32.154  18.181  25.413  1.00  0.00    -0.497 OA
ATOM     22  C   UNL A   1      32.636  16.841  25.416  1.00  0.00     0.278 C 
ENDBRANCH  19  21
ENDBRANCH  12  15
ENDBRANCH   7  12
ENDBRANCH   4   7
ENDBRANCH   2   3
ENDBRANCH   1   2
BRANCH   1  23
ATOM     23  C   UNL A   1      31.706  29.086  26.848  1.00  0.00     0.023 C 
BRANCH  23  24
ATOM     24  C   UNL A   1      32.799  30.046  26.392  1.00  0.00     0.116 C 
BRANCH  24  25
ATOM     25  N   UNL A   1      32.589  31.436  26.769  1.00  0.00    -0.352 N 
ATOM     26  C   UNL A   1      33.436  32.244  27.492  1.00  0.00     0.251 C 
ATOM     27  H   UNL A   1      31.743  31.846  26.472  1.00  0.00     0.163 HD
ATOM     28  O   UNL A   1      33.124  33.394  27.780  1.00  0.00    -0.269 OA
BRANCH  26  29
ATOM     29  C   UNL A   1      34.709  31.670  27.970  1.00  0.00     0.039 A 
ATOM     30  C   UNL A   1      35.810  32.515  28.123  1.00  0.00     0.014 A 
ATOM     31  C   UNL A   1      34.776  30.332  28.362  1.00  0.00     0.014 A 
ATOM     32  C   UNL A   1      36.960  32.032  28.749  1.00  0.00     0.010 A 
ATOM     33  C   UNL A   1      35.888  29.877  29.058  1.00  0.00     0.010 A 
ATOM     34  C   UNL A   1      36.991  30.722  29.257  1.00  0.00    -0.014 A 
BRANCH  34  35
ATOM     35  C   UNL A   1      38.180  30.216  29.985  1.00  0.00     0.031 A 
ATOM     36  C   UNL A   1      38.433  30.652  31.400  1.00  0.00     0.074 A 
ATOM     37  C   UNL A   1      39.059  29.413  29.354  1.00  0.00     0.049 A 
ATOM     38  N   UNL A   1      39.426  30.346  32.196  1.00  0.00    -0.248 NA
ATOM     39  C   UNL A   1      37.462  31.589  31.986  1.00  0.00     0.031 C 
ATOM     40  C   UNL A   1      38.965  28.984  27.957  1.00  0.00     0.029 A 
ATOM     41  N   UNL A   1      40.208  28.816  29.808  1.00  0.00    -0.354 N 
ATOM     42  C   UNL A   1      39.208  31.066  33.362  1.00  0.00     0.074 A 
ATOM     43  C   UNL A   1      38.026  31.873  33.150  1.00  0.00     0.031 C 
ATOM     44  C   UNL A   1      39.994  28.167  27.679  1.00  0.00     0.029 A 
ATOM     45  C   UNL A   1      40.828  28.028  28.869  1.00  0.00     0.049 A 
ATOM     46  H   UNL A   1      40.556  28.942  30.720  1.00  0.00     0.167 HD
ATOM     47  C   UNL A   1      39.909  31.035  34.519  1.00  0.00     0.037 A 
ATOM     48  C   UNL A   1      41.935  27.269  28.967  1.00  0.00     0.037 A 
ATOM     49  C   UNL A   1      41.055  30.196  34.745  1.00  0.00     0.049 A 
ATOM     50  C   UNL A   1      42.660  27.200  30.284  1.00  0.00     0.074 A 
ATOM     51  C   UNL A   1      41.796  30.035  35.901  1.00  0.00     0.029 A 
ATOM     52  N   UNL A   1      41.621  29.367  33.787  1.00  0.00    -0.354 N 
ATOM     53  N   UNL A   1      42.397  27.823  31.407  1.00  0.00    -0.248 NA
ATOM     54  C   UNL A   1      43.827  26.309  30.350  1.00  0.00     0.031 C 
ATOM     55  C   UNL A   1      42.827  29.127  35.636  1.00  0.00     0.029 A 
ATOM     56  C   UNL A   1      42.706  28.696  34.325  1.00  0.00     0.049 A 
ATOM     57  H   UNL A   1      41.299  29.271  32.861  1.00  0.00     0.167 HD
ATOM     58  C   UNL A   1      43.346  27.382  32.318  1.00  0.00     0.074 A 
ATOM     59  C   UNL A   1      44.180  26.424  31.622  1.00  0.00     0.031 C 
ATOM     60  C   UNL A   1      43.515  27.738  33.615  1.00  0.00     0.037 A 
BRANCH  47  61
ATOM     61  C   UNL A   1      39.436  31.921  35.633  1.00  0.00     0.064 A 
ATOM     62  C   UNL A   1      39.937  33.222  35.798  1.00  0.00     0.173 A 
ATOM     63  C   UNL A   1      38.471  31.469  36.544  1.00  0.00     0.173 A 
ATOM     64  F   UNL A   1      40.875  33.694  34.962  1.00  0.00    -0.203 F 
ATOM     65  C   UNL A   1      39.514  34.024  36.853  1.00  0.00     0.198 A 
ATOM     66  C   UNL A   1      38.028  32.286  37.582  1.00  0.00     0.198 A 
ATOM     67  F   UNL A   1      37.959  30.234  36.431  1.00  0.00    -0.203 F 
ATOM     68  F   UNL A   1      40.049  35.242  37.023  1.00  0.00    -0.200 F 
ATOM     69  C   UNL A   1      38.556  33.558  37.741  1.00  0.00     0.200 A 
ATOM     70  F   UNL A   1      37.097  31.837  38.435  1.00  0.00    -0.200 F 
ATOM     71  F   UNL A   1      38.151  34.331  38.757  1.00  0.00    -0.200 F 
ENDBRANCH  47  61
BRANCH  48  72
ATOM     72  C   UNL A   1      42.391  26.463  27.806  1.00  0.00     0.064 A 
ATOM     73  C   UNL A   1      41.856  25.190  27.565  1.00  0.00     0.173 A 
ATOM     74  C   UNL A   1      43.368  26.940  26.921  1.00  0.00     0.173 A 
ATOM     75  F   UNL A   1      40.932  24.685  28.395  1.00  0.00    -0.203 F 
ATOM     76  C   UNL A   1      42.298  24.413  26.497  1.00  0.00     0.198 A 
ATOM     77  C   UNL A   1      43.793  26.171  25.839  1.00  0.00     0.198 A 
ATOM     78  F   UNL A   1      43.904  28.155  27.104  1.00  0.00    -0.203 F 
ATOM     79  F   UNL A   1      41.803  23.182  26.316  1.00  0.00    -0.200 F 
ATOM     80  C   UNL A   1      43.264  24.905  25.633  1.00  0.00     0.200 A 
ATOM     81  F   UNL A   1      44.718  26.655  24.998  1.00  0.00    -0.200 F 
ATOM     82  F   UNL A   1      43.690  24.158  24.604  1.00  0.00    -0.200 F 
ENDBRANCH  48  72
BRANCH  60  83
ATOM     83  C   UNL A   1      44.624  27.067  34.368  1.00  0.00     0.064 A 
ATOM     84  C   UNL A   1      45.907  27.628  34.437  1.00  0.00     0.173 A 
ATOM     85  C   UNL A   1      44.390  25.865  35.052  1.00  0.00     0.173 A 
ATOM     86  F   UNL A   1      46.182  28.768  33.787  1.00  0.00    -0.203 F 
ATOM     87  C   UNL A   1      46.926  26.993  35.143  1.00  0.00     0.198 A 
ATOM     88  C   UNL A   1      45.404  25.248  35.779  1.00  0.00     0.198 A 
ATOM     89  F   UNL A   1      43.177  25.293  35.021  1.00  0.00    -0.203 F 
ATOM     90  F   UNL A   1      48.157  27.521  35.157  1.00  0.00    -0.200 F 
ATOM     91  C   UNL A   1      46.672  25.808  35.817  1.00  0.00     0.200 A 
ATOM     92  F   UNL A   1      45.154  24.108  36.439  1.00  0.00    -0.200 F 
ATOM     93  F   UNL A   1      47.653  25.199  36.498  1.00  0.00    -0.200 F 
ENDBRANCH  60  83
ENDBRANCH  34  35
ENDBRANCH  26  29
ENDBRANCH  24  25
ENDBRANCH  23  24
ENDBRANCH   1  23
TORSDOF 16
ENDMDL
