MODEL 1
REMARK VINA RESULT:     -12.4      0.000      0.000
REMARK SMILES [NH3+][C@]1(C(=O)NCCCCNC(=O)c2ccc(-c3c4nc(c(-c5c(F)c(F)c(F)c(F)c5F)c5ccc([nH]5)c(-c5c(F)c(F)c(F)c(F)c5F)c5nc(c(-c6c(F)c(F)c(F)c(F)c6F)c6ccc3[nH]6)C=C5)C=C4)cc2)CCC[C@@H](Oc2ccc3c(c2)CCC3)C1
REMARK SMILES IDX 7 1 6 2 5 3 3 4 4 5 2 7 76 8 90 9 77 10 79 11 78 12 1 13
REMARK SMILES IDX 80 17 81 18 82 19 86 20 83 21 85 22 84 23 87 24 89 25 88 26
REMARK SMILES IDX 8 27 9 28 10 29 11 30 12 32 13 33 14 34 75 35 15 36 74 37
REMARK SMILES IDX 16 38 17 39 18 40 68 41 19 42 73 43 67 44 69 45 20 46 72 47
REMARK SMILES IDX 66 48 65 49 21 51 53 52 33 53 52 54 34 55 37 56 51 57 70 58
REMARK SMILES IDX 35 59 36 60 50 62 71 63 38 64 22 65 23 66 31 67 24 68 25 69
REMARK SMILES IDX 29 70 32 71 26 72 27 73 30 74 28 75 54 76 55 77 63 78 56 79
REMARK SMILES IDX 57 80 61 81 64 82 58 83 59 84 62 85 60 86 39 87 40 88 48 89
REMARK SMILES IDX 41 90 42 91 46 92 49 93 43 94 44 95 47 96 45 97
REMARK H PARENT 5 6 1 14 1 15 1 16 10 31 69 50 37 61
REMARK Flexibility Score: inf
ROOT
ATOM      1  C   UNL A   1      36.521  20.153  25.007  1.00  0.00     0.023 C 
ENDROOT
BRANCH   1   2
ATOM      2  C   UNL A   1      36.327  21.635  25.396  1.00  0.00     0.116 C 
BRANCH   2   3
ATOM      3  N   UNL A   1      35.474  21.951  26.534  1.00  0.00    -0.351 N 
ATOM      4  C   UNL A   1      34.119  21.903  26.778  1.00  0.00     0.281 C 
ATOM      5  O   UNL A   1      33.783  22.037  27.961  1.00  0.00    -0.268 OA
ATOM      6  H   UNL A   1      35.986  22.274  27.311  1.00  0.00     0.163 HD
BRANCH   4   7
ATOM      7  C   UNL A   1      33.060  21.586  25.667  1.00  0.00     0.177 C 
ATOM      8  C   UNL A   1      31.654  22.148  26.019  1.00  0.00     0.079 C 
ATOM      9  C   UNL A   1      33.457  22.035  24.246  1.00  0.00     0.124 C 
ATOM     10  C   UNL A   1      31.426  23.620  25.675  1.00  0.00     0.011 C 
ATOM     11  C   UNL A   1      33.186  23.509  23.854  1.00  0.00     0.180 C 
ATOM     12  C   UNL A   1      31.773  23.941  24.228  1.00  0.00     0.046 C 
BRANCH   7  13
ATOM     13  N   UNL A   1      32.877  20.104  25.727  1.00  0.00    -0.345 N 
ATOM     14  H   UNL A   1      32.063  19.840  25.172  1.00  0.00     0.345 HD
ATOM     15  H   UNL A   1      32.736  19.819  26.696  1.00  0.00     0.345 HD
ATOM     16  H   UNL A   1      33.707  19.644  25.354  1.00  0.00     0.345 HD
ENDBRANCH   7  13
BRANCH  11  17
ATOM     17  O   UNL A   1      34.247  24.465  24.069  1.00  0.00    -0.490 OA
BRANCH  17  18
ATOM     18  C   UNL A   1      33.944  25.782  24.238  1.00  0.00     0.120 A 
ATOM     19  C   UNL A   1      33.682  26.656  23.181  1.00  0.00     0.047 A 
ATOM     20  C   UNL A   1      34.030  26.290  25.522  1.00  0.00     0.050 A 
ATOM     21  C   UNL A   1      33.342  27.998  23.436  1.00  0.00     0.008 A 
ATOM     22  C   UNL A   1      33.657  27.592  25.789  1.00  0.00    -0.041 A 
ATOM     23  C   UNL A   1      33.299  28.443  24.750  1.00  0.00    -0.045 A 
ATOM     24  C   UNL A   1      33.432  28.221  27.125  1.00  0.00     0.036 C 
ATOM     25  C   UNL A   1      32.813  29.749  25.295  1.00  0.00     0.036 C 
ATOM     26  C   UNL A   1      33.321  29.700  26.748  1.00  0.00     0.010 C 
ENDBRANCH  17  18
ENDBRANCH  11  17
ENDBRANCH   4   7
ENDBRANCH   2   3
ENDBRANCH   1   2
BRANCH   1  27
ATOM     27  C   UNL A   1      37.918  19.553  24.822  1.00  0.00     0.023 C 
BRANCH  27  28
ATOM     28  C   UNL A   1      39.002  19.988  25.787  1.00  0.00     0.116 C 
BRANCH  28  29
ATOM     29  N   UNL A   1      40.103  19.046  25.834  1.00  0.00    -0.352 N 
ATOM     30  C   UNL A   1      41.442  19.253  26.065  1.00  0.00     0.251 C 
ATOM     31  H   UNL A   1      39.852  18.108  25.674  1.00  0.00     0.163 HD
ATOM     32  O   UNL A   1      42.228  18.328  25.879  1.00  0.00    -0.269 OA
BRANCH  30  33
ATOM     33  C   UNL A   1      41.959  20.570  26.510  1.00  0.00     0.039 A 
ATOM     34  C   UNL A   1      42.449  21.453  25.541  1.00  0.00     0.014 A 
ATOM     35  C   UNL A   1      42.012  20.933  27.859  1.00  0.00     0.014 A 
ATOM     36  C   UNL A   1      42.932  22.710  25.916  1.00  0.00     0.010 A 
ATOM     37  C   UNL A   1      42.418  22.217  28.224  1.00  0.00     0.010 A 
ATOM     38  C   UNL A   1      42.888  23.119  27.258  1.00  0.00    -0.014 A 
BRANCH  38  39
ATOM     39  C   UNL A   1      43.326  24.482  27.665  1.00  0.00     0.031 A 
ATOM     40  C   UNL A   1      42.311  25.541  28.003  1.00  0.00     0.074 A 
ATOM     41  C   UNL A   1      44.638  24.787  27.672  1.00  0.00     0.049 A 
ATOM     42  N   UNL A   1      42.497  26.801  28.305  1.00  0.00    -0.248 NA
ATOM     43  C   UNL A   1      40.898  25.134  27.976  1.00  0.00     0.031 C 
ATOM     44  C   UNL A   1      45.721  23.864  27.329  1.00  0.00     0.029 A 
ATOM     45  N   UNL A   1      45.285  25.962  27.966  1.00  0.00    -0.354 N 
ATOM     46  C   UNL A   1      41.229  27.339  28.491  1.00  0.00     0.074 A 
ATOM     47  C   UNL A   1      40.280  26.281  28.215  1.00  0.00     0.031 C 
ATOM     48  C   UNL A   1      46.896  24.501  27.451  1.00  0.00     0.029 A 
ATOM     49  C   UNL A   1      46.651  25.887  27.835  1.00  0.00     0.049 A 
ATOM     50  H   UNL A   1      44.815  26.781  28.245  1.00  0.00     0.167 HD
ATOM     51  C   UNL A   1      40.888  28.593  28.874  1.00  0.00     0.037 A 
ATOM     52  C   UNL A   1      47.598  26.831  27.993  1.00  0.00     0.037 A 
ATOM     53  C   UNL A   1      41.835  29.638  29.164  1.00  0.00     0.049 A 
ATOM     54  C   UNL A   1      47.190  28.225  28.394  1.00  0.00     0.074 A 
ATOM     55  C   UNL A   1      41.588  30.925  29.614  1.00  0.00     0.029 A 
ATOM     56  N   UNL A   1      43.210  29.522  29.026  1.00  0.00    -0.354 N 
ATOM     57  N   UNL A   1      45.993  28.701  28.631  1.00  0.00    -0.248 NA
ATOM     58  C   UNL A   1      48.269  29.210  28.553  1.00  0.00     0.031 C 
ATOM     59  C   UNL A   1      42.808  31.602  29.694  1.00  0.00     0.029 A 
ATOM     60  C   UNL A   1      43.823  30.721  29.354  1.00  0.00     0.049 A 
ATOM     61  H   UNL A   1      43.681  28.707  28.737  1.00  0.00     0.167 HD
ATOM     62  C   UNL A   1      46.175  30.028  28.997  1.00  0.00     0.074 A 
ATOM     63  C   UNL A   1      47.601  30.277  28.965  1.00  0.00     0.031 C 
ATOM     64  C   UNL A   1      45.244  30.956  29.328  1.00  0.00     0.037 A 
BRANCH  51  65
ATOM     65  C   UNL A   1      39.424  28.908  29.002  1.00  0.00     0.064 A 
ATOM     66  C   UNL A   1      38.757  28.828  30.233  1.00  0.00     0.173 A 
ATOM     67  C   UNL A   1      38.688  29.339  27.886  1.00  0.00     0.173 A 
ATOM     68  F   UNL A   1      39.409  28.415  31.330  1.00  0.00    -0.203 F 
ATOM     69  C   UNL A   1      37.402  29.137  30.338  1.00  0.00     0.198 A 
ATOM     70  C   UNL A   1      37.343  29.678  28.001  1.00  0.00     0.198 A 
ATOM     71  F   UNL A   1      39.278  29.442  26.686  1.00  0.00    -0.203 F 
ATOM     72  F   UNL A   1      36.776  29.002  31.515  1.00  0.00    -0.200 F 
ATOM     73  C   UNL A   1      36.698  29.568  29.223  1.00  0.00     0.200 A 
ATOM     74  F   UNL A   1      36.668  30.110  26.926  1.00  0.00    -0.200 F 
ATOM     75  F   UNL A   1      35.398  29.873  29.327  1.00  0.00    -0.200 F 
ENDBRANCH  51  65
BRANCH  52  76
ATOM     76  C   UNL A   1      49.030  26.490  27.784  1.00  0.00     0.064 A 
ATOM     77  C   UNL A   1      49.876  26.233  28.873  1.00  0.00     0.173 A 
ATOM     78  C   UNL A   1      49.586  26.425  26.498  1.00  0.00     0.173 A 
ATOM     79  F   UNL A   1      49.397  26.306  30.124  1.00  0.00    -0.203 F 
ATOM     80  C   UNL A   1      51.226  25.946  28.684  1.00  0.00     0.198 A 
ATOM     81  C   UNL A   1      50.929  26.106  26.309  1.00  0.00     0.198 A 
ATOM     82  F   UNL A   1      48.820  26.658  25.423  1.00  0.00    -0.203 F 
ATOM     83  F   UNL A   1      52.022  25.756  29.745  1.00  0.00    -0.200 F 
ATOM     84  C   UNL A   1      51.750  25.877  27.402  1.00  0.00     0.200 A 
ATOM     85  F   UNL A   1      51.428  26.025  25.068  1.00  0.00    -0.200 F 
ATOM     86  F   UNL A   1      53.048  25.597  27.221  1.00  0.00    -0.200 F 
ENDBRANCH  52  76
BRANCH  64  87
ATOM     87  C   UNL A   1      45.737  32.319  29.725  1.00  0.00     0.064 A 
ATOM     88  C   UNL A   1      46.095  32.621  31.047  1.00  0.00     0.173 A 
ATOM     89  C   UNL A   1      45.892  33.324  28.757  1.00  0.00     0.173 A 
ATOM     90  F   UNL A   1      45.951  31.700  32.012  1.00  0.00    -0.203 F 
ATOM     91  C   UNL A   1      46.566  33.885  31.390  1.00  0.00     0.198 A 
ATOM     92  C   UNL A   1      46.395  34.577  29.099  1.00  0.00     0.198 A 
ATOM     93  F   UNL A   1      45.572  33.087  27.477  1.00  0.00    -0.203 F 
ATOM     94  F   UNL A   1      46.854  34.166  32.669  1.00  0.00    -0.200 F 
ATOM     95  C   UNL A   1      46.723  34.859  30.415  1.00  0.00     0.200 A 
ATOM     96  F   UNL A   1      46.561  35.511  28.152  1.00  0.00    -0.200 F 
ATOM     97  F   UNL A   1      47.186  36.073  30.747  1.00  0.00    -0.200 F 
ENDBRANCH  64  87
ENDBRANCH  38  39
ENDBRANCH  30  33
ENDBRANCH  28  29
ENDBRANCH  27  28
ENDBRANCH   1  27
TORSDOF 14
ENDMDL
MODEL 2
REMARK VINA RESULT:     -12.4      3.176      7.718
REMARK SMILES [NH3+][C@]1(C(=O)NCCCCNC(=O)c2ccc(-c3c4nc(c(-c5c(F)c(F)c(F)c(F)c5F)c5ccc([nH]5)c(-c5c(F)c(F)c(F)c(F)c5F)c5nc(c(-c6c(F)c(F)c(F)c(F)c6F)c6ccc3[nH]6)C=C5)C=C4)cc2)CCC[C@@H](Oc2ccc3c(c2)CCC3)C1
REMARK SMILES IDX 7 1 6 2 5 3 3 4 4 5 2 7 76 8 90 9 77 10 79 11 78 12 1 13
REMARK SMILES IDX 80 17 81 18 82 19 86 20 83 21 85 22 84 23 87 24 89 25 88 26
REMARK SMILES IDX 8 27 9 28 10 29 11 30 12 32 13 33 14 34 75 35 15 36 74 37
REMARK SMILES IDX 16 38 17 39 18 40 68 41 19 42 73 43 67 44 69 45 20 46 72 47
REMARK SMILES IDX 66 48 65 49 21 51 53 52 33 53 52 54 34 55 37 56 51 57 70 58
REMARK SMILES IDX 35 59 36 60 50 62 71 63 38 64 22 65 23 66 31 67 24 68 25 69
REMARK SMILES IDX 29 70 32 71 26 72 27 73 30 74 28 75 54 76 55 77 63 78 56 79
REMARK SMILES IDX 57 80 61 81 64 82 58 83 59 84 62 85 60 86 39 87 40 88 48 89
REMARK SMILES IDX 41 90 42 91 46 92 49 93 43 94 44 95 47 96 45 97
REMARK H PARENT 5 6 1 14 1 15 1 16 10 31 69 50 37 61
REMARK Flexibility Score: inf
ROOT
ATOM      1  C   UNL A   1      32.788  29.123  24.829  1.00  0.00     0.023 C 
ENDROOT
BRANCH   1   2
ATOM      2  C   UNL A   1      31.370  28.512  24.795  1.00  0.00     0.116 C 
BRANCH   2   3
ATOM      3  N   UNL A   1      31.051  27.439  25.729  1.00  0.00    -0.351 N 
ATOM      4  C   UNL A   1      30.818  26.086  25.613  1.00  0.00     0.281 C 
ATOM      5  O   UNL A   1      30.801  25.454  26.677  1.00  0.00    -0.268 OA
ATOM      6  H   UNL A   1      30.988  27.755  26.659  1.00  0.00     0.163 HD
BRANCH   4   7
ATOM      7  C   UNL A   1      30.692  25.353  24.234  1.00  0.00     0.177 C 
ATOM      8  C   UNL A   1      31.618  25.978  23.153  1.00  0.00     0.079 C 
ATOM      9  C   UNL A   1      30.912  23.828  24.288  1.00  0.00     0.124 C 
ATOM     10  C   UNL A   1      33.068  25.492  23.164  1.00  0.00     0.011 C 
ATOM     11  C   UNL A   1      32.371  23.309  24.245  1.00  0.00     0.180 C 
ATOM     12  C   UNL A   1      33.175  23.974  23.135  1.00  0.00     0.046 C 
BRANCH   7  13
ATOM     13  N   UNL A   1      29.315  25.678  23.755  1.00  0.00    -0.345 N 
ATOM     14  H   UNL A   1      29.201  25.342  22.798  1.00  0.00     0.345 HD
ATOM     15  H   UNL A   1      29.176  26.688  23.780  1.00  0.00     0.345 HD
ATOM     16  H   UNL A   1      28.629  25.226  24.358  1.00  0.00     0.345 HD
ENDBRANCH   7  13
BRANCH  11  17
ATOM     17  O   UNL A   1      33.040  23.092  25.506  1.00  0.00    -0.490 OA
BRANCH  17  18
ATOM     18  C   UNL A   1      34.308  22.594  25.520  1.00  0.00     0.120 A 
ATOM     19  C   UNL A   1      34.621  21.270  25.206  1.00  0.00     0.047 A 
ATOM     20  C   UNL A   1      35.309  23.424  25.994  1.00  0.00     0.050 A 
ATOM     21  C   UNL A   1      35.960  20.837  25.208  1.00  0.00     0.008 A 
ATOM     22  C   UNL A   1      36.629  23.024  25.959  1.00  0.00    -0.041 A 
ATOM     23  C   UNL A   1      36.958  21.737  25.554  1.00  0.00    -0.045 A 
ATOM     24  C   UNL A   1      37.844  23.868  26.174  1.00  0.00     0.036 C 
ATOM     25  C   UNL A   1      38.445  21.583  25.475  1.00  0.00     0.036 C 
ATOM     26  C   UNL A   1      38.936  22.802  26.279  1.00  0.00     0.010 C 
ENDBRANCH  17  18
ENDBRANCH  11  17
ENDBRANCH   4   7
ENDBRANCH   2   3
ENDBRANCH   1   2
BRANCH   1  27
ATOM     27  C   UNL A   1      33.928  28.449  25.599  1.00  0.00     0.023 C 
BRANCH  27  28
ATOM     28  C   UNL A   1      33.912  28.554  27.110  1.00  0.00     0.116 C 
BRANCH  28  29
ATOM     29  N   UNL A   1      33.846  29.929  27.564  1.00  0.00    -0.352 N 
ATOM     30  C   UNL A   1      34.748  30.673  28.284  1.00  0.00     0.251 C 
ATOM     31  H   UNL A   1      33.021  30.406  27.317  1.00  0.00     0.163 HD
ATOM     32  O   UNL A   1      34.405  31.771  28.716  1.00  0.00    -0.269 OA
BRANCH  30  33
ATOM     33  C   UNL A   1      36.115  30.172  28.570  1.00  0.00     0.039 A 
ATOM     34  C   UNL A   1      37.082  30.266  27.563  1.00  0.00     0.014 A 
ATOM     35  C   UNL A   1      36.448  29.573  29.789  1.00  0.00     0.014 A 
ATOM     36  C   UNL A   1      38.386  29.817  27.796  1.00  0.00     0.010 A 
ATOM     37  C   UNL A   1      37.768  29.201  30.048  1.00  0.00     0.010 A 
ATOM     38  C   UNL A   1      38.751  29.314  29.054  1.00  0.00    -0.014 A 
BRANCH  38  39
ATOM     39  C   UNL A   1      40.152  28.905  29.345  1.00  0.00     0.031 A 
ATOM     40  C   UNL A   1      41.074  29.821  30.102  1.00  0.00     0.074 A 
ATOM     41  C   UNL A   1      40.615  27.730  28.874  1.00  0.00     0.049 A 
ATOM     42  N   UNL A   1      42.344  29.673  30.384  1.00  0.00    -0.248 NA
ATOM     43  C   UNL A   1      40.498  31.085  30.586  1.00  0.00     0.031 C 
ATOM     44  C   UNL A   1      39.837  26.767  28.095  1.00  0.00     0.029 A 
ATOM     45  N   UNL A   1      41.857  27.151  28.970  1.00  0.00    -0.354 N 
ATOM     46  C   UNL A   1      42.720  30.824  31.065  1.00  0.00     0.074 A 
ATOM     47  C   UNL A   1      41.557  31.686  31.107  1.00  0.00     0.031 C 
ATOM     48  C   UNL A   1      40.611  25.710  27.801  1.00  0.00     0.029 A 
ATOM     49  C   UNL A   1      41.952  25.939  28.330  1.00  0.00     0.049 A 
ATOM     50  H   UNL A   1      42.609  27.565  29.453  1.00  0.00     0.167 HD
ATOM     51  C   UNL A   1      43.918  31.127  31.621  1.00  0.00     0.037 A 
ATOM     52  C   UNL A   1      43.003  25.112  28.174  1.00  0.00     0.037 A 
ATOM     53  C   UNL A   1      45.068  30.260  31.593  1.00  0.00     0.049 A 
ATOM     54  C   UNL A   1      44.330  25.484  28.780  1.00  0.00     0.074 A 
ATOM     55  C   UNL A   1      46.308  30.455  32.177  1.00  0.00     0.029 A 
ATOM     56  N   UNL A   1      45.123  29.039  30.940  1.00  0.00    -0.354 N 
ATOM     57  N   UNL A   1      44.654  26.545  29.477  1.00  0.00    -0.248 NA
ATOM     58  C   UNL A   1      45.438  24.540  28.577  1.00  0.00     0.031 C 
ATOM     59  C   UNL A   1      47.129  29.378  31.831  1.00  0.00     0.029 A 
ATOM     60  C   UNL A   1      46.383  28.480  31.082  1.00  0.00     0.049 A 
ATOM     61  H   UNL A   1      44.375  28.627  30.447  1.00  0.00     0.167 HD
ATOM     62  C   UNL A   1      45.988  26.382  29.824  1.00  0.00     0.074 A 
ATOM     63  C   UNL A   1      46.411  25.112  29.272  1.00  0.00     0.031 C 
ATOM     64  C   UNL A   1      46.791  27.211  30.536  1.00  0.00     0.037 A 
BRANCH  51  65
ATOM     65  C   UNL A   1      44.050  32.457  32.310  1.00  0.00     0.064 A 
ATOM     66  C   UNL A   1      43.744  32.617  33.669  1.00  0.00     0.173 A 
ATOM     67  C   UNL A   1      44.532  33.575  31.611  1.00  0.00     0.173 A 
ATOM     68  F   UNL A   1      43.272  31.583  34.382  1.00  0.00    -0.203 F 
ATOM     69  C   UNL A   1      43.884  33.853  34.296  1.00  0.00     0.198 A 
ATOM     70  C   UNL A   1      44.702  34.801  32.249  1.00  0.00     0.198 A 
ATOM     71  F   UNL A   1      44.849  33.477  30.312  1.00  0.00    -0.203 F 
ATOM     72  F   UNL A   1      43.535  33.993  35.582  1.00  0.00    -0.200 F 
ATOM     73  C   UNL A   1      44.370  34.942  33.588  1.00  0.00     0.200 A 
ATOM     74  F   UNL A   1      45.188  35.848  31.567  1.00  0.00    -0.200 F 
ATOM     75  F   UNL A   1      44.512  36.127  34.195  1.00  0.00    -0.200 F 
ENDBRANCH  51  65
BRANCH  52  76
ATOM     76  C   UNL A   1      42.842  23.840  27.421  1.00  0.00     0.064 A 
ATOM     77  C   UNL A   1      42.354  22.686  28.051  1.00  0.00     0.173 A 
ATOM     78  C   UNL A   1      43.182  23.746  26.063  1.00  0.00     0.173 A 
ATOM     79  F   UNL A   1      42.037  22.719  29.354  1.00  0.00    -0.203 F 
ATOM     80  C   UNL A   1      42.233  21.483  27.358  1.00  0.00     0.198 A 
ATOM     81  C   UNL A   1      43.031  22.551  25.364  1.00  0.00     0.198 A 
ATOM     82  F   UNL A   1      43.650  24.821  25.412  1.00  0.00    -0.203 F 
ATOM     83  F   UNL A   1      41.813  20.384  27.999  1.00  0.00    -0.200 F 
ATOM     84  C   UNL A   1      42.566  21.418  26.014  1.00  0.00     0.200 A 
ATOM     85  F   UNL A   1      43.339  22.496  24.060  1.00  0.00    -0.200 F 
ATOM     86  F   UNL A   1      42.447  20.262  25.347  1.00  0.00    -0.200 F 
ENDBRANCH  52  76
BRANCH  64  87
ATOM     87  C   UNL A   1      48.199  26.755  30.796  1.00  0.00     0.064 A 
ATOM     88  C   UNL A   1      48.515  25.901  31.862  1.00  0.00     0.173 A 
ATOM     89  C   UNL A   1      49.239  27.147  29.938  1.00  0.00     0.173 A 
ATOM     90  F   UNL A   1      47.560  25.510  32.720  1.00  0.00    -0.203 F 
ATOM     91  C   UNL A   1      49.824  25.476  32.076  1.00  0.00     0.198 A 
ATOM     92  C   UNL A   1      50.540  26.693  30.136  1.00  0.00     0.198 A 
ATOM     93  F   UNL A   1      48.991  27.956  28.899  1.00  0.00    -0.203 F 
ATOM     94  F   UNL A   1      50.110  24.701  33.131  1.00  0.00    -0.200 F 
ATOM     95  C   UNL A   1      50.833  25.865  31.208  1.00  0.00     0.200 A 
ATOM     96  F   UNL A   1      51.511  27.058  29.287  1.00  0.00    -0.200 F 
ATOM     97  F   UNL A   1      52.091  25.447  31.411  1.00  0.00    -0.200 F 
ENDBRANCH  64  87
ENDBRANCH  38  39
ENDBRANCH  30  33
ENDBRANCH  28  29
ENDBRANCH  27  28
ENDBRANCH   1  27
TORSDOF 14
ENDMDL
MODEL 3
REMARK VINA RESULT:     -12.4      5.591     10.749
REMARK SMILES [NH3+][C@]1(C(=O)NCCCCNC(=O)c2ccc(-c3c4nc(c(-c5c(F)c(F)c(F)c(F)c5F)c5ccc([nH]5)c(-c5c(F)c(F)c(F)c(F)c5F)c5nc(c(-c6c(F)c(F)c(F)c(F)c6F)c6ccc3[nH]6)C=C5)C=C4)cc2)CCC[C@@H](Oc2ccc3c(c2)CCC3)C1
REMARK SMILES IDX 7 1 6 2 5 3 3 4 4 5 2 7 76 8 90 9 77 10 79 11 78 12 1 13
REMARK SMILES IDX 80 17 81 18 82 19 86 20 83 21 85 22 84 23 87 24 89 25 88 26
REMARK SMILES IDX 8 27 9 28 10 29 11 30 12 32 13 33 14 34 75 35 15 36 74 37
REMARK SMILES IDX 16 38 17 39 18 40 68 41 19 42 73 43 67 44 69 45 20 46 72 47
REMARK SMILES IDX 66 48 65 49 21 51 53 52 33 53 52 54 34 55 37 56 51 57 70 58
REMARK SMILES IDX 35 59 36 60 50 62 71 63 38 64 22 65 23 66 31 67 24 68 25 69
REMARK SMILES IDX 29 70 32 71 26 72 27 73 30 74 28 75 54 76 55 77 63 78 56 79
REMARK SMILES IDX 57 80 61 81 64 82 58 83 59 84 62 85 60 86 39 87 40 88 48 89
REMARK SMILES IDX 41 90 42 91 46 92 49 93 43 94 44 95 47 96 45 97
REMARK H PARENT 5 6 1 14 1 15 1 16 10 31 69 50 37 61
REMARK Flexibility Score: inf
ROOT
ATOM      1  C   UNL A   1      31.393  31.041  25.855  1.00  0.00     0.023 C 
ENDROOT
BRANCH   1   2
ATOM      2  C   UNL A   1      32.569  30.041  25.880  1.00  0.00     0.116 C 
BRANCH   2   3
ATOM      3  N   UNL A   1      33.161  29.630  24.613  1.00  0.00    -0.351 N 
ATOM      4  C   UNL A   1      32.746  28.858  23.550  1.00  0.00     0.281 C 
ATOM      5  O   UNL A   1      33.450  28.924  22.535  1.00  0.00    -0.268 OA
ATOM      6  H   UNL A   1      34.069  29.989  24.487  1.00  0.00     0.163 HD
BRANCH   4   7
ATOM      7  C   UNL A   1      31.415  28.032  23.560  1.00  0.00     0.177 C 
ATOM      8  C   UNL A   1      31.315  27.066  22.346  1.00  0.00     0.079 C 
ATOM      9  C   UNL A   1      31.144  27.255  24.864  1.00  0.00     0.124 C 
ATOM     10  C   UNL A   1      32.030  25.724  22.508  1.00  0.00     0.011 C 
ATOM     11  C   UNL A   1      31.814  25.868  25.030  1.00  0.00     0.180 C 
ATOM     12  C   UNL A   1      31.633  25.003  23.788  1.00  0.00     0.046 C 
BRANCH   7  13
ATOM     13  N   UNL A   1      30.341  29.038  23.305  1.00  0.00    -0.345 N 
ATOM     14  H   UNL A   1      30.477  29.842  23.917  1.00  0.00     0.345 HD
ATOM     15  H   UNL A   1      29.430  28.617  23.492  1.00  0.00     0.345 HD
ATOM     16  H   UNL A   1      30.382  29.340  22.332  1.00  0.00     0.345 HD
ENDBRANCH   7  13
BRANCH  11  17
ATOM     17  O   UNL A   1      33.099  25.820  25.686  1.00  0.00    -0.490 OA
BRANCH  17  18
ATOM     18  C   UNL A   1      33.792  24.648  25.728  1.00  0.00     0.120 A 
ATOM     19  C   UNL A   1      33.497  23.607  26.610  1.00  0.00     0.047 A 
ATOM     20  C   UNL A   1      34.921  24.553  24.934  1.00  0.00     0.050 A 
ATOM     21  C   UNL A   1      34.237  22.410  26.570  1.00  0.00     0.008 A 
ATOM     22  C   UNL A   1      35.627  23.370  24.855  1.00  0.00    -0.041 A 
ATOM     23  C   UNL A   1      35.279  22.293  25.661  1.00  0.00    -0.045 A 
ATOM     24  C   UNL A   1      36.690  23.005  23.870  1.00  0.00     0.036 C 
ATOM     25  C   UNL A   1      36.098  21.093  25.304  1.00  0.00     0.036 C 
ATOM     26  C   UNL A   1      37.242  21.717  24.483  1.00  0.00     0.010 C 
ENDBRANCH  17  18
ENDBRANCH  11  17
ENDBRANCH   4   7
ENDBRANCH   2   3
ENDBRANCH   1   2
BRANCH   1  27
ATOM     27  C   UNL A   1      31.339  32.232  26.818  1.00  0.00     0.023 C 
BRANCH  27  28
ATOM     28  C   UNL A   1      32.641  32.933  27.140  1.00  0.00     0.116 C 
BRANCH  28  29
ATOM     29  N   UNL A   1      32.431  34.282  27.628  1.00  0.00    -0.352 N 
ATOM     30  C   UNL A   1      33.035  34.960  28.660  1.00  0.00     0.251 C 
ATOM     31  H   UNL A   1      31.746  34.795  27.142  1.00  0.00     0.163 HD
ATOM     32  O   UNL A   1      32.571  36.041  29.014  1.00  0.00    -0.269 OA
BRANCH  30  33
ATOM     33  C   UNL A   1      34.216  34.406  29.367  1.00  0.00     0.039 A 
ATOM     34  C   UNL A   1      34.009  33.731  30.576  1.00  0.00     0.014 A 
ATOM     35  C   UNL A   1      35.518  34.578  28.890  1.00  0.00     0.014 A 
ATOM     36  C   UNL A   1      35.093  33.182  31.267  1.00  0.00     0.010 A 
ATOM     37  C   UNL A   1      36.588  33.960  29.538  1.00  0.00     0.010 A 
ATOM     38  C   UNL A   1      36.390  33.259  30.736  1.00  0.00    -0.014 A 
BRANCH  38  39
ATOM     39  C   UNL A   1      37.544  32.613  31.420  1.00  0.00     0.031 A 
ATOM     40  C   UNL A   1      38.258  31.454  30.780  1.00  0.00     0.074 A 
ATOM     41  C   UNL A   1      37.912  33.032  32.646  1.00  0.00     0.049 A 
ATOM     42  N   UNL A   1      39.232  30.716  31.253  1.00  0.00    -0.248 NA
ATOM     43  C   UNL A   1      37.801  31.054  29.440  1.00  0.00     0.031 C 
ATOM     44  C   UNL A   1      37.279  34.120  33.392  1.00  0.00     0.029 A 
ATOM     45  N   UNL A   1      38.900  32.584  33.488  1.00  0.00    -0.354 N 
ATOM     46  C   UNL A   1      39.494  29.762  30.277  1.00  0.00     0.074 A 
ATOM     47  C   UNL A   1      38.542  29.981  29.209  1.00  0.00     0.031 C 
ATOM     48  C   UNL A   1      37.906  34.268  34.571  1.00  0.00     0.029 A 
ATOM     49  C   UNL A   1      38.953  33.258  34.684  1.00  0.00     0.049 A 
ATOM     50  H   UNL A   1      39.513  31.849  33.257  1.00  0.00     0.167 HD
ATOM     51  C   UNL A   1      40.454  28.806  30.264  1.00  0.00     0.037 A 
ATOM     52  C   UNL A   1      39.746  33.075  35.757  1.00  0.00     0.037 A 
ATOM     53  C   UNL A   1      41.411  28.602  31.321  1.00  0.00     0.049 A 
ATOM     54  C   UNL A   1      40.787  31.987  35.728  1.00  0.00     0.074 A 
ATOM     55  C   UNL A   1      42.456  27.695  31.375  1.00  0.00     0.029 A 
ATOM     56  N   UNL A   1      41.436  29.309  32.514  1.00  0.00    -0.354 N 
ATOM     57  N   UNL A   1      41.068  31.136  34.773  1.00  0.00    -0.248 NA
ATOM     58  C   UNL A   1      41.623  31.839  36.928  1.00  0.00     0.031 C 
ATOM     59  C   UNL A   1      43.078  27.816  32.621  1.00  0.00     0.029 A 
ATOM     60  C   UNL A   1      42.460  28.841  33.321  1.00  0.00     0.049 A 
ATOM     61  H   UNL A   1      40.817  30.037  32.752  1.00  0.00     0.167 HD
ATOM     62  C   UNL A   1      42.131  30.374  35.241  1.00  0.00     0.074 A 
ATOM     63  C   UNL A   1      42.454  30.874  36.560  1.00  0.00     0.031 C 
ATOM     64  C   UNL A   1      42.780  29.352  34.630  1.00  0.00     0.037 A 
BRANCH  51  65
ATOM     65  C   UNL A   1      40.517  27.899  29.067  1.00  0.00     0.064 A 
ATOM     66  C   UNL A   1      39.737  26.736  28.981  1.00  0.00     0.173 A 
ATOM     67  C   UNL A   1      41.334  28.221  27.972  1.00  0.00     0.173 A 
ATOM     68  F   UNL A   1      38.944  26.377  30.002  1.00  0.00    -0.203 F 
ATOM     69  C   UNL A   1      39.797  25.912  27.860  1.00  0.00     0.198 A 
ATOM     70  C   UNL A   1      41.367  27.413  26.839  1.00  0.00     0.198 A 
ATOM     71  F   UNL A   1      42.094  29.325  27.997  1.00  0.00    -0.203 F 
ATOM     72  F   UNL A   1      39.082  24.779  27.824  1.00  0.00    -0.200 F 
ATOM     73  C   UNL A   1      40.606  26.255  26.786  1.00  0.00     0.200 A 
ATOM     74  F   UNL A   1      42.137  27.754  25.796  1.00  0.00    -0.200 F 
ATOM     75  F   UNL A   1      40.656  25.467  25.705  1.00  0.00    -0.200 F 
ENDBRANCH  51  65
BRANCH  52  76
ATOM     76  C   UNL A   1      39.597  33.951  36.949  1.00  0.00     0.064 A 
ATOM     77  C   UNL A   1      40.240  35.196  37.014  1.00  0.00     0.173 A 
ATOM     78  C   UNL A   1      38.822  33.561  38.051  1.00  0.00     0.173 A 
ATOM     79  F   UNL A   1      41.012  35.603  35.996  1.00  0.00    -0.203 F 
ATOM     80  C   UNL A   1      40.131  36.005  38.143  1.00  0.00     0.198 A 
ATOM     81  C   UNL A   1      38.688  34.386  39.166  1.00  0.00     0.198 A 
ATOM     82  F   UNL A   1      38.183  32.382  38.039  1.00  0.00    -0.203 F 
ATOM     83  F   UNL A   1      40.798  37.167  38.198  1.00  0.00    -0.200 F 
ATOM     84  C   UNL A   1      39.350  35.602  39.215  1.00  0.00     0.200 A 
ATOM     85  F   UNL A   1      37.919  34.000  40.194  1.00  0.00    -0.200 F 
ATOM     86  F   UNL A   1      39.242  36.383  40.299  1.00  0.00    -0.200 F 
ENDBRANCH  52  76
BRANCH  64  87
ATOM     87  C   UNL A   1      43.933  28.728  35.364  1.00  0.00     0.064 A 
ATOM     88  C   UNL A   1      45.252  29.166  35.178  1.00  0.00     0.173 A 
ATOM     89  C   UNL A   1      43.706  27.707  36.301  1.00  0.00     0.173 A 
ATOM     90  F   UNL A   1      45.524  30.129  34.283  1.00  0.00    -0.203 F 
ATOM     91  C   UNL A   1      46.305  28.587  35.881  1.00  0.00     0.198 A 
ATOM     92  C   UNL A   1      44.758  27.153  37.026  1.00  0.00     0.198 A 
ATOM     93  F   UNL A   1      42.464  27.256  36.524  1.00  0.00    -0.203 F 
ATOM     94  F   UNL A   1      47.563  28.987  35.649  1.00  0.00    -0.200 F 
ATOM     95  C   UNL A   1      46.056  27.588  36.810  1.00  0.00     0.200 A 
ATOM     96  F   UNL A   1      44.514  26.199  37.934  1.00  0.00    -0.200 F 
ATOM     97  F   UNL A   1      47.071  27.038  37.493  1.00  0.00    -0.200 F 
ENDBRANCH  64  87
ENDBRANCH  38  39
ENDBRANCH  30  33
ENDBRANCH  28  29
ENDBRANCH  27  28
ENDBRANCH   1  27
TORSDOF 14
ENDMDL
