MODEL 1
REMARK VINA RESULT:     -11.4      0.000      0.000
REMARK SMILES CCOc1cc(OCC)cc(-c2ccc([C@@H](C)C(=O)NCCCCNC(=O)c3ccc(-c4c5nc(c(-c6c(F)c(F)c(F)c(F)c6F)c6ccc([nH]6)c(-c6c(F)c(F)c(F)c(F)c6F)c6nc(c(-c7c(F)c(F)c(F)c(F)c7F)c7ccc4[nH]7)C=C6)C=C5)cc3)cc2)c1
REMARK SMILES IDX 21 1 20 2 18 3 19 4 16 6 17 7 15 8 12 9 13 10 92 11 14 12
REMARK SMILES IDX 91 13 11 14 4 15 5 16 93 17 6 18 10 19 3 20 2 21 1 22 7 23
REMARK SMILES IDX 8 24 9 25 22 26 23 27 24 28 25 29 26 30 27 32 28 33 29 34
REMARK SMILES IDX 90 35 30 36 89 37 31 38 32 39 33 40 83 41 34 42 88 43 82 44
REMARK SMILES IDX 84 45 35 46 87 47 81 48 80 49 36 51 68 52 48 53 67 54 49 55
REMARK SMILES IDX 52 56 66 57 85 58 50 59 51 60 65 62 86 63 53 64 37 65 38 66
REMARK SMILES IDX 46 67 39 68 40 69 44 70 47 71 41 72 42 73 45 74 43 75 69 76
REMARK SMILES IDX 70 77 78 78 71 79 72 80 76 81 79 82 73 83 74 84 77 85 75 86
REMARK SMILES IDX 54 87 55 88 63 89 56 90 57 91 61 92 64 93 58 94 59 95 62 96
REMARK SMILES IDX 60 97
REMARK H PARENT 20 5 25 31 84 50 52 61
REMARK Flexibility Score: inf
ROOT
ATOM      1  C   UNL A   1      31.711  30.239  25.710  1.00  0.00     0.116 C 
ENDROOT
BRANCH   1   2
ATOM      2  N   UNL A   1      31.168  29.600  24.530  1.00  0.00    -0.356 N 
ATOM      3  C   UNL A   1      31.736  28.782  23.599  1.00  0.00     0.227 C 
ATOM      4  O   UNL A   1      31.009  28.444  22.656  1.00  0.00    -0.274 OA
ATOM      5  H   UNL A   1      30.216  29.789  24.371  1.00  0.00     0.163 HD
BRANCH   3   6
ATOM      6  C   UNL A   1      33.185  28.271  23.670  1.00  0.00     0.105 C 
ATOM      7  C   UNL A   1      34.111  28.867  22.610  1.00  0.00     0.023 C 
BRANCH   6   8
ATOM      8  C   UNL A   1      33.279  26.766  23.859  1.00  0.00    -0.036 A 
ATOM      9  C   UNL A   1      33.701  23.964  24.210  1.00  0.00    -0.018 A 
ATOM     10  C   UNL A   1      33.228  24.781  25.251  1.00  0.00     0.009 A 
ATOM     11  C   UNL A   1      33.916  24.583  22.970  1.00  0.00     0.009 A 
ATOM     12  C   UNL A   1      32.978  26.141  25.067  1.00  0.00     0.005 A 
ATOM     13  C   UNL A   1      33.731  25.962  22.803  1.00  0.00     0.005 A 
BRANCH   9  14
ATOM     14  C   UNL A   1      33.978  22.527  24.445  1.00  0.00    -0.011 A 
ATOM     15  C   UNL A   1      35.505  20.700  24.957  1.00  0.00     0.123 A 
ATOM     16  C   UNL A   1      34.439  19.805  25.035  1.00  0.00     0.092 A 
ATOM     17  C   UNL A   1      35.277  22.043  24.654  1.00  0.00     0.055 A 
ATOM     18  C   UNL A   1      33.137  20.249  24.809  1.00  0.00     0.123 A 
ATOM     19  C   UNL A   1      32.925  21.593  24.499  1.00  0.00     0.055 A 
BRANCH  15  20
ATOM     20  O   UNL A   1      36.775  20.204  25.055  1.00  0.00    -0.494 OA
BRANCH  20  21
ATOM     21  C   UNL A   1      37.792  21.109  24.605  1.00  0.00     0.226 C 
ATOM     22  C   UNL A   1      38.488  21.807  25.764  1.00  0.00     0.049 C 
ENDBRANCH  20  21
ENDBRANCH  15  20
BRANCH  18  23
ATOM     23  O   UNL A   1      32.153  19.306  24.937  1.00  0.00    -0.494 OA
BRANCH  23  24
ATOM     24  C   UNL A   1      32.375  18.015  24.361  1.00  0.00     0.226 C 
ATOM     25  C   UNL A   1      32.443  18.077  22.841  1.00  0.00     0.049 C 
ENDBRANCH  23  24
ENDBRANCH  18  23
ENDBRANCH   9  14
ENDBRANCH   6   8
ENDBRANCH   3   6
ENDBRANCH   1   2
BRANCH   1  26
ATOM     26  C   UNL A   1      31.706  29.311  26.926  1.00  0.00     0.023 C 
BRANCH  26  27
ATOM     27  C   UNL A   1      33.058  28.690  27.274  1.00  0.00     0.023 C 
BRANCH  27  28
ATOM     28  C   UNL A   1      34.240  29.651  27.256  1.00  0.00     0.116 C 
BRANCH  28  29
ATOM     29  N   UNL A   1      34.113  30.775  28.172  1.00  0.00    -0.352 N 
ATOM     30  C   UNL A   1      35.028  31.231  29.095  1.00  0.00     0.251 C 
ATOM     31  H   UNL A   1      33.264  31.273  28.125  1.00  0.00     0.163 HD
ATOM     32  O   UNL A   1      34.751  32.148  29.850  1.00  0.00    -0.269 OA
BRANCH  30  33
ATOM     33  C   UNL A   1      36.340  30.552  29.196  1.00  0.00     0.039 A 
ATOM     34  C   UNL A   1      37.299  30.796  28.209  1.00  0.00     0.014 A 
ATOM     35  C   UNL A   1      36.639  29.731  30.284  1.00  0.00     0.014 A 
ATOM     36  C   UNL A   1      38.586  30.276  28.358  1.00  0.00     0.010 A 
ATOM     37  C   UNL A   1      37.942  29.284  30.473  1.00  0.00     0.010 A 
ATOM     38  C   UNL A   1      38.929  29.552  29.512  1.00  0.00    -0.014 A 
BRANCH  38  39
ATOM     39  C   UNL A   1      40.314  29.065  29.731  1.00  0.00     0.031 A 
ATOM     40  C   UNL A   1      41.294  29.903  30.503  1.00  0.00     0.074 A 
ATOM     41  C   UNL A   1      40.707  27.902  29.177  1.00  0.00     0.049 A 
ATOM     42  N   UNL A   1      42.558  29.676  30.759  1.00  0.00    -0.248 NA
ATOM     43  C   UNL A   1      40.798  31.185  31.028  1.00  0.00     0.031 C 
ATOM     44  C   UNL A   1      39.870  27.034  28.346  1.00  0.00     0.029 A 
ATOM     45  N   UNL A   1      41.916  27.253  29.221  1.00  0.00    -0.354 N 
ATOM     46  C   UNL A   1      43.007  30.789  31.457  1.00  0.00     0.074 A 
ATOM     47  C   UNL A   1      41.902  31.717  31.531  1.00  0.00     0.031 C 
ATOM     48  C   UNL A   1      40.580  25.952  27.987  1.00  0.00     0.029 A 
ATOM     49  C   UNL A   1      41.928  26.064  28.534  1.00  0.00     0.049 A 
ATOM     50  H   UNL A   1      42.700  27.606  29.700  1.00  0.00     0.167 HD
ATOM     51  C   UNL A   1      44.225  31.004  32.010  1.00  0.00     0.037 A 
ATOM     52  C   UNL A   1      42.916  25.164  28.371  1.00  0.00     0.037 A 
ATOM     53  C   UNL A   1      45.311  30.063  31.965  1.00  0.00     0.049 A 
ATOM     54  C   UNL A   1      44.248  25.411  29.026  1.00  0.00     0.074 A 
ATOM     55  C   UNL A   1      46.562  30.157  32.549  1.00  0.00     0.029 A 
ATOM     56  N   UNL A   1      45.272  28.848  31.296  1.00  0.00    -0.354 N 
ATOM     57  N   UNL A   1      44.638  26.431  29.750  1.00  0.00    -0.248 NA
ATOM     58  C   UNL A   1      45.273  24.373  28.852  1.00  0.00     0.031 C 
ATOM     59  C   UNL A   1      47.293  29.015  32.204  1.00  0.00     0.029 A 
ATOM     60  C   UNL A   1      46.481  28.189  31.443  1.00  0.00     0.049 A 
ATOM     61  H   UNL A   1      44.500  28.505  30.791  1.00  0.00     0.167 HD
ATOM     62  C   UNL A   1      45.938  26.147  30.142  1.00  0.00     0.074 A 
ATOM     63  C   UNL A   1      46.267  24.850  29.588  1.00  0.00     0.031 C 
ATOM     64  C   UNL A   1      46.785  26.892  30.893  1.00  0.00     0.037 A 
BRANCH  51  65
ATOM     65  C   UNL A   1      44.436  32.307  32.727  1.00  0.00     0.064 A 
ATOM     66  C   UNL A   1      44.150  32.448  34.094  1.00  0.00     0.173 A 
ATOM     67  C   UNL A   1      44.954  33.419  32.047  1.00  0.00     0.173 A 
ATOM     68  F   UNL A   1      43.639  31.418  34.786  1.00  0.00    -0.203 F 
ATOM     69  C   UNL A   1      44.341  33.663  34.744  1.00  0.00     0.198 A 
ATOM     70  C   UNL A   1      45.173  34.625  32.709  1.00  0.00     0.198 A 
ATOM     71  F   UNL A   1      45.249  33.338  30.741  1.00  0.00    -0.203 F 
ATOM     72  F   UNL A   1      44.009  33.789  36.036  1.00  0.00    -0.200 F 
ATOM     73  C   UNL A   1      44.860  34.748  34.054  1.00  0.00     0.200 A 
ATOM     74  F   UNL A   1      45.685  35.669  32.042  1.00  0.00    -0.200 F 
ATOM     75  F   UNL A   1      45.048  35.917  34.682  1.00  0.00    -0.200 F 
ENDBRANCH  51  65
BRANCH  52  76
ATOM     76  C   UNL A   1      42.669  23.921  27.594  1.00  0.00     0.064 A 
ATOM     77  C   UNL A   1      43.000  23.848  26.234  1.00  0.00     0.173 A 
ATOM     78  C   UNL A   1      42.097  22.788  28.190  1.00  0.00     0.173 A 
ATOM     79  F   UNL A   1      43.531  24.913  25.616  1.00  0.00    -0.203 F 
ATOM     80  C   UNL A   1      42.746  22.696  25.492  1.00  0.00     0.198 A 
ATOM     81  C   UNL A   1      41.869  21.627  27.453  1.00  0.00     0.198 A 
ATOM     82  F   UNL A   1      41.769  22.805  29.489  1.00  0.00    -0.203 F 
ATOM     83  F   UNL A   1      43.031  22.669  24.182  1.00  0.00    -0.200 F 
ATOM     84  C   UNL A   1      42.186  21.584  26.103  1.00  0.00     0.200 A 
ATOM     85  F   UNL A   1      41.340  20.551  28.049  1.00  0.00    -0.200 F 
ATOM     86  F   UNL A   1      41.945  20.476  25.390  1.00  0.00    -0.200 F 
ENDBRANCH  52  76
BRANCH  64  87
ATOM     87  C   UNL A   1      48.134  26.306  31.190  1.00  0.00     0.064 A 
ATOM     88  C   UNL A   1      48.370  25.548  32.346  1.00  0.00     0.173 A 
ATOM     89  C   UNL A   1      49.195  26.480  30.290  1.00  0.00     0.173 A 
ATOM     90  F   UNL A   1      47.390  25.366  33.246  1.00  0.00    -0.203 F 
ATOM     91  C   UNL A   1      49.627  25.008  32.604  1.00  0.00     0.198 A 
ATOM     92  C   UNL A   1      50.444  25.915  30.536  1.00  0.00     0.198 A 
ATOM     93  F   UNL A   1      49.020  27.191  29.166  1.00  0.00    -0.203 F 
ATOM     94  F   UNL A   1      49.843  24.330  33.740  1.00  0.00    -0.200 F 
ATOM     95  C   UNL A   1      50.660  25.188  31.696  1.00  0.00     0.200 A 
ATOM     96  F   UNL A   1      51.437  26.078  29.652  1.00  0.00    -0.200 F 
ATOM     97  F   UNL A   1      51.869  24.664  31.945  1.00  0.00    -0.200 F 
ENDBRANCH  64  87
ENDBRANCH  38  39
ENDBRANCH  30  33
ENDBRANCH  28  29
ENDBRANCH  27  28
ENDBRANCH  26  27
ENDBRANCH   1  26
TORSDOF 17
ENDMDL
MODEL 2
REMARK VINA RESULT:     -11.2      4.773     12.395
REMARK SMILES CCOc1cc(OCC)cc(-c2ccc([C@@H](C)C(=O)NCCCCNC(=O)c3ccc(-c4c5nc(c(-c6c(F)c(F)c(F)c(F)c6F)c6ccc([nH]6)c(-c6c(F)c(F)c(F)c(F)c6F)c6nc(c(-c7c(F)c(F)c(F)c(F)c7F)c7ccc4[nH]7)C=C6)C=C5)cc3)cc2)c1
REMARK SMILES IDX 21 1 20 2 18 3 19 4 16 6 17 7 15 8 12 9 13 10 92 11 14 12
REMARK SMILES IDX 91 13 11 14 4 15 5 16 93 17 6 18 10 19 3 20 2 21 1 22 7 23
REMARK SMILES IDX 8 24 9 25 22 26 23 27 24 28 25 29 26 30 27 32 28 33 29 34
REMARK SMILES IDX 90 35 30 36 89 37 31 38 32 39 33 40 83 41 34 42 88 43 82 44
REMARK SMILES IDX 84 45 35 46 87 47 81 48 80 49 36 51 68 52 48 53 67 54 49 55
REMARK SMILES IDX 52 56 66 57 85 58 50 59 51 60 65 62 86 63 53 64 37 65 38 66
REMARK SMILES IDX 46 67 39 68 40 69 44 70 47 71 41 72 42 73 45 74 43 75 69 76
REMARK SMILES IDX 70 77 78 78 71 79 72 80 76 81 79 82 73 83 74 84 77 85 75 86
REMARK SMILES IDX 54 87 55 88 63 89 56 90 57 91 61 92 64 93 58 94 59 95 62 96
REMARK SMILES IDX 60 97
REMARK H PARENT 20 5 25 31 84 50 52 61
REMARK Flexibility Score: inf
ROOT
ATOM      1  C   UNL A   1      48.047  26.572  31.211  1.00  0.00     0.116 C 
ENDROOT
BRANCH   1   2
ATOM      2  N   UNL A   1      47.329  27.453  30.314  1.00  0.00    -0.356 N 
ATOM      3  C   UNL A   1      47.233  27.483  28.955  1.00  0.00     0.227 C 
ATOM      4  O   UNL A   1      46.578  28.418  28.475  1.00  0.00    -0.274 OA
ATOM      5  H   UNL A   1      46.815  28.159  30.769  1.00  0.00     0.163 HD
BRANCH   3   6
ATOM      6  C   UNL A   1      47.873  26.440  28.023  1.00  0.00     0.105 C 
ATOM      7  C   UNL A   1      48.584  27.038  26.810  1.00  0.00     0.023 C 
BRANCH   6   8
ATOM      8  C   UNL A   1      46.964  25.255  27.740  1.00  0.00    -0.036 A 
ATOM      9  C   UNL A   1      45.074  23.191  27.174  1.00  0.00    -0.018 A 
ATOM     10  C   UNL A   1      46.093  23.534  26.269  1.00  0.00     0.009 A 
ATOM     11  C   UNL A   1      45.053  23.882  28.394  1.00  0.00     0.009 A 
ATOM     12  C   UNL A   1      47.045  24.511  26.565  1.00  0.00     0.005 A 
ATOM     13  C   UNL A   1      45.966  24.911  28.663  1.00  0.00     0.005 A 
BRANCH   9  14
ATOM     14  C   UNL A   1      44.066  22.164  26.819  1.00  0.00    -0.011 A 
ATOM     15  C   UNL A   1      41.813  21.247  26.944  1.00  0.00     0.123 A 
ATOM     16  C   UNL A   1      42.135  20.274  26.000  1.00  0.00     0.092 A 
ATOM     17  C   UNL A   1      42.771  22.174  27.357  1.00  0.00     0.055 A 
ATOM     18  C   UNL A   1      43.420  20.222  25.462  1.00  0.00     0.123 A 
ATOM     19  C   UNL A   1      44.371  21.150  25.891  1.00  0.00     0.055 A 
BRANCH  15  20
ATOM     20  O   UNL A   1      40.586  21.186  27.544  1.00  0.00    -0.494 OA
BRANCH  20  21
ATOM     21  C   UNL A   1      39.736  22.302  27.250  1.00  0.00     0.226 C 
ATOM     22  C   UNL A   1      38.777  22.005  26.107  1.00  0.00     0.049 C 
ENDBRANCH  20  21
ENDBRANCH  15  20
BRANCH  18  23
ATOM     23  O   UNL A   1      43.636  19.253  24.520  1.00  0.00    -0.494 OA
BRANCH  23  24
ATOM     24  C   UNL A   1      44.948  19.135  23.960  1.00  0.00     0.226 C 
ATOM     25  C   UNL A   1      44.903  18.870  22.461  1.00  0.00     0.049 C 
ENDBRANCH  23  24
ENDBRANCH  18  23
ENDBRANCH   9  14
ENDBRANCH   6   8
ENDBRANCH   3   6
ENDBRANCH   1   2
BRANCH   1  26
ATOM     26  C   UNL A   1      47.104  25.721  32.065  1.00  0.00     0.023 C 
BRANCH  26  27
ATOM     27  C   UNL A   1      47.786  24.879  33.142  1.00  0.00     0.023 C 
BRANCH  27  28
ATOM     28  C   UNL A   1      48.627  25.660  34.144  1.00  0.00     0.116 C 
BRANCH  28  29
ATOM     29  N   UNL A   1      48.441  25.250  35.528  1.00  0.00    -0.352 N 
ATOM     30  C   UNL A   1      47.357  25.479  36.348  1.00  0.00     0.251 C 
ATOM     31  H   UNL A   1      49.186  24.745  35.930  1.00  0.00     0.163 HD
ATOM     32  O   UNL A   1      47.374  25.134  37.518  1.00  0.00    -0.269 OA
BRANCH  30  33
ATOM     33  C   UNL A   1      46.186  26.200  35.799  1.00  0.00     0.039 A 
ATOM     34  C   UNL A   1      46.342  27.531  35.406  1.00  0.00     0.014 A 
ATOM     35  C   UNL A   1      44.964  25.549  35.623  1.00  0.00     0.014 A 
ATOM     36  C   UNL A   1      45.290  28.186  34.761  1.00  0.00     0.010 A 
ATOM     37  C   UNL A   1      43.948  26.174  34.908  1.00  0.00     0.010 A 
ATOM     38  C   UNL A   1      44.100  27.498  34.469  1.00  0.00    -0.014 A 
BRANCH  38  39
ATOM     39  C   UNL A   1      43.004  28.147  33.708  1.00  0.00     0.031 A 
ATOM     40  C   UNL A   1      42.845  27.877  32.238  1.00  0.00     0.074 A 
ATOM     41  C   UNL A   1      42.197  29.031  34.325  1.00  0.00     0.049 A 
ATOM     42  N   UNL A   1      41.983  28.382  31.391  1.00  0.00    -0.248 NA
ATOM     43  C   UNL A   1      43.802  26.939  31.630  1.00  0.00     0.031 C 
ATOM     44  C   UNL A   1      42.297  29.432  35.730  1.00  0.00     0.029 A 
ATOM     45  N   UNL A   1      41.138  29.761  33.847  1.00  0.00    -0.354 N 
ATOM     46  C   UNL A   1      42.306  27.838  30.155  1.00  0.00     0.074 A 
ATOM     47  C   UNL A   1      43.478  27.014  30.348  1.00  0.00     0.031 C 
ATOM     48  C   UNL A   1      41.319  30.310  36.007  1.00  0.00     0.029 A 
ATOM     49  C   UNL A   1      40.544  30.556  34.795  1.00  0.00     0.049 A 
ATOM     50  H   UNL A   1      40.832  29.718  32.913  1.00  0.00     0.167 HD
ATOM     51  C   UNL A   1      41.666  27.991  28.971  1.00  0.00     0.037 A 
ATOM     52  C   UNL A   1      39.488  31.386  34.699  1.00  0.00     0.037 A 
ATOM     53  C   UNL A   1      40.480  28.784  28.791  1.00  0.00     0.049 A 
ATOM     54  C   UNL A   1      38.773  31.510  33.380  1.00  0.00     0.074 A 
ATOM     55  C   UNL A   1      39.718  28.952  27.648  1.00  0.00     0.029 A 
ATOM     56  N   UNL A   1      39.880  29.542  29.787  1.00  0.00    -0.354 N 
ATOM     57  N   UNL A   1      39.040  30.930  32.235  1.00  0.00    -0.248 NA
ATOM     58  C   UNL A   1      37.600  32.395  33.345  1.00  0.00     0.031 C 
ATOM     59  C   UNL A   1      38.677  29.840  27.943  1.00  0.00     0.029 A 
ATOM     60  C   UNL A   1      38.765  30.189  29.281  1.00  0.00     0.049 A 
ATOM     61  H   UNL A   1      40.201  29.611  30.715  1.00  0.00     0.167 HD
ATOM     62  C   UNL A   1      38.056  31.354  31.354  1.00  0.00     0.074 A 
ATOM     63  C   UNL A   1      37.175  32.229  32.101  1.00  0.00     0.031 C 
ATOM     64  C   UNL A   1      37.894  31.047  30.043  1.00  0.00     0.037 A 
BRANCH  51  65
ATOM     65  C   UNL A   1      42.232  27.270  27.783  1.00  0.00     0.064 A 
ATOM     66  C   UNL A   1      43.398  27.715  27.140  1.00  0.00     0.173 A 
ATOM     67  C   UNL A   1      41.617  26.107  27.295  1.00  0.00     0.173 A 
ATOM     68  F   UNL A   1      44.015  28.830  27.559  1.00  0.00    -0.203 F 
ATOM     69  C   UNL A   1      43.907  27.042  26.033  1.00  0.00     0.198 A 
ATOM     70  C   UNL A   1      42.148  25.419  26.206  1.00  0.00     0.198 A 
ATOM     71  F   UNL A   1      40.504  25.635  27.875  1.00  0.00    -0.203 F 
ATOM     72  F   UNL A   1      44.990  27.518  25.402  1.00  0.00    -0.200 F 
ATOM     73  C   UNL A   1      43.287  25.891  25.571  1.00  0.00     0.200 A 
ATOM     74  F   UNL A   1      41.553  24.300  25.768  1.00  0.00    -0.200 F 
ATOM     75  F   UNL A   1      43.781  25.242  24.508  1.00  0.00    -0.200 F 
ENDBRANCH  51  65
BRANCH  52  76
ATOM     76  C   UNL A   1      39.011  32.127  35.895  1.00  0.00     0.064 A 
ATOM     77  C   UNL A   1      39.391  33.459  36.112  1.00  0.00     0.173 A 
ATOM     78  C   UNL A   1      38.174  31.523  36.844  1.00  0.00     0.173 A 
ATOM     79  F   UNL A   1      40.205  34.073  35.241  1.00  0.00    -0.203 F 
ATOM     80  C   UNL A   1      38.970  34.152  37.245  1.00  0.00     0.198 A 
ATOM     81  C   UNL A   1      37.733  32.226  37.963  1.00  0.00     0.198 A 
ATOM     82  F   UNL A   1      37.778  30.254  36.679  1.00  0.00    -0.203 F 
ATOM     83  F   UNL A   1      39.385  35.410  37.451  1.00  0.00    -0.200 F 
ATOM     84  C   UNL A   1      38.137  33.538  38.168  1.00  0.00     0.200 A 
ATOM     85  F   UNL A   1      36.918  31.633  38.846  1.00  0.00    -0.200 F 
ATOM     86  F   UNL A   1      37.732  34.205  39.256  1.00  0.00    -0.200 F 
ENDBRANCH  52  76
BRANCH  64  87
ATOM     87  C   UNL A   1      36.702  31.631  29.345  1.00  0.00     0.064 A 
ATOM     88  C   UNL A   1      36.637  32.991  29.009  1.00  0.00     0.173 A 
ATOM     89  C   UNL A   1      35.624  30.811  28.979  1.00  0.00     0.173 A 
ATOM     90  F   UNL A   1      37.636  33.819  29.351  1.00  0.00    -0.203 F 
ATOM     91  C   UNL A   1      35.523  33.514  28.358  1.00  0.00     0.198 A 
ATOM     92  C   UNL A   1      34.525  31.331  28.302  1.00  0.00     0.198 A 
ATOM     93  F   UNL A   1      35.641  29.501  29.271  1.00  0.00    -0.203 F 
ATOM     94  F   UNL A   1      35.460  34.826  28.093  1.00  0.00    -0.200 F 
ATOM     95  C   UNL A   1      34.472  32.683  28.000  1.00  0.00     0.200 A 
ATOM     96  F   UNL A   1      33.516  30.525  27.946  1.00  0.00    -0.200 F 
ATOM     97  F   UNL A   1      33.403  33.189  27.370  1.00  0.00    -0.200 F 
ENDBRANCH  64  87
ENDBRANCH  38  39
ENDBRANCH  30  33
ENDBRANCH  28  29
ENDBRANCH  27  28
ENDBRANCH  26  27
ENDBRANCH   1  26
TORSDOF 17
ENDMDL
MODEL 3
REMARK VINA RESULT:     -11.2      1.683      2.298
REMARK SMILES CCOc1cc(OCC)cc(-c2ccc([C@@H](C)C(=O)NCCCCNC(=O)c3ccc(-c4c5nc(c(-c6c(F)c(F)c(F)c(F)c6F)c6ccc([nH]6)c(-c6c(F)c(F)c(F)c(F)c6F)c6nc(c(-c7c(F)c(F)c(F)c(F)c7F)c7ccc4[nH]7)C=C6)C=C5)cc3)cc2)c1
REMARK SMILES IDX 21 1 20 2 18 3 19 4 16 6 17 7 15 8 12 9 13 10 92 11 14 12
REMARK SMILES IDX 91 13 11 14 4 15 5 16 93 17 6 18 10 19 3 20 2 21 1 22 7 23
REMARK SMILES IDX 8 24 9 25 22 26 23 27 24 28 25 29 26 30 27 32 28 33 29 34
REMARK SMILES IDX 90 35 30 36 89 37 31 38 32 39 33 40 83 41 34 42 88 43 82 44
REMARK SMILES IDX 84 45 35 46 87 47 81 48 80 49 36 51 68 52 48 53 67 54 49 55
REMARK SMILES IDX 52 56 66 57 85 58 50 59 51 60 65 62 86 63 53 64 37 65 38 66
REMARK SMILES IDX 46 67 39 68 40 69 44 70 47 71 41 72 42 73 45 74 43 75 69 76
REMARK SMILES IDX 70 77 78 78 71 79 72 80 76 81 79 82 73 83 74 84 77 85 75 86
REMARK SMILES IDX 54 87 55 88 63 89 56 90 57 91 61 92 64 93 58 94 59 95 62 96
REMARK SMILES IDX 60 97
REMARK H PARENT 20 5 25 31 84 50 52 61
REMARK Flexibility Score: inf
ROOT
ATOM      1  C   UNL A   1      31.482  29.418  25.359  1.00  0.00     0.116 C 
ENDROOT
BRANCH   1   2
ATOM      2  N   UNL A   1      31.026  28.843  24.111  1.00  0.00    -0.356 N 
ATOM      3  C   UNL A   1      31.692  28.196  23.113  1.00  0.00     0.227 C 
ATOM      4  O   UNL A   1      31.016  27.874  22.127  1.00  0.00    -0.274 OA
ATOM      5  H   UNL A   1      30.059  28.937  23.954  1.00  0.00     0.163 HD
BRANCH   3   6
ATOM      6  C   UNL A   1      33.190  27.851  23.160  1.00  0.00     0.105 C 
ATOM      7  C   UNL A   1      33.998  28.413  21.991  1.00  0.00     0.023 C 
BRANCH   6   8
ATOM      8  C   UNL A   1      33.458  26.397  23.510  1.00  0.00    -0.036 A 
ATOM      9  C   UNL A   1      34.162  23.678  24.026  1.00  0.00    -0.018 A 
ATOM     10  C   UNL A   1      34.281  24.676  25.008  1.00  0.00     0.009 A 
ATOM     11  C   UNL A   1      33.636  24.071  22.787  1.00  0.00     0.009 A 
ATOM     12  C   UNL A   1      33.894  25.996  24.771  1.00  0.00     0.005 A 
ATOM     13  C   UNL A   1      33.312  25.409  22.525  1.00  0.00     0.005 A 
BRANCH   9  14
ATOM     14  C   UNL A   1      34.604  22.291  24.304  1.00  0.00    -0.011 A 
ATOM     15  C   UNL A   1      36.310  20.682  24.963  1.00  0.00     0.123 A 
ATOM     16  C   UNL A   1      35.368  19.656  24.970  1.00  0.00     0.092 A 
ATOM     17  C   UNL A   1      35.934  21.983  24.623  1.00  0.00     0.055 A 
ATOM     18  C   UNL A   1      34.041  19.924  24.634  1.00  0.00     0.123 A 
ATOM     19  C   UNL A   1      33.681  21.227  24.288  1.00  0.00     0.055 A 
BRANCH  15  20
ATOM     20  O   UNL A   1      37.622  20.358  25.169  1.00  0.00    -0.494 OA
BRANCH  20  21
ATOM     21  C   UNL A   1      38.457  21.478  25.491  1.00  0.00     0.226 C 
ATOM     22  C   UNL A   1      39.831  21.044  25.981  1.00  0.00     0.049 C 
ENDBRANCH  20  21
ENDBRANCH  15  20
BRANCH  18  23
ATOM     23  O   UNL A   1      33.181  18.861  24.697  1.00  0.00    -0.494 OA
BRANCH  23  24
ATOM     24  C   UNL A   1      33.735  17.541  24.671  1.00  0.00     0.226 C 
ATOM     25  C   UNL A   1      33.808  16.985  23.255  1.00  0.00     0.049 C 
ENDBRANCH  23  24
ENDBRANCH  18  23
ENDBRANCH   9  14
ENDBRANCH   6   8
ENDBRANCH   3   6
ENDBRANCH   1   2
BRANCH   1  26
ATOM     26  C   UNL A   1      31.567  28.378  26.479  1.00  0.00     0.023 C 
BRANCH  26  27
ATOM     27  C   UNL A   1      32.917  28.296  27.187  1.00  0.00     0.023 C 
BRANCH  27  28
ATOM     28  C   UNL A   1      33.955  29.315  26.733  1.00  0.00     0.116 C 
BRANCH  28  29
ATOM     29  N   UNL A   1      33.786  30.641  27.310  1.00  0.00    -0.352 N 
ATOM     30  C   UNL A   1      34.621  31.303  28.183  1.00  0.00     0.251 C 
ATOM     31  H   UNL A   1      32.971  31.125  27.041  1.00  0.00     0.163 HD
ATOM     32  O   UNL A   1      34.309  32.391  28.642  1.00  0.00    -0.269 OA
BRANCH  30  33
ATOM     33  C   UNL A   1      35.882  30.650  28.601  1.00  0.00     0.039 A 
ATOM     34  C   UNL A   1      37.065  30.992  27.942  1.00  0.00     0.014 A 
ATOM     35  C   UNL A   1      35.902  29.754  29.671  1.00  0.00     0.014 A 
ATOM     36  C   UNL A   1      38.282  30.493  28.410  1.00  0.00     0.010 A 
ATOM     37  C   UNL A   1      37.120  29.325  30.186  1.00  0.00     0.010 A 
ATOM     38  C   UNL A   1      38.323  29.689  29.561  1.00  0.00    -0.014 A 
BRANCH  38  39
ATOM     39  C   UNL A   1      39.613  29.219  30.126  1.00  0.00     0.031 A 
ATOM     40  C   UNL A   1      40.221  29.926  31.305  1.00  0.00     0.074 A 
ATOM     41  C   UNL A   1      40.267  28.202  29.535  1.00  0.00     0.049 A 
ATOM     42  N   UNL A   1      41.359  29.699  31.911  1.00  0.00    -0.248 NA
ATOM     43  C   UNL A   1      39.465  31.063  31.857  1.00  0.00     0.031 C 
ATOM     44  C   UNL A   1      39.815  27.482  28.343  1.00  0.00     0.029 A 
ATOM     45  N   UNL A   1      41.460  27.601  29.853  1.00  0.00    -0.354 N 
ATOM     46  C   UNL A   1      41.461  30.670  32.898  1.00  0.00     0.074 A 
ATOM     47  C   UNL A   1      40.303  31.525  32.772  1.00  0.00     0.031 C 
ATOM     48  C   UNL A   1      40.703  26.518  28.049  1.00  0.00     0.029 A 
ATOM     49  C   UNL A   1      41.799  26.570  29.011  1.00  0.00     0.049 A 
ATOM     50  H   UNL A   1      42.019  27.882  30.612  1.00  0.00     0.167 HD
ATOM     51  C   UNL A   1      42.422  30.817  33.841  1.00  0.00     0.037 A 
ATOM     52  C   UNL A   1      42.870  25.755  29.020  1.00  0.00     0.037 A 
ATOM     53  C   UNL A   1      43.554  29.943  33.985  1.00  0.00     0.049 A 
ATOM     54  C   UNL A   1      43.904  25.918  30.102  1.00  0.00     0.074 A 
ATOM     55  C   UNL A   1      44.548  29.967  34.948  1.00  0.00     0.029 A 
ATOM     56  N   UNL A   1      43.841  28.881  33.140  1.00  0.00    -0.354 N 
ATOM     57  N   UNL A   1      43.951  26.791  31.078  1.00  0.00    -0.248 NA
ATOM     58  C   UNL A   1      45.028  24.971  30.089  1.00  0.00     0.031 C 
ATOM     59  C   UNL A   1      45.456  28.940  34.663  1.00  0.00     0.029 A 
ATOM     60  C   UNL A   1      45.003  28.250  33.551  1.00  0.00     0.049 A 
ATOM     61  H   UNL A   1      43.299  28.616  32.362  1.00  0.00     0.167 HD
ATOM     62  C   UNL A   1      45.088  26.483  31.811  1.00  0.00     0.074 A 
ATOM     63  C   UNL A   1      45.695  25.331  31.176  1.00  0.00     0.031 C 
ATOM     64  C   UNL A   1      45.586  27.097  32.913  1.00  0.00     0.037 A 
BRANCH  51  65
ATOM     65  C   UNL A   1      42.275  31.962  34.802  1.00  0.00     0.064 A 
ATOM     66  C   UNL A   1      41.538  31.834  35.990  1.00  0.00     0.173 A 
ATOM     67  C   UNL A   1      42.897  33.192  34.546  1.00  0.00     0.173 A 
ATOM     68  F   UNL A   1      40.911  30.682  36.275  1.00  0.00    -0.203 F 
ATOM     69  C   UNL A   1      41.402  32.905  36.868  1.00  0.00     0.198 A 
ATOM     70  C   UNL A   1      42.784  34.253  35.442  1.00  0.00     0.198 A 
ATOM     71  F   UNL A   1      43.617  33.368  33.428  1.00  0.00    -0.203 F 
ATOM     72  F   UNL A   1      40.648  32.776  37.969  1.00  0.00    -0.200 F 
ATOM     73  C   UNL A   1      42.030  34.111  36.598  1.00  0.00     0.200 A 
ATOM     74  F   UNL A   1      43.401  35.414  35.185  1.00  0.00    -0.200 F 
ATOM     75  F   UNL A   1      41.902  35.141  37.446  1.00  0.00    -0.200 F 
ENDBRANCH  51  65
BRANCH  52  76
ATOM     76  C   UNL A   1      42.996  24.679  28.003  1.00  0.00     0.064 A 
ATOM     77  C   UNL A   1      43.402  24.975  26.694  1.00  0.00     0.173 A 
ATOM     78  C   UNL A   1      42.711  23.342  28.313  1.00  0.00     0.173 A 
ATOM     79  F   UNL A   1      43.667  26.242  26.346  1.00  0.00    -0.203 F 
ATOM     80  C   UNL A   1      43.496  23.976  25.727  1.00  0.00     0.198 A 
ATOM     81  C   UNL A   1      42.832  22.341  27.352  1.00  0.00     0.198 A 
ATOM     82  F   UNL A   1      42.326  23.007  29.552  1.00  0.00    -0.203 F 
ATOM     83  F   UNL A   1      43.844  24.293  24.471  1.00  0.00    -0.200 F 
ATOM     84  C   UNL A   1      43.217  22.659  26.057  1.00  0.00     0.200 A 
ATOM     85  F   UNL A   1      42.573  21.067  27.677  1.00  0.00    -0.200 F 
ATOM     86  F   UNL A   1      43.309  21.699  25.128  1.00  0.00    -0.200 F 
ENDBRANCH  52  76
BRANCH  64  87
ATOM     87  C   UNL A   1      46.826  26.514  33.521  1.00  0.00     0.064 A 
ATOM     88  C   UNL A   1      48.106  26.952  33.152  1.00  0.00     0.173 A 
ATOM     89  C   UNL A   1      46.730  25.523  34.510  1.00  0.00     0.173 A 
ATOM     90  F   UNL A   1      48.250  27.887  32.199  1.00  0.00    -0.203 F 
ATOM     91  C   UNL A   1      49.246  26.401  33.730  1.00  0.00     0.198 A 
ATOM     92  C   UNL A   1      47.871  24.994  35.108  1.00  0.00     0.198 A 
ATOM     93  F   UNL A   1      45.529  25.074  34.905  1.00  0.00    -0.203 F 
ATOM     94  F   UNL A   1      50.459  26.799  33.325  1.00  0.00    -0.200 F 
ATOM     95  C   UNL A   1      49.127  25.427  34.711  1.00  0.00     0.200 A 
ATOM     96  F   UNL A   1      47.755  24.063  36.064  1.00  0.00    -0.200 F 
ATOM     97  F   UNL A   1      50.226  24.901  35.268  1.00  0.00    -0.200 F 
ENDBRANCH  64  87
ENDBRANCH  38  39
ENDBRANCH  30  33
ENDBRANCH  28  29
ENDBRANCH  27  28
ENDBRANCH  26  27
ENDBRANCH   1  26
TORSDOF 17
ENDMDL
