MODEL 1
REMARK VINA RESULT:     -14.6      0.000      0.000
REMARK SMILES Cc1cc(C)cc(Oc2nc3ccccn3c(=O)c2/C=C2\SC(=S)N(CCC(=O)NCCCCNC(=O)c3ccc(-c4c5nc(c(-c6c(F)c(F)c(F)c(F)c6F)c6ccc([nH]6)c(-c6c(F)c(F)c(F)c(F)c6F)c6nc(c(-c7c(F)c(F)c(F)c(F)c7F)c7ccc4[nH]7)C=C6)C=C5)cc3)C2=O)c1
REMARK SMILES IDX 31 1 30 2 28 3 29 4 27 6 26 7 25 8 20 9 21 10 22 11 101 12
REMARK SMILES IDX 23 13 102 14 24 15 19 16 9 17 10 18 11 19 17 20 12 21 16 22
REMARK SMILES IDX 18 23 13 24 15 25 14 26 8 27 7 28 1 29 2 30 3 31 103 32 4 33
REMARK SMILES IDX 5 34 6 35 32 36 33 37 34 38 35 39 36 40 37 42 38 43 39 44
REMARK SMILES IDX 100 45 40 46 99 47 41 48 42 49 43 50 93 51 44 52 98 53 92 54
REMARK SMILES IDX 94 55 45 56 97 57 91 58 90 59 46 61 78 62 58 63 77 64 59 65
REMARK SMILES IDX 62 66 76 67 95 68 60 69 61 70 75 72 96 73 63 74 47 75 48 76
REMARK SMILES IDX 56 77 49 78 50 79 54 80 57 81 51 82 52 83 55 84 53 85 79 86
REMARK SMILES IDX 80 87 88 88 81 89 82 90 86 91 89 92 83 93 84 94 87 95 85 96
REMARK SMILES IDX 64 97 65 98 73 99 66 100 67 101 71 102 74 103 68 104 69 105
REMARK SMILES IDX 72 106 70 107
REMARK H PARENT 30 5 35 41 94 60 62 71
REMARK Flexibility Score: inf
ROOT
ATOM      1  C   UNL A   1      34.528  21.734  26.139  1.00  0.00     0.116 C 
ENDROOT
BRANCH   1   2
ATOM      2  N   UNL A   1      33.687  20.554  26.002  1.00  0.00    -0.356 N 
ATOM      3  C   UNL A   1      32.809  20.221  25.015  1.00  0.00     0.221 C 
ATOM      4  O   UNL A   1      32.116  19.212  25.151  1.00  0.00    -0.275 OA
ATOM      5  H   UNL A   1      33.763  19.898  26.732  1.00  0.00     0.163 HD
BRANCH   3   6
ATOM      6  C   UNL A   1      32.717  21.065  23.758  1.00  0.00     0.122 C 
BRANCH   6   7
ATOM      7  C   UNL A   1      31.494  22.010  23.746  1.00  0.00     0.137 C 
BRANCH   7   8
ATOM      8  N   UNL A   1      31.714  23.389  24.242  1.00  0.00    -0.292 N 
ATOM      9  C   UNL A   1      31.451  26.776  23.239  1.00  0.00     0.041 C 
ATOM     10  C   UNL A   1      31.910  25.728  23.977  1.00  0.00     0.081 C 
ATOM     11  S   UNL A   1      31.982  25.508  25.693  1.00  0.00    -0.054 SA
ATOM     12  C   UNL A   1      32.131  24.385  23.369  1.00  0.00     0.266 C 
ATOM     13  C   UNL A   1      31.520  23.802  25.549  1.00  0.00     0.148 C 
ATOM     14  O   UNL A   1      32.519  24.228  22.205  1.00  0.00    -0.268 OA
ATOM     15  S   UNL A   1      30.862  22.941  26.819  1.00  0.00    -0.052 S 
BRANCH   9  16
ATOM     16  C   UNL A   1      31.014  28.100  23.723  1.00  0.00     0.104 A 
ATOM     17  C   UNL A   1      31.575  29.108  24.507  1.00  0.00     0.234 A 
ATOM     18  N   UNL A   1      30.731  30.219  24.745  1.00  0.00    -0.194 NA
ATOM     19  C   UNL A   1      29.763  30.538  23.919  1.00  0.00     0.143 A 
ATOM     20  C   UNL A   1      29.609  28.362  23.179  1.00  0.00     0.269 A 
ATOM     21  C   UNL A   1      29.099  31.902  23.871  1.00  0.00     0.048 A 
ATOM     22  N   UNL A   1      29.248  29.662  23.002  1.00  0.00    -0.267 N 
ATOM     23  O   UNL A   1      28.863  27.422  22.887  1.00  0.00    -0.268 OA
ATOM     24  C   UNL A   1      28.212  32.231  22.923  1.00  0.00     0.005 A 
ATOM     25  C   UNL A   1      28.252  30.002  22.088  1.00  0.00     0.096 A 
ATOM     26  C   UNL A   1      27.759  31.242  21.996  1.00  0.00     0.019 A 
BRANCH  17  27
ATOM     27  O   UNL A   1      33.008  29.103  25.263  1.00  0.00    -0.438 OA
BRANCH  27  28
ATOM     28  C   UNL A   1      33.652  29.770  26.511  1.00  0.00     0.130 A 
ATOM     29  C   UNL A   1      33.894  33.299  28.166  1.00  0.00     0.044 C 
ATOM     30  C   UNL A   1      34.225  31.834  27.958  1.00  0.00    -0.047 A 
ATOM     31  C   UNL A   1      35.435  31.307  28.287  1.00  0.00     0.007 A 
ATOM     32  C   UNL A   1      33.335  30.974  27.271  1.00  0.00     0.050 A 
ATOM     33  C   UNL A   1      35.710  29.976  27.917  1.00  0.00    -0.047 A 
ATOM     34  C   UNL A   1      36.964  29.424  28.533  1.00  0.00     0.044 C 
ATOM     35  C   UNL A   1      34.879  29.239  26.972  1.00  0.00     0.050 A 
ENDBRANCH  27  28
ENDBRANCH  17  27
ENDBRANCH   9  16
ENDBRANCH   7   8
ENDBRANCH   6   7
ENDBRANCH   3   6
ENDBRANCH   1   2
BRANCH   1  36
ATOM     36  C   UNL A   1      36.008  21.391  25.920  1.00  0.00     0.023 C 
BRANCH  36  37
ATOM     37  C   UNL A   1      36.308  20.299  24.910  1.00  0.00     0.023 C 
BRANCH  37  38
ATOM     38  C   UNL A   1      37.677  19.370  24.968  1.00  0.00     0.116 C 
BRANCH  38  39
ATOM     39  N   UNL A   1      39.272  19.643  25.573  1.00  0.00    -0.352 N 
ATOM     40  C   UNL A   1      40.257  20.400  26.468  1.00  0.00     0.251 C 
ATOM     41  H   UNL A   1      39.827  18.976  25.109  1.00  0.00     0.163 HD
ATOM     42  O   UNL A   1      41.268  19.722  26.721  1.00  0.00    -0.269 OA
BRANCH  40  43
ATOM     43  C   UNL A   1      40.340  21.948  27.054  1.00  0.00     0.039 A 
ATOM     44  C   UNL A   1      41.241  22.254  28.092  1.00  0.00     0.014 A 
ATOM     45  C   UNL A   1      39.618  23.094  26.730  1.00  0.00     0.014 A 
ATOM     46  C   UNL A   1      41.760  23.551  28.385  1.00  0.00     0.010 A 
ATOM     47  C   UNL A   1      40.151  24.412  26.932  1.00  0.00     0.010 A 
ATOM     48  C   UNL A   1      41.294  24.666  27.711  1.00  0.00    -0.014 A 
BRANCH  48  49
ATOM     49  C   UNL A   1      41.816  26.066  27.978  1.00  0.00     0.031 A 
ATOM     50  C   UNL A   1      43.140  26.474  27.369  1.00  0.00     0.074 A 
ATOM     51  C   UNL A   1      41.193  27.004  28.735  1.00  0.00     0.049 A 
ATOM     52  N   UNL A   1      43.881  27.538  27.579  1.00  0.00    -0.248 NA
ATOM     53  C   UNL A   1      43.719  25.524  26.414  1.00  0.00     0.031 C 
ATOM     54  C   UNL A   1      39.897  26.863  29.397  1.00  0.00     0.029 A 
ATOM     55  N   UNL A   1      41.589  28.290  29.083  1.00  0.00    -0.354 N 
ATOM     56  C   UNL A   1      45.039  27.341  26.837  1.00  0.00     0.074 A 
ATOM     57  C   UNL A   1      44.924  26.034  26.225  1.00  0.00     0.031 C 
ATOM     58  C   UNL A   1      39.601  28.007  30.049  1.00  0.00     0.029 A 
ATOM     59  C   UNL A   1      40.696  28.968  29.889  1.00  0.00     0.049 A 
ATOM     60  H   UNL A   1      42.437  28.686  28.780  1.00  0.00     0.167 HD
ATOM     61  C   UNL A   1      46.094  28.167  26.637  1.00  0.00     0.037 A 
ATOM     62  C   UNL A   1      40.747  30.204  30.441  1.00  0.00     0.037 A 
ATOM     63  C   UNL A   1      46.217  29.507  27.141  1.00  0.00     0.049 A 
ATOM     64  C   UNL A   1      41.947  31.109  30.234  1.00  0.00     0.074 A 
ATOM     65  C   UNL A   1      47.239  30.416  26.924  1.00  0.00     0.029 A 
ATOM     66  N   UNL A   1      45.282  30.139  27.942  1.00  0.00    -0.354 N 
ATOM     67  N   UNL A   1      43.024  30.910  29.516  1.00  0.00    -0.248 NA
ATOM     68  C   UNL A   1      41.934  32.417  30.921  1.00  0.00     0.031 C 
ATOM     69  C   UNL A   1      46.938  31.591  27.620  1.00  0.00     0.029 A 
ATOM     70  C   UNL A   1      45.709  31.425  28.235  1.00  0.00     0.049 A 
ATOM     71  H   UNL A   1      44.442  29.736  28.258  1.00  0.00     0.167 HD
ATOM     72  C   UNL A   1      43.780  32.076  29.621  1.00  0.00     0.074 A 
ATOM     73  C   UNL A   1      43.052  32.980  30.480  1.00  0.00     0.031 C 
ATOM     74  C   UNL A   1      44.971  32.361  29.042  1.00  0.00     0.037 A 
BRANCH  61  75
ATOM     75  C   UNL A   1      47.225  27.616  25.819  1.00  0.00     0.064 A 
ATOM     76  C   UNL A   1      48.334  26.998  26.419  1.00  0.00     0.173 A 
ATOM     77  C   UNL A   1      47.218  27.753  24.424  1.00  0.00     0.173 A 
ATOM     78  F   UNL A   1      48.391  26.860  27.753  1.00  0.00    -0.203 F 
ATOM     79  C   UNL A   1      49.427  26.604  25.656  1.00  0.00     0.198 A 
ATOM     80  C   UNL A   1      48.296  27.317  23.660  1.00  0.00     0.198 A 
ATOM     81  F   UNL A   1      46.174  28.323  23.804  1.00  0.00    -0.203 F 
ATOM     82  F   UNL A   1      50.517  26.109  26.258  1.00  0.00    -0.200 F 
ATOM     83  C   UNL A   1      49.407  26.763  24.278  1.00  0.00     0.200 A 
ATOM     84  F   UNL A   1      48.271  27.458  22.328  1.00  0.00    -0.200 F 
ATOM     85  F   UNL A   1      50.469  26.398  23.547  1.00  0.00    -0.200 F 
ENDBRANCH  61  75
BRANCH  62  86
ATOM     86  C   UNL A   1      39.607  30.727  31.254  1.00  0.00     0.064 A 
ATOM     87  C   UNL A   1      39.418  30.297  32.579  1.00  0.00     0.173 A 
ATOM     88  C   UNL A   1      38.636  31.577  30.706  1.00  0.00     0.173 A 
ATOM     89  F   UNL A   1      40.287  29.438  33.132  1.00  0.00    -0.203 F 
ATOM     90  C   UNL A   1      38.298  30.684  33.315  1.00  0.00     0.198 A 
ATOM     91  C   UNL A   1      37.527  31.982  31.452  1.00  0.00     0.198 A 
ATOM     92  F   UNL A   1      38.748  31.992  29.437  1.00  0.00    -0.203 F 
ATOM     93  F   UNL A   1      38.115  30.209  34.554  1.00  0.00    -0.200 F 
ATOM     94  C   UNL A   1      37.355  31.530  32.752  1.00  0.00     0.200 A 
ATOM     95  F   UNL A   1      36.611  32.791  30.903  1.00  0.00    -0.200 F 
ATOM     96  F   UNL A   1      36.272  31.891  33.454  1.00  0.00    -0.200 F 
ENDBRANCH  62  86
BRANCH  74  97
ATOM     97  C   UNL A   1      45.559  33.734  29.222  1.00  0.00     0.064 A 
ATOM     98  C   UNL A   1      45.285  34.784  28.335  1.00  0.00     0.173 A 
ATOM     99  C   UNL A   1      46.316  34.028  30.369  1.00  0.00     0.173 A 
ATOM    100  F   UNL A   1      44.576  34.557  27.219  1.00  0.00    -0.203 F 
ATOM    101  C   UNL A   1      45.746  36.076  28.588  1.00  0.00     0.198 A 
ATOM    102  C   UNL A   1      46.755  35.324  30.631  1.00  0.00     0.198 A 
ATOM    103  F   UNL A   1      46.600  33.062  31.256  1.00  0.00    -0.203 F 
ATOM    104  F   UNL A   1      45.483  37.062  27.719  1.00  0.00    -0.200 F 
ATOM    105  C   UNL A   1      46.469  36.347  29.741  1.00  0.00     0.200 A 
ATOM    106  F   UNL A   1      47.440  35.585  31.753  1.00  0.00    -0.200 F 
ATOM    107  F   UNL A   1      46.887  37.595  29.995  1.00  0.00    -0.200 F 
ENDBRANCH  74  97
ENDBRANCH  48  49
ENDBRANCH  40  43
ENDBRANCH  38  39
ENDBRANCH  37  38
ENDBRANCH  36  37
ENDBRANCH   1  36
TORSDOF 16
ENDMDL
MODEL 2
REMARK VINA RESULT:     -12.7      2.538      3.967
REMARK SMILES Cc1cc(C)cc(Oc2nc3ccccn3c(=O)c2/C=C2\SC(=S)N(CCC(=O)NCCCCNC(=O)c3ccc(-c4c5nc(c(-c6c(F)c(F)c(F)c(F)c6F)c6ccc([nH]6)c(-c6c(F)c(F)c(F)c(F)c6F)c6nc(c(-c7c(F)c(F)c(F)c(F)c7F)c7ccc4[nH]7)C=C6)C=C5)cc3)C2=O)c1
REMARK SMILES IDX 31 1 30 2 28 3 29 4 27 6 26 7 25 8 20 9 21 10 22 11 101 12
REMARK SMILES IDX 23 13 102 14 24 15 19 16 9 17 10 18 11 19 17 20 12 21 16 22
REMARK SMILES IDX 18 23 13 24 15 25 14 26 8 27 7 28 1 29 2 30 3 31 103 32 4 33
REMARK SMILES IDX 5 34 6 35 32 36 33 37 34 38 35 39 36 40 37 42 38 43 39 44
REMARK SMILES IDX 100 45 40 46 99 47 41 48 42 49 43 50 93 51 44 52 98 53 92 54
REMARK SMILES IDX 94 55 45 56 97 57 91 58 90 59 46 61 78 62 58 63 77 64 59 65
REMARK SMILES IDX 62 66 76 67 95 68 60 69 61 70 75 72 96 73 63 74 47 75 48 76
REMARK SMILES IDX 56 77 49 78 50 79 54 80 57 81 51 82 52 83 55 84 53 85 79 86
REMARK SMILES IDX 80 87 88 88 81 89 82 90 86 91 89 92 83 93 84 94 87 95 85 96
REMARK SMILES IDX 64 97 65 98 73 99 66 100 67 101 71 102 74 103 68 104 69 105
REMARK SMILES IDX 72 106 70 107
REMARK H PARENT 30 5 35 41 94 60 62 71
REMARK Flexibility Score: inf
ROOT
ATOM      1  C   UNL A   1      34.002  21.497  26.924  1.00  0.00     0.116 C 
ENDROOT
BRANCH   1   2
ATOM      2  N   UNL A   1      33.343  20.292  26.440  1.00  0.00    -0.356 N 
ATOM      3  C   UNL A   1      32.765  20.042  25.232  1.00  0.00     0.221 C 
ATOM      4  O   UNL A   1      32.167  18.979  25.068  1.00  0.00    -0.275 OA
ATOM      5  H   UNL A   1      33.308  19.547  27.082  1.00  0.00     0.163 HD
BRANCH   3   6
ATOM      6  C   UNL A   1      32.893  21.046  24.102  1.00  0.00     0.122 C 
BRANCH   6   7
ATOM      7  C   UNL A   1      31.656  21.962  23.958  1.00  0.00     0.137 C 
BRANCH   7   8
ATOM      8  N   UNL A   1      31.781  23.339  24.492  1.00  0.00    -0.292 N 
ATOM      9  C   UNL A   1      31.718  26.730  23.471  1.00  0.00     0.041 C 
ATOM     10  C   UNL A   1      32.029  25.678  24.278  1.00  0.00     0.081 C 
ATOM     11  S   UNL A   1      31.777  25.452  25.976  1.00  0.00    -0.054 SA
ATOM     12  C   UNL A   1      32.357  24.337  23.717  1.00  0.00     0.266 C 
ATOM     13  C   UNL A   1      31.347  23.748  25.742  1.00  0.00     0.148 C 
ATOM     14  O   UNL A   1      32.956  24.183  22.645  1.00  0.00    -0.268 OA
ATOM     15  S   UNL A   1      30.461  22.884  26.862  1.00  0.00    -0.052 S 
BRANCH   9  16
ATOM     16  C   UNL A   1      31.201  28.054  23.869  1.00  0.00     0.104 A 
ATOM     17  C   UNL A   1      31.718  29.165  24.535  1.00  0.00     0.234 A 
ATOM     18  N   UNL A   1      30.800  30.225  24.730  1.00  0.00    -0.194 NA
ATOM     19  C   UNL A   1      29.769  30.397  23.938  1.00  0.00     0.143 A 
ATOM     20  C   UNL A   1      29.754  28.161  23.388  1.00  0.00     0.269 A 
ATOM     21  C   UNL A   1      28.996  31.698  23.817  1.00  0.00     0.048 A 
ATOM     22  N   UNL A   1      29.281  29.410  23.126  1.00  0.00    -0.267 N 
ATOM     23  O   UNL A   1      29.072  27.145  23.217  1.00  0.00    -0.268 OA
ATOM     24  C   UNL A   1      28.038  31.876  22.898  1.00  0.00     0.005 A 
ATOM     25  C   UNL A   1      28.215  29.593  22.246  1.00  0.00     0.096 A 
ATOM     26  C   UNL A   1      27.620  30.780  22.082  1.00  0.00     0.019 A 
BRANCH  17  27
ATOM     27  O   UNL A   1      33.183  29.334  25.206  1.00  0.00    -0.438 OA
BRANCH  27  28
ATOM     28  C   UNL A   1      33.785  29.878  26.531  1.00  0.00     0.130 A 
ATOM     29  C   UNL A   1      34.085  33.263  28.455  1.00  0.00     0.044 C 
ATOM     30  C   UNL A   1      34.364  31.804  28.156  1.00  0.00    -0.047 A 
ATOM     31  C   UNL A   1      35.531  31.199  28.508  1.00  0.00     0.007 A 
ATOM     32  C   UNL A   1      33.479  31.038  27.362  1.00  0.00     0.050 A 
ATOM     33  C   UNL A   1      35.769  29.887  28.054  1.00  0.00    -0.047 A 
ATOM     34  C   UNL A   1      36.963  29.234  28.691  1.00  0.00     0.044 C 
ATOM     35  C   UNL A   1      34.962  29.260  27.015  1.00  0.00     0.050 A 
ENDBRANCH  27  28
ENDBRANCH  17  27
ENDBRANCH   9  16
ENDBRANCH   7   8
ENDBRANCH   6   7
ENDBRANCH   3   6
ENDBRANCH   1   2
BRANCH   1  36
ATOM     36  C   UNL A   1      35.388  21.666  26.287  1.00  0.00     0.023 C 
BRANCH  36  37
ATOM     37  C   UNL A   1      35.719  23.042  25.741  1.00  0.00     0.023 C 
BRANCH  37  38
ATOM     38  C   UNL A   1      37.239  23.472  25.242  1.00  0.00     0.116 C 
BRANCH  38  39
ATOM     39  N   UNL A   1      38.749  23.651  26.060  1.00  0.00    -0.352 N 
ATOM     40  C   UNL A   1      39.651  24.359  27.075  1.00  0.00     0.251 C 
ATOM     41  H   UNL A   1      39.316  22.940  25.685  1.00  0.00     0.163 HD
ATOM     42  O   UNL A   1      40.569  23.621  27.473  1.00  0.00    -0.269 OA
BRANCH  40  43
ATOM     43  C   UNL A   1      39.759  25.910  27.649  1.00  0.00     0.039 A 
ATOM     44  C   UNL A   1      39.509  26.169  29.011  1.00  0.00     0.014 A 
ATOM     45  C   UNL A   1      40.032  27.113  27.003  1.00  0.00     0.014 A 
ATOM     46  C   UNL A   1      39.987  27.298  29.742  1.00  0.00     0.010 A 
ATOM     47  C   UNL A   1      40.594  28.238  27.696  1.00  0.00     0.010 A 
ATOM     48  C   UNL A   1      40.656  28.324  29.098  1.00  0.00    -0.014 A 
BRANCH  48  49
ATOM     49  C   UNL A   1      41.190  29.543  29.828  1.00  0.00     0.031 A 
ATOM     50  C   UNL A   1      42.665  29.861  29.722  1.00  0.00     0.074 A 
ATOM     51  C   UNL A   1      40.449  30.388  30.588  1.00  0.00     0.049 A 
ATOM     52  N   UNL A   1      43.396  30.735  30.378  1.00  0.00    -0.248 NA
ATOM     53  C   UNL A   1      43.423  29.052  28.762  1.00  0.00     0.031 C 
ATOM     54  C   UNL A   1      39.007  30.312  30.816  1.00  0.00     0.029 A 
ATOM     55  N   UNL A   1      40.829  31.500  31.332  1.00  0.00    -0.354 N 
ATOM     56  C   UNL A   1      44.703  30.521  29.957  1.00  0.00     0.074 A 
ATOM     57  C   UNL A   1      44.667  29.401  29.040  1.00  0.00     0.031 C 
ATOM     58  C   UNL A   1      38.626  31.329  31.618  1.00  0.00     0.029 A 
ATOM     59  C   UNL A   1      39.796  32.124  32.001  1.00  0.00     0.049 A 
ATOM     60  H   UNL A   1      41.760  31.816  31.378  1.00  0.00     0.167 HD
ATOM     61  C   UNL A   1      45.835  31.201  30.260  1.00  0.00     0.037 A 
ATOM     62  C   UNL A   1      39.783  33.197  32.827  1.00  0.00     0.037 A 
ATOM     63  C   UNL A   1      45.913  32.373  31.086  1.00  0.00     0.049 A 
ATOM     64  C   UNL A   1      41.062  33.932  33.181  1.00  0.00     0.074 A 
ATOM     65  C   UNL A   1      47.026  33.141  31.384  1.00  0.00     0.029 A 
ATOM     66  N   UNL A   1      44.838  32.961  31.729  1.00  0.00    -0.354 N 
ATOM     67  N   UNL A   1      42.284  33.725  32.761  1.00  0.00    -0.248 NA
ATOM     68  C   UNL A   1      40.953  35.058  34.134  1.00  0.00     0.031 C 
ATOM     69  C   UNL A   1      46.631  34.179  32.233  1.00  0.00     0.029 A 
ATOM     70  C   UNL A   1      45.264  34.079  32.429  1.00  0.00     0.049 A 
ATOM     71  H   UNL A   1      43.910  32.634  31.695  1.00  0.00     0.167 HD
ATOM     72  C   UNL A   1      43.069  34.715  33.347  1.00  0.00     0.074 A 
ATOM     73  C   UNL A   1      42.196  35.522  34.166  1.00  0.00     0.031 C 
ATOM     74  C   UNL A   1      44.399  34.929  33.204  1.00  0.00     0.037 A 
BRANCH  61  75
ATOM     75  C   UNL A   1      47.109  30.664  29.675  1.00  0.00     0.064 A 
ATOM     76  C   UNL A   1      47.671  31.210  28.511  1.00  0.00     0.173 A 
ATOM     77  C   UNL A   1      47.744  29.561  30.262  1.00  0.00     0.173 A 
ATOM     78  F   UNL A   1      47.088  32.256  27.905  1.00  0.00    -0.203 F 
ATOM     79  C   UNL A   1      48.782  30.623  27.915  1.00  0.00     0.198 A 
ATOM     80  C   UNL A   1      48.881  29.003  29.686  1.00  0.00     0.198 A 
ATOM     81  F   UNL A   1      47.253  29.014  31.384  1.00  0.00    -0.203 F 
ATOM     82  F   UNL A   1      49.242  31.098  26.750  1.00  0.00    -0.200 F 
ATOM     83  C   UNL A   1      49.386  29.521  28.503  1.00  0.00     0.200 A 
ATOM     84  F   UNL A   1      49.472  27.948  30.262  1.00  0.00    -0.200 F 
ATOM     85  F   UNL A   1      50.446  28.948  27.917  1.00  0.00    -0.200 F 
ENDBRANCH  61  75
BRANCH  62  86
ATOM     86  C   UNL A   1      38.499  33.709  33.398  1.00  0.00     0.064 A 
ATOM     87  C   UNL A   1      38.110  33.362  34.703  1.00  0.00     0.173 A 
ATOM     88  C   UNL A   1      37.597  34.459  32.633  1.00  0.00     0.173 A 
ATOM     89  F   UNL A   1      38.912  32.597  35.458  1.00  0.00    -0.203 F 
ATOM     90  C   UNL A   1      36.866  33.734  35.213  1.00  0.00     0.198 A 
ATOM     91  C   UNL A   1      36.360  34.850  33.152  1.00  0.00     0.198 A 
ATOM     92  F   UNL A   1      37.901  34.790  31.370  1.00  0.00    -0.203 F 
ATOM     93  F   UNL A   1      36.499  33.337  36.439  1.00  0.00    -0.200 F 
ATOM     94  C   UNL A   1      35.993  34.481  34.437  1.00  0.00     0.200 A 
ATOM     95  F   UNL A   1      35.514  35.564  32.397  1.00  0.00    -0.200 F 
ATOM     96  F   UNL A   1      34.792  34.827  34.921  1.00  0.00    -0.200 F 
ENDBRANCH  62  86
BRANCH  74  97
ATOM     97  C   UNL A   1      45.019  36.130  33.864  1.00  0.00     0.064 A 
ATOM     98  C   UNL A   1      45.659  36.048  35.109  1.00  0.00     0.173 A 
ATOM     99  C   UNL A   1      45.072  37.357  33.182  1.00  0.00     0.173 A 
ATOM    100  F   UNL A   1      45.631  34.904  35.809  1.00  0.00    -0.203 F 
ATOM    101  C   UNL A   1      46.328  37.148  35.646  1.00  0.00     0.198 A 
ATOM    102  C   UNL A   1      45.761  38.447  33.710  1.00  0.00     0.198 A 
ATOM    103  F   UNL A   1      44.484  37.489  31.984  1.00  0.00    -0.203 F 
ATOM    104  F   UNL A   1      46.922  37.051  36.844  1.00  0.00    -0.200 F 
ATOM    105  C   UNL A   1      46.389  38.342  34.941  1.00  0.00     0.200 A 
ATOM    106  F   UNL A   1      45.831  39.593  33.019  1.00  0.00    -0.200 F 
ATOM    107  F   UNL A   1      47.056  39.389  35.447  1.00  0.00    -0.200 F 
ENDBRANCH  74  97
ENDBRANCH  48  49
ENDBRANCH  40  43
ENDBRANCH  38  39
ENDBRANCH  37  38
ENDBRANCH  36  37
ENDBRANCH   1  36
TORSDOF 16
ENDMDL
MODEL 3
REMARK VINA RESULT:     -12.6      1.731      7.777
REMARK SMILES Cc1cc(C)cc(Oc2nc3ccccn3c(=O)c2/C=C2\SC(=S)N(CCC(=O)NCCCCNC(=O)c3ccc(-c4c5nc(c(-c6c(F)c(F)c(F)c(F)c6F)c6ccc([nH]6)c(-c6c(F)c(F)c(F)c(F)c6F)c6nc(c(-c7c(F)c(F)c(F)c(F)c7F)c7ccc4[nH]7)C=C6)C=C5)cc3)C2=O)c1
REMARK SMILES IDX 31 1 30 2 28 3 29 4 27 6 26 7 25 8 20 9 21 10 22 11 101 12
REMARK SMILES IDX 23 13 102 14 24 15 19 16 9 17 10 18 11 19 17 20 12 21 16 22
REMARK SMILES IDX 18 23 13 24 15 25 14 26 8 27 7 28 1 29 2 30 3 31 103 32 4 33
REMARK SMILES IDX 5 34 6 35 32 36 33 37 34 38 35 39 36 40 37 42 38 43 39 44
REMARK SMILES IDX 100 45 40 46 99 47 41 48 42 49 43 50 93 51 44 52 98 53 92 54
REMARK SMILES IDX 94 55 45 56 97 57 91 58 90 59 46 61 78 62 58 63 77 64 59 65
REMARK SMILES IDX 62 66 76 67 95 68 60 69 61 70 75 72 96 73 63 74 47 75 48 76
REMARK SMILES IDX 56 77 49 78 50 79 54 80 57 81 51 82 52 83 55 84 53 85 79 86
REMARK SMILES IDX 80 87 88 88 81 89 82 90 86 91 89 92 83 93 84 94 87 95 85 96
REMARK SMILES IDX 64 97 65 98 73 99 66 100 67 101 71 102 74 103 68 104 69 105
REMARK SMILES IDX 72 106 70 107
REMARK H PARENT 30 5 35 41 94 60 62 71
REMARK Flexibility Score: inf
ROOT
ATOM      1  C   UNL A   1      35.800  23.269  24.185  1.00  0.00     0.116 C 
ENDROOT
BRANCH   1   2
ATOM      2  N   UNL A   1      34.770  23.360  23.160  1.00  0.00    -0.356 N 
ATOM      3  C   UNL A   1      33.768  24.271  23.013  1.00  0.00     0.221 C 
ATOM      4  O   UNL A   1      32.936  24.100  22.121  1.00  0.00    -0.275 OA
ATOM      5  H   UNL A   1      34.802  22.658  22.471  1.00  0.00     0.163 HD
BRANCH   3   6
ATOM      6  C   UNL A   1      33.706  25.490  23.912  1.00  0.00     0.122 C 
BRANCH   6   7
ATOM      7  C   UNL A   1      32.944  25.235  25.233  1.00  0.00     0.137 C 
BRANCH   7   8
ATOM      8  N   UNL A   1      32.659  26.421  26.076  1.00  0.00    -0.292 N 
ATOM      9  C   UNL A   1      33.773  29.726  26.689  1.00  0.00     0.041 C 
ATOM     10  C   UNL A   1      33.154  28.548  26.975  1.00  0.00     0.081 C 
ATOM     11  S   UNL A   1      31.550  28.231  27.546  1.00  0.00    -0.054 SA
ATOM     12  C   UNL A   1      33.695  27.246  26.491  1.00  0.00     0.266 C 
ATOM     13  C   UNL A   1      31.398  26.809  26.497  1.00  0.00     0.148 C 
ATOM     14  O   UNL A   1      34.907  27.021  26.377  1.00  0.00    -0.268 OA
ATOM     15  S   UNL A   1      29.919  26.174  26.055  1.00  0.00    -0.052 S 
BRANCH   9  16
ATOM     16  C   UNL A   1      33.274  31.093  26.936  1.00  0.00     0.104 A 
ATOM     17  C   UNL A   1      32.083  31.777  26.695  1.00  0.00     0.234 A 
ATOM     18  N   UNL A   1      32.086  33.139  27.083  1.00  0.00    -0.194 NA
ATOM     19  C   UNL A   1      32.879  33.582  28.030  1.00  0.00     0.143 A 
ATOM     20  C   UNL A   1      34.381  31.880  27.641  1.00  0.00     0.269 A 
ATOM     21  C   UNL A   1      32.666  34.886  28.777  1.00  0.00     0.048 A 
ATOM     22  N   UNL A   1      33.991  32.904  28.448  1.00  0.00    -0.267 N 
ATOM     23  O   UNL A   1      35.565  31.562  27.499  1.00  0.00    -0.268 OA
ATOM     24  C   UNL A   1      33.417  35.237  29.829  1.00  0.00     0.005 A 
ATOM     25  C   UNL A   1      34.816  33.341  29.484  1.00  0.00     0.096 A 
ATOM     26  C   UNL A   1      34.546  34.440  30.197  1.00  0.00     0.019 A 
BRANCH  17  27
ATOM     27  O   UNL A   1      30.762  31.240  25.925  1.00  0.00    -0.438 OA
BRANCH  27  28
ATOM     28  C   UNL A   1      30.429  30.419  24.649  1.00  0.00     0.130 A 
ATOM     29  C   UNL A   1      32.229  28.045  22.124  1.00  0.00     0.044 C 
ATOM     30  C   UNL A   1      31.105  28.908  22.663  1.00  0.00    -0.047 A 
ATOM     31  C   UNL A   1      30.201  29.517  21.849  1.00  0.00     0.007 A 
ATOM     32  C   UNL A   1      31.034  29.241  24.037  1.00  0.00     0.050 A 
ATOM     33  C   UNL A   1      29.288  30.424  22.423  1.00  0.00    -0.047 A 
ATOM     34  C   UNL A   1      28.192  30.851  21.488  1.00  0.00     0.044 C 
ATOM     35  C   UNL A   1      29.444  30.940  23.778  1.00  0.00     0.050 A 
ENDBRANCH  27  28
ENDBRANCH  17  27
ENDBRANCH   9  16
ENDBRANCH   7   8
ENDBRANCH   6   7
ENDBRANCH   3   6
ENDBRANCH   1   2
BRANCH   1  36
ATOM     36  C   UNL A   1      35.418  22.251  25.268  1.00  0.00     0.023 C 
BRANCH  36  37
ATOM     37  C   UNL A   1      35.092  20.847  24.793  1.00  0.00     0.023 C 
BRANCH  37  38
ATOM     38  C   UNL A   1      36.222  19.639  24.710  1.00  0.00     0.116 C 
BRANCH  38  39
ATOM     39  N   UNL A   1      37.923  19.584  24.999  1.00  0.00    -0.352 N 
ATOM     40  C   UNL A   1      39.178  20.072  25.729  1.00  0.00     0.251 C 
ATOM     41  H   UNL A   1      38.254  18.888  24.385  1.00  0.00     0.163 HD
ATOM     42  O   UNL A   1      40.080  19.216  25.723  1.00  0.00    -0.269 OA
BRANCH  40  43
ATOM     43  C   UNL A   1      39.646  21.515  26.395  1.00  0.00     0.039 A 
ATOM     44  C   UNL A   1      40.821  21.577  27.169  1.00  0.00     0.014 A 
ATOM     45  C   UNL A   1      39.050  22.773  26.376  1.00  0.00     0.014 A 
ATOM     46  C   UNL A   1      41.591  22.754  27.416  1.00  0.00     0.010 A 
ATOM     47  C   UNL A   1      39.813  23.979  26.533  1.00  0.00     0.010 A 
ATOM     48  C   UNL A   1      41.143  23.992  26.989  1.00  0.00    -0.014 A 
BRANCH  48  49
ATOM     49  C   UNL A   1      41.926  25.273  27.218  1.00  0.00     0.031 A 
ATOM     50  C   UNL A   1      41.341  26.323  28.137  1.00  0.00     0.074 A 
ATOM     51  C   UNL A   1      43.125  25.570  26.657  1.00  0.00     0.049 A 
ATOM     52  N   UNL A   1      41.721  27.560  28.364  1.00  0.00    -0.248 NA
ATOM     53  C   UNL A   1      40.138  25.924  28.874  1.00  0.00     0.031 C 
ATOM     54  C   UNL A   1      43.903  24.710  25.767  1.00  0.00     0.029 A 
ATOM     55  N   UNL A   1      43.907  26.715  26.755  1.00  0.00    -0.354 N 
ATOM     56  C   UNL A   1      40.759  28.098  29.211  1.00  0.00     0.074 A 
ATOM     57  C   UNL A   1      39.755  27.073  29.404  1.00  0.00     0.031 C 
ATOM     58  C   UNL A   1      45.044  25.341  25.419  1.00  0.00     0.029 A 
ATOM     59  C   UNL A   1      45.080  26.673  26.028  1.00  0.00     0.049 A 
ATOM     60  H   UNL A   1      43.647  27.492  27.300  1.00  0.00     0.167 HD
ATOM     61  C   UNL A   1      40.712  29.311  29.814  1.00  0.00     0.037 A 
ATOM     62  C   UNL A   1      46.063  27.590  25.861  1.00  0.00     0.037 A 
ATOM     63  C   UNL A   1      41.725  30.326  29.733  1.00  0.00     0.049 A 
ATOM     64  C   UNL A   1      45.985  28.956  26.518  1.00  0.00     0.074 A 
ATOM     65  C   UNL A   1      41.760  31.556  30.369  1.00  0.00     0.029 A 
ATOM     66  N   UNL A   1      42.888  30.226  28.990  1.00  0.00    -0.354 N 
ATOM     67  N   UNL A   1      45.076  29.438  27.327  1.00  0.00    -0.248 NA
ATOM     68  C   UNL A   1      47.079  29.908  26.232  1.00  0.00     0.031 C 
ATOM     69  C   UNL A   1      42.933  32.215  29.988  1.00  0.00     0.029 A 
ATOM     70  C   UNL A   1      43.645  31.377  29.147  1.00  0.00     0.049 A 
ATOM     71  H   UNL A   1      43.140  29.454  28.433  1.00  0.00     0.167 HD
ATOM     72  C   UNL A   1      45.512  30.712  27.685  1.00  0.00     0.074 A 
ATOM     73  C   UNL A   1      46.762  30.943  26.999  1.00  0.00     0.031 C 
ATOM     74  C   UNL A   1      44.920  31.602  28.518  1.00  0.00     0.037 A 
BRANCH  61  75
ATOM     75  C   UNL A   1      39.486  29.601  30.628  1.00  0.00     0.064 A 
ATOM     76  C   UNL A   1      38.268  29.955  30.025  1.00  0.00     0.173 A 
ATOM     77  C   UNL A   1      39.547  29.572  32.028  1.00  0.00     0.173 A 
ATOM     78  F   UNL A   1      38.169  30.011  28.688  1.00  0.00    -0.203 F 
ATOM     79  C   UNL A   1      37.177  30.339  30.797  1.00  0.00     0.198 A 
ATOM     80  C   UNL A   1      38.439  29.917  32.797  1.00  0.00     0.198 A 
ATOM     81  F   UNL A   1      40.684  29.226  32.650  1.00  0.00    -0.203 F 
ATOM     82  F   UNL A   1      36.058  30.770  30.200  1.00  0.00    -0.200 F 
ATOM     83  C   UNL A   1      37.264  30.319  32.181  1.00  0.00     0.200 A 
ATOM     84  F   UNL A   1      38.518  29.883  34.134  1.00  0.00    -0.200 F 
ATOM     85  F   UNL A   1      36.217  30.707  32.922  1.00  0.00    -0.200 F 
ENDBRANCH  61  75
BRANCH  62  86
ATOM     86  C   UNL A   1      47.273  27.275  25.042  1.00  0.00     0.064 A 
ATOM     87  C   UNL A   1      48.367  26.602  25.613  1.00  0.00     0.173 A 
ATOM     88  C   UNL A   1      47.408  27.721  23.720  1.00  0.00     0.173 A 
ATOM     89  F   UNL A   1      48.311  26.204  26.893  1.00  0.00    -0.203 F 
ATOM     90  C   UNL A   1      49.548  26.400  24.899  1.00  0.00     0.198 A 
ATOM     91  C   UNL A   1      48.583  27.498  22.999  1.00  0.00     0.198 A 
ATOM     92  F   UNL A   1      46.409  28.398  23.135  1.00  0.00    -0.203 F 
ATOM     93  F   UNL A   1      50.594  25.808  25.491  1.00  0.00    -0.200 F 
ATOM     94  C   UNL A   1      49.653  26.845  23.591  1.00  0.00     0.200 A 
ATOM     95  F   UNL A   1      48.687  27.938  21.738  1.00  0.00    -0.200 F 
ATOM     96  F   UNL A   1      50.793  26.664  22.910  1.00  0.00    -0.200 F 
ENDBRANCH  62  86
BRANCH  74  97
ATOM     97  C   UNL A   1      45.630  32.890  28.833  1.00  0.00     0.064 A 
ATOM     98  C   UNL A   1      46.564  32.990  29.873  1.00  0.00     0.173 A 
ATOM     99  C   UNL A   1      45.454  34.009  28.002  1.00  0.00     0.173 A 
ATOM    100  F   UNL A   1      46.765  31.955  30.703  1.00  0.00    -0.203 F 
ATOM    101  C   UNL A   1      47.295  34.162  30.070  1.00  0.00     0.198 A 
ATOM    102  C   UNL A   1      46.202  35.170  28.187  1.00  0.00     0.198 A 
ATOM    103  F   UNL A   1      44.579  33.965  26.987  1.00  0.00    -0.203 F 
ATOM    104  F   UNL A   1      48.174  34.240  31.080  1.00  0.00    -0.200 F 
ATOM    105  C   UNL A   1      47.123  35.245  29.220  1.00  0.00     0.200 A 
ATOM    106  F   UNL A   1      46.044  36.208  27.355  1.00  0.00    -0.200 F 
ATOM    107  F   UNL A   1      47.847  36.360  29.395  1.00  0.00    -0.200 F 
ENDBRANCH  74  97
ENDBRANCH  48  49
ENDBRANCH  40  43
ENDBRANCH  38  39
ENDBRANCH  37  38
ENDBRANCH  36  37
ENDBRANCH   1  36
TORSDOF 16
ENDMDL
