MODEL 1
REMARK VINA RESULT:     -12.0      0.000      0.000
REMARK SMILES CC(C)(C)[NH2+]CC(=O)N1Cc2nc[nH]c2C[C@@H]1C(=O)NCCCCNC(=O)c1ccc(-c2c3nc(c(-c4c(F)c(F)c(F)c(F)c4F)c4ccc([nH]4)c(-c4c(F)c(F)c(F)c(F)c4F)c4nc(c(-c5c(F)c(F)c(F)c(F)c5F)c5ccc2[nH]5)C=C4)C=C3)cc1
REMARK SMILES IDX 21 1 20 2 18 3 19 4 17 6 9 7 10 8 11 9 16 10 12 11 15 12
REMARK SMILES IDX 13 13 14 14 7 16 8 17 6 18 5 19 2 22 1 23 3 24 4 25 22 26
REMARK SMILES IDX 23 27 24 28 25 29 26 30 27 32 28 33 29 34 90 35 30 36 89 37
REMARK SMILES IDX 31 38 32 39 33 40 83 41 34 42 88 43 82 44 84 45 35 46 87 47
REMARK SMILES IDX 81 48 80 49 36 51 68 52 48 53 67 54 49 55 52 56 66 57 85 58
REMARK SMILES IDX 50 59 51 60 65 62 86 63 53 64 37 65 38 66 46 67 39 68 40 69
REMARK SMILES IDX 44 70 47 71 41 72 42 73 45 74 43 75 69 76 70 77 78 78 71 79
REMARK SMILES IDX 72 80 76 81 79 82 73 83 74 84 77 85 75 86 54 87 55 88 63 89
REMARK SMILES IDX 56 90 57 91 61 92 64 93 58 94 59 95 62 96 60 97
REMARK H PARENT 20 5 14 15 5 20 5 21 25 31 84 50 52 61
REMARK Flexibility Score: inf
ROOT
ATOM      1  C   UNL A   1      37.919  22.197  25.360  1.00  0.00     0.116 C 
ENDROOT
BRANCH   1   2
ATOM      2  N   UNL A   1      37.278  23.369  24.809  1.00  0.00    -0.354 N 
ATOM      3  C   UNL A   1      35.997  23.343  24.324  1.00  0.00     0.243 C 
ATOM      4  O   UNL A   1      35.875  23.259  23.096  1.00  0.00    -0.273 OA
ATOM      5  H   UNL A   1      37.780  24.215  24.781  1.00  0.00     0.163 HD
BRANCH   3   6
ATOM      6  C   UNL A   1      34.825  23.831  25.226  1.00  0.00     0.181 C 
ATOM      7  N   UNL A   1      33.702  22.921  25.588  1.00  0.00    -0.319 N 
ATOM      8  C   UNL A   1      32.387  23.478  26.015  1.00  0.00     0.178 C 
ATOM      9  C   UNL A   1      32.372  24.964  26.055  1.00  0.00     0.081 A 
ATOM     10  C   UNL A   1      34.449  25.243  24.687  1.00  0.00     0.091 C 
ATOM     11  N   UNL A   1      31.476  25.740  26.747  1.00  0.00    -0.240 NA
ATOM     12  C   UNL A   1      33.313  25.757  25.460  1.00  0.00     0.042 A 
ATOM     13  C   UNL A   1      31.884  26.981  26.571  1.00  0.00     0.197 A 
ATOM     14  N   UNL A   1      33.019  27.040  25.805  1.00  0.00    -0.348 N 
ATOM     15  H   UNL A   1      33.522  27.849  25.556  1.00  0.00     0.167 HD
BRANCH   7  16
ATOM     16  C   UNL A   1      33.903  21.658  26.135  1.00  0.00     0.278 C 
ATOM     17  O   UNL A   1      34.814  21.513  26.965  1.00  0.00    -0.268 OA
BRANCH  16  18
ATOM     18  C   UNL A   1      33.200  20.381  25.603  1.00  0.00     0.362 C 
BRANCH  18  19
ATOM     19  N   UNL A   1      34.039  19.309  25.051  1.00  0.00    -0.334 N 
ATOM     20  H   UNL A   1      34.627  19.747  24.341  1.00  0.00     0.347 HD
ATOM     21  H   UNL A   1      34.470  18.926  25.893  1.00  0.00     0.347 HD
BRANCH  19  22
ATOM     22  C   UNL A   1      33.472  18.100  24.425  1.00  0.00     0.088 C 
ATOM     23  C   UNL A   1      34.492  17.119  23.838  1.00  0.00     0.078 C 
ATOM     24  C   UNL A   1      32.489  18.507  23.296  1.00  0.00     0.078 C 
ATOM     25  C   UNL A   1      32.606  17.399  25.488  1.00  0.00     0.078 C 
ENDBRANCH  19  22
ENDBRANCH  18  19
ENDBRANCH  16  18
ENDBRANCH   7  16
ENDBRANCH   3   6
ENDBRANCH   1   2
BRANCH   1  26
ATOM     26  C   UNL A   1      37.456  20.912  24.664  1.00  0.00     0.023 C 
BRANCH  26  27
ATOM     27  C   UNL A   1      38.258  19.640  24.994  1.00  0.00     0.023 C 
BRANCH  27  28
ATOM     28  C   UNL A   1      39.306  19.820  26.083  1.00  0.00     0.116 C 
BRANCH  28  29
ATOM     29  N   UNL A   1      40.555  19.136  25.773  1.00  0.00    -0.352 N 
ATOM     30  C   UNL A   1      41.826  19.652  25.755  1.00  0.00     0.251 C 
ATOM     31  H   UNL A   1      40.476  18.182  25.548  1.00  0.00     0.163 HD
ATOM     32  O   UNL A   1      42.726  19.063  25.146  1.00  0.00    -0.269 OA
BRANCH  30  33
ATOM     33  C   UNL A   1      42.126  20.914  26.457  1.00  0.00     0.039 A 
ATOM     34  C   UNL A   1      42.317  22.090  25.728  1.00  0.00     0.014 A 
ATOM     35  C   UNL A   1      42.247  20.920  27.849  1.00  0.00     0.014 A 
ATOM     36  C   UNL A   1      42.561  23.276  26.413  1.00  0.00     0.010 A 
ATOM     37  C   UNL A   1      42.383  22.109  28.534  1.00  0.00     0.010 A 
ATOM     38  C   UNL A   1      42.566  23.286  27.821  1.00  0.00    -0.014 A 
BRANCH  38  39
ATOM     39  C   UNL A   1      42.532  24.565  28.530  1.00  0.00     0.031 A 
ATOM     40  C   UNL A   1      41.297  25.333  28.225  1.00  0.00     0.074 A 
ATOM     41  C   UNL A   1      43.406  24.951  29.488  1.00  0.00     0.049 A 
ATOM     42  N   UNL A   1      41.218  26.407  27.515  1.00  0.00    -0.248 NA
ATOM     43  C   UNL A   1      39.984  24.756  28.568  1.00  0.00     0.031 C 
ATOM     44  C   UNL A   1      44.491  24.157  30.070  1.00  0.00     0.029 A 
ATOM     45  N   UNL A   1      43.463  26.110  30.218  1.00  0.00    -0.354 N 
ATOM     46  C   UNL A   1      39.880  26.784  27.546  1.00  0.00     0.074 A 
ATOM     47  C   UNL A   1      39.149  25.638  28.012  1.00  0.00     0.031 C 
ATOM     48  C   UNL A   1      44.934  24.748  31.203  1.00  0.00     0.029 A 
ATOM     49  C   UNL A   1      44.284  26.039  31.344  1.00  0.00     0.049 A 
ATOM     50  H   UNL A   1      42.966  26.922  29.970  1.00  0.00     0.167 HD
ATOM     51  C   UNL A   1      39.567  28.109  27.531  1.00  0.00     0.037 A 
ATOM     52  C   UNL A   1      44.422  26.969  32.325  1.00  0.00     0.037 A 
ATOM     53  C   UNL A   1      40.711  28.882  27.108  1.00  0.00     0.049 A 
ATOM     54  C   UNL A   1      43.996  28.267  31.761  1.00  0.00     0.074 A 
ATOM     55  C   UNL A   1      41.425  29.071  25.946  1.00  0.00     0.029 A 
ATOM     56  N   UNL A   1      41.525  29.238  28.148  1.00  0.00    -0.354 N 
ATOM     57  N   UNL A   1      44.674  28.907  30.851  1.00  0.00    -0.248 NA
ATOM     58  C   UNL A   1      42.622  28.713  31.950  1.00  0.00     0.031 C 
ATOM     59  C   UNL A   1      42.757  29.402  26.348  1.00  0.00     0.029 A 
ATOM     60  C   UNL A   1      42.804  29.475  27.739  1.00  0.00     0.049 A 
ATOM     61  H   UNL A   1      41.222  29.313  29.082  1.00  0.00     0.167 HD
ATOM     62  C   UNL A   1      43.702  29.470  30.051  1.00  0.00     0.074 A 
ATOM     63  C   UNL A   1      42.498  29.494  30.873  1.00  0.00     0.031 C 
ATOM     64  C   UNL A   1      43.881  29.528  28.700  1.00  0.00     0.037 A 
BRANCH  51  65
ATOM     65  C   UNL A   1      38.515  28.741  28.428  1.00  0.00     0.064 A 
ATOM     66  C   UNL A   1      37.697  29.762  27.895  1.00  0.00     0.173 A 
ATOM     67  C   UNL A   1      38.514  28.648  29.838  1.00  0.00     0.173 A 
ATOM     68  F   UNL A   1      37.647  29.972  26.571  1.00  0.00    -0.203 F 
ATOM     69  C   UNL A   1      36.997  30.656  28.713  1.00  0.00     0.198 A 
ATOM     70  C   UNL A   1      37.776  29.511  30.648  1.00  0.00     0.198 A 
ATOM     71  F   UNL A   1      39.318  27.811  30.503  1.00  0.00    -0.203 F 
ATOM     72  F   UNL A   1      36.339  31.686  28.164  1.00  0.00    -0.200 F 
ATOM     73  C   UNL A   1      37.041  30.531  30.088  1.00  0.00     0.200 A 
ATOM     74  F   UNL A   1      37.863  29.394  31.981  1.00  0.00    -0.200 F 
ATOM     75  F   UNL A   1      36.422  31.421  30.876  1.00  0.00    -0.200 F 
ENDBRANCH  51  65
BRANCH  52  76
ATOM     76  C   UNL A   1      44.723  26.822  33.772  1.00  0.00     0.064 A 
ATOM     77  C   UNL A   1      43.734  26.403  34.684  1.00  0.00     0.173 A 
ATOM     78  C   UNL A   1      46.051  26.777  34.234  1.00  0.00     0.173 A 
ATOM     79  F   UNL A   1      42.443  26.382  34.320  1.00  0.00    -0.203 F 
ATOM     80  C   UNL A   1      44.060  25.917  35.955  1.00  0.00     0.198 A 
ATOM     81  C   UNL A   1      46.374  26.295  35.505  1.00  0.00     0.198 A 
ATOM     82  F   UNL A   1      47.068  27.101  33.423  1.00  0.00    -0.203 F 
ATOM     83  F   UNL A   1      43.095  25.452  36.762  1.00  0.00    -0.200 F 
ATOM     84  C   UNL A   1      45.382  25.847  36.357  1.00  0.00     0.200 A 
ATOM     85  F   UNL A   1      47.661  26.198  35.869  1.00  0.00    -0.200 F 
ATOM     86  F   UNL A   1      45.702  25.308  37.542  1.00  0.00    -0.200 F 
ENDBRANCH  52  76
BRANCH  64  87
ATOM     87  C   UNL A   1      45.292  29.525  28.196  1.00  0.00     0.064 A 
ATOM     88  C   UNL A   1      46.140  30.644  28.159  1.00  0.00     0.173 A 
ATOM     89  C   UNL A   1      45.814  28.301  27.755  1.00  0.00     0.173 A 
ATOM     90  F   UNL A   1      45.747  31.830  28.643  1.00  0.00    -0.203 F 
ATOM     91  C   UNL A   1      47.432  30.547  27.643  1.00  0.00     0.198 A 
ATOM     92  C   UNL A   1      47.116  28.198  27.283  1.00  0.00     0.198 A 
ATOM     93  F   UNL A   1      45.060  27.191  27.805  1.00  0.00    -0.203 F 
ATOM     94  F   UNL A   1      48.213  31.635  27.578  1.00  0.00    -0.200 F 
ATOM     95  C   UNL A   1      47.919  29.324  27.209  1.00  0.00     0.200 A 
ATOM     96  F   UNL A   1      47.594  27.004  26.907  1.00  0.00    -0.200 F 
ATOM     97  F   UNL A   1      49.168  29.226  26.733  1.00  0.00    -0.200 F 
ENDBRANCH  64  87
ENDBRANCH  38  39
ENDBRANCH  30  33
ENDBRANCH  28  29
ENDBRANCH  27  28
ENDBRANCH  26  27
ENDBRANCH   1  26
TORSDOF 15
ENDMDL
MODEL 2
REMARK VINA RESULT:     -11.9      1.753      6.438
REMARK SMILES CC(C)(C)[NH2+]CC(=O)N1Cc2nc[nH]c2C[C@@H]1C(=O)NCCCCNC(=O)c1ccc(-c2c3nc(c(-c4c(F)c(F)c(F)c(F)c4F)c4ccc([nH]4)c(-c4c(F)c(F)c(F)c(F)c4F)c4nc(c(-c5c(F)c(F)c(F)c(F)c5F)c5ccc2[nH]5)C=C4)C=C3)cc1
REMARK SMILES IDX 21 1 20 2 18 3 19 4 17 6 9 7 10 8 11 9 16 10 12 11 15 12
REMARK SMILES IDX 13 13 14 14 7 16 8 17 6 18 5 19 2 22 1 23 3 24 4 25 22 26
REMARK SMILES IDX 23 27 24 28 25 29 26 30 27 32 28 33 29 34 90 35 30 36 89 37
REMARK SMILES IDX 31 38 32 39 33 40 83 41 34 42 88 43 82 44 84 45 35 46 87 47
REMARK SMILES IDX 81 48 80 49 36 51 68 52 48 53 67 54 49 55 52 56 66 57 85 58
REMARK SMILES IDX 50 59 51 60 65 62 86 63 53 64 37 65 38 66 46 67 39 68 40 69
REMARK SMILES IDX 44 70 47 71 41 72 42 73 45 74 43 75 69 76 70 77 78 78 71 79
REMARK SMILES IDX 72 80 76 81 79 82 73 83 74 84 77 85 75 86 54 87 55 88 63 89
REMARK SMILES IDX 56 90 57 91 61 92 64 93 58 94 59 95 62 96 60 97
REMARK H PARENT 20 5 14 15 5 20 5 21 25 31 84 50 52 61
REMARK Flexibility Score: inf
ROOT
ATOM      1  C   UNL A   1      38.000  21.644  25.471  1.00  0.00     0.116 C 
ENDROOT
BRANCH   1   2
ATOM      2  N   UNL A   1      37.587  22.998  25.186  1.00  0.00    -0.354 N 
ATOM      3  C   UNL A   1      36.422  23.285  24.524  1.00  0.00     0.243 C 
ATOM      4  O   UNL A   1      36.523  23.546  23.320  1.00  0.00    -0.273 OA
ATOM      5  H   UNL A   1      38.163  23.742  25.478  1.00  0.00     0.163 HD
BRANCH   3   6
ATOM      6  C   UNL A   1      35.154  23.680  25.338  1.00  0.00     0.181 C 
ATOM      7  N   UNL A   1      34.022  22.727  25.510  1.00  0.00    -0.319 N 
ATOM      8  C   UNL A   1      32.657  23.227  25.843  1.00  0.00     0.178 C 
ATOM      9  C   UNL A   1      32.605  24.705  26.001  1.00  0.00     0.081 A 
ATOM     10  C   UNL A   1      34.802  25.126  24.879  1.00  0.00     0.091 C 
ATOM     11  N   UNL A   1      31.625  25.408  26.658  1.00  0.00    -0.240 NA
ATOM     12  C   UNL A   1      33.582  25.558  25.571  1.00  0.00     0.042 A 
ATOM     13  C   UNL A   1      32.020  26.665  26.624  1.00  0.00     0.197 A 
ATOM     14  N   UNL A   1      33.225  26.803  25.986  1.00  0.00    -0.348 N 
ATOM     15  H   UNL A   1      33.732  27.638  25.855  1.00  0.00     0.167 HD
BRANCH   7  16
ATOM     16  C   UNL A   1      34.195  21.426  25.971  1.00  0.00     0.278 C 
ATOM     17  O   UNL A   1      34.489  21.258  27.165  1.00  0.00    -0.268 OA
BRANCH  16  18
ATOM     18  C   UNL A   1      34.262  20.193  25.030  1.00  0.00     0.362 C 
BRANCH  18  19
ATOM     19  N   UNL A   1      33.433  19.026  25.362  1.00  0.00    -0.334 N 
ATOM     20  H   UNL A   1      33.732  18.720  26.289  1.00  0.00     0.347 HD
ATOM     21  H   UNL A   1      32.491  19.395  25.234  1.00  0.00     0.347 HD
BRANCH  19  22
ATOM     22  C   UNL A   1      33.400  17.813  24.522  1.00  0.00     0.088 C 
ATOM     23  C   UNL A   1      32.724  17.974  23.157  1.00  0.00     0.078 C 
ATOM     24  C   UNL A   1      32.682  16.669  25.283  1.00  0.00     0.078 C 
ATOM     25  C   UNL A   1      34.855  17.339  24.348  1.00  0.00     0.078 C 
ENDBRANCH  19  22
ENDBRANCH  18  19
ENDBRANCH  16  18
ENDBRANCH   7  16
ENDBRANCH   3   6
ENDBRANCH   1   2
BRANCH   1  26
ATOM     26  C   UNL A   1      39.426  21.587  26.031  1.00  0.00     0.023 C 
BRANCH  26  27
ATOM     27  C   UNL A   1      40.073  20.191  26.083  1.00  0.00     0.023 C 
BRANCH  27  28
ATOM     28  C   UNL A   1      41.337  20.113  26.927  1.00  0.00     0.116 C 
BRANCH  28  29
ATOM     29  N   UNL A   1      42.521  19.811  26.132  1.00  0.00    -0.352 N 
ATOM     30  C   UNL A   1      43.382  20.687  25.521  1.00  0.00     0.251 C 
ATOM     31  H   UNL A   1      42.729  18.856  26.018  1.00  0.00     0.163 HD
ATOM     32  O   UNL A   1      44.120  20.297  24.609  1.00  0.00    -0.269 OA
BRANCH  30  33
ATOM     33  C   UNL A   1      43.431  22.098  25.944  1.00  0.00     0.039 A 
ATOM     34  C   UNL A   1      42.687  23.060  25.257  1.00  0.00     0.014 A 
ATOM     35  C   UNL A   1      44.246  22.471  27.016  1.00  0.00     0.014 A 
ATOM     36  C   UNL A   1      42.718  24.379  25.697  1.00  0.00     0.010 A 
ATOM     37  C   UNL A   1      44.197  23.755  27.518  1.00  0.00     0.010 A 
ATOM     38  C   UNL A   1      43.454  24.718  26.848  1.00  0.00    -0.014 A 
BRANCH  38  39
ATOM     39  C   UNL A   1      43.253  26.027  27.470  1.00  0.00     0.031 A 
ATOM     40  C   UNL A   1      44.255  27.021  27.003  1.00  0.00     0.074 A 
ATOM     41  C   UNL A   1      42.193  26.373  28.237  1.00  0.00     0.049 A 
ATOM     42  N   UNL A   1      45.229  27.510  27.693  1.00  0.00    -0.248 NA
ATOM     43  C   UNL A   1      44.315  27.367  25.571  1.00  0.00     0.031 C 
ATOM     44  C   UNL A   1      41.006  25.564  28.526  1.00  0.00     0.029 A 
ATOM     45  N   UNL A   1      41.900  27.561  28.855  1.00  0.00    -0.354 N 
ATOM     46  C   UNL A   1      45.862  28.423  26.858  1.00  0.00     0.074 A 
ATOM     47  C   UNL A   1      45.405  28.138  25.526  1.00  0.00     0.031 C 
ATOM     48  C   UNL A   1      40.034  26.347  29.047  1.00  0.00     0.029 A 
ATOM     49  C   UNL A   1      40.576  27.675  29.281  1.00  0.00     0.049 A 
ATOM     50  H   UNL A   1      42.566  28.273  28.986  1.00  0.00     0.167 HD
ATOM     51  C   UNL A   1      46.411  29.545  27.403  1.00  0.00     0.037 A 
ATOM     52  C   UNL A   1      39.962  28.776  29.788  1.00  0.00     0.037 A 
ATOM     53  C   UNL A   1      46.548  29.383  28.830  1.00  0.00     0.049 A 
ATOM     54  C   UNL A   1      41.021  29.662  30.314  1.00  0.00     0.074 A 
ATOM     55  C   UNL A   1      47.316  28.629  29.690  1.00  0.00     0.029 A 
ATOM     56  N   UNL A   1      45.433  29.775  29.519  1.00  0.00    -0.354 N 
ATOM     57  N   UNL A   1      41.726  29.382  31.373  1.00  0.00    -0.248 NA
ATOM     58  C   UNL A   1      41.555  30.721  29.467  1.00  0.00     0.031 C 
ATOM     59  C   UNL A   1      46.531  28.454  30.873  1.00  0.00     0.029 A 
ATOM     60  C   UNL A   1      45.338  29.160  30.733  1.00  0.00     0.049 A 
ATOM     61  H   UNL A   1      44.776  30.424  29.177  1.00  0.00     0.167 HD
ATOM     62  C   UNL A   1      42.983  29.862  31.070  1.00  0.00     0.074 A 
ATOM     63  C   UNL A   1      42.772  30.836  30.005  1.00  0.00     0.031 C 
ATOM     64  C   UNL A   1      44.090  29.167  31.460  1.00  0.00     0.037 A 
BRANCH  51  65
ATOM     65  C   UNL A   1      46.262  30.936  26.808  1.00  0.00     0.064 A 
ATOM     66  C   UNL A   1      47.392  31.782  26.778  1.00  0.00     0.173 A 
ATOM     67  C   UNL A   1      45.023  31.583  26.604  1.00  0.00     0.173 A 
ATOM     68  F   UNL A   1      48.620  31.287  26.999  1.00  0.00    -0.203 F 
ATOM     69  C   UNL A   1      47.278  33.169  26.627  1.00  0.00     0.198 A 
ATOM     70  C   UNL A   1      44.917  32.960  26.405  1.00  0.00     0.198 A 
ATOM     71  F   UNL A   1      43.853  30.945  26.712  1.00  0.00    -0.203 F 
ATOM     72  F   UNL A   1      48.366  33.944  26.735  1.00  0.00    -0.200 F 
ATOM     73  C   UNL A   1      46.040  33.756  26.445  1.00  0.00     0.200 A 
ATOM     74  F   UNL A   1      43.703  33.511  26.267  1.00  0.00    -0.200 F 
ATOM     75  F   UNL A   1      45.919  35.087  26.362  1.00  0.00    -0.200 F 
ENDBRANCH  51  65
BRANCH  52  76
ATOM     76  C   UNL A   1      38.551  29.230  29.708  1.00  0.00     0.064 A 
ATOM     77  C   UNL A   1      37.798  29.480  30.872  1.00  0.00     0.173 A 
ATOM     78  C   UNL A   1      38.020  29.732  28.507  1.00  0.00     0.173 A 
ATOM     79  F   UNL A   1      38.243  29.066  32.068  1.00  0.00    -0.203 F 
ATOM     80  C   UNL A   1      36.620  30.234  30.842  1.00  0.00     0.198 A 
ATOM     81  C   UNL A   1      36.841  30.482  28.477  1.00  0.00     0.198 A 
ATOM     82  F   UNL A   1      38.689  29.596  27.353  1.00  0.00    -0.203 F 
ATOM     83  F   UNL A   1      35.977  30.519  31.984  1.00  0.00    -0.200 F 
ATOM     84  C   UNL A   1      36.152  30.749  29.646  1.00  0.00     0.200 A 
ATOM     85  F   UNL A   1      36.417  31.006  27.318  1.00  0.00    -0.200 F 
ATOM     86  F   UNL A   1      35.068  31.538  29.625  1.00  0.00    -0.200 F 
ENDBRANCH  52  76
BRANCH  64  87
ATOM     87  C   UNL A   1      43.949  28.267  32.649  1.00  0.00     0.064 A 
ATOM     88  C   UNL A   1      43.786  26.873  32.594  1.00  0.00     0.173 A 
ATOM     89  C   UNL A   1      44.016  28.862  33.917  1.00  0.00     0.173 A 
ATOM     90  F   UNL A   1      43.799  26.217  31.425  1.00  0.00    -0.203 F 
ATOM     91  C   UNL A   1      43.632  26.123  33.760  1.00  0.00     0.198 A 
ATOM     92  C   UNL A   1      43.907  28.107  35.077  1.00  0.00     0.198 A 
ATOM     93  F   UNL A   1      44.210  30.186  34.028  1.00  0.00    -0.203 F 
ATOM     94  F   UNL A   1      43.436  24.798  33.686  1.00  0.00    -0.200 F 
ATOM     95  C   UNL A   1      43.697  26.740  34.999  1.00  0.00     0.200 A 
ATOM     96  F   UNL A   1      44.016  28.705  36.271  1.00  0.00    -0.200 F 
ATOM     97  F   UNL A   1      43.572  26.017  36.120  1.00  0.00    -0.200 F 
ENDBRANCH  64  87
ENDBRANCH  38  39
ENDBRANCH  30  33
ENDBRANCH  28  29
ENDBRANCH  27  28
ENDBRANCH  26  27
ENDBRANCH   1  26
TORSDOF 15
ENDMDL
MODEL 3
REMARK VINA RESULT:     -11.7      3.889      8.644
REMARK SMILES CC(C)(C)[NH2+]CC(=O)N1Cc2nc[nH]c2C[C@@H]1C(=O)NCCCCNC(=O)c1ccc(-c2c3nc(c(-c4c(F)c(F)c(F)c(F)c4F)c4ccc([nH]4)c(-c4c(F)c(F)c(F)c(F)c4F)c4nc(c(-c5c(F)c(F)c(F)c(F)c5F)c5ccc2[nH]5)C=C4)C=C3)cc1
REMARK SMILES IDX 21 1 20 2 18 3 19 4 17 6 9 7 10 8 11 9 16 10 12 11 15 12
REMARK SMILES IDX 13 13 14 14 7 16 8 17 6 18 5 19 2 22 1 23 3 24 4 25 22 26
REMARK SMILES IDX 23 27 24 28 25 29 26 30 27 32 28 33 29 34 90 35 30 36 89 37
REMARK SMILES IDX 31 38 32 39 33 40 83 41 34 42 88 43 82 44 84 45 35 46 87 47
REMARK SMILES IDX 81 48 80 49 36 51 68 52 48 53 67 54 49 55 52 56 66 57 85 58
REMARK SMILES IDX 50 59 51 60 65 62 86 63 53 64 37 65 38 66 46 67 39 68 40 69
REMARK SMILES IDX 44 70 47 71 41 72 42 73 45 74 43 75 69 76 70 77 78 78 71 79
REMARK SMILES IDX 72 80 76 81 79 82 73 83 74 84 77 85 75 86 54 87 55 88 63 89
REMARK SMILES IDX 56 90 57 91 61 92 64 93 58 94 59 95 62 96 60 97
REMARK H PARENT 20 5 14 15 5 20 5 21 25 31 84 50 52 61
REMARK Flexibility Score: inf
ROOT
ATOM      1  C   UNL A   1      34.615  29.643  26.839  1.00  0.00     0.116 C 
ENDROOT
BRANCH   1   2
ATOM      2  N   UNL A   1      33.183  29.498  26.959  1.00  0.00    -0.354 N 
ATOM      3  C   UNL A   1      32.361  29.413  25.865  1.00  0.00     0.243 C 
ATOM      4  O   UNL A   1      31.771  30.449  25.539  1.00  0.00    -0.273 OA
ATOM      5  H   UNL A   1      32.783  29.458  27.857  1.00  0.00     0.163 HD
BRANCH   3   6
ATOM      6  C   UNL A   1      31.885  28.015  25.370  1.00  0.00     0.181 C 
ATOM      7  N   UNL A   1      30.836  27.887  24.320  1.00  0.00    -0.319 N 
ATOM      8  C   UNL A   1      30.047  26.628  24.191  1.00  0.00     0.178 C 
ATOM      9  C   UNL A   1      30.456  25.585  25.170  1.00  0.00     0.081 A 
ATOM     10  C   UNL A   1      31.710  27.158  26.658  1.00  0.00     0.091 C 
ATOM     11  N   UNL A   1      30.202  24.241  25.063  1.00  0.00    -0.240 NA
ATOM     12  C   UNL A   1      31.215  25.830  26.279  1.00  0.00     0.042 A 
ATOM     13  C   UNL A   1      30.810  23.690  26.095  1.00  0.00     0.197 A 
ATOM     14  N   UNL A   1      31.463  24.624  26.858  1.00  0.00    -0.348 N 
ATOM     15  H   UNL A   1      32.004  24.454  27.663  1.00  0.00     0.167 HD
BRANCH   7  16
ATOM     16  C   UNL A   1      30.905  28.551  23.101  1.00  0.00     0.278 C 
ATOM     17  O   UNL A   1      31.990  28.569  22.500  1.00  0.00    -0.268 OA
BRANCH  16  18
ATOM     18  C   UNL A   1      29.765  29.457  22.561  1.00  0.00     0.362 C 
BRANCH  18  19
ATOM     19  N   UNL A   1      29.781  30.879  22.927  1.00  0.00    -0.334 N 
ATOM     20  H   UNL A   1      29.934  30.911  23.935  1.00  0.00     0.347 HD
ATOM     21  H   UNL A   1      30.494  31.249  22.298  1.00  0.00     0.347 HD
BRANCH  19  22
ATOM     22  C   UNL A   1      28.644  31.780  22.657  1.00  0.00     0.088 C 
ATOM     23  C   UNL A   1      28.159  31.814  21.204  1.00  0.00     0.078 C 
ATOM     24  C   UNL A   1      29.011  33.227  23.076  1.00  0.00     0.078 C 
ATOM     25  C   UNL A   1      27.497  31.360  23.595  1.00  0.00     0.078 C 
ENDBRANCH  19  22
ENDBRANCH  18  19
ENDBRANCH  16  18
ENDBRANCH   7  16
ENDBRANCH   3   6
ENDBRANCH   1   2
BRANCH   1  26
ATOM     26  C   UNL A   1      35.131  30.868  27.604  1.00  0.00     0.023 C 
BRANCH  26  27
ATOM     27  C   UNL A   1      34.054  31.782  28.217  1.00  0.00     0.023 C 
BRANCH  27  28
ATOM     28  C   UNL A   1      34.592  33.064  28.834  1.00  0.00     0.116 C 
BRANCH  28  29
ATOM     29  N   UNL A   1      34.454  33.085  30.285  1.00  0.00    -0.352 N 
ATOM     30  C   UNL A   1      35.103  32.309  31.213  1.00  0.00     0.251 C 
ATOM     31  H   UNL A   1      33.814  33.739  30.646  1.00  0.00     0.163 HD
ATOM     32  O   UNL A   1      34.641  32.191  32.353  1.00  0.00    -0.269 OA
BRANCH  30  33
ATOM     33  C   UNL A   1      36.349  31.608  30.855  1.00  0.00     0.039 A 
ATOM     34  C   UNL A   1      37.511  32.338  30.593  1.00  0.00     0.014 A 
ATOM     35  C   UNL A   1      36.354  30.215  30.752  1.00  0.00     0.014 A 
ATOM     36  C   UNL A   1      38.685  31.654  30.295  1.00  0.00     0.010 A 
ATOM     37  C   UNL A   1      37.537  29.532  30.562  1.00  0.00     0.010 A 
ATOM     38  C   UNL A   1      38.701  30.246  30.308  1.00  0.00    -0.014 A 
BRANCH  38  39
ATOM     39  C   UNL A   1      39.982  29.542  30.283  1.00  0.00     0.031 A 
ATOM     40  C   UNL A   1      40.545  29.371  31.648  1.00  0.00     0.074 A 
ATOM     41  C   UNL A   1      40.527  28.948  29.196  1.00  0.00     0.049 A 
ATOM     42  N   UNL A   1      41.571  29.982  32.136  1.00  0.00    -0.248 NA
ATOM     43  C   UNL A   1      39.789  28.598  32.650  1.00  0.00     0.031 C 
ATOM     44  C   UNL A   1      39.924  28.807  27.868  1.00  0.00     0.029 A 
ATOM     45  N   UNL A   1      41.704  28.259  29.063  1.00  0.00    -0.354 N 
ATOM     46  C   UNL A   1      41.743  29.470  33.417  1.00  0.00     0.074 A 
ATOM     47  C   UNL A   1      40.516  28.801  33.752  1.00  0.00     0.031 C 
ATOM     48  C   UNL A   1      40.613  27.891  27.148  1.00  0.00     0.029 A 
ATOM     49  C   UNL A   1      41.795  27.499  27.895  1.00  0.00     0.049 A 
ATOM     50  H   UNL A   1      42.424  28.296  29.733  1.00  0.00     0.167 HD
ATOM     51  C   UNL A   1      43.004  29.342  33.913  1.00  0.00     0.037 A 
ATOM     52  C   UNL A   1      42.767  26.610  27.562  1.00  0.00     0.037 A 
ATOM     53  C   UNL A   1      43.926  30.125  33.126  1.00  0.00     0.049 A 
ATOM     54  C   UNL A   1      43.966  26.956  28.353  1.00  0.00     0.074 A 
ATOM     55  C   UNL A   1      44.182  31.461  32.907  1.00  0.00     0.029 A 
ATOM     56  N   UNL A   1      44.435  29.434  32.060  1.00  0.00    -0.354 N 
ATOM     57  N   UNL A   1      44.671  28.032  28.147  1.00  0.00    -0.248 NA
ATOM     58  C   UNL A   1      44.207  26.282  29.622  1.00  0.00     0.031 C 
ATOM     59  C   UNL A   1      44.724  31.549  31.586  1.00  0.00     0.029 A 
ATOM     60  C   UNL A   1      44.849  30.265  31.061  1.00  0.00     0.049 A 
ATOM     61  H   UNL A   1      44.494  28.452  32.020  1.00  0.00     0.167 HD
ATOM     62  C   UNL A   1      45.055  28.423  29.413  1.00  0.00     0.074 A 
ATOM     63  C   UNL A   1      44.924  27.226  30.237  1.00  0.00     0.031 C 
ATOM     64  C   UNL A   1      45.095  29.748  29.735  1.00  0.00     0.037 A 
BRANCH  51  65
ATOM     65  C   UNL A   1      43.500  28.115  34.663  1.00  0.00     0.064 A 
ATOM     66  C   UNL A   1      43.336  26.847  34.066  1.00  0.00     0.173 A 
ATOM     67  C   UNL A   1      43.789  28.095  36.045  1.00  0.00     0.173 A 
ATOM     68  F   UNL A   1      43.019  26.741  32.766  1.00  0.00    -0.203 F 
ATOM     69  C   UNL A   1      43.389  25.663  34.811  1.00  0.00     0.198 A 
ATOM     70  C   UNL A   1      43.889  26.910  36.775  1.00  0.00     0.198 A 
ATOM     71  F   UNL A   1      43.863  29.209  36.781  1.00  0.00    -0.203 F 
ATOM     72  F   UNL A   1      43.098  24.493  34.225  1.00  0.00    -0.200 F 
ATOM     73  C   UNL A   1      43.661  25.697  36.165  1.00  0.00     0.200 A 
ATOM     74  F   UNL A   1      44.118  26.970  38.095  1.00  0.00    -0.200 F 
ATOM     75  F   UNL A   1      43.651  24.573  36.893  1.00  0.00    -0.200 F 
ENDBRANCH  51  65
BRANCH  52  76
ATOM     76  C   UNL A   1      42.715  25.367  26.750  1.00  0.00     0.064 A 
ATOM     77  C   UNL A   1      43.560  25.188  25.637  1.00  0.00     0.173 A 
ATOM     78  C   UNL A   1      42.075  24.213  27.235  1.00  0.00     0.173 A 
ATOM     79  F   UNL A   1      44.237  26.227  25.126  1.00  0.00    -0.203 F 
ATOM     80  C   UNL A   1      43.791  23.925  25.082  1.00  0.00     0.198 A 
ATOM     81  C   UNL A   1      42.304  22.953  26.677  1.00  0.00     0.198 A 
ATOM     82  F   UNL A   1      41.296  24.269  28.325  1.00  0.00    -0.203 F 
ATOM     83  F   UNL A   1      44.666  23.786  24.075  1.00  0.00    -0.200 F 
ATOM     84  C   UNL A   1      43.177  22.805  25.614  1.00  0.00     0.200 A 
ATOM     85  F   UNL A   1      41.732  21.871  27.225  1.00  0.00    -0.200 F 
ATOM     86  F   UNL A   1      43.459  21.585  25.136  1.00  0.00    -0.200 F 
ENDBRANCH  52  76
BRANCH  64  87
ATOM     87  C   UNL A   1      45.287  30.719  28.611  1.00  0.00     0.064 A 
ATOM     88  C   UNL A   1      44.262  31.230  27.798  1.00  0.00     0.173 A 
ATOM     89  C   UNL A   1      46.591  31.176  28.373  1.00  0.00     0.173 A 
ATOM     90  F   UNL A   1      42.978  30.911  28.016  1.00  0.00    -0.203 F 
ATOM     91  C   UNL A   1      44.546  32.110  26.754  1.00  0.00     0.198 A 
ATOM     92  C   UNL A   1      46.865  32.087  27.361  1.00  0.00     0.198 A 
ATOM     93  F   UNL A   1      47.604  30.751  29.146  1.00  0.00    -0.203 F 
ATOM     94  F   UNL A   1      43.559  32.555  25.963  1.00  0.00    -0.200 F 
ATOM     95  C   UNL A   1      45.846  32.539  26.539  1.00  0.00     0.200 A 
ATOM     96  F   UNL A   1      48.117  32.531  27.189  1.00  0.00    -0.200 F 
ATOM     97  F   UNL A   1      46.117  33.402  25.550  1.00  0.00    -0.200 F 
ENDBRANCH  64  87
ENDBRANCH  38  39
ENDBRANCH  30  33
ENDBRANCH  28  29
ENDBRANCH  27  28
ENDBRANCH  26  27
ENDBRANCH   1  26
TORSDOF 15
ENDMDL
