MODEL 1
REMARK VINA RESULT:     -11.4      0.000      0.000
REMARK SMILES CCNS(=O)(=O)c1ccc(CC(=O)NCCCCNC(=O)c2ccc(-c3c4nc(c(-c5c(F)c(F)c(F)c(F)c5F)c5ccc([nH]5)c(-c5c(F)c(F)c(F)c(F)c5F)c5nc(c(-c6c(F)c(F)c(F)c(F)c6F)c6ccc3[nH]6)C=C5)C=C4)cc2)cc1
REMARK SMILES IDX 15 1 14 2 12 3 13 4 11 6 10 7 7 8 8 9 86 10 9 11 85 12 4 13
REMARK SMILES IDX 5 14 6 15 3 16 2 18 1 19 16 20 17 21 18 22 19 23 20 24 21 26
REMARK SMILES IDX 22 27 23 28 84 29 24 30 83 31 25 32 26 33 27 34 77 35 28 36
REMARK SMILES IDX 82 37 76 38 78 39 29 40 81 41 75 42 74 43 30 45 62 46 42 47
REMARK SMILES IDX 61 48 43 49 46 50 60 51 79 52 44 53 45 54 59 56 80 57 47 58
REMARK SMILES IDX 31 59 32 60 40 61 33 62 34 63 38 64 41 65 35 66 36 67 39 68
REMARK SMILES IDX 37 69 63 70 64 71 72 72 65 73 66 74 70 75 73 76 67 77 68 78
REMARK SMILES IDX 71 79 69 80 48 81 49 82 57 83 50 84 51 85 55 86 58 87 52 88
REMARK SMILES IDX 53 89 56 90 54 91
REMARK H PARENT 14 5 3 17 19 25 78 44 46 55
REMARK Flexibility Score: inf
ROOT
ATOM      1  C   UNL A   1      32.164  26.186  26.493  1.00  0.00     0.116 C 
ENDROOT
BRANCH   1   2
ATOM      2  N   UNL A   1      33.199  26.024  25.491  1.00  0.00    -0.356 N 
ATOM      3  C   UNL A   1      33.089  25.534  24.220  1.00  0.00     0.224 C 
ATOM      4  O   UNL A   1      34.115  25.411  23.549  1.00  0.00    -0.275 OA
ATOM      5  H   UNL A   1      34.103  26.304  25.762  1.00  0.00     0.163 HD
BRANCH   3   6
ATOM      6  C   UNL A   1      31.721  25.189  23.651  1.00  0.00     0.135 C 
BRANCH   6   7
ATOM      7  C   UNL A   1      30.850  26.389  23.366  1.00  0.00    -0.039 A 
ATOM      8  C   UNL A   1      29.193  28.564  22.771  1.00  0.00     0.082 A 
ATOM      9  C   UNL A   1      30.490  28.521  22.254  1.00  0.00     0.022 A 
ATOM     10  C   UNL A   1      28.724  27.540  23.599  1.00  0.00     0.022 A 
ATOM     11  C   UNL A   1      31.320  27.443  22.566  1.00  0.00     0.005 A 
ATOM     12  C   UNL A   1      29.553  26.460  23.897  1.00  0.00     0.005 A 
BRANCH   8  13
ATOM     13  S   UNL A   1      28.095  29.912  22.433  1.00  0.00     0.240 S 
ATOM     14  O   UNL A   1      26.874  29.689  23.173  1.00  0.00    -0.207 OA
ATOM     15  O   UNL A   1      28.100  30.103  20.998  1.00  0.00    -0.207 OA
BRANCH  13  16
ATOM     16  N   UNL A   1      28.847  31.272  23.073  1.00  0.00    -0.211 NA
ATOM     17  H   UNL A   1      28.596  31.320  24.061  1.00  0.00     0.141 HD
BRANCH  16  18
ATOM     18  C   UNL A   1      28.538  32.578  22.484  1.00  0.00     0.095 C 
ATOM     19  C   UNL A   1      29.225  33.656  23.302  1.00  0.00     0.022 C 
ENDBRANCH  16  18
ENDBRANCH  13  16
ENDBRANCH   8  13
ENDBRANCH   6   7
ENDBRANCH   3   6
ENDBRANCH   1   2
BRANCH   1  20
ATOM     20  C   UNL A   1      32.141  27.603  27.070  1.00  0.00     0.023 C 
BRANCH  20  21
ATOM     21  C   UNL A   1      31.787  28.704  26.065  1.00  0.00     0.023 C 
BRANCH  21  22
ATOM     22  C   UNL A   1      32.900  29.705  25.773  1.00  0.00     0.116 C 
BRANCH  22  23
ATOM     23  N   UNL A   1      32.601  31.048  26.237  1.00  0.00    -0.352 N 
ATOM     24  C   UNL A   1      33.252  31.815  27.170  1.00  0.00     0.251 C 
ATOM     25  H   UNL A   1      31.814  31.471  25.821  1.00  0.00     0.163 HD
ATOM     26  O   UNL A   1      32.785  32.901  27.499  1.00  0.00    -0.269 OA
BRANCH  24  27
ATOM     27  C   UNL A   1      34.495  31.328  27.809  1.00  0.00     0.039 A 
ATOM     28  C   UNL A   1      35.569  32.216  27.929  1.00  0.00     0.014 A 
ATOM     29  C   UNL A   1      34.620  30.015  28.271  1.00  0.00     0.014 A 
ATOM     30  C   UNL A   1      36.746  31.804  28.558  1.00  0.00     0.010 A 
ATOM     31  C   UNL A   1      35.770  29.625  28.957  1.00  0.00     0.010 A 
ATOM     32  C   UNL A   1      36.845  30.514  29.102  1.00  0.00    -0.014 A 
BRANCH  32  33
ATOM     33  C   UNL A   1      38.071  30.091  29.826  1.00  0.00     0.031 A 
ATOM     34  C   UNL A   1      38.348  30.591  31.217  1.00  0.00     0.074 A 
ATOM     35  C   UNL A   1      38.955  29.281  29.213  1.00  0.00     0.049 A 
ATOM     36  N   UNL A   1      39.362  30.331  32.003  1.00  0.00    -0.248 NA
ATOM     37  C   UNL A   1      37.369  31.527  31.791  1.00  0.00     0.031 C 
ATOM     38  C   UNL A   1      38.829  28.776  27.844  1.00  0.00     0.029 A 
ATOM     39  N   UNL A   1      40.136  28.742  29.659  1.00  0.00    -0.354 N 
ATOM     40  C   UNL A   1      39.148  31.074  33.156  1.00  0.00     0.074 A 
ATOM     41  C   UNL A   1      37.937  31.837  32.947  1.00  0.00     0.031 C 
ATOM     42  C   UNL A   1      39.873  27.977  27.573  1.00  0.00     0.029 A 
ATOM     43  C   UNL A   1      40.754  27.934  28.737  1.00  0.00     0.049 A 
ATOM     44  H   UNL A   1      40.504  28.919  30.555  1.00  0.00     0.167 HD
ATOM     45  C   UNL A   1      39.880  31.096  34.295  1.00  0.00     0.037 A 
ATOM     46  C   UNL A   1      41.899  27.232  28.824  1.00  0.00     0.037 A 
ATOM     47  C   UNL A   1      41.072  30.318  34.510  1.00  0.00     0.049 A 
ATOM     48  C   UNL A   1      42.682  27.259  30.108  1.00  0.00     0.074 A 
ATOM     49  C   UNL A   1      41.854  30.229  35.650  1.00  0.00     0.029 A 
ATOM     50  N   UNL A   1      41.656  29.491  33.561  1.00  0.00    -0.354 N 
ATOM     51  N   UNL A   1      42.429  27.906  31.219  1.00  0.00    -0.248 NA
ATOM     52  C   UNL A   1      43.904  26.445  30.152  1.00  0.00     0.031 C 
ATOM     53  C   UNL A   1      42.932  29.379  35.378  1.00  0.00     0.029 A 
ATOM     54  C   UNL A   1      42.796  28.902  34.084  1.00  0.00     0.049 A 
ATOM     55  H   UNL A   1      41.312  29.345  32.651  1.00  0.00     0.167 HD
ATOM     56  C   UNL A   1      43.442  27.559  32.102  1.00  0.00     0.074 A 
ATOM     57  C   UNL A   1      44.303  26.627  31.403  1.00  0.00     0.031 C 
ATOM     58  C   UNL A   1      43.642  27.974  33.377  1.00  0.00     0.037 A 
BRANCH  45  59
ATOM     59  C   UNL A   1      39.405  31.989  35.405  1.00  0.00     0.064 A 
ATOM     60  C   UNL A   1      39.811  33.330  35.493  1.00  0.00     0.173 A 
ATOM     61  C   UNL A   1      38.506  31.512  36.370  1.00  0.00     0.173 A 
ATOM     62  F   UNL A   1      40.678  33.832  34.600  1.00  0.00    -0.203 F 
ATOM     63  C   UNL A   1      39.359  34.150  36.523  1.00  0.00     0.198 A 
ATOM     64  C   UNL A   1      38.033  32.343  37.383  1.00  0.00     0.198 A 
ATOM     65  F   UNL A   1      38.081  30.240  36.330  1.00  0.00    -0.203 F 
ATOM     66  F   UNL A   1      39.799  35.413  36.614  1.00  0.00    -0.200 F 
ATOM     67  C   UNL A   1      38.465  33.659  37.463  1.00  0.00     0.200 A 
ATOM     68  F   UNL A   1      37.160  31.870  38.283  1.00  0.00    -0.200 F 
ATOM     69  F   UNL A   1      38.025  34.451  38.450  1.00  0.00    -0.200 F 
ENDBRANCH  45  59
BRANCH  46  70
ATOM     70  C   UNL A   1      42.351  26.406  27.675  1.00  0.00     0.064 A 
ATOM     71  C   UNL A   1      41.846  25.113  27.478  1.00  0.00     0.173 A 
ATOM     72  C   UNL A   1      43.294  26.887  26.756  1.00  0.00     0.173 A 
ATOM     73  F   UNL A   1      40.957  24.603  28.341  1.00  0.00    -0.203 F 
ATOM     74  C   UNL A   1      42.284  24.324  26.416  1.00  0.00     0.198 A 
ATOM     75  C   UNL A   1      43.710  26.107  25.679  1.00  0.00     0.198 A 
ATOM     76  F   UNL A   1      43.802  28.120  26.898  1.00  0.00    -0.203 F 
ATOM     77  F   UNL A   1      41.819  23.075  26.277  1.00  0.00    -0.200 F 
ATOM     78  C   UNL A   1      43.212  24.824  25.514  1.00  0.00     0.200 A 
ATOM     79  F   UNL A   1      44.597  26.598  24.802  1.00  0.00    -0.200 F 
ATOM     80  F   UNL A   1      43.630  24.065  24.492  1.00  0.00    -0.200 F 
ENDBRANCH  46  70
BRANCH  58  81
ATOM     81  C   UNL A   1      44.820  27.398  34.106  1.00  0.00     0.064 A 
ATOM     82  C   UNL A   1      44.724  26.201  34.832  1.00  0.00     0.173 A 
ATOM     83  C   UNL A   1      46.066  28.042  34.063  1.00  0.00     0.173 A 
ATOM     84  F   UNL A   1      43.551  25.556  34.917  1.00  0.00    -0.203 F 
ATOM     85  C   UNL A   1      45.824  25.688  35.515  1.00  0.00     0.198 A 
ATOM     86  C   UNL A   1      47.171  27.510  34.722  1.00  0.00     0.198 A 
ATOM     87  F   UNL A   1      46.214  29.185  33.377  1.00  0.00    -0.203 F 
ATOM     88  F   UNL A   1      45.694  24.573  36.248  1.00  0.00    -0.200 F 
ATOM     89  C   UNL A   1      47.046  26.340  35.456  1.00  0.00     0.200 A 
ATOM     90  F   UNL A   1      48.354  28.134  34.654  1.00  0.00    -0.200 F 
ATOM     91  F   UNL A   1      48.103  25.844  36.113  1.00  0.00    -0.200 F 
ENDBRANCH  58  81
ENDBRANCH  32  33
ENDBRANCH  24  27
ENDBRANCH  22  23
ENDBRANCH  21  22
ENDBRANCH  20  21
ENDBRANCH   1  20
TORSDOF 15
ENDMDL
MODEL 2
REMARK VINA RESULT:     -11.1      2.340      3.938
REMARK SMILES CCNS(=O)(=O)c1ccc(CC(=O)NCCCCNC(=O)c2ccc(-c3c4nc(c(-c5c(F)c(F)c(F)c(F)c5F)c5ccc([nH]5)c(-c5c(F)c(F)c(F)c(F)c5F)c5nc(c(-c6c(F)c(F)c(F)c(F)c6F)c6ccc3[nH]6)C=C5)C=C4)cc2)cc1
REMARK SMILES IDX 15 1 14 2 12 3 13 4 11 6 10 7 7 8 8 9 86 10 9 11 85 12 4 13
REMARK SMILES IDX 5 14 6 15 3 16 2 18 1 19 16 20 17 21 18 22 19 23 20 24 21 26
REMARK SMILES IDX 22 27 23 28 84 29 24 30 83 31 25 32 26 33 27 34 77 35 28 36
REMARK SMILES IDX 82 37 76 38 78 39 29 40 81 41 75 42 74 43 30 45 62 46 42 47
REMARK SMILES IDX 61 48 43 49 46 50 60 51 79 52 44 53 45 54 59 56 80 57 47 58
REMARK SMILES IDX 31 59 32 60 40 61 33 62 34 63 38 64 41 65 35 66 36 67 39 68
REMARK SMILES IDX 37 69 63 70 64 71 72 72 65 73 66 74 70 75 73 76 67 77 68 78
REMARK SMILES IDX 71 79 69 80 48 81 49 82 57 83 50 84 51 85 55 86 58 87 52 88
REMARK SMILES IDX 53 89 56 90 54 91
REMARK H PARENT 14 5 3 17 19 25 78 44 46 55
REMARK Flexibility Score: inf
ROOT
ATOM      1  C   UNL A   1      31.691  29.940  25.331  1.00  0.00     0.116 C 
ENDROOT
BRANCH   1   2
ATOM      2  N   UNL A   1      32.939  29.718  24.627  1.00  0.00    -0.356 N 
ATOM      3  C   UNL A   1      33.243  28.747  23.714  1.00  0.00     0.224 C 
ATOM      4  O   UNL A   1      34.396  28.689  23.284  1.00  0.00    -0.275 OA
ATOM      5  H   UNL A   1      33.664  30.349  24.835  1.00  0.00     0.163 HD
BRANCH   3   6
ATOM      6  C   UNL A   1      32.163  27.795  23.222  1.00  0.00     0.135 C 
BRANCH   6   7
ATOM      7  C   UNL A   1      31.936  26.602  24.121  1.00  0.00    -0.039 A 
ATOM      8  C   UNL A   1      31.471  24.448  25.844  1.00  0.00     0.082 A 
ATOM      9  C   UNL A   1      32.706  25.098  25.868  1.00  0.00     0.022 A 
ATOM     10  C   UNL A   1      30.473  24.851  24.952  1.00  0.00     0.022 A 
ATOM     11  C   UNL A   1      32.941  26.162  24.996  1.00  0.00     0.005 A 
ATOM     12  C   UNL A   1      30.709  25.922  24.091  1.00  0.00     0.005 A 
BRANCH   8  13
ATOM     13  S   UNL A   1      31.112  23.078  26.909  1.00  0.00     0.240 S 
ATOM     14  O   UNL A   1      29.758  23.230  27.390  1.00  0.00    -0.207 OA
ATOM     15  O   UNL A   1      32.237  22.946  27.809  1.00  0.00    -0.207 OA
BRANCH  13  16
ATOM     16  N   UNL A   1      31.161  21.719  25.920  1.00  0.00    -0.211 NA
ATOM     17  H   UNL A   1      30.826  20.930  26.472  1.00  0.00     0.141 HD
BRANCH  16  18
ATOM     18  C   UNL A   1      32.450  21.328  25.343  1.00  0.00     0.095 C 
ATOM     19  C   UNL A   1      32.280  21.155  23.844  1.00  0.00     0.022 C 
ENDBRANCH  16  18
ENDBRANCH  13  16
ENDBRANCH   8  13
ENDBRANCH   6   7
ENDBRANCH   3   6
ENDBRANCH   1   2
BRANCH   1  20
ATOM     20  C   UNL A   1      31.916  30.525  26.726  1.00  0.00     0.023 C 
BRANCH  20  21
ATOM     21  C   UNL A   1      31.538  32.002  26.876  1.00  0.00     0.023 C 
BRANCH  21  22
ATOM     22  C   UNL A   1      32.704  32.984  26.825  1.00  0.00     0.116 C 
BRANCH  22  23
ATOM     23  N   UNL A   1      32.473  34.191  27.601  1.00  0.00    -0.352 N 
ATOM     24  C   UNL A   1      33.119  34.644  28.723  1.00  0.00     0.251 C 
ATOM     25  H   UNL A   1      31.746  34.768  27.273  1.00  0.00     0.163 HD
ATOM     26  O   UNL A   1      32.712  35.650  29.297  1.00  0.00    -0.269 OA
BRANCH  24  27
ATOM     27  C   UNL A   1      34.283  33.910  29.269  1.00  0.00     0.039 A 
ATOM     28  C   UNL A   1      35.564  34.368  28.946  1.00  0.00     0.014 A 
ATOM     29  C   UNL A   1      34.129  32.778  30.074  1.00  0.00     0.014 A 
ATOM     30  C   UNL A   1      36.686  33.723  29.470  1.00  0.00     0.010 A 
ATOM     31  C   UNL A   1      35.246  32.176  30.651  1.00  0.00     0.010 A 
ATOM     32  C   UNL A   1      36.535  32.640  30.350  1.00  0.00    -0.014 A 
BRANCH  32  33
ATOM     33  C   UNL A   1      37.724  31.990  30.960  1.00  0.00     0.031 A 
ATOM     34  C   UNL A   1      38.175  32.366  32.344  1.00  0.00     0.074 A 
ATOM     35  C   UNL A   1      38.419  31.082  30.248  1.00  0.00     0.049 A 
ATOM     36  N   UNL A   1      39.185  31.907  33.038  1.00  0.00    -0.248 NA
ATOM     37  C   UNL A   1      37.405  33.416  33.028  1.00  0.00     0.031 C 
ATOM     38  C   UNL A   1      38.117  30.675  28.875  1.00  0.00     0.029 A 
ATOM     39  N   UNL A   1      39.524  30.339  30.580  1.00  0.00    -0.354 N 
ATOM     40  C   UNL A   1      39.177  32.614  34.232  1.00  0.00     0.074 A 
ATOM     41  C   UNL A   1      38.095  33.571  34.148  1.00  0.00     0.031 C 
ATOM     42  C   UNL A   1      38.995  29.734  28.492  1.00  0.00     0.029 A 
ATOM     43  C   UNL A   1      39.936  29.491  29.582  1.00  0.00     0.049 A 
ATOM     44  H   UNL A   1      39.978  30.408  31.451  1.00  0.00     0.167 HD
ATOM     45  C   UNL A   1      39.981  32.461  35.312  1.00  0.00     0.037 A 
ATOM     46  C   UNL A   1      40.955  28.611  29.552  1.00  0.00     0.037 A 
ATOM     47  C   UNL A   1      41.042  31.492  35.403  1.00  0.00     0.049 A 
ATOM     48  C   UNL A   1      41.820  28.447  30.772  1.00  0.00     0.074 A 
ATOM     49  C   UNL A   1      41.876  31.221  36.475  1.00  0.00     0.029 A 
ATOM     50  N   UNL A   1      41.416  30.632  34.380  1.00  0.00    -0.354 N 
ATOM     51  N   UNL A   1      41.754  29.067  31.923  1.00  0.00    -0.248 NA
ATOM     52  C   UNL A   1      42.893  27.447  30.689  1.00  0.00     0.031 C 
ATOM     53  C   UNL A   1      42.779  30.225  36.087  1.00  0.00     0.029 A 
ATOM     54  C   UNL A   1      42.478  29.843  34.789  1.00  0.00     0.049 A 
ATOM     55  H   UNL A   1      40.989  30.591  33.494  1.00  0.00     0.167 HD
ATOM     56  C   UNL A   1      42.756  28.518  32.712  1.00  0.00     0.074 A 
ATOM     57  C   UNL A   1      43.403  27.498  31.912  1.00  0.00     0.031 C 
ATOM     58  C   UNL A   1      43.109  28.830  33.983  1.00  0.00     0.037 A 
BRANCH  45  59
ATOM     59  C   UNL A   1      39.737  33.360  36.489  1.00  0.00     0.064 A 
ATOM     60  C   UNL A   1      38.840  33.007  37.509  1.00  0.00     0.173 A 
ATOM     61  C   UNL A   1      40.433  34.572  36.619  1.00  0.00     0.173 A 
ATOM     62  F   UNL A   1      38.142  31.864  37.428  1.00  0.00    -0.203 F 
ATOM     63  C   UNL A   1      38.626  33.846  38.599  1.00  0.00     0.198 A 
ATOM     64  C   UNL A   1      40.238  35.395  37.725  1.00  0.00     0.198 A 
ATOM     65  F   UNL A   1      41.306  34.955  35.676  1.00  0.00    -0.203 F 
ATOM     66  F   UNL A   1      37.729  33.510  39.536  1.00  0.00    -0.200 F 
ATOM     67  C   UNL A   1      39.330  35.036  38.711  1.00  0.00     0.200 A 
ATOM     68  F   UNL A   1      40.928  36.539  37.837  1.00  0.00    -0.200 F 
ATOM     69  F   UNL A   1      39.129  35.840  39.763  1.00  0.00    -0.200 F 
ENDBRANCH  45  59
BRANCH  46  70
ATOM     70  C   UNL A   1      41.184  27.784  28.340  1.00  0.00     0.064 A 
ATOM     71  C   UNL A   1      40.537  26.551  28.178  1.00  0.00     0.173 A 
ATOM     72  C   UNL A   1      42.053  28.205  27.323  1.00  0.00     0.173 A 
ATOM     73  F   UNL A   1      39.712  26.099  29.133  1.00  0.00    -0.203 F 
ATOM     74  C   UNL A   1      40.767  25.760  27.056  1.00  0.00     0.198 A 
ATOM     75  C   UNL A   1      42.261  27.424  26.188  1.00  0.00     0.198 A 
ATOM     76  F   UNL A   1      42.692  29.379  27.428  1.00  0.00    -0.203 F 
ATOM     77  F   UNL A   1      40.169  24.565  26.948  1.00  0.00    -0.200 F 
ATOM     78  C   UNL A   1      41.625  26.199  26.058  1.00  0.00     0.200 A 
ATOM     79  F   UNL A   1      43.081  27.858  25.220  1.00  0.00    -0.200 F 
ATOM     80  F   UNL A   1      41.843  25.438  24.977  1.00  0.00    -0.200 F 
ENDBRANCH  46  70
BRANCH  58  81
ATOM     81  C   UNL A   1      44.226  28.036  34.595  1.00  0.00     0.064 A 
ATOM     82  C   UNL A   1      45.560  28.466  34.522  1.00  0.00     0.173 A 
ATOM     83  C   UNL A   1      43.957  26.841  35.279  1.00  0.00     0.173 A 
ATOM     84  F   UNL A   1      45.871  29.594  33.866  1.00  0.00    -0.203 F 
ATOM     85  C   UNL A   1      46.587  27.710  35.083  1.00  0.00     0.198 A 
ATOM     86  C   UNL A   1      44.982  26.104  35.864  1.00  0.00     0.198 A 
ATOM     87  F   UNL A   1      42.698  26.391  35.384  1.00  0.00    -0.203 F 
ATOM     88  F   UNL A   1      47.859  28.110  34.952  1.00  0.00    -0.200 F 
ATOM     89  C   UNL A   1      46.297  26.533  35.757  1.00  0.00     0.200 A 
ATOM     90  F   UNL A   1      44.699  24.974  36.526  1.00  0.00    -0.200 F 
ATOM     91  F   UNL A   1      47.286  25.808  36.296  1.00  0.00    -0.200 F 
ENDBRANCH  58  81
ENDBRANCH  32  33
ENDBRANCH  24  27
ENDBRANCH  22  23
ENDBRANCH  21  22
ENDBRANCH  20  21
ENDBRANCH   1  20
TORSDOF 15
ENDMDL
MODEL 3
REMARK VINA RESULT:     -11.1      5.779     11.121
REMARK SMILES CCNS(=O)(=O)c1ccc(CC(=O)NCCCCNC(=O)c2ccc(-c3c4nc(c(-c5c(F)c(F)c(F)c(F)c5F)c5ccc([nH]5)c(-c5c(F)c(F)c(F)c(F)c5F)c5nc(c(-c6c(F)c(F)c(F)c(F)c6F)c6ccc3[nH]6)C=C5)C=C4)cc2)cc1
REMARK SMILES IDX 15 1 14 2 12 3 13 4 11 6 10 7 7 8 8 9 86 10 9 11 85 12 4 13
REMARK SMILES IDX 5 14 6 15 3 16 2 18 1 19 16 20 17 21 18 22 19 23 20 24 21 26
REMARK SMILES IDX 22 27 23 28 84 29 24 30 83 31 25 32 26 33 27 34 77 35 28 36
REMARK SMILES IDX 82 37 76 38 78 39 29 40 81 41 75 42 74 43 30 45 62 46 42 47
REMARK SMILES IDX 61 48 43 49 46 50 60 51 79 52 44 53 45 54 59 56 80 57 47 58
REMARK SMILES IDX 31 59 32 60 40 61 33 62 34 63 38 64 41 65 35 66 36 67 39 68
REMARK SMILES IDX 37 69 63 70 64 71 72 72 65 73 66 74 70 75 73 76 67 77 68 78
REMARK SMILES IDX 71 79 69 80 48 81 49 82 57 83 50 84 51 85 55 86 58 87 52 88
REMARK SMILES IDX 53 89 56 90 54 91
REMARK H PARENT 14 5 3 17 19 25 78 44 46 55
REMARK Flexibility Score: inf
ROOT
ATOM      1  C   UNL A   1      42.745  18.883  25.983  1.00  0.00     0.116 C 
ENDROOT
BRANCH   1   2
ATOM      2  N   UNL A   1      44.166  18.631  26.123  1.00  0.00    -0.356 N 
ATOM      3  C   UNL A   1      45.183  18.988  25.282  1.00  0.00     0.224 C 
ATOM      4  O   UNL A   1      46.324  18.609  25.551  1.00  0.00    -0.275 OA
ATOM      5  H   UNL A   1      44.434  18.136  26.930  1.00  0.00     0.163 HD
BRANCH   3   6
ATOM      6  C   UNL A   1      44.902  19.863  24.071  1.00  0.00     0.135 C 
BRANCH   6   7
ATOM      7  C   UNL A   1      44.923  21.345  24.361  1.00  0.00    -0.039 A 
ATOM      8  C   UNL A   1      44.984  24.072  24.986  1.00  0.00     0.082 A 
ATOM      9  C   UNL A   1      43.761  23.400  24.942  1.00  0.00     0.022 A 
ATOM     10  C   UNL A   1      46.175  23.398  24.701  1.00  0.00     0.022 A 
ATOM     11  C   UNL A   1      43.732  22.043  24.614  1.00  0.00     0.005 A 
ATOM     12  C   UNL A   1      46.142  22.041  24.385  1.00  0.00     0.005 A 
BRANCH   8  13
ATOM     13  S   UNL A   1      45.092  25.796  25.376  1.00  0.00     0.240 S 
ATOM     14  O   UNL A   1      43.776  26.372  25.218  1.00  0.00    -0.207 OA
ATOM     15  O   UNL A   1      46.245  26.311  24.670  1.00  0.00    -0.207 OA
BRANCH  13  16
ATOM     16  N   UNL A   1      45.492  25.861  27.007  1.00  0.00    -0.211 NA
ATOM     17  H   UNL A   1      44.979  26.643  27.414  1.00  0.00     0.141 HD
BRANCH  16  18
ATOM     18  C   UNL A   1      46.902  26.033  27.368  1.00  0.00     0.095 C 
ATOM     19  C   UNL A   1      47.164  25.296  28.670  1.00  0.00     0.022 C 
ENDBRANCH  16  18
ENDBRANCH  13  16
ENDBRANCH   8  13
ENDBRANCH   6   7
ENDBRANCH   3   6
ENDBRANCH   1   2
BRANCH   1  20
ATOM     20  C   UNL A   1      42.214  19.799  27.088  1.00  0.00     0.023 C 
BRANCH  20  21
ATOM     21  C   UNL A   1      40.787  20.313  26.871  1.00  0.00     0.023 C 
BRANCH  21  22
ATOM     22  C   UNL A   1      40.659  21.818  26.659  1.00  0.00     0.116 C 
BRANCH  22  23
ATOM     23  N   UNL A   1      39.454  22.196  25.941  1.00  0.00    -0.352 N 
ATOM     24  C   UNL A   1      38.745  23.370  25.985  1.00  0.00     0.251 C 
ATOM     25  H   UNL A   1      39.093  21.509  25.335  1.00  0.00     0.163 HD
ATOM     26  O   UNL A   1      37.687  23.465  25.370  1.00  0.00    -0.269 OA
BRANCH  24  27
ATOM     27  C   UNL A   1      39.227  24.512  26.794  1.00  0.00     0.039 A 
ATOM     28  C   UNL A   1      40.042  25.464  26.175  1.00  0.00     0.014 A 
ATOM     29  C   UNL A   1      38.904  24.643  28.148  1.00  0.00     0.014 A 
ATOM     30  C   UNL A   1      40.488  26.573  26.897  1.00  0.00     0.010 A 
ATOM     31  C   UNL A   1      39.294  25.784  28.849  1.00  0.00     0.010 A 
ATOM     32  C   UNL A   1      40.093  26.756  28.231  1.00  0.00    -0.014 A 
BRANCH  32  33
ATOM     33  C   UNL A   1      40.514  27.966  28.985  1.00  0.00     0.031 A 
ATOM     34  C   UNL A   1      41.921  28.096  29.498  1.00  0.00     0.074 A 
ATOM     35  C   UNL A   1      39.612  28.934  29.238  1.00  0.00     0.049 A 
ATOM     36  N   UNL A   1      42.468  29.075  30.173  1.00  0.00    -0.248 NA
ATOM     37  C   UNL A   1      42.826  26.965  29.242  1.00  0.00     0.031 C 
ATOM     38  C   UNL A   1      38.202  28.898  28.845  1.00  0.00     0.029 A 
ATOM     39  N   UNL A   1      39.746  30.135  29.887  1.00  0.00    -0.354 N 
ATOM     40  C   UNL A   1      43.773  28.677  30.427  1.00  0.00     0.074 A 
ATOM     41  C   UNL A   1      43.922  27.345  29.883  1.00  0.00     0.031 C 
ATOM     42  C   UNL A   1      37.609  30.038  29.234  1.00  0.00     0.029 A 
ATOM     43  C   UNL A   1      38.588  30.872  29.925  1.00  0.00     0.049 A 
ATOM     44  H   UNL A   1      40.592  30.440  30.289  1.00  0.00     0.167 HD
ATOM     45  C   UNL A   1      44.766  29.370  31.035  1.00  0.00     0.037 A 
ATOM     46  C   UNL A   1      38.345  32.087  30.452  1.00  0.00     0.037 A 
ATOM     47  C   UNL A   1      44.623  30.705  31.556  1.00  0.00     0.049 A 
ATOM     48  C   UNL A   1      39.471  32.843  31.104  1.00  0.00     0.074 A 
ATOM     49  C   UNL A   1      45.584  31.513  32.140  1.00  0.00     0.029 A 
ATOM     50  N   UNL A   1      43.440  31.430  31.555  1.00  0.00    -0.354 N 
ATOM     51  N   UNL A   1      40.720  32.487  31.271  1.00  0.00    -0.248 NA
ATOM     52  C   UNL A   1      39.151  34.177  31.629  1.00  0.00     0.031 C 
ATOM     53  C   UNL A   1      44.974  32.711  32.527  1.00  0.00     0.029 A 
ATOM     54  C   UNL A   1      43.643  32.668  32.142  1.00  0.00     0.049 A 
ATOM     55  H   UNL A   1      42.583  31.111  31.191  1.00  0.00     0.167 HD
ATOM     56  C   UNL A   1      41.343  33.560  31.894  1.00  0.00     0.074 A 
ATOM     57  C   UNL A   1      40.336  34.588  32.058  1.00  0.00     0.031 C 
ATOM     58  C   UNL A   1      42.632  33.683  32.295  1.00  0.00     0.037 A 
BRANCH  45  59
ATOM     59  C   UNL A   1      46.102  28.696  31.164  1.00  0.00     0.064 A 
ATOM     60  C   UNL A   1      47.085  28.822  30.171  1.00  0.00     0.173 A 
ATOM     61  C   UNL A   1      46.416  27.947  32.308  1.00  0.00     0.173 A 
ATOM     62  F   UNL A   1      46.830  29.518  29.053  1.00  0.00    -0.203 F 
ATOM     63  C   UNL A   1      48.322  28.196  30.304  1.00  0.00     0.198 A 
ATOM     64  C   UNL A   1      47.665  27.348  32.450  1.00  0.00     0.198 A 
ATOM     65  F   UNL A   1      45.515  27.800  33.290  1.00  0.00    -0.203 F 
ATOM     66  F   UNL A   1      49.228  28.290  29.320  1.00  0.00    -0.200 F 
ATOM     67  C   UNL A   1      48.615  27.467  31.446  1.00  0.00     0.200 A 
ATOM     68  F   UNL A   1      47.950  26.652  33.560  1.00  0.00    -0.200 F 
ATOM     69  F   UNL A   1      49.808  26.871  31.576  1.00  0.00    -0.200 F 
ENDBRANCH  45  59
BRANCH  46  70
ATOM     70  C   UNL A   1      36.990  32.684  30.343  1.00  0.00     0.064 A 
ATOM     71  C   UNL A   1      36.612  33.407  29.203  1.00  0.00     0.173 A 
ATOM     72  C   UNL A   1      36.048  32.548  31.373  1.00  0.00     0.173 A 
ATOM     73  F   UNL A   1      37.486  33.579  28.201  1.00  0.00    -0.203 F 
ATOM     74  C   UNL A   1      35.351  33.990  29.106  1.00  0.00     0.198 A 
ATOM     75  C   UNL A   1      34.777  33.110  31.263  1.00  0.00     0.198 A 
ATOM     76  F   UNL A   1      36.359  31.862  32.482  1.00  0.00    -0.203 F 
ATOM     77  F   UNL A   1      35.033  34.714  28.024  1.00  0.00    -0.200 F 
ATOM     78  C   UNL A   1      34.432  33.837  30.133  1.00  0.00     0.200 A 
ATOM     79  F   UNL A   1      33.888  32.948  32.252  1.00  0.00    -0.200 F 
ATOM     80  F   UNL A   1      33.219  34.396  30.038  1.00  0.00    -0.200 F 
ENDBRANCH  46  70
BRANCH  58  81
ATOM     81  C   UNL A   1      43.031  34.987  32.921  1.00  0.00     0.064 A 
ATOM     82  C   UNL A   1      43.009  35.173  34.312  1.00  0.00     0.173 A 
ATOM     83  C   UNL A   1      43.458  36.057  32.122  1.00  0.00     0.173 A 
ATOM     84  F   UNL A   1      42.593  34.184  35.119  1.00  0.00    -0.203 F 
ATOM     85  C   UNL A   1      43.368  36.394  34.876  1.00  0.00     0.198 A 
ATOM     86  C   UNL A   1      43.845  37.267  32.691  1.00  0.00     0.198 A 
ATOM     87  F   UNL A   1      43.505  35.929  30.787  1.00  0.00    -0.203 F 
ATOM     88  F   UNL A   1      43.286  36.567  36.203  1.00  0.00    -0.200 F 
ATOM     89  C   UNL A   1      43.790  37.438  34.066  1.00  0.00     0.200 A 
ATOM     90  F   UNL A   1      44.265  38.270  31.909  1.00  0.00    -0.200 F 
ATOM     91  F   UNL A   1      44.135  38.612  34.611  1.00  0.00    -0.200 F 
ENDBRANCH  58  81
ENDBRANCH  32  33
ENDBRANCH  24  27
ENDBRANCH  22  23
ENDBRANCH  21  22
ENDBRANCH  20  21
ENDBRANCH   1  20
TORSDOF 15
ENDMDL
