MODEL 1
REMARK VINA RESULT:     -13.5      0.000      0.000
REMARK SMILES Cc1ccnc(C(=O)c2[nH]c3ccc(C(C)(C)C)cc3c2CC(=O)NCCCCNC(=O)c2ccc(-c3c4nc(c(-c5c(F)c(F)c(F)c(F)c5F)c5ccc([nH]5)c(-c5c(F)c(F)c(F)c(F)c5F)c5nc(c(-c6c(F)c(F)c(F)c(F)c6F)c6ccc3[nH]6)C=C5)C=C4)cc2)c1
REMARK SMILES IDX 27 1 26 2 25 3 23 4 24 5 22 7 21 8 9 9 10 10 11 11 20 13
REMARK SMILES IDX 12 14 19 15 13 16 14 17 7 18 8 19 6 20 1 21 2 22 3 23 96 24
REMARK SMILES IDX 4 25 5 26 15 27 16 28 17 29 18 30 28 31 29 32 30 33 31 34
REMARK SMILES IDX 32 36 33 37 34 38 95 39 35 40 94 41 36 42 37 43 38 44 88 45
REMARK SMILES IDX 39 46 93 47 87 48 89 49 40 50 92 51 86 52 85 53 41 55 73 56
REMARK SMILES IDX 53 57 72 58 54 59 57 60 71 61 90 62 55 63 56 64 70 66 91 67
REMARK SMILES IDX 58 68 42 69 43 70 51 71 44 72 45 73 49 74 52 75 46 76 47 77
REMARK SMILES IDX 50 78 48 79 74 80 75 81 83 82 76 83 77 84 81 85 84 86 78 87
REMARK SMILES IDX 79 88 82 89 80 90 59 91 60 92 68 93 61 94 62 95 66 96 69 97
REMARK SMILES IDX 63 98 64 99 67 100 65 101
REMARK H PARENT 25 6 10 12 30 35 89 54 57 65
REMARK Flexibility Score: inf
ROOT
ATOM      1  C   UNL A   1      37.424  21.196  24.719  1.00  0.00     0.023 C 
ENDROOT
BRANCH   1   2
ATOM      2  C   UNL A   1      37.583  22.278  25.786  1.00  0.00     0.116 C 
BRANCH   2   3
ATOM      3  N   UNL A   1      36.352  22.572  26.486  1.00  0.00    -0.356 N 
ATOM      4  C   UNL A   1      35.251  23.250  26.048  1.00  0.00     0.224 C 
ATOM      5  O   UNL A   1      34.241  23.234  26.756  1.00  0.00    -0.275 OA
ATOM      6  H   UNL A   1      36.301  22.236  27.411  1.00  0.00     0.163 HD
BRANCH   4   7
ATOM      7  C   UNL A   1      35.227  23.899  24.673  1.00  0.00     0.138 C 
BRANCH   7   8
ATOM      8  C   UNL A   1      34.064  23.514  23.802  1.00  0.00    -0.002 A 
ATOM      9  C   UNL A   1      33.284  24.351  23.009  1.00  0.00     0.093 A 
ATOM     10  N   UNL A   1      32.362  23.565  22.359  1.00  0.00    -0.352 N 
ATOM     11  C   UNL A   1      32.487  22.252  22.737  1.00  0.00     0.046 A 
ATOM     12  H   UNL A   1      31.699  23.899  21.711  1.00  0.00     0.167 HD
ATOM     13  C   UNL A   1      33.528  22.188  23.655  1.00  0.00     0.004 A 
ATOM     14  C   UNL A   1      31.777  21.125  22.322  1.00  0.00     0.027 A 
ATOM     15  C   UNL A   1      33.863  20.924  24.192  1.00  0.00     0.015 A 
ATOM     16  C   UNL A   1      32.151  19.884  22.855  1.00  0.00     0.006 A 
ATOM     17  C   UNL A   1      33.191  19.749  23.786  1.00  0.00    -0.042 A 
BRANCH   9  18
ATOM     18  C   UNL A   1      33.407  25.780  22.767  1.00  0.00     0.227 C 
ATOM     19  O   UNL A   1      33.903  26.204  21.728  1.00  0.00    -0.285 OA
BRANCH  18  20
ATOM     20  C   UNL A   1      32.850  26.730  23.797  1.00  0.00     0.113 A 
ATOM     21  C   UNL A   1      33.824  28.583  26.960  1.00  0.00     0.044 C 
ATOM     22  C   UNL A   1      33.034  28.050  25.803  1.00  0.00    -0.047 A 
ATOM     23  C   UNL A   1      31.703  28.429  25.622  1.00  0.00     0.023 A 
ATOM     24  C   UNL A   1      33.623  27.204  24.858  1.00  0.00     0.036 A 
ATOM     25  C   UNL A   1      31.011  27.925  24.534  1.00  0.00     0.112 A 
ATOM     26  N   UNL A   1      31.547  27.077  23.633  1.00  0.00    -0.253 NA
ENDBRANCH  18  20
ENDBRANCH   9  18
BRANCH  17  27
ATOM     27  C   UNL A   1      33.631  18.386  24.351  1.00  0.00    -0.013 C 
ATOM     28  C   UNL A   1      32.909  18.128  25.692  1.00  0.00     0.016 C 
ATOM     29  C   UNL A   1      33.267  17.267  23.353  1.00  0.00     0.016 C 
ATOM     30  C   UNL A   1      35.148  18.282  24.626  1.00  0.00     0.016 C 
ENDBRANCH  17  27
ENDBRANCH   7   8
ENDBRANCH   4   7
ENDBRANCH   2   3
ENDBRANCH   1   2
BRANCH   1  31
ATOM     31  C   UNL A   1      38.251  19.925  24.936  1.00  0.00     0.023 C 
BRANCH  31  32
ATOM     32  C   UNL A   1      39.235  19.959  26.102  1.00  0.00     0.116 C 
BRANCH  32  33
ATOM     33  N   UNL A   1      40.347  19.037  25.941  1.00  0.00    -0.352 N 
ATOM     34  C   UNL A   1      41.695  19.278  26.011  1.00  0.00     0.251 C 
ATOM     35  H   UNL A   1      40.096  18.104  25.755  1.00  0.00     0.163 HD
ATOM     36  O   UNL A   1      42.489  18.375  25.760  1.00  0.00    -0.269 OA
BRANCH  34  37
ATOM     37  C   UNL A   1      42.208  20.624  26.348  1.00  0.00     0.039 A 
ATOM     38  C   UNL A   1      42.468  21.512  25.297  1.00  0.00     0.014 A 
ATOM     39  C   UNL A   1      42.476  21.004  27.666  1.00  0.00     0.014 A 
ATOM     40  C   UNL A   1      42.941  22.797  25.569  1.00  0.00     0.010 A 
ATOM     41  C   UNL A   1      42.926  22.296  27.940  1.00  0.00     0.010 A 
ATOM     42  C   UNL A   1      43.155  23.202  26.893  1.00  0.00    -0.014 A 
BRANCH  42  43
ATOM     43  C   UNL A   1      43.606  24.578  27.201  1.00  0.00     0.031 A 
ATOM     44  C   UNL A   1      42.641  25.588  27.742  1.00  0.00     0.074 A 
ATOM     45  C   UNL A   1      44.880  24.929  26.948  1.00  0.00     0.049 A 
ATOM     46  N   UNL A   1      42.822  26.866  27.964  1.00  0.00    -0.248 NA
ATOM     47  C   UNL A   1      41.292  25.102  28.069  1.00  0.00     0.031 C 
ATOM     48  C   UNL A   1      45.912  24.042  26.412  1.00  0.00     0.029 A 
ATOM     49  N   UNL A   1      45.516  26.134  27.099  1.00  0.00    -0.354 N 
ATOM     50  C   UNL A   1      41.603  27.344  28.418  1.00  0.00     0.074 A 
ATOM     51  C   UNL A   1      40.694  26.218  28.462  1.00  0.00     0.031 C 
ATOM     52  C   UNL A   1      47.057  24.731  26.285  1.00  0.00     0.029 A 
ATOM     53  C   UNL A   1      46.831  26.110  26.710  1.00  0.00     0.049 A 
ATOM     54  H   UNL A   1      45.073  26.938  27.453  1.00  0.00     0.167 HD
ATOM     55  C   UNL A   1      41.272  28.612  28.760  1.00  0.00     0.037 A 
ATOM     56  C   UNL A   1      47.747  27.094  26.687  1.00  0.00     0.037 A 
ATOM     57  C   UNL A   1      42.178  29.728  28.761  1.00  0.00     0.049 A 
ATOM     58  C   UNL A   1      47.367  28.479  27.116  1.00  0.00     0.074 A 
ATOM     59  C   UNL A   1      41.933  31.041  29.121  1.00  0.00     0.029 A 
ATOM     60  N   UNL A   1      43.511  29.655  28.390  1.00  0.00    -0.354 N 
ATOM     61  N   UNL A   1      46.207  28.924  27.528  1.00  0.00    -0.248 NA
ATOM     62  C   UNL A   1      48.422  29.501  27.064  1.00  0.00     0.031 C 
ATOM     63  C   UNL A   1      43.122  31.766  28.970  1.00  0.00     0.029 A 
ATOM     64  C   UNL A   1      44.103  30.901  28.515  1.00  0.00     0.049 A 
ATOM     65  H   UNL A   1      43.969  28.839  28.084  1.00  0.00     0.167 HD
ATOM     66  C   UNL A   1      46.387  30.276  27.780  1.00  0.00     0.074 A 
ATOM     67  C   UNL A   1      47.771  30.579  27.482  1.00  0.00     0.031 C 
ATOM     68  C   UNL A   1      45.481  31.182  28.216  1.00  0.00     0.037 A 
BRANCH  55  69
ATOM     69  C   UNL A   1      39.852  28.856  29.152  1.00  0.00     0.064 A 
ATOM     70  C   UNL A   1      39.425  28.684  30.474  1.00  0.00     0.173 A 
ATOM     71  C   UNL A   1      38.918  29.288  28.200  1.00  0.00     0.173 A 
ATOM     72  F   UNL A   1      40.284  28.261  31.412  1.00  0.00    -0.203 F 
ATOM     73  C   UNL A   1      38.102  28.933  30.831  1.00  0.00     0.198 A 
ATOM     74  C   UNL A   1      37.598  29.539  28.560  1.00  0.00     0.198 A 
ATOM     75  F   UNL A   1      39.287  29.456  26.921  1.00  0.00    -0.203 F 
ATOM     76  F   UNL A   1      37.706  28.752  32.098  1.00  0.00    -0.200 F 
ATOM     77  C   UNL A   1      37.191  29.361  29.875  1.00  0.00     0.200 A 
ATOM     78  F   UNL A   1      36.717  29.945  27.636  1.00  0.00    -0.200 F 
ATOM     79  F   UNL A   1      35.917  29.596  30.220  1.00  0.00    -0.200 F 
ENDBRANCH  55  69
BRANCH  56  80
ATOM     80  C   UNL A   1      49.121  26.796  26.228  1.00  0.00     0.064 A 
ATOM     81  C   UNL A   1      50.096  26.357  27.131  1.00  0.00     0.173 A 
ATOM     82  C   UNL A   1      49.473  26.923  24.879  1.00  0.00     0.173 A 
ATOM     83  F   UNL A   1      49.797  26.236  28.433  1.00  0.00    -0.203 F 
ATOM     84  C   UNL A   1      51.383  26.052  26.698  1.00  0.00     0.198 A 
ATOM     85  C   UNL A   1      50.760  26.615  24.447  1.00  0.00     0.198 A 
ATOM     86  F   UNL A   1      48.567  27.348  23.987  1.00  0.00    -0.203 F 
ATOM     87  F   UNL A   1      52.305  25.641  27.579  1.00  0.00    -0.200 F 
ATOM     88  C   UNL A   1      51.714  26.179  25.357  1.00  0.00     0.200 A 
ATOM     89  F   UNL A   1      51.079  26.742  23.152  1.00  0.00    -0.200 F 
ATOM     90  F   UNL A   1      52.954  25.886  24.941  1.00  0.00    -0.200 F 
ENDBRANCH  56  80
BRANCH  68  91
ATOM     91  C   UNL A   1      45.962  32.586  28.393  1.00  0.00     0.064 A 
ATOM     92  C   UNL A   1      45.895  33.504  27.338  1.00  0.00     0.173 A 
ATOM     93  C   UNL A   1      46.465  33.021  29.626  1.00  0.00     0.173 A 
ATOM     94  F   UNL A   1      45.431  33.124  26.139  1.00  0.00    -0.203 F 
ATOM     95  C   UNL A   1      46.319  34.819  27.512  1.00  0.00     0.198 A 
ATOM     96  C   UNL A   1      46.888  34.336  29.797  1.00  0.00     0.198 A 
ATOM     97  F   UNL A   1      46.555  32.168  30.657  1.00  0.00    -0.203 F 
ATOM     98  F   UNL A   1      46.257  35.683  26.489  1.00  0.00    -0.200 F 
ATOM     99  C   UNL A   1      46.813  35.233  28.740  1.00  0.00     0.200 A 
ATOM    100  F   UNL A   1      47.374  34.734  30.981  1.00  0.00    -0.200 F 
ATOM    101  F   UNL A   1      47.227  36.497  28.905  1.00  0.00    -0.200 F 
ENDBRANCH  68  91
ENDBRANCH  42  43
ENDBRANCH  34  37
ENDBRANCH  32  33
ENDBRANCH  31  32
ENDBRANCH   1  31
TORSDOF 15
ENDMDL
MODEL 2
REMARK VINA RESULT:     -13.5      5.473     11.227
REMARK SMILES Cc1ccnc(C(=O)c2[nH]c3ccc(C(C)(C)C)cc3c2CC(=O)NCCCCNC(=O)c2ccc(-c3c4nc(c(-c5c(F)c(F)c(F)c(F)c5F)c5ccc([nH]5)c(-c5c(F)c(F)c(F)c(F)c5F)c5nc(c(-c6c(F)c(F)c(F)c(F)c6F)c6ccc3[nH]6)C=C5)C=C4)cc2)c1
REMARK SMILES IDX 27 1 26 2 25 3 23 4 24 5 22 7 21 8 9 9 10 10 11 11 20 13
REMARK SMILES IDX 12 14 19 15 13 16 14 17 7 18 8 19 6 20 1 21 2 22 3 23 96 24
REMARK SMILES IDX 4 25 5 26 15 27 16 28 17 29 18 30 28 31 29 32 30 33 31 34
REMARK SMILES IDX 32 36 33 37 34 38 95 39 35 40 94 41 36 42 37 43 38 44 88 45
REMARK SMILES IDX 39 46 93 47 87 48 89 49 40 50 92 51 86 52 85 53 41 55 73 56
REMARK SMILES IDX 53 57 72 58 54 59 57 60 71 61 90 62 55 63 56 64 70 66 91 67
REMARK SMILES IDX 58 68 42 69 43 70 51 71 44 72 45 73 49 74 52 75 46 76 47 77
REMARK SMILES IDX 50 78 48 79 74 80 75 81 83 82 76 83 77 84 81 85 84 86 78 87
REMARK SMILES IDX 79 88 82 89 80 90 59 91 60 92 68 93 61 94 62 95 66 96 69 97
REMARK SMILES IDX 63 98 64 99 67 100 65 101
REMARK H PARENT 25 6 10 12 30 35 89 54 57 65
REMARK Flexibility Score: inf
ROOT
ATOM      1  C   UNL A   1      31.813  30.521  26.787  1.00  0.00     0.023 C 
ENDROOT
BRANCH   1   2
ATOM      2  C   UNL A   1      33.289  30.128  26.781  1.00  0.00     0.116 C 
BRANCH   2   3
ATOM      3  N   UNL A   1      33.708  29.507  25.543  1.00  0.00    -0.356 N 
ATOM      4  C   UNL A   1      33.592  28.205  25.148  1.00  0.00     0.224 C 
ATOM      5  O   UNL A   1      33.862  27.929  23.976  1.00  0.00    -0.275 OA
ATOM      6  H   UNL A   1      34.138  30.109  24.893  1.00  0.00     0.163 HD
BRANCH   4   7
ATOM      7  C   UNL A   1      33.026  27.150  26.085  1.00  0.00     0.138 C 
BRANCH   7   8
ATOM      8  C   UNL A   1      31.805  26.432  25.582  1.00  0.00    -0.002 A 
ATOM      9  C   UNL A   1      31.474  25.092  25.763  1.00  0.00     0.093 A 
ATOM     10  N   UNL A   1      30.253  24.883  25.165  1.00  0.00    -0.352 N 
ATOM     11  C   UNL A   1      29.802  26.031  24.563  1.00  0.00     0.046 A 
ATOM     12  H   UNL A   1      29.768  24.026  25.167  1.00  0.00     0.167 HD
ATOM     13  C   UNL A   1      30.759  27.014  24.785  1.00  0.00     0.004 A 
ATOM     14  C   UNL A   1      28.620  26.274  23.863  1.00  0.00     0.027 A 
ATOM     15  C   UNL A   1      30.518  28.305  24.266  1.00  0.00     0.015 A 
ATOM     16  C   UNL A   1      28.399  27.572  23.383  1.00  0.00     0.006 A 
ATOM     17  C   UNL A   1      29.325  28.610  23.572  1.00  0.00    -0.042 A 
BRANCH   9  18
ATOM     18  C   UNL A   1      32.167  24.057  26.513  1.00  0.00     0.227 C 
ATOM     19  O   UNL A   1      31.780  23.717  27.626  1.00  0.00    -0.285 OA
BRANCH  18  20
ATOM     20  C   UNL A   1      33.339  23.366  25.861  1.00  0.00     0.113 A 
ATOM     21  C   UNL A   1      37.088  23.692  25.387  1.00  0.00     0.044 C 
ATOM     22  C   UNL A   1      35.676  23.197  25.304  1.00  0.00    -0.047 A 
ATOM     23  C   UNL A   1      35.376  22.030  24.599  1.00  0.00     0.023 A 
ATOM     24  C   UNL A   1      34.640  23.862  25.967  1.00  0.00     0.036 A 
ATOM     25  C   UNL A   1      34.062  21.598  24.557  1.00  0.00     0.112 A 
ATOM     26  N   UNL A   1      33.041  22.245  25.155  1.00  0.00    -0.253 NA
ENDBRANCH  18  20
ENDBRANCH   9  18
BRANCH  17  27
ATOM     27  C   UNL A   1      29.076  30.046  23.077  1.00  0.00    -0.013 C 
ATOM     28  C   UNL A   1      27.563  30.356  23.133  1.00  0.00     0.016 C 
ATOM     29  C   UNL A   1      29.833  31.046  23.976  1.00  0.00     0.016 C 
ATOM     30  C   UNL A   1      29.537  30.296  21.623  1.00  0.00     0.016 C 
ENDBRANCH  17  27
ENDBRANCH   7   8
ENDBRANCH   4   7
ENDBRANCH   2   3
ENDBRANCH   1   2
BRANCH   1  31
ATOM     31  C   UNL A   1      31.527  32.023  26.888  1.00  0.00     0.023 C 
BRANCH  31  32
ATOM     32  C   UNL A   1      32.746  32.923  27.069  1.00  0.00     0.116 C 
BRANCH  32  33
ATOM     33  N   UNL A   1      32.420  34.221  27.636  1.00  0.00    -0.352 N 
ATOM     34  C   UNL A   1      33.010  34.890  28.677  1.00  0.00     0.251 C 
ATOM     35  H   UNL A   1      31.666  34.689  27.209  1.00  0.00     0.163 HD
ATOM     36  O   UNL A   1      32.533  35.953  29.068  1.00  0.00    -0.269 OA
BRANCH  34  37
ATOM     37  C   UNL A   1      34.194  34.329  29.365  1.00  0.00     0.039 A 
ATOM     38  C   UNL A   1      33.985  33.566  30.520  1.00  0.00     0.014 A 
ATOM     39  C   UNL A   1      35.495  34.578  28.919  1.00  0.00     0.014 A 
ATOM     40  C   UNL A   1      35.071  33.006  31.195  1.00  0.00     0.010 A 
ATOM     41  C   UNL A   1      36.580  33.999  29.579  1.00  0.00     0.010 A 
ATOM     42  C   UNL A   1      36.373  33.204  30.717  1.00  0.00    -0.014 A 
BRANCH  42  43
ATOM     43  C   UNL A   1      37.532  32.575  31.390  1.00  0.00     0.031 A 
ATOM     44  C   UNL A   1      38.269  31.449  30.732  1.00  0.00     0.074 A 
ATOM     45  C   UNL A   1      37.889  32.990  32.618  1.00  0.00     0.049 A 
ATOM     46  N   UNL A   1      39.230  30.701  31.212  1.00  0.00    -0.248 NA
ATOM     47  C   UNL A   1      37.869  31.112  29.358  1.00  0.00     0.031 C 
ATOM     48  C   UNL A   1      37.245  34.068  33.368  1.00  0.00     0.029 A 
ATOM     49  N   UNL A   1      38.878  32.542  33.454  1.00  0.00    -0.354 N 
ATOM     50  C   UNL A   1      39.524  29.782  30.217  1.00  0.00     0.074 A 
ATOM     51  C   UNL A   1      38.655  30.076  29.096  1.00  0.00     0.031 C 
ATOM     52  C   UNL A   1      37.861  34.203  34.553  1.00  0.00     0.029 A 
ATOM     53  C   UNL A   1      38.926  33.209  34.652  1.00  0.00     0.049 A 
ATOM     54  H   UNL A   1      39.496  31.812  33.218  1.00  0.00     0.167 HD
ATOM     55  C   UNL A   1      40.431  28.778  30.240  1.00  0.00     0.037 A 
ATOM     56  C   UNL A   1      39.729  33.028  35.715  1.00  0.00     0.037 A 
ATOM     57  C   UNL A   1      41.327  28.503  31.330  1.00  0.00     0.049 A 
ATOM     58  C   UNL A   1      40.759  31.938  35.696  1.00  0.00     0.074 A 
ATOM     59  C   UNL A   1      42.300  27.522  31.426  1.00  0.00     0.029 A 
ATOM     60  N   UNL A   1      41.365  29.222  32.514  1.00  0.00    -0.354 N 
ATOM     61  N   UNL A   1      41.016  31.065  34.756  1.00  0.00    -0.248 NA
ATOM     62  C   UNL A   1      41.601  31.804  36.894  1.00  0.00     0.031 C 
ATOM     63  C   UNL A   1      42.929  27.650  32.671  1.00  0.00     0.029 A 
ATOM     64  C   UNL A   1      42.346  28.709  33.346  1.00  0.00     0.049 A 
ATOM     65  H   UNL A   1      40.782  29.985  32.730  1.00  0.00     0.167 HD
ATOM     66  C   UNL A   1      42.044  30.273  35.246  1.00  0.00     0.074 A 
ATOM     67  C   UNL A   1      42.369  30.773  36.566  1.00  0.00     0.031 C 
ATOM     68  C   UNL A   1      42.656  29.221  34.653  1.00  0.00     0.037 A 
BRANCH  55  69
ATOM     69  C   UNL A   1      40.486  27.889  29.042  1.00  0.00     0.064 A 
ATOM     70  C   UNL A   1      41.314  28.188  27.954  1.00  0.00     0.173 A 
ATOM     71  C   UNL A   1      39.720  26.715  28.994  1.00  0.00     0.173 A 
ATOM     72  F   UNL A   1      42.055  29.306  27.955  1.00  0.00    -0.203 F 
ATOM     73  C   UNL A   1      41.371  27.341  26.850  1.00  0.00     0.198 A 
ATOM     74  C   UNL A   1      39.780  25.871  27.891  1.00  0.00     0.198 A 
ATOM     75  F   UNL A   1      38.907  26.398  30.013  1.00  0.00    -0.203 F 
ATOM     76  F   UNL A   1      42.159  27.649  25.811  1.00  0.00    -0.200 F 
ATOM     77  C   UNL A   1      40.605  26.184  26.820  1.00  0.00     0.200 A 
ATOM     78  F   UNL A   1      39.035  24.757  27.859  1.00  0.00    -0.200 F 
ATOM     79  F   UNL A   1      40.657  25.373  25.754  1.00  0.00    -0.200 F 
ENDBRANCH  55  69
BRANCH  56  80
ATOM     80  C   UNL A   1      39.580  33.906  36.895  1.00  0.00     0.064 A 
ATOM     81  C   UNL A   1      40.219  35.150  36.945  1.00  0.00     0.173 A 
ATOM     82  C   UNL A   1      38.779  33.526  37.979  1.00  0.00     0.173 A 
ATOM     83  F   UNL A   1      41.004  35.541  35.931  1.00  0.00    -0.203 F 
ATOM     84  C   UNL A   1      40.060  35.990  38.044  1.00  0.00     0.198 A 
ATOM     85  C   UNL A   1      38.619  34.368  39.076  1.00  0.00     0.198 A 
ATOM     86  F   UNL A   1      38.157  32.338  37.968  1.00  0.00    -0.203 F 
ATOM     87  F   UNL A   1      40.687  37.173  38.078  1.00  0.00    -0.200 F 
ATOM     88  C   UNL A   1      39.259  35.599  39.108  1.00  0.00     0.200 A 
ATOM     89  F   UNL A   1      37.848  33.987  40.104  1.00  0.00    -0.200 F 
ATOM     90  F   UNL A   1      39.108  36.407  40.166  1.00  0.00    -0.200 F 
ENDBRANCH  56  80
BRANCH  68  91
ATOM     91  C   UNL A   1      43.739  28.545  35.430  1.00  0.00     0.064 A 
ATOM     92  C   UNL A   1      45.075  28.940  35.290  1.00  0.00     0.173 A 
ATOM     93  C   UNL A   1      43.438  27.517  36.334  1.00  0.00     0.173 A 
ATOM     94  F   UNL A   1      45.405  29.911  34.427  1.00  0.00    -0.203 F 
ATOM     95  C   UNL A   1      46.079  28.326  36.034  1.00  0.00     0.198 A 
ATOM     96  C   UNL A   1      44.444  26.906  37.075  1.00  0.00     0.198 A 
ATOM     97  F   UNL A   1      42.171  27.103  36.486  1.00  0.00    -0.203 F 
ATOM     98  F   UNL A   1      47.354  28.711  35.882  1.00  0.00    -0.200 F 
ATOM     99  C   UNL A   1      45.763  27.312  36.926  1.00  0.00     0.200 A 
ATOM    100  F   UNL A   1      44.140  25.919  37.930  1.00  0.00    -0.200 F 
ATOM    101  F   UNL A   1      46.731  26.718  37.636  1.00  0.00    -0.200 F 
ENDBRANCH  68  91
ENDBRANCH  42  43
ENDBRANCH  34  37
ENDBRANCH  32  33
ENDBRANCH  31  32
ENDBRANCH   1  31
TORSDOF 15
ENDMDL
MODEL 3
REMARK VINA RESULT:     -13.5      5.424     10.662
REMARK SMILES Cc1ccnc(C(=O)c2[nH]c3ccc(C(C)(C)C)cc3c2CC(=O)NCCCCNC(=O)c2ccc(-c3c4nc(c(-c5c(F)c(F)c(F)c(F)c5F)c5ccc([nH]5)c(-c5c(F)c(F)c(F)c(F)c5F)c5nc(c(-c6c(F)c(F)c(F)c(F)c6F)c6ccc3[nH]6)C=C5)C=C4)cc2)c1
REMARK SMILES IDX 27 1 26 2 25 3 23 4 24 5 22 7 21 8 9 9 10 10 11 11 20 13
REMARK SMILES IDX 12 14 19 15 13 16 14 17 7 18 8 19 6 20 1 21 2 22 3 23 96 24
REMARK SMILES IDX 4 25 5 26 15 27 16 28 17 29 18 30 28 31 29 32 30 33 31 34
REMARK SMILES IDX 32 36 33 37 34 38 95 39 35 40 94 41 36 42 37 43 38 44 88 45
REMARK SMILES IDX 39 46 93 47 87 48 89 49 40 50 92 51 86 52 85 53 41 55 73 56
REMARK SMILES IDX 53 57 72 58 54 59 57 60 71 61 90 62 55 63 56 64 70 66 91 67
REMARK SMILES IDX 58 68 42 69 43 70 51 71 44 72 45 73 49 74 52 75 46 76 47 77
REMARK SMILES IDX 50 78 48 79 74 80 75 81 83 82 76 83 77 84 81 85 84 86 78 87
REMARK SMILES IDX 79 88 82 89 80 90 59 91 60 92 68 93 61 94 62 95 66 96 69 97
REMARK SMILES IDX 63 98 64 99 67 100 65 101
REMARK H PARENT 25 6 10 12 30 35 89 54 57 65
REMARK Flexibility Score: inf
ROOT
ATOM      1  C   UNL A   1      31.591  30.659  26.111  1.00  0.00     0.023 C 
ENDROOT
BRANCH   1   2
ATOM      2  C   UNL A   1      32.191  29.733  27.168  1.00  0.00     0.116 C 
BRANCH   2   3
ATOM      3  N   UNL A   1      31.552  28.436  27.217  1.00  0.00    -0.356 N 
ATOM      4  C   UNL A   1      31.933  27.263  26.630  1.00  0.00     0.224 C 
ATOM      5  O   UNL A   1      31.331  26.234  26.948  1.00  0.00    -0.275 OA
ATOM      6  H   UNL A   1      30.724  28.393  27.749  1.00  0.00     0.163 HD
BRANCH   4   7
ATOM      7  C   UNL A   1      33.143  27.204  25.711  1.00  0.00     0.138 C 
BRANCH   7   8
ATOM      8  C   UNL A   1      32.914  26.521  24.392  1.00  0.00    -0.002 A 
ATOM      9  C   UNL A   1      32.316  27.052  23.253  1.00  0.00     0.093 A 
ATOM     10  N   UNL A   1      32.354  26.085  22.276  1.00  0.00    -0.352 N 
ATOM     11  C   UNL A   1      32.917  24.930  22.755  1.00  0.00     0.046 A 
ATOM     12  H   UNL A   1      32.022  26.206  21.356  1.00  0.00     0.167 HD
ATOM     13  C   UNL A   1      33.258  25.159  24.082  1.00  0.00     0.004 A 
ATOM     14  C   UNL A   1      33.165  23.717  22.111  1.00  0.00     0.027 A 
ATOM     15  C   UNL A   1      33.871  24.109  24.801  1.00  0.00     0.015 A 
ATOM     16  C   UNL A   1      33.797  22.704  22.846  1.00  0.00     0.006 A 
ATOM     17  C   UNL A   1      34.167  22.870  24.189  1.00  0.00    -0.042 A 
BRANCH   9  18
ATOM     18  C   UNL A   1      31.810  28.394  23.011  1.00  0.00     0.227 C 
ATOM     19  O   UNL A   1      32.564  29.305  22.686  1.00  0.00    -0.285 OA
BRANCH  18  20
ATOM     20  C   UNL A   1      30.322  28.624  23.106  1.00  0.00     0.113 A 
ATOM     21  C   UNL A   1      27.749  31.410  23.190  1.00  0.00     0.044 C 
ATOM     22  C   UNL A   1      28.387  30.053  23.212  1.00  0.00    -0.047 A 
ATOM     23  C   UNL A   1      27.601  28.905  23.320  1.00  0.00     0.023 A 
ATOM     24  C   UNL A   1      29.771  29.906  23.079  1.00  0.00     0.036 A 
ATOM     25  C   UNL A   1      28.226  27.670  23.323  1.00  0.00     0.112 A 
ATOM     26  N   UNL A   1      29.561  27.506  23.235  1.00  0.00    -0.253 NA
ENDBRANCH  18  20
ENDBRANCH   9  18
BRANCH  17  27
ATOM     27  C   UNL A   1      34.891  21.776  24.994  1.00  0.00    -0.013 C 
ATOM     28  C   UNL A   1      34.887  22.150  26.493  1.00  0.00     0.016 C 
ATOM     29  C   UNL A   1      34.169  20.426  24.804  1.00  0.00     0.016 C 
ATOM     30  C   UNL A   1      36.367  21.569  24.582  1.00  0.00     0.016 C 
ENDBRANCH  17  27
ENDBRANCH   7   8
ENDBRANCH   4   7
ENDBRANCH   2   3
ENDBRANCH   1   2
BRANCH   1  31
ATOM     31  C   UNL A   1      31.409  32.120  26.537  1.00  0.00     0.023 C 
BRANCH  31  32
ATOM     32  C   UNL A   1      32.622  32.782  27.185  1.00  0.00     0.116 C 
BRANCH  32  33
ATOM     33  N   UNL A   1      32.356  34.132  27.653  1.00  0.00    -0.352 N 
ATOM     34  C   UNL A   1      33.006  34.866  28.611  1.00  0.00     0.251 C 
ATOM     35  H   UNL A   1      31.598  34.586  27.219  1.00  0.00     0.163 HD
ATOM     36  O   UNL A   1      32.575  35.972  28.930  1.00  0.00    -0.269 OA
BRANCH  34  37
ATOM     37  C   UNL A   1      34.202  34.328  29.297  1.00  0.00     0.039 A 
ATOM     38  C   UNL A   1      34.010  33.575  30.462  1.00  0.00     0.014 A 
ATOM     39  C   UNL A   1      35.496  34.588  28.839  1.00  0.00     0.014 A 
ATOM     40  C   UNL A   1      35.108  33.037  31.135  1.00  0.00     0.010 A 
ATOM     41  C   UNL A   1      36.593  34.031  29.498  1.00  0.00     0.010 A 
ATOM     42  C   UNL A   1      36.404  33.247  30.646  1.00  0.00    -0.014 A 
BRANCH  42  43
ATOM     43  C   UNL A   1      37.575  32.639  31.318  1.00  0.00     0.031 A 
ATOM     44  C   UNL A   1      38.343  31.539  30.652  1.00  0.00     0.074 A 
ATOM     45  C   UNL A   1      37.917  33.051  32.552  1.00  0.00     0.049 A 
ATOM     46  N   UNL A   1      39.321  30.810  31.129  1.00  0.00    -0.248 NA
ATOM     47  C   UNL A   1      37.958  31.206  29.273  1.00  0.00     0.031 C 
ATOM     48  C   UNL A   1      37.243  34.105  33.309  1.00  0.00     0.029 A 
ATOM     49  N   UNL A   1      38.914  32.620  33.388  1.00  0.00    -0.354 N 
ATOM     50  C   UNL A   1      39.641  29.909  30.126  1.00  0.00     0.074 A 
ATOM     51  C   UNL A   1      38.770  30.193  29.005  1.00  0.00     0.031 C 
ATOM     52  C   UNL A   1      37.850  34.244  34.499  1.00  0.00     0.029 A 
ATOM     53  C   UNL A   1      38.939  33.276  34.592  1.00  0.00     0.049 A 
ATOM     54  H   UNL A   1      39.550  31.908  33.148  1.00  0.00     0.167 HD
ATOM     55  C   UNL A   1      40.574  28.927  30.144  1.00  0.00     0.037 A 
ATOM     56  C   UNL A   1      39.743  33.104  35.657  1.00  0.00     0.037 A 
ATOM     57  C   UNL A   1      41.472  28.664  31.235  1.00  0.00     0.049 A 
ATOM     58  C   UNL A   1      40.799  32.040  35.632  1.00  0.00     0.074 A 
ATOM     59  C   UNL A   1      42.468  27.707  31.325  1.00  0.00     0.029 A 
ATOM     60  N   UNL A   1      41.487  29.372  32.425  1.00  0.00    -0.354 N 
ATOM     61  N   UNL A   1      41.083  31.183  34.685  1.00  0.00    -0.248 NA
ATOM     62  C   UNL A   1      41.639  31.915  36.832  1.00  0.00     0.031 C 
ATOM     63  C   UNL A   1      43.089  27.838  32.574  1.00  0.00     0.029 A 
ATOM     64  C   UNL A   1      42.477  28.876  33.257  1.00  0.00     0.049 A 
ATOM     65  H   UNL A   1      40.884  30.118  32.647  1.00  0.00     0.167 HD
ATOM     66  C   UNL A   1      42.127  30.412  35.171  1.00  0.00     0.074 A 
ATOM     67  C   UNL A   1      42.435  30.907  36.497  1.00  0.00     0.031 C 
ATOM     68  C   UNL A   1      42.769  29.382  34.570  1.00  0.00     0.037 A 
BRANCH  55  69
ATOM     69  C   UNL A   1      40.655  28.052  28.937  1.00  0.00     0.064 A 
ATOM     70  C   UNL A   1      39.890  26.884  28.835  1.00  0.00     0.173 A 
ATOM     71  C   UNL A   1      41.489  28.398  27.865  1.00  0.00     0.173 A 
ATOM     72  F   UNL A   1      39.088  26.511  29.843  1.00  0.00    -0.203 F 
ATOM     73  C   UNL A   1      39.961  26.085  27.696  1.00  0.00     0.198 A 
ATOM     74  C   UNL A   1      41.556  27.600  26.728  1.00  0.00     0.198 A 
ATOM     75  F   UNL A   1      42.245  29.505  27.928  1.00  0.00    -0.203 F 
ATOM     76  F   UNL A   1      39.232  24.964  27.620  1.00  0.00    -0.200 F 
ATOM     77  C   UNL A   1      40.792  26.445  26.644  1.00  0.00     0.200 A 
ATOM     78  F   UNL A   1      42.364  27.943  25.715  1.00  0.00    -0.200 F 
ATOM     79  F   UNL A   1      40.862  25.672  25.551  1.00  0.00    -0.200 F 
ENDBRANCH  55  69
BRANCH  56  80
ATOM     80  C   UNL A   1      39.566  33.966  36.845  1.00  0.00     0.064 A 
ATOM     81  C   UNL A   1      38.788  33.540  37.927  1.00  0.00     0.173 A 
ATOM     82  C   UNL A   1      40.191  35.217  36.927  1.00  0.00     0.173 A 
ATOM     83  F   UNL A   1      38.164  32.354  37.878  1.00  0.00    -0.203 F 
ATOM     84  C   UNL A   1      38.640  34.339  39.058  1.00  0.00     0.198 A 
ATOM     85  C   UNL A   1      40.045  36.013  38.060  1.00  0.00     0.198 A 
ATOM     86  F   UNL A   1      40.939  35.661  35.907  1.00  0.00    -0.203 F 
ATOM     87  F   UNL A   1      37.883  33.917  40.079  1.00  0.00    -0.200 F 
ATOM     88  C   UNL A   1      39.270  35.573  39.124  1.00  0.00     0.200 A 
ATOM     89  F   UNL A   1      40.650  37.206  38.121  1.00  0.00    -0.200 F 
ATOM     90  F   UNL A   1      39.126  36.342  40.213  1.00  0.00    -0.200 F 
ENDBRANCH  56  80
BRANCH  68  91
ATOM     91  C   UNL A   1      43.864  28.725  35.345  1.00  0.00     0.064 A 
ATOM     92  C   UNL A   1      43.585  27.679  36.233  1.00  0.00     0.173 A 
ATOM     93  C   UNL A   1      45.198  29.123  35.181  1.00  0.00     0.173 A 
ATOM     94  F   UNL A   1      42.321  27.276  36.427  1.00  0.00    -0.203 F 
ATOM     95  C   UNL A   1      44.610  27.050  36.935  1.00  0.00     0.198 A 
ATOM     96  C   UNL A   1      46.219  28.492  35.883  1.00  0.00     0.198 A 
ATOM     97  F   UNL A   1      45.503  30.129  34.348  1.00  0.00    -0.203 F 
ATOM     98  F   UNL A   1      44.325  26.056  37.788  1.00  0.00    -0.200 F 
ATOM     99  C   UNL A   1      45.925  27.456  36.758  1.00  0.00     0.200 A 
ATOM    100  F   UNL A   1      47.489  28.891  35.720  1.00  0.00    -0.200 F 
ATOM    101  F   UNL A   1      46.909  26.854  37.439  1.00  0.00    -0.200 F 
ENDBRANCH  68  91
ENDBRANCH  42  43
ENDBRANCH  34  37
ENDBRANCH  32  33
ENDBRANCH  31  32
ENDBRANCH   1  31
TORSDOF 15
ENDMDL
