MODEL 1
REMARK VINA RESULT:     -12.0      0.000      0.000
REMARK SMILES Cc1oc(CSc2ccncc2N)cc1C(=O)NCCCCNC(=O)c1ccc(-c2c3nc(c(-c4c(F)c(F)c(F)c(F)c4F)c4ccc([nH]4)c(-c4c(F)c(F)c(F)c(F)c4F)c4nc(c(-c5c(F)c(F)c(F)c(F)c5F)c5ccc2[nH]5)C=C4)C=C3)cc1
REMARK SMILES IDX 19 1 18 2 16 3 17 4 15 6 1 7 2 8 3 9 4 10 14 11 5 12 6 13
REMARK SMILES IDX 7 14 8 15 12 16 9 17 11 18 10 19 13 20 20 23 21 24 22 25
REMARK SMILES IDX 23 26 24 27 25 29 26 30 27 31 88 32 28 33 87 34 29 35 30 36
REMARK SMILES IDX 31 37 81 38 32 39 86 40 80 41 82 42 33 43 85 44 79 45 78 46
REMARK SMILES IDX 34 48 66 49 46 50 65 51 47 52 50 53 64 54 83 55 48 56 49 57
REMARK SMILES IDX 63 59 84 60 51 61 35 62 36 63 44 64 37 65 38 66 42 67 45 68
REMARK SMILES IDX 39 69 40 70 43 71 41 72 67 73 68 74 76 75 69 76 70 77 74 78
REMARK SMILES IDX 77 79 71 80 72 81 75 82 73 83 52 84 53 85 61 86 54 87 55 88
REMARK SMILES IDX 59 89 62 90 56 91 57 92 60 93 58 94
REMARK H PARENT 18 5 13 21 13 22 23 28 82 47 50 58
REMARK Flexibility Score: inf
ROOT
ATOM      1  C   UNL A   1      32.981  30.051  26.298  1.00  0.00     0.116 C 
ENDROOT
BRANCH   1   2
ATOM      2  N   UNL A   1      33.631  29.649  25.081  1.00  0.00    -0.352 N 
ATOM      3  C   UNL A   1      33.666  28.482  24.379  1.00  0.00     0.254 C 
ATOM      4  O   UNL A   1      34.322  28.549  23.332  1.00  0.00    -0.269 OA
ATOM      5  H   UNL A   1      34.162  30.367  24.669  1.00  0.00     0.163 HD
BRANCH   3   6
ATOM      6  C   UNL A   1      32.996  27.225  24.726  1.00  0.00     0.081 A 
ATOM      7  C   UNL A   1      30.343  27.078  24.255  1.00  0.00     0.088 C 
ATOM      8  C   UNL A   1      31.705  26.700  24.683  1.00  0.00     0.113 A 
ATOM      9  O   UNL A   1      31.684  25.446  25.240  1.00  0.00    -0.465 OA
ATOM     10  C   UNL A   1      32.929  25.151  25.674  1.00  0.00     0.115 A 
ATOM     11  C   UNL A   1      33.772  26.173  25.333  1.00  0.00     0.060 A 
BRANCH  10  12
ATOM     12  C   UNL A   1      33.149  23.848  26.336  1.00  0.00     0.150 C 
BRANCH  12  13
ATOM     13  S   UNL A   1      33.295  22.381  25.262  1.00  0.00    -0.116 SA
BRANCH  13  14
ATOM     14  C   UNL A   1      35.042  21.969  25.173  1.00  0.00     0.034 A 
ATOM     15  C   UNL A   1      35.907  23.059  25.360  1.00  0.00     0.037 A 
ATOM     16  C   UNL A   1      35.594  20.687  25.021  1.00  0.00     0.064 A 
ATOM     17  C   UNL A   1      37.276  22.853  25.351  1.00  0.00     0.112 A 
ATOM     18  C   UNL A   1      36.992  20.611  25.002  1.00  0.00     0.137 A 
ATOM     19  N   UNL A   1      37.844  21.651  25.156  1.00  0.00    -0.262 NA
BRANCH  16  20
ATOM     20  N   UNL A   1      34.844  19.520  25.001  1.00  0.00    -0.397 N 
ATOM     21  H   UNL A   1      34.343  19.270  24.191  1.00  0.00     0.156 HD
ATOM     22  H   UNL A   1      34.811  18.941  25.797  1.00  0.00     0.156 HD
ENDBRANCH  16  20
ENDBRANCH  13  14
ENDBRANCH  12  13
ENDBRANCH  10  12
ENDBRANCH   3   6
ENDBRANCH   1   2
BRANCH   1  23
ATOM     23  C   UNL A   1      31.680  30.795  25.989  1.00  0.00     0.023 C 
BRANCH  23  24
ATOM     24  C   UNL A   1      31.404  32.009  26.878  1.00  0.00     0.023 C 
BRANCH  24  25
ATOM     25  C   UNL A   1      32.639  32.819  27.253  1.00  0.00     0.116 C 
BRANCH  25  26
ATOM     26  N   UNL A   1      32.351  34.202  27.607  1.00  0.00    -0.352 N 
ATOM     27  C   UNL A   1      32.978  34.986  28.542  1.00  0.00     0.251 C 
ATOM     28  H   UNL A   1      31.613  34.628  27.112  1.00  0.00     0.163 HD
ATOM     29  O   UNL A   1      32.574  36.117  28.790  1.00  0.00    -0.269 OA
BRANCH  27  30
ATOM     30  C   UNL A   1      34.119  34.423  29.287  1.00  0.00     0.039 A 
ATOM     31  C   UNL A   1      33.868  33.710  30.461  1.00  0.00     0.014 A 
ATOM     32  C   UNL A   1      35.418  34.543  28.787  1.00  0.00     0.014 A 
ATOM     33  C   UNL A   1      34.918  33.047  31.097  1.00  0.00     0.010 A 
ATOM     34  C   UNL A   1      36.448  33.828  29.384  1.00  0.00     0.010 A 
ATOM     35  C   UNL A   1      36.207  33.069  30.540  1.00  0.00    -0.014 A 
BRANCH  35  36
ATOM     36  C   UNL A   1      37.317  32.295  31.144  1.00  0.00     0.031 A 
ATOM     37  C   UNL A   1      37.818  32.647  32.514  1.00  0.00     0.074 A 
ATOM     38  C   UNL A   1      37.925  31.333  30.423  1.00  0.00     0.049 A 
ATOM     39  N   UNL A   1      38.831  32.152  33.178  1.00  0.00    -0.248 NA
ATOM     40  C   UNL A   1      37.103  33.722  33.221  1.00  0.00     0.031 C 
ATOM     41  C   UNL A   1      37.564  30.939  29.061  1.00  0.00     0.029 A 
ATOM     42  N   UNL A   1      38.984  30.517  30.734  1.00  0.00    -0.354 N 
ATOM     43  C   UNL A   1      38.887  32.866  34.366  1.00  0.00     0.074 A 
ATOM     44  C   UNL A   1      37.838  33.862  34.314  1.00  0.00     0.031 C 
ATOM     45  C   UNL A   1      38.374  29.947  28.660  1.00  0.00     0.029 A 
ATOM     46  C   UNL A   1      39.332  29.656  29.723  1.00  0.00     0.049 A 
ATOM     47  H   UNL A   1      39.451  30.548  31.600  1.00  0.00     0.167 HD
ATOM     48  C   UNL A   1      39.724  32.691  35.417  1.00  0.00     0.037 A 
ATOM     49  C   UNL A   1      40.315  28.739  29.662  1.00  0.00     0.037 A 
ATOM     50  C   UNL A   1      40.741  31.676  35.478  1.00  0.00     0.049 A 
ATOM     51  C   UNL A   1      41.217  28.550  30.851  1.00  0.00     0.074 A 
ATOM     52  C   UNL A   1      41.597  31.374  36.523  1.00  0.00     0.029 A 
ATOM     53  N   UNL A   1      41.037  30.794  34.450  1.00  0.00    -0.354 N 
ATOM     54  N   UNL A   1      41.217  29.184  31.997  1.00  0.00    -0.248 NA
ATOM     55  C   UNL A   1      42.251  27.511  30.740  1.00  0.00     0.031 C 
ATOM     56  C   UNL A   1      42.434  30.332  36.114  1.00  0.00     0.029 A 
ATOM     57  C   UNL A   1      42.072  29.956  34.830  1.00  0.00     0.049 A 
ATOM     58  H   UNL A   1      40.580  30.768  33.579  1.00  0.00     0.167 HD
ATOM     59  C   UNL A   1      42.226  28.605  32.754  1.00  0.00     0.074 A 
ATOM     60  C   UNL A   1      42.811  27.560  31.941  1.00  0.00     0.031 C 
ATOM     61  C   UNL A   1      42.630  28.910  34.012  1.00  0.00     0.037 A 
BRANCH  48  62
ATOM     62  C   UNL A   1      39.564  33.613  36.589  1.00  0.00     0.064 A 
ATOM     63  C   UNL A   1      40.187  34.869  36.626  1.00  0.00     0.173 A 
ATOM     64  C   UNL A   1      38.755  33.249  37.676  1.00  0.00     0.173 A 
ATOM     65  F   UNL A   1      40.982  35.257  35.617  1.00  0.00    -0.203 F 
ATOM     66  C   UNL A   1      40.030  35.716  37.719  1.00  0.00     0.198 A 
ATOM     67  C   UNL A   1      38.576  34.110  38.755  1.00  0.00     0.198 A 
ATOM     68  F   UNL A   1      38.134  32.060  37.690  1.00  0.00    -0.203 F 
ATOM     69  F   UNL A   1      40.674  36.889  37.754  1.00  0.00    -0.200 F 
ATOM     70  C   UNL A   1      39.219  35.338  38.779  1.00  0.00     0.200 A 
ATOM     71  F   UNL A   1      37.785  33.750  39.775  1.00  0.00    -0.200 F 
ATOM     72  F   UNL A   1      39.065  36.157  39.829  1.00  0.00    -0.200 F 
ENDBRANCH  48  62
BRANCH  49  73
ATOM     73  C   UNL A   1      40.475  27.903  28.445  1.00  0.00     0.064 A 
ATOM     74  C   UNL A   1      41.243  28.353  27.362  1.00  0.00     0.173 A 
ATOM     75  C   UNL A   1      39.869  26.644  28.336  1.00  0.00     0.173 A 
ATOM     76  F   UNL A   1      41.827  29.560  27.412  1.00  0.00    -0.203 F 
ATOM     77  C   UNL A   1      41.382  27.585  26.209  1.00  0.00     0.198 A 
ATOM     78  C   UNL A   1      40.029  25.864  27.192  1.00  0.00     0.198 A 
ATOM     79  F   UNL A   1      39.129  26.165  29.348  1.00  0.00    -0.203 F 
ATOM     80  F   UNL A   1      42.087  28.058  25.172  1.00  0.00    -0.200 F 
ATOM     81  C   UNL A   1      40.779  26.338  26.126  1.00  0.00     0.200 A 
ATOM     82  F   UNL A   1      39.455  24.656  27.122  1.00  0.00    -0.200 F 
ATOM     83  F   UNL A   1      40.915  25.598  25.018  1.00  0.00    -0.200 F 
ENDBRANCH  49  73
BRANCH  61  84
ATOM     84  C   UNL A   1      43.730  28.080  34.601  1.00  0.00     0.064 A 
ATOM     85  C   UNL A   1      43.470  26.858  35.236  1.00  0.00     0.173 A 
ATOM     86  C   UNL A   1      45.067  28.491  34.482  1.00  0.00     0.173 A 
ATOM     87  F   UNL A   1      42.207  26.431  35.387  1.00  0.00    -0.203 F 
ATOM     88  C   UNL A   1      44.509  26.085  35.750  1.00  0.00     0.198 A 
ATOM     89  C   UNL A   1      46.103  27.703  34.974  1.00  0.00     0.198 A 
ATOM     90  F   UNL A   1      45.366  29.650  33.877  1.00  0.00    -0.203 F 
ATOM     91  F   UNL A   1      44.235  24.939  36.388  1.00  0.00    -0.200 F 
ATOM     92  C   UNL A   1      45.823  26.504  35.611  1.00  0.00     0.200 A 
ATOM     93  F   UNL A   1      47.374  28.104  34.828  1.00  0.00    -0.200 F 
ATOM     94  F   UNL A   1      46.822  25.754  36.098  1.00  0.00    -0.200 F 
ENDBRANCH  61  84
ENDBRANCH  35  36
ENDBRANCH  27  30
ENDBRANCH  25  26
ENDBRANCH  24  25
ENDBRANCH  23  24
ENDBRANCH   1  23
TORSDOF 15
ENDMDL
MODEL 2
REMARK VINA RESULT:     -11.8      0.917      2.157
REMARK SMILES Cc1oc(CSc2ccncc2N)cc1C(=O)NCCCCNC(=O)c1ccc(-c2c3nc(c(-c4c(F)c(F)c(F)c(F)c4F)c4ccc([nH]4)c(-c4c(F)c(F)c(F)c(F)c4F)c4nc(c(-c5c(F)c(F)c(F)c(F)c5F)c5ccc2[nH]5)C=C4)C=C3)cc1
REMARK SMILES IDX 19 1 18 2 16 3 17 4 15 6 1 7 2 8 3 9 4 10 14 11 5 12 6 13
REMARK SMILES IDX 7 14 8 15 12 16 9 17 11 18 10 19 13 20 20 23 21 24 22 25
REMARK SMILES IDX 23 26 24 27 25 29 26 30 27 31 88 32 28 33 87 34 29 35 30 36
REMARK SMILES IDX 31 37 81 38 32 39 86 40 80 41 82 42 33 43 85 44 79 45 78 46
REMARK SMILES IDX 34 48 66 49 46 50 65 51 47 52 50 53 64 54 83 55 48 56 49 57
REMARK SMILES IDX 63 59 84 60 51 61 35 62 36 63 44 64 37 65 38 66 42 67 45 68
REMARK SMILES IDX 39 69 40 70 43 71 41 72 67 73 68 74 76 75 69 76 70 77 74 78
REMARK SMILES IDX 77 79 71 80 72 81 75 82 73 83 52 84 53 85 61 86 54 87 55 88
REMARK SMILES IDX 59 89 62 90 56 91 57 92 60 93 58 94
REMARK H PARENT 18 5 13 21 13 22 23 28 82 47 50 58
REMARK Flexibility Score: inf
ROOT
ATOM      1  C   UNL A   1      32.330  29.589  27.247  1.00  0.00     0.116 C 
ENDROOT
BRANCH   1   2
ATOM      2  N   UNL A   1      31.507  28.411  27.264  1.00  0.00    -0.352 N 
ATOM      3  C   UNL A   1      31.491  27.269  26.520  1.00  0.00     0.254 C 
ATOM      4  O   UNL A   1      30.633  26.453  26.878  1.00  0.00    -0.269 OA
ATOM      5  H   UNL A   1      30.810  28.434  27.957  1.00  0.00     0.163 HD
BRANCH   3   6
ATOM      6  C   UNL A   1      32.384  26.928  25.410  1.00  0.00     0.081 A 
ATOM      7  C   UNL A   1      32.507  28.672  23.354  1.00  0.00     0.088 C 
ATOM      8  C   UNL A   1      32.759  27.476  24.184  1.00  0.00     0.113 A 
ATOM      9  O   UNL A   1      33.609  26.625  23.523  1.00  0.00    -0.465 OA
ATOM     10  C   UNL A   1      33.774  25.517  24.277  1.00  0.00     0.115 A 
ATOM     11  C   UNL A   1      33.100  25.678  25.457  1.00  0.00     0.060 A 
BRANCH  10  12
ATOM     12  C   UNL A   1      34.639  24.437  23.756  1.00  0.00     0.150 C 
BRANCH  12  13
ATOM     13  S   UNL A   1      35.240  23.199  24.952  1.00  0.00    -0.116 SA
BRANCH  13  14
ATOM     14  C   UNL A   1      34.282  21.702  24.683  1.00  0.00     0.034 A 
ATOM     15  C   UNL A   1      33.033  21.913  24.078  1.00  0.00     0.037 A 
ATOM     16  C   UNL A   1      34.695  20.385  24.940  1.00  0.00     0.064 A 
ATOM     17  C   UNL A   1      32.225  20.827  23.786  1.00  0.00     0.112 A 
ATOM     18  C   UNL A   1      33.780  19.374  24.625  1.00  0.00     0.137 A 
ATOM     19  N   UNL A   1      32.562  19.556  24.063  1.00  0.00    -0.262 NA
BRANCH  16  20
ATOM     20  N   UNL A   1      35.969  20.046  25.374  1.00  0.00    -0.397 N 
ATOM     21  H   UNL A   1      36.702  19.950  24.723  1.00  0.00     0.156 HD
ATOM     22  H   UNL A   1      36.141  19.899  26.333  1.00  0.00     0.156 HD
ENDBRANCH  16  20
ENDBRANCH  13  14
ENDBRANCH  12  13
ENDBRANCH  10  12
ENDBRANCH   3   6
ENDBRANCH   1   2
BRANCH   1  23
ATOM     23  C   UNL A   1      31.776  30.612  26.253  1.00  0.00     0.023 C 
BRANCH  23  24
ATOM     24  C   UNL A   1      31.452  31.983  26.850  1.00  0.00     0.023 C 
BRANCH  24  25
ATOM     25  C   UNL A   1      32.670  32.800  27.267  1.00  0.00     0.116 C 
BRANCH  25  26
ATOM     26  N   UNL A   1      32.358  34.177  27.626  1.00  0.00    -0.352 N 
ATOM     27  C   UNL A   1      32.972  34.967  28.565  1.00  0.00     0.251 C 
ATOM     28  H   UNL A   1      31.614  34.593  27.132  1.00  0.00     0.163 HD
ATOM     29  O   UNL A   1      32.549  36.090  28.817  1.00  0.00    -0.269 OA
BRANCH  27  30
ATOM     30  C   UNL A   1      34.121  34.420  29.308  1.00  0.00     0.039 A 
ATOM     31  C   UNL A   1      33.883  33.718  30.492  1.00  0.00     0.014 A 
ATOM     32  C   UNL A   1      35.416  34.542  28.799  1.00  0.00     0.014 A 
ATOM     33  C   UNL A   1      34.941  33.070  31.128  1.00  0.00     0.010 A 
ATOM     34  C   UNL A   1      36.455  33.840  29.397  1.00  0.00     0.010 A 
ATOM     35  C   UNL A   1      36.226  33.093  30.563  1.00  0.00    -0.014 A 
BRANCH  35  36
ATOM     36  C   UNL A   1      37.345  32.333  31.167  1.00  0.00     0.031 A 
ATOM     37  C   UNL A   1      37.834  32.685  32.542  1.00  0.00     0.074 A 
ATOM     38  C   UNL A   1      37.971  31.384  30.445  1.00  0.00     0.049 A 
ATOM     39  N   UNL A   1      38.851  32.202  33.208  1.00  0.00    -0.248 NA
ATOM     40  C   UNL A   1      37.099  33.745  33.251  1.00  0.00     0.031 C 
ATOM     41  C   UNL A   1      37.623  30.993  29.078  1.00  0.00     0.029 A 
ATOM     42  N   UNL A   1      39.042  30.584  30.756  1.00  0.00    -0.354 N 
ATOM     43  C   UNL A   1      38.891  32.910  34.401  1.00  0.00     0.074 A 
ATOM     44  C   UNL A   1      37.827  33.890  34.349  1.00  0.00     0.031 C 
ATOM     45  C   UNL A   1      38.450  30.015  28.676  1.00  0.00     0.029 A 
ATOM     46  C   UNL A   1      39.407  29.733  29.742  1.00  0.00     0.049 A 
ATOM     47  H   UNL A   1      39.504  30.617  31.625  1.00  0.00     0.167 HD
ATOM     48  C   UNL A   1      39.725  32.742  35.454  1.00  0.00     0.037 A 
ATOM     49  C   UNL A   1      40.404  28.831  29.680  1.00  0.00     0.037 A 
ATOM     50  C   UNL A   1      40.758  31.742  35.515  1.00  0.00     0.049 A 
ATOM     51  C   UNL A   1      41.304  28.650  30.873  1.00  0.00     0.074 A 
ATOM     52  C   UNL A   1      41.613  31.448  36.562  1.00  0.00     0.029 A 
ATOM     53  N   UNL A   1      41.072  30.871  34.483  1.00  0.00    -0.354 N 
ATOM     54  N   UNL A   1      41.289  29.278  32.023  1.00  0.00    -0.248 NA
ATOM     55  C   UNL A   1      42.354  27.627  30.761  1.00  0.00     0.031 C 
ATOM     56  C   UNL A   1      42.468  30.421  36.151  1.00  0.00     0.029 A 
ATOM     57  C   UNL A   1      42.118  30.047  34.864  1.00  0.00     0.049 A 
ATOM     58  H   UNL A   1      40.619  30.843  33.610  1.00  0.00     0.167 HD
ATOM     59  C   UNL A   1      42.303  28.710  32.781  1.00  0.00     0.074 A 
ATOM     60  C   UNL A   1      42.908  27.679  31.965  1.00  0.00     0.031 C 
ATOM     61  C   UNL A   1      42.696  29.014  34.043  1.00  0.00     0.037 A 
BRANCH  48  62
ATOM     62  C   UNL A   1      39.545  33.655  36.631  1.00  0.00     0.064 A 
ATOM     63  C   UNL A   1      38.749  33.292  37.727  1.00  0.00     0.173 A 
ATOM     64  C   UNL A   1      40.201  34.895  36.677  1.00  0.00     0.173 A 
ATOM     65  F   UNL A   1      38.090  32.123  37.724  1.00  0.00    -0.203 F 
ATOM     66  C   UNL A   1      38.591  34.148  38.813  1.00  0.00     0.198 A 
ATOM     67  C   UNL A   1      40.065  35.736  37.778  1.00  0.00     0.198 A 
ATOM     68  F   UNL A   1      40.977  35.288  35.656  1.00  0.00    -0.203 F 
ATOM     69  F   UNL A   1      37.786  33.801  39.825  1.00  0.00    -0.200 F 
ATOM     70  C   UNL A   1      39.255  35.366  38.840  1.00  0.00     0.200 A 
ATOM     71  F   UNL A   1      40.714  36.908  37.808  1.00  0.00    -0.200 F 
ATOM     72  F   UNL A   1      39.106  36.187  39.889  1.00  0.00    -0.200 F 
ENDBRANCH  48  62
BRANCH  49  73
ATOM     73  C   UNL A   1      40.583  28.005  28.460  1.00  0.00     0.064 A 
ATOM     74  C   UNL A   1      41.358  28.468  27.387  1.00  0.00     0.173 A 
ATOM     75  C   UNL A   1      39.989  26.741  28.337  1.00  0.00     0.173 A 
ATOM     76  F   UNL A   1      41.931  29.680  27.451  1.00  0.00    -0.203 F 
ATOM     77  C   UNL A   1      41.514  27.709  26.230  1.00  0.00     0.198 A 
ATOM     78  C   UNL A   1      40.167  25.971  27.190  1.00  0.00     0.198 A 
ATOM     79  F   UNL A   1      39.244  26.250  29.338  1.00  0.00    -0.203 F 
ATOM     80  F   UNL A   1      42.225  28.195  25.204  1.00  0.00    -0.200 F 
ATOM     81  C   UNL A   1      40.923  26.458  26.134  1.00  0.00     0.200 A 
ATOM     82  F   UNL A   1      39.604  24.758  27.106  1.00  0.00    -0.200 F 
ATOM     83  F   UNL A   1      41.075  25.727  25.022  1.00  0.00    -0.200 F 
ENDBRANCH  49  73
BRANCH  61  84
ATOM     84  C   UNL A   1      43.806  28.198  34.632  1.00  0.00     0.064 A 
ATOM     85  C   UNL A   1      45.142  28.612  34.561  1.00  0.00     0.173 A 
ATOM     86  C   UNL A   1      43.519  27.008  35.320  1.00  0.00     0.173 A 
ATOM     87  F   UNL A   1      45.467  29.734  33.900  1.00  0.00    -0.203 F 
ATOM     88  C   UNL A   1      46.157  27.855  35.142  1.00  0.00     0.198 A 
ATOM     89  C   UNL A   1      44.533  26.269  35.922  1.00  0.00     0.198 A 
ATOM     90  F   UNL A   1      42.254  26.573  35.421  1.00  0.00    -0.203 F 
ATOM     91  F   UNL A   1      47.433  28.250  35.029  1.00  0.00    -0.200 F 
ATOM     92  C   UNL A   1      45.850  26.690  35.828  1.00  0.00     0.200 A 
ATOM     93  F   UNL A   1      44.234  25.149  36.595  1.00  0.00    -0.200 F 
ATOM     94  F   UNL A   1      46.828  25.968  36.394  1.00  0.00    -0.200 F 
ENDBRANCH  61  84
ENDBRANCH  35  36
ENDBRANCH  27  30
ENDBRANCH  25  26
ENDBRANCH  24  25
ENDBRANCH  23  24
ENDBRANCH   1  23
TORSDOF 15
ENDMDL
MODEL 3
REMARK VINA RESULT:     -11.8      0.894      7.410
REMARK SMILES Cc1oc(CSc2ccncc2N)cc1C(=O)NCCCCNC(=O)c1ccc(-c2c3nc(c(-c4c(F)c(F)c(F)c(F)c4F)c4ccc([nH]4)c(-c4c(F)c(F)c(F)c(F)c4F)c4nc(c(-c5c(F)c(F)c(F)c(F)c5F)c5ccc2[nH]5)C=C4)C=C3)cc1
REMARK SMILES IDX 19 1 18 2 16 3 17 4 15 6 1 7 2 8 3 9 4 10 14 11 5 12 6 13
REMARK SMILES IDX 7 14 8 15 12 16 9 17 11 18 10 19 13 20 20 23 21 24 22 25
REMARK SMILES IDX 23 26 24 27 25 29 26 30 27 31 88 32 28 33 87 34 29 35 30 36
REMARK SMILES IDX 31 37 81 38 32 39 86 40 80 41 82 42 33 43 85 44 79 45 78 46
REMARK SMILES IDX 34 48 66 49 46 50 65 51 47 52 50 53 64 54 83 55 48 56 49 57
REMARK SMILES IDX 63 59 84 60 51 61 35 62 36 63 44 64 37 65 38 66 42 67 45 68
REMARK SMILES IDX 39 69 40 70 43 71 41 72 67 73 68 74 76 75 69 76 70 77 74 78
REMARK SMILES IDX 77 79 71 80 72 81 75 82 73 83 52 84 53 85 61 86 54 87 55 88
REMARK SMILES IDX 59 89 62 90 56 91 57 92 60 93 58 94
REMARK H PARENT 18 5 13 21 13 22 23 28 82 47 50 58
REMARK Flexibility Score: inf
ROOT
ATOM      1  C   UNL A   1      31.709  29.792  25.171  1.00  0.00     0.116 C 
ENDROOT
BRANCH   1   2
ATOM      2  N   UNL A   1      32.814  29.689  24.258  1.00  0.00    -0.352 N 
ATOM      3  C   UNL A   1      33.508  28.636  23.741  1.00  0.00     0.254 C 
ATOM      4  O   UNL A   1      34.388  28.965  22.936  1.00  0.00    -0.269 OA
ATOM      5  H   UNL A   1      33.138  30.562  23.940  1.00  0.00     0.163 HD
BRANCH   3   6
ATOM      6  C   UNL A   1      33.286  27.214  24.019  1.00  0.00     0.081 A 
ATOM      7  C   UNL A   1      32.345  26.574  26.466  1.00  0.00     0.088 C 
ATOM      8  C   UNL A   1      32.845  26.429  25.084  1.00  0.00     0.113 A 
ATOM      9  O   UNL A   1      32.930  25.098  24.759  1.00  0.00    -0.465 OA
ATOM     10  C   UNL A   1      33.445  24.995  23.515  1.00  0.00     0.115 A 
ATOM     11  C   UNL A   1      33.622  26.251  23.001  1.00  0.00     0.060 A 
BRANCH  10  12
ATOM     12  C   UNL A   1      33.652  23.644  22.952  1.00  0.00     0.150 C 
BRANCH  12  13
ATOM     13  S   UNL A   1      33.728  22.253  24.129  1.00  0.00    -0.116 SA
BRANCH  13  14
ATOM     14  C   UNL A   1      35.436  22.123  24.676  1.00  0.00     0.034 A 
ATOM     15  C   UNL A   1      36.076  23.356  24.880  1.00  0.00     0.037 A 
ATOM     16  C   UNL A   1      36.129  20.942  24.985  1.00  0.00     0.064 A 
ATOM     17  C   UNL A   1      37.382  23.378  25.340  1.00  0.00     0.112 A 
ATOM     18  C   UNL A   1      37.453  21.093  25.417  1.00  0.00     0.137 A 
ATOM     19  N   UNL A   1      38.097  22.270  25.597  1.00  0.00    -0.262 NA
BRANCH  16  20
ATOM     20  N   UNL A   1      35.547  19.682  24.988  1.00  0.00    -0.397 N 
ATOM     21  H   UNL A   1      35.871  18.992  25.611  1.00  0.00     0.156 HD
ATOM     22  H   UNL A   1      34.811  19.478  24.367  1.00  0.00     0.156 HD
ENDBRANCH  16  20
ENDBRANCH  13  14
ENDBRANCH  12  13
ENDBRANCH  10  12
ENDBRANCH   3   6
ENDBRANCH   1   2
BRANCH   1  23
ATOM     23  C   UNL A   1      32.180  30.336  26.521  1.00  0.00     0.023 C 
BRANCH  23  24
ATOM     24  C   UNL A   1      31.769  31.780  26.814  1.00  0.00     0.023 C 
BRANCH  24  25
ATOM     25  C   UNL A   1      32.884  32.662  27.364  1.00  0.00     0.116 C 
BRANCH  25  26
ATOM     26  N   UNL A   1      32.466  34.027  27.651  1.00  0.00    -0.352 N 
ATOM     27  C   UNL A   1      32.998  34.902  28.566  1.00  0.00     0.251 C 
ATOM     28  H   UNL A   1      31.707  34.366  27.121  1.00  0.00     0.163 HD
ATOM     29  O   UNL A   1      32.490  36.002  28.755  1.00  0.00    -0.269 OA
BRANCH  27  30
ATOM     30  C   UNL A   1      34.163  34.473  29.360  1.00  0.00     0.039 A 
ATOM     31  C   UNL A   1      33.946  33.888  30.609  1.00  0.00     0.014 A 
ATOM     32  C   UNL A   1      35.454  34.587  28.839  1.00  0.00     0.014 A 
ATOM     33  C   UNL A   1      35.024  33.345  31.307  1.00  0.00     0.010 A 
ATOM     34  C   UNL A   1      36.515  33.986  29.505  1.00  0.00     0.010 A 
ATOM     35  C   UNL A   1      36.309  33.355  30.740  1.00  0.00    -0.014 A 
BRANCH  35  36
ATOM     36  C   UNL A   1      37.452  32.699  31.419  1.00  0.00     0.031 A 
ATOM     37  C   UNL A   1      38.138  31.532  30.772  1.00  0.00     0.074 A 
ATOM     38  C   UNL A   1      37.814  33.104  32.651  1.00  0.00     0.049 A 
ATOM     39  N   UNL A   1      39.094  30.769  31.239  1.00  0.00    -0.248 NA
ATOM     40  C   UNL A   1      37.665  31.149  29.431  1.00  0.00     0.031 C 
ATOM     41  C   UNL A   1      37.186  34.191  33.405  1.00  0.00     0.029 A 
ATOM     42  N   UNL A   1      38.793  32.640  33.493  1.00  0.00    -0.354 N 
ATOM     43  C   UNL A   1      39.321  29.810  30.264  1.00  0.00     0.074 A 
ATOM     44  C   UNL A   1      38.372  30.053  29.198  1.00  0.00     0.031 C 
ATOM     45  C   UNL A   1      37.807  34.321  34.588  1.00  0.00     0.029 A 
ATOM     46  C   UNL A   1      38.854  33.309  34.690  1.00  0.00     0.049 A 
ATOM     47  H   UNL A   1      39.396  31.897  33.260  1.00  0.00     0.167 HD
ATOM     48  C   UNL A   1      40.254  28.828  30.247  1.00  0.00     0.037 A 
ATOM     49  C   UNL A   1      39.661  33.123  35.751  1.00  0.00     0.037 A 
ATOM     50  C   UNL A   1      41.219  28.614  31.292  1.00  0.00     0.049 A 
ATOM     51  C   UNL A   1      40.703  32.039  35.699  1.00  0.00     0.074 A 
ATOM     52  C   UNL A   1      42.246  27.689  31.342  1.00  0.00     0.029 A 
ATOM     53  N   UNL A   1      41.275  29.338  32.473  1.00  0.00    -0.354 N 
ATOM     54  N   UNL A   1      40.955  31.181  34.741  1.00  0.00    -0.248 NA
ATOM     55  C   UNL A   1      41.578  31.904  36.872  1.00  0.00     0.031 C 
ATOM     56  C   UNL A   1      42.904  27.831  32.567  1.00  0.00     0.029 A 
ATOM     57  C   UNL A   1      42.312  28.872  33.264  1.00  0.00     0.049 A 
ATOM     58  H   UNL A   1      40.668  30.075  32.714  1.00  0.00     0.167 HD
ATOM     59  C   UNL A   1      42.033  30.424  35.180  1.00  0.00     0.074 A 
ATOM     60  C   UNL A   1      42.395  30.932  36.487  1.00  0.00     0.031 C 
ATOM     61  C   UNL A   1      42.667  29.402  34.556  1.00  0.00     0.037 A 
BRANCH  48  62
ATOM     62  C   UNL A   1      40.280  27.919  29.054  1.00  0.00     0.064 A 
ATOM     63  C   UNL A   1      39.558  26.717  29.031  1.00  0.00     0.173 A 
ATOM     64  C   UNL A   1      41.012  28.268  27.909  1.00  0.00     0.173 A 
ATOM     65  F   UNL A   1      38.855  26.332  30.107  1.00  0.00    -0.203 F 
ATOM     66  C   UNL A   1      39.591  25.883  27.918  1.00  0.00     0.198 A 
ATOM     67  C   UNL A   1      41.019  27.446  26.786  1.00  0.00     0.198 A 
ATOM     68  F   UNL A   1      41.718  29.409  27.878  1.00  0.00    -0.203 F 
ATOM     69  F   UNL A   1      38.933  24.716  27.937  1.00  0.00    -0.200 F 
ATOM     70  C   UNL A   1      40.315  26.252  26.794  1.00  0.00     0.200 A 
ATOM     71  F   UNL A   1      41.711  27.807  25.697  1.00  0.00    -0.200 F 
ATOM     72  F   UNL A   1      40.341  25.449  25.720  1.00  0.00    -0.200 F 
ENDBRANCH  48  62
BRANCH  49  73
ATOM     73  C   UNL A   1      39.541  34.006  36.939  1.00  0.00     0.064 A 
ATOM     74  C   UNL A   1      40.193  35.246  36.981  1.00  0.00     0.173 A 
ATOM     75  C   UNL A   1      38.777  33.633  38.054  1.00  0.00     0.173 A 
ATOM     76  F   UNL A   1      40.952  35.637  35.945  1.00  0.00    -0.203 F 
ATOM     77  C   UNL A   1      40.103  36.071  38.099  1.00  0.00     0.198 A 
ATOM     78  C   UNL A   1      38.666  34.470  39.162  1.00  0.00     0.198 A 
ATOM     79  F   UNL A   1      38.127  32.459  38.061  1.00  0.00    -0.203 F 
ATOM     80  F   UNL A   1      40.771  37.232  38.128  1.00  0.00    -0.200 F 
ATOM     81  C   UNL A   1      39.335  35.685  39.188  1.00  0.00     0.200 A 
ATOM     82  F   UNL A   1      37.913  34.099  40.207  1.00  0.00    -0.200 F 
ATOM     83  F   UNL A   1      39.246  36.479  40.262  1.00  0.00    -0.200 F 
ENDBRANCH  49  73
BRANCH  61  84
ATOM     84  C   UNL A   1      43.842  28.791  35.258  1.00  0.00     0.064 A 
ATOM     85  C   UNL A   1      43.693  27.704  36.131  1.00  0.00     0.173 A 
ATOM     86  C   UNL A   1      45.138  29.270  35.014  1.00  0.00     0.173 A 
ATOM     87  F   UNL A   1      42.472  27.222  36.406  1.00  0.00    -0.203 F 
ATOM     88  C   UNL A   1      44.800  27.129  36.750  1.00  0.00     0.198 A 
ATOM     89  C   UNL A   1      46.244  28.676  35.615  1.00  0.00     0.198 A 
ATOM     90  F   UNL A   1      45.332  30.304  34.183  1.00  0.00    -0.203 F 
ATOM     91  F   UNL A   1      44.633  26.116  37.610  1.00  0.00    -0.200 F 
ATOM     92  C   UNL A   1      46.074  27.610  36.485  1.00  0.00     0.200 A 
ATOM     93  F   UNL A   1      47.475  29.133  35.350  1.00  0.00    -0.200 F 
ATOM     94  F   UNL A   1      47.139  27.049  37.076  1.00  0.00    -0.200 F 
ENDBRANCH  61  84
ENDBRANCH  35  36
ENDBRANCH  27  30
ENDBRANCH  25  26
ENDBRANCH  24  25
ENDBRANCH  23  24
ENDBRANCH   1  23
TORSDOF 15
ENDMDL
