MODEL 1
REMARK VINA RESULT:     -11.7      0.000      0.000
REMARK SMILES O=C(NCCCCNC(=O)[C@H]1C[C@H](O)CN1C(=O)CS[C@H]1CCS(=O)(=O)C1)c1ccc(-c2c3nc(c(-c4c(F)c(F)c(F)c(F)c4F)c4ccc([nH]4)c(-c4c(F)c(F)c(F)c(F)c4F)c4nc(c(-c5c(F)c(F)c(F)c(F)c5F)c5ccc2[nH]5)C=C4)C=C3)cc1
REMARK SMILES IDX 6 1 5 2 4 3 3 4 1 5 2 6 28 8 29 9 90 10 30 11 89 12 31 13
REMARK SMILES IDX 32 14 33 15 83 16 34 17 88 18 82 19 84 20 35 21 87 22 81 23
REMARK SMILES IDX 80 24 36 26 68 27 48 28 67 29 49 30 52 31 66 32 85 33 50 34
REMARK SMILES IDX 51 35 65 37 86 38 53 39 37 40 38 41 46 42 39 43 40 44 44 45
REMARK SMILES IDX 47 46 41 47 42 48 45 49 43 50 69 51 70 52 78 53 71 54 72 55
REMARK SMILES IDX 76 56 79 57 73 58 74 59 77 60 75 61 54 62 55 63 63 64 56 65
REMARK SMILES IDX 57 66 61 67 64 68 58 69 59 70 62 71 60 72 7 73 8 74 9 75
REMARK SMILES IDX 10 77 11 78 12 79 16 80 13 81 15 82 17 83 18 84 19 85 20 86
REMARK SMILES IDX 21 87 22 88 27 89 23 90 24 91 25 92 26 93 14 94
REMARK H PARENT 3 7 84 25 52 36 8 76 14 95
REMARK Flexibility Score: inf
ROOT
ATOM      1  C   UNL A   1      37.250  21.070  24.676  1.00  0.00     0.023 C 
ENDROOT
BRANCH   1   2
ATOM      2  C   UNL A   1      38.148  19.880  24.985  1.00  0.00     0.023 C 
BRANCH   2   3
ATOM      3  C   UNL A   1      39.344  20.212  25.857  1.00  0.00     0.116 C 
BRANCH   3   4
ATOM      4  N   UNL A   1      40.333  19.143  25.899  1.00  0.00    -0.352 N 
ATOM      5  O   UNL A   1      42.410  18.248  25.970  1.00  0.00    -0.269 OA
ATOM      6  C   UNL A   1      41.690  19.230  26.107  1.00  0.00     0.251 C 
ATOM      7  H   UNL A   1      39.982  18.234  25.760  1.00  0.00     0.163 HD
BRANCH   6   8
ATOM      8  C   UNL A   1      42.276  20.539  26.464  1.00  0.00     0.039 A 
ATOM      9  C   UNL A   1      42.392  20.911  27.802  1.00  0.00     0.014 A 
ATOM     10  C   UNL A   1      42.652  21.424  25.451  1.00  0.00     0.014 A 
ATOM     11  C   UNL A   1      42.678  22.228  28.123  1.00  0.00     0.010 A 
ATOM     12  C   UNL A   1      43.070  22.715  25.785  1.00  0.00     0.010 A 
ATOM     13  C   UNL A   1      43.043  23.143  27.121  1.00  0.00    -0.014 A 
BRANCH  13  14
ATOM     14  C   UNL A   1      43.445  24.517  27.519  1.00  0.00     0.031 A 
ATOM     15  C   UNL A   1      44.883  24.957  27.486  1.00  0.00     0.074 A 
ATOM     16  C   UNL A   1      42.479  25.387  27.871  1.00  0.00     0.049 A 
ATOM     17  N   UNL A   1      45.391  26.133  27.766  1.00  0.00    -0.248 NA
ATOM     18  C   UNL A   1      45.883  23.950  27.103  1.00  0.00     0.031 C 
ATOM     19  C   UNL A   1      41.050  25.070  27.945  1.00  0.00     0.029 A 
ATOM     20  N   UNL A   1      42.540  26.715  28.205  1.00  0.00    -0.354 N 
ATOM     21  C   UNL A   1      46.766  26.001  27.618  1.00  0.00     0.074 A 
ATOM     22  C   UNL A   1      47.016  24.622  27.251  1.00  0.00     0.031 C 
ATOM     23  C   UNL A   1      40.365  26.185  28.232  1.00  0.00     0.029 A 
ATOM     24  C   UNL A   1      41.310  27.273  28.447  1.00  0.00     0.049 A 
ATOM     25  H   UNL A   1      43.383  27.219  28.265  1.00  0.00     0.167 HD
ATOM     26  C   UNL A   1      47.727  26.945  27.769  1.00  0.00     0.037 A 
ATOM     27  C   UNL A   1      40.975  28.520  28.822  1.00  0.00     0.037 A 
ATOM     28  C   UNL A   1      47.462  28.319  28.123  1.00  0.00     0.049 A 
ATOM     29  C   UNL A   1      42.065  29.533  29.022  1.00  0.00     0.074 A 
ATOM     30  C   UNL A   1      48.360  29.364  28.256  1.00  0.00     0.029 A 
ATOM     31  N   UNL A   1      46.206  28.837  28.410  1.00  0.00    -0.354 N 
ATOM     32  N   UNL A   1      43.356  29.408  28.836  1.00  0.00    -0.248 NA
ATOM     33  C   UNL A   1      41.648  30.861  29.486  1.00  0.00     0.031 C 
ATOM     34  C   UNL A   1      47.658  30.494  28.693  1.00  0.00     0.029 A 
ATOM     35  C   UNL A   1      46.312  30.176  28.757  1.00  0.00     0.049 A 
ATOM     36  H   UNL A   1      45.364  28.328  28.374  1.00  0.00     0.167 HD
ATOM     37  C   UNL A   1      43.904  30.647  29.131  1.00  0.00     0.074 A 
ATOM     38  C   UNL A   1      42.800  31.515  29.487  1.00  0.00     0.031 C 
ATOM     39  C   UNL A   1      45.205  31.032  29.107  1.00  0.00     0.037 A 
BRANCH  26  40
ATOM     40  C   UNL A   1      49.160  26.524  27.591  1.00  0.00     0.064 A 
ATOM     41  C   UNL A   1      49.746  26.390  26.322  1.00  0.00     0.173 A 
ATOM     42  C   UNL A   1      49.971  26.284  28.711  1.00  0.00     0.173 A 
ATOM     43  F   UNL A   1      49.019  26.600  25.215  1.00  0.00    -0.203 F 
ATOM     44  C   UNL A   1      51.077  25.998  26.184  1.00  0.00     0.198 A 
ATOM     45  C   UNL A   1      51.310  25.927  28.570  1.00  0.00     0.198 A 
ATOM     46  F   UNL A   1      49.469  26.407  29.949  1.00  0.00    -0.203 F 
ATOM     47  F   UNL A   1      51.598  25.823  24.962  1.00  0.00    -0.200 F 
ATOM     48  C   UNL A   1      51.859  25.774  27.307  1.00  0.00     0.200 A 
ATOM     49  F   UNL A   1      52.068  25.730  29.657  1.00  0.00    -0.200 F 
ATOM     50  F   UNL A   1      53.140  25.404  27.171  1.00  0.00    -0.200 F 
ENDBRANCH  26  40
BRANCH  27  51
ATOM     51  C   UNL A   1      39.547  28.874  29.031  1.00  0.00     0.064 A 
ATOM     52  C   UNL A   1      38.951  28.745  30.293  1.00  0.00     0.173 A 
ATOM     53  C   UNL A   1      38.751  29.353  27.979  1.00  0.00     0.173 A 
ATOM     54  F   UNL A   1      39.666  28.278  31.327  1.00  0.00    -0.203 F 
ATOM     55  C   UNL A   1      37.608  29.059  30.488  1.00  0.00     0.198 A 
ATOM     56  C   UNL A   1      37.419  29.701  28.184  1.00  0.00     0.198 A 
ATOM     57  F   UNL A   1      39.277  29.505  26.754  1.00  0.00    -0.203 F 
ATOM     58  F   UNL A   1      37.049  28.876  31.692  1.00  0.00    -0.200 F 
ATOM     59  C   UNL A   1      36.845  29.543  29.436  1.00  0.00     0.200 A 
ATOM     60  F   UNL A   1      36.693  30.190  27.170  1.00  0.00    -0.200 F 
ATOM     61  F   UNL A   1      35.555  29.850  29.627  1.00  0.00    -0.200 F 
ENDBRANCH  27  51
BRANCH  39  62
ATOM     62  C   UNL A   1      45.496  32.470  29.430  1.00  0.00     0.064 A 
ATOM     63  C   UNL A   1      45.488  33.470  28.446  1.00  0.00     0.173 A 
ATOM     64  C   UNL A   1      45.779  32.853  30.750  1.00  0.00     0.173 A 
ATOM     65  F   UNL A   1      45.240  33.155  27.165  1.00  0.00    -0.203 F 
ATOM     66  C   UNL A   1      45.790  34.792  28.764  1.00  0.00     0.198 A 
ATOM     67  C   UNL A   1      46.042  34.182  31.072  1.00  0.00     0.198 A 
ATOM     68  F   UNL A   1      45.796  31.940  31.732  1.00  0.00    -0.203 F 
ATOM     69  F   UNL A   1      45.843  35.716  27.796  1.00  0.00    -0.200 F 
ATOM     70  C   UNL A   1      46.060  35.147  30.077  1.00  0.00     0.200 A 
ATOM     71  F   UNL A   1      46.287  34.526  32.344  1.00  0.00    -0.200 F 
ATOM     72  F   UNL A   1      46.349  36.420  30.382  1.00  0.00    -0.200 F 
ENDBRANCH  39  62
ENDBRANCH  13  14
ENDBRANCH   6   8
ENDBRANCH   3   4
ENDBRANCH   2   3
ENDBRANCH   1   2
BRANCH   1  73
ATOM     73  C   UNL A   1      36.156  21.329  25.711  1.00  0.00     0.116 C 
BRANCH  73  74
ATOM     74  N   UNL A   1      34.916  20.631  25.401  1.00  0.00    -0.354 N 
ATOM     75  C   UNL A   1      33.721  21.120  24.953  1.00  0.00     0.242 C 
ATOM     76  H   UNL A   1      34.942  19.656  25.535  1.00  0.00     0.163 HD
ATOM     77  O   UNL A   1      32.764  20.346  24.867  1.00  0.00    -0.273 OA
BRANCH  75  78
ATOM     78  C   UNL A   1      33.591  22.604  24.594  1.00  0.00     0.177 C 
ATOM     79  C   UNL A   1      34.172  22.900  23.216  1.00  0.00     0.069 C 
ATOM     80  N   UNL A   1      32.196  23.039  24.515  1.00  0.00    -0.327 N 
ATOM     81  C   UNL A   1      32.977  22.841  22.270  1.00  0.00     0.136 C 
ATOM     82  C   UNL A   1      31.768  23.200  23.135  1.00  0.00     0.152 C 
BRANCH  80  83
ATOM     83  C   UNL A   1      31.503  23.359  25.662  1.00  0.00     0.233 C 
ATOM     84  O   UNL A   1      30.806  22.516  26.230  1.00  0.00    -0.274 OA
BRANCH  83  85
ATOM     85  C   UNL A   1      31.713  24.726  26.292  1.00  0.00     0.169 C 
BRANCH  85  86
ATOM     86  S   UNL A   1      30.399  25.896  25.728  1.00  0.00    -0.148 SA
BRANCH  86  87
ATOM     87  C   UNL A   1      31.211  26.623  24.273  1.00  0.00     0.063 C 
ATOM     88  C   UNL A   1      30.741  28.052  23.970  1.00  0.00     0.031 C 
ATOM     89  C   UNL A   1      32.719  26.779  24.407  1.00  0.00     0.151 C 
ATOM     90  C   UNL A   1      31.610  28.543  22.800  1.00  0.00     0.138 C 
ATOM     91  S   UNL A   1      33.139  27.616  22.903  1.00  0.00     0.151 S 
ATOM     92  O   UNL A   1      33.163  26.610  21.856  1.00  0.00    -0.229 OA
ATOM     93  O   UNL A   1      34.256  28.501  23.152  1.00  0.00    -0.229 OA
ENDBRANCH  86  87
ENDBRANCH  85  86
ENDBRANCH  83  85
ENDBRANCH  80  83
BRANCH  81  94
ATOM     94  O   UNL A   1      33.147  23.763  21.200  1.00  0.00    -0.391 OA
ATOM     95  H   UNL A   1      33.347  24.641  21.559  1.00  0.00     0.211 HD
ENDBRANCH  81  94
ENDBRANCH  75  78
ENDBRANCH  73  74
ENDBRANCH   1  73
TORSDOF 16
ENDMDL
MODEL 2
REMARK VINA RESULT:     -11.7      5.314     10.643
REMARK SMILES O=C(NCCCCNC(=O)[C@H]1C[C@H](O)CN1C(=O)CS[C@H]1CCS(=O)(=O)C1)c1ccc(-c2c3nc(c(-c4c(F)c(F)c(F)c(F)c4F)c4ccc([nH]4)c(-c4c(F)c(F)c(F)c(F)c4F)c4nc(c(-c5c(F)c(F)c(F)c(F)c5F)c5ccc2[nH]5)C=C4)C=C3)cc1
REMARK SMILES IDX 6 1 5 2 4 3 3 4 1 5 2 6 28 8 29 9 90 10 30 11 89 12 31 13
REMARK SMILES IDX 32 14 33 15 83 16 34 17 88 18 82 19 84 20 35 21 87 22 81 23
REMARK SMILES IDX 80 24 36 26 68 27 48 28 67 29 49 30 52 31 66 32 85 33 50 34
REMARK SMILES IDX 51 35 65 37 86 38 53 39 37 40 38 41 46 42 39 43 40 44 44 45
REMARK SMILES IDX 47 46 41 47 42 48 45 49 43 50 69 51 70 52 78 53 71 54 72 55
REMARK SMILES IDX 76 56 79 57 73 58 74 59 77 60 75 61 54 62 55 63 63 64 56 65
REMARK SMILES IDX 57 66 61 67 64 68 58 69 59 70 62 71 60 72 7 73 8 74 9 75
REMARK SMILES IDX 10 77 11 78 12 79 16 80 13 81 15 82 17 83 18 84 19 85 20 86
REMARK SMILES IDX 21 87 22 88 27 89 23 90 24 91 25 92 26 93 14 94
REMARK H PARENT 3 7 84 25 52 36 8 76 14 95
REMARK Flexibility Score: inf
ROOT
ATOM      1  C   UNL A   1      31.820  30.419  26.674  1.00  0.00     0.023 C 
ENDROOT
BRANCH   1   2
ATOM      2  C   UNL A   1      31.584  31.923  26.714  1.00  0.00     0.023 C 
BRANCH   2   3
ATOM      3  C   UNL A   1      32.786  32.730  27.168  1.00  0.00     0.116 C 
BRANCH   3   4
ATOM      4  N   UNL A   1      32.443  34.092  27.557  1.00  0.00    -0.352 N 
ATOM      5  O   UNL A   1      32.480  35.943  28.858  1.00  0.00    -0.269 OA
ATOM      6  C   UNL A   1      32.978  34.862  28.564  1.00  0.00     0.251 C 
ATOM      7  H   UNL A   1      31.732  34.519  27.027  1.00  0.00     0.163 HD
BRANCH   6   8
ATOM      8  C   UNL A   1      34.143  34.350  29.315  1.00  0.00     0.039 A 
ATOM      9  C   UNL A   1      35.435  34.600  28.855  1.00  0.00     0.014 A 
ATOM     10  C   UNL A   1      33.939  33.561  30.449  1.00  0.00     0.014 A 
ATOM     11  C   UNL A   1      36.500  33.898  29.394  1.00  0.00     0.010 A 
ATOM     12  C   UNL A   1      35.033  32.957  31.074  1.00  0.00     0.010 A 
ATOM     13  C   UNL A   1      36.318  33.083  30.524  1.00  0.00    -0.014 A 
BRANCH  13  14
ATOM     14  C   UNL A   1      37.506  32.431  31.134  1.00  0.00     0.031 A 
ATOM     15  C   UNL A   1      37.970  32.780  32.522  1.00  0.00     0.074 A 
ATOM     16  C   UNL A   1      38.141  31.475  30.429  1.00  0.00     0.049 A 
ATOM     17  N   UNL A   1      38.964  32.274  33.209  1.00  0.00    -0.248 NA
ATOM     18  C   UNL A   1      37.236  33.841  33.226  1.00  0.00     0.031 C 
ATOM     19  C   UNL A   1      37.783  31.056  29.072  1.00  0.00     0.029 A 
ATOM     20  N   UNL A   1      39.195  30.664  30.758  1.00  0.00    -0.354 N 
ATOM     21  C   UNL A   1      38.991  32.969  34.413  1.00  0.00     0.074 A 
ATOM     22  C   UNL A   1      37.931  33.953  34.350  1.00  0.00     0.031 C 
ATOM     23  C   UNL A   1      38.555  30.023  28.710  1.00  0.00     0.029 A 
ATOM     24  C   UNL A   1      39.517  29.763  29.773  1.00  0.00     0.049 A 
ATOM     25  H   UNL A   1      39.675  30.721  31.615  1.00  0.00     0.167 HD
ATOM     26  C   UNL A   1      39.821  32.795  35.470  1.00  0.00     0.037 A 
ATOM     27  C   UNL A   1      40.493  28.840  29.718  1.00  0.00     0.037 A 
ATOM     28  C   UNL A   1      40.865  31.801  35.524  1.00  0.00     0.049 A 
ATOM     29  C   UNL A   1      41.422  28.700  30.890  1.00  0.00     0.074 A 
ATOM     30  C   UNL A   1      41.730  31.513  36.567  1.00  0.00     0.029 A 
ATOM     31  N   UNL A   1      41.195  30.939  34.487  1.00  0.00    -0.354 N 
ATOM     32  N   UNL A   1      41.409  29.331  32.038  1.00  0.00    -0.248 NA
ATOM     33  C   UNL A   1      42.503  27.717  30.754  1.00  0.00     0.031 C 
ATOM     34  C   UNL A   1      42.627  30.529  36.135  1.00  0.00     0.029 A 
ATOM     35  C   UNL A   1      42.274  30.146  34.852  1.00  0.00     0.049 A 
ATOM     36  H   UNL A   1      40.732  30.897  33.620  1.00  0.00     0.167 HD
ATOM     37  C   UNL A   1      42.459  28.803  32.773  1.00  0.00     0.074 A 
ATOM     38  C   UNL A   1      43.074  27.784  31.947  1.00  0.00     0.031 C 
ATOM     39  C   UNL A   1      42.876  29.132  34.022  1.00  0.00     0.037 A 
BRANCH  26  40
ATOM     40  C   UNL A   1      39.662  33.720  36.646  1.00  0.00     0.064 A 
ATOM     41  C   UNL A   1      40.275  34.982  36.691  1.00  0.00     0.173 A 
ATOM     42  C   UNL A   1      38.853  33.351  37.732  1.00  0.00     0.173 A 
ATOM     43  F   UNL A   1      41.064  35.387  35.684  1.00  0.00    -0.203 F 
ATOM     44  C   UNL A   1      40.112  35.821  37.792  1.00  0.00     0.198 A 
ATOM     45  C   UNL A   1      38.664  34.207  38.815  1.00  0.00     0.198 A 
ATOM     46  F   UNL A   1      38.233  32.162  37.741  1.00  0.00    -0.203 F 
ATOM     47  F   UNL A   1      40.752  36.998  37.835  1.00  0.00    -0.200 F 
ATOM     48  C   UNL A   1      39.302  35.436  38.849  1.00  0.00     0.200 A 
ATOM     49  F   UNL A   1      37.865  33.840  39.826  1.00  0.00    -0.200 F 
ATOM     50  F   UNL A   1      39.142  36.248  39.903  1.00  0.00    -0.200 F 
ENDBRANCH  26  40
BRANCH  27  51
ATOM     51  C   UNL A   1      40.637  27.982  28.515  1.00  0.00     0.064 A 
ATOM     52  C   UNL A   1      41.415  28.395  27.425  1.00  0.00     0.173 A 
ATOM     53  C   UNL A   1      40.006  26.731  28.429  1.00  0.00     0.173 A 
ATOM     54  F   UNL A   1      42.025  29.589  27.452  1.00  0.00    -0.203 F 
ATOM     55  C   UNL A   1      41.537  27.601  26.287  1.00  0.00     0.198 A 
ATOM     56  C   UNL A   1      40.159  25.922  27.306  1.00  0.00     0.198 A 
ATOM     57  F   UNL A   1      39.258  26.284  29.449  1.00  0.00    -0.203 F 
ATOM     58  F   UNL A   1      42.244  28.043  25.238  1.00  0.00    -0.200 F 
ATOM     59  C   UNL A   1      40.915  26.363  26.231  1.00  0.00     0.200 A 
ATOM     60  F   UNL A   1      39.575  24.717  27.267  1.00  0.00    -0.200 F 
ATOM     61  F   UNL A   1      41.038  25.598  25.138  1.00  0.00    -0.200 F 
ENDBRANCH  27  51
BRANCH  39  62
ATOM     62  C   UNL A   1      44.024  28.344  34.586  1.00  0.00     0.064 A 
ATOM     63  C   UNL A   1      45.355  28.768  34.451  1.00  0.00     0.173 A 
ATOM     64  C   UNL A   1      43.785  27.149  35.283  1.00  0.00     0.173 A 
ATOM     65  F   UNL A   1      45.640  29.894  33.780  1.00  0.00    -0.203 F 
ATOM     66  C   UNL A   1      46.405  28.005  34.957  1.00  0.00     0.198 A 
ATOM     67  C   UNL A   1      44.834  26.409  35.822  1.00  0.00     0.198 A 
ATOM     68  F   UNL A   1      42.533  26.700  35.446  1.00  0.00    -0.203 F 
ATOM     69  F   UNL A   1      47.671  28.396  34.756  1.00  0.00    -0.200 F 
ATOM     70  C   UNL A   1      46.143  26.831  35.647  1.00  0.00     0.200 A 
ATOM     71  F   UNL A   1      44.579  25.284  36.502  1.00  0.00    -0.200 F 
ATOM     72  F   UNL A   1      47.155  26.100  36.135  1.00  0.00    -0.200 F 
ENDBRANCH  39  62
ENDBRANCH  13  14
ENDBRANCH   6   8
ENDBRANCH   3   4
ENDBRANCH   2   3
ENDBRANCH   1   2
BRANCH   1  73
ATOM     73  C   UNL A   1      31.453  29.751  25.350  1.00  0.00     0.116 C 
BRANCH  73  74
ATOM     74  N   UNL A   1      32.563  29.731  24.407  1.00  0.00    -0.354 N 
ATOM     75  C   UNL A   1      33.062  28.701  23.661  1.00  0.00     0.242 C 
ATOM     76  H   UNL A   1      33.025  30.592  24.290  1.00  0.00     0.163 HD
ATOM     77  O   UNL A   1      34.093  28.893  23.010  1.00  0.00    -0.273 OA
BRANCH  75  78
ATOM     78  C   UNL A   1      32.357  27.341  23.668  1.00  0.00     0.177 C 
ATOM     79  C   UNL A   1      31.836  26.974  22.282  1.00  0.00     0.069 C 
ATOM     80  N   UNL A   1      33.256  26.246  24.033  1.00  0.00    -0.327 N 
ATOM     81  C   UNL A   1      32.931  26.104  21.674  1.00  0.00     0.136 C 
ATOM     82  C   UNL A   1      33.637  25.462  22.869  1.00  0.00     0.152 C 
BRANCH  80  83
ATOM     83  C   UNL A   1      33.539  25.993  25.358  1.00  0.00     0.233 C 
ATOM     84  O   UNL A   1      33.845  26.911  26.120  1.00  0.00    -0.274 OA
BRANCH  83  85
ATOM     85  C   UNL A   1      33.339  24.587  25.897  1.00  0.00     0.169 C 
BRANCH  85  86
ATOM     86  S   UNL A   1      31.583  24.059  25.663  1.00  0.00    -0.148 SA
BRANCH  86  87
ATOM     87  C   UNL A   1      31.829  22.361  25.062  1.00  0.00     0.063 C 
ATOM     88  C   UNL A   1      32.089  22.286  23.551  1.00  0.00     0.031 C 
ATOM     89  C   UNL A   1      33.041  21.654  25.653  1.00  0.00     0.151 C 
ATOM     90  C   UNL A   1      32.392  20.810  23.246  1.00  0.00     0.138 C 
ATOM     91  S   UNL A   1      33.042  20.121  24.766  1.00  0.00     0.151 S 
ATOM     92  O   UNL A   1      32.034  19.278  25.383  1.00  0.00    -0.229 OA
ATOM     93  O   UNL A   1      34.410  19.684  24.583  1.00  0.00    -0.229 OA
ENDBRANCH  86  87
ENDBRANCH  85  86
ENDBRANCH  83  85
ENDBRANCH  80  83
BRANCH  81  94
ATOM     94  O   UNL A   1      32.362  25.123  20.815  1.00  0.00    -0.391 OA
ATOM     95  H   UNL A   1      31.737  24.576  21.316  1.00  0.00     0.211 HD
ENDBRANCH  81  94
ENDBRANCH  75  78
ENDBRANCH  73  74
ENDBRANCH   1  73
TORSDOF 16
ENDMDL
MODEL 3
REMARK VINA RESULT:     -11.7      5.405     10.648
REMARK SMILES O=C(NCCCCNC(=O)[C@H]1C[C@H](O)CN1C(=O)CS[C@H]1CCS(=O)(=O)C1)c1ccc(-c2c3nc(c(-c4c(F)c(F)c(F)c(F)c4F)c4ccc([nH]4)c(-c4c(F)c(F)c(F)c(F)c4F)c4nc(c(-c5c(F)c(F)c(F)c(F)c5F)c5ccc2[nH]5)C=C4)C=C3)cc1
REMARK SMILES IDX 6 1 5 2 4 3 3 4 1 5 2 6 28 8 29 9 90 10 30 11 89 12 31 13
REMARK SMILES IDX 32 14 33 15 83 16 34 17 88 18 82 19 84 20 35 21 87 22 81 23
REMARK SMILES IDX 80 24 36 26 68 27 48 28 67 29 49 30 52 31 66 32 85 33 50 34
REMARK SMILES IDX 51 35 65 37 86 38 53 39 37 40 38 41 46 42 39 43 40 44 44 45
REMARK SMILES IDX 47 46 41 47 42 48 45 49 43 50 69 51 70 52 78 53 71 54 72 55
REMARK SMILES IDX 76 56 79 57 73 58 74 59 77 60 75 61 54 62 55 63 63 64 56 65
REMARK SMILES IDX 57 66 61 67 64 68 58 69 59 70 62 71 60 72 7 73 8 74 9 75
REMARK SMILES IDX 10 77 11 78 12 79 16 80 13 81 15 82 17 83 18 84 19 85 20 86
REMARK SMILES IDX 21 87 22 88 27 89 23 90 24 91 25 92 26 93 14 94
REMARK H PARENT 3 7 84 25 52 36 8 76 14 95
REMARK Flexibility Score: inf
ROOT
ATOM      1  C   UNL A   1      31.593  30.676  26.623  1.00  0.00     0.023 C 
ENDROOT
BRANCH   1   2
ATOM      2  C   UNL A   1      31.472  32.192  26.690  1.00  0.00     0.023 C 
BRANCH   2   3
ATOM      3  C   UNL A   1      32.650  32.883  27.350  1.00  0.00     0.116 C 
BRANCH   3   4
ATOM      4  N   UNL A   1      32.385  34.279  27.671  1.00  0.00    -0.352 N 
ATOM      5  O   UNL A   1      32.553  36.195  28.864  1.00  0.00    -0.269 OA
ATOM      6  C   UNL A   1      32.989  35.077  28.616  1.00  0.00     0.251 C 
ATOM      7  H   UNL A   1      31.677  34.710  27.141  1.00  0.00     0.163 HD
BRANCH   6   8
ATOM      8  C   UNL A   1      34.154  34.551  29.357  1.00  0.00     0.039 A 
ATOM      9  C   UNL A   1      35.433  34.647  28.808  1.00  0.00     0.014 A 
ATOM     10  C   UNL A   1      33.958  33.900  30.577  1.00  0.00     0.014 A 
ATOM     11  C   UNL A   1      36.471  33.919  29.365  1.00  0.00     0.010 A 
ATOM     12  C   UNL A   1      35.039  33.277  31.207  1.00  0.00     0.010 A 
ATOM     13  C   UNL A   1      36.295  33.241  30.583  1.00  0.00    -0.014 A 
BRANCH  13  14
ATOM     14  C   UNL A   1      37.464  32.560  31.199  1.00  0.00     0.031 A 
ATOM     15  C   UNL A   1      37.939  32.909  32.582  1.00  0.00     0.074 A 
ATOM     16  C   UNL A   1      38.070  31.579  30.502  1.00  0.00     0.049 A 
ATOM     17  N   UNL A   1      38.918  32.380  33.274  1.00  0.00    -0.248 NA
ATOM     18  C   UNL A   1      37.236  33.997  33.277  1.00  0.00     0.031 C 
ATOM     19  C   UNL A   1      37.699  31.159  29.148  1.00  0.00     0.029 A 
ATOM     20  N   UNL A   1      39.101  30.742  30.837  1.00  0.00    -0.354 N 
ATOM     21  C   UNL A   1      38.966  33.084  34.471  1.00  0.00     0.074 A 
ATOM     22  C   UNL A   1      37.935  34.098  34.400  1.00  0.00     0.031 C 
ATOM     23  C   UNL A   1      38.440  30.101  28.796  1.00  0.00     0.029 A 
ATOM     24  C   UNL A   1      39.396  29.823  29.860  1.00  0.00     0.049 A 
ATOM     25  H   UNL A   1      39.583  30.793  31.694  1.00  0.00     0.167 HD
ATOM     26  C   UNL A   1      39.791  32.896  35.530  1.00  0.00     0.037 A 
ATOM     27  C   UNL A   1      40.344  28.871  29.814  1.00  0.00     0.037 A 
ATOM     28  C   UNL A   1      40.807  31.873  35.592  1.00  0.00     0.049 A 
ATOM     29  C   UNL A   1      41.269  28.715  30.986  1.00  0.00     0.074 A 
ATOM     30  C   UNL A   1      41.664  31.570  36.637  1.00  0.00     0.029 A 
ATOM     31  N   UNL A   1      41.111  30.992  34.562  1.00  0.00    -0.354 N 
ATOM     32  N   UNL A   1      41.276  29.357  32.128  1.00  0.00    -0.248 NA
ATOM     33  C   UNL A   1      42.321  27.700  30.858  1.00  0.00     0.031 C 
ATOM     34  C   UNL A   1      42.531  30.556  36.214  1.00  0.00     0.029 A 
ATOM     35  C   UNL A   1      42.166  30.172  34.934  1.00  0.00     0.049 A 
ATOM     36  H   UNL A   1      40.645  30.955  33.696  1.00  0.00     0.167 HD
ATOM     37  C   UNL A   1      42.311  28.805  32.868  1.00  0.00     0.074 A 
ATOM     38  C   UNL A   1      42.895  27.761  32.051  1.00  0.00     0.031 C 
ATOM     39  C   UNL A   1      42.738  29.133  34.113  1.00  0.00     0.037 A 
BRANCH  26  40
ATOM     40  C   UNL A   1      39.661  33.836  36.697  1.00  0.00     0.064 A 
ATOM     41  C   UNL A   1      38.879  33.527  37.821  1.00  0.00     0.173 A 
ATOM     42  C   UNL A   1      40.360  35.053  36.706  1.00  0.00     0.173 A 
ATOM     43  F   UNL A   1      38.184  32.381  37.867  1.00  0.00    -0.203 F 
ATOM     44  C   UNL A   1      38.775  34.415  38.890  1.00  0.00     0.198 A 
ATOM     45  C   UNL A   1      40.282  35.923  37.792  1.00  0.00     0.198 A 
ATOM     46  F   UNL A   1      41.132  35.399  35.665  1.00  0.00    -0.203 F 
ATOM     47  F   UNL A   1      37.978  34.122  39.927  1.00  0.00    -0.200 F 
ATOM     48  C   UNL A   1      39.481  35.608  38.878  1.00  0.00     0.200 A 
ATOM     49  F   UNL A   1      40.981  37.066  37.785  1.00  0.00    -0.200 F 
ATOM     50  F   UNL A   1      39.384  36.457  39.910  1.00  0.00    -0.200 F 
ENDBRANCH  26  40
BRANCH  27  51
ATOM     51  C   UNL A   1      40.462  27.998  28.618  1.00  0.00     0.064 A 
ATOM     52  C   UNL A   1      39.794  26.768  28.556  1.00  0.00     0.173 A 
ATOM     53  C   UNL A   1      41.238  28.376  27.510  1.00  0.00     0.173 A 
ATOM     54  F   UNL A   1      39.052  26.356  29.595  1.00  0.00    -0.203 F 
ATOM     55  C   UNL A   1      39.917  25.938  27.444  1.00  0.00     0.198 A 
ATOM     56  C   UNL A   1      41.329  27.562  26.385  1.00  0.00     0.198 A 
ATOM     57  F   UNL A   1      41.888  29.549  27.515  1.00  0.00    -0.203 F 
ATOM     58  F   UNL A   1      39.310  24.743  27.434  1.00  0.00    -0.200 F 
ATOM     59  C   UNL A   1      40.678  26.339  26.357  1.00  0.00     0.200 A 
ATOM     60  F   UNL A   1      42.048  27.964  25.328  1.00  0.00    -0.200 F 
ATOM     61  F   UNL A   1      40.791  25.543  25.285  1.00  0.00    -0.200 F 
ENDBRANCH  27  51
BRANCH  39  62
ATOM     62  C   UNL A   1      43.863  28.317  34.685  1.00  0.00     0.064 A 
ATOM     63  C   UNL A   1      45.207  28.686  34.520  1.00  0.00     0.173 A 
ATOM     64  C   UNL A   1      43.589  27.152  35.417  1.00  0.00     0.173 A 
ATOM     65  F   UNL A   1      45.525  29.782  33.814  1.00  0.00    -0.203 F 
ATOM     66  C   UNL A   1      46.234  27.897  35.033  1.00  0.00     0.198 A 
ATOM     67  C   UNL A   1      44.617  26.387  35.962  1.00  0.00     0.198 A 
ATOM     68  F   UNL A   1      42.322  26.756  35.610  1.00  0.00    -0.203 F 
ATOM     69  F   UNL A   1      47.511  28.233  34.804  1.00  0.00    -0.200 F 
ATOM     70  C   UNL A   1      45.938  26.754  35.759  1.00  0.00     0.200 A 
ATOM     71  F   UNL A   1      44.328  25.292  36.677  1.00  0.00    -0.200 F 
ATOM     72  F   UNL A   1      46.928  25.998  36.254  1.00  0.00    -0.200 F 
ENDBRANCH  39  62
ENDBRANCH  13  14
ENDBRANCH   6   8
ENDBRANCH   3   4
ENDBRANCH   2   3
ENDBRANCH   1   2
BRANCH   1  73
ATOM     73  C   UNL A   1      31.512  30.091  25.213  1.00  0.00     0.116 C 
BRANCH  73  74
ATOM     74  N   UNL A   1      32.724  29.379  24.832  1.00  0.00    -0.354 N 
ATOM     75  C   UNL A   1      32.874  28.164  24.225  1.00  0.00     0.242 C 
ATOM     76  H   UNL A   1      33.565  29.845  25.045  1.00  0.00     0.163 HD
ATOM     77  O   UNL A   1      34.014  27.706  24.103  1.00  0.00    -0.273 OA
BRANCH  75  78
ATOM     78  C   UNL A   1      31.641  27.396  23.739  1.00  0.00     0.177 C 
ATOM     79  C   UNL A   1      31.443  27.553  22.235  1.00  0.00     0.069 C 
ATOM     80  N   UNL A   1      31.761  25.953  23.953  1.00  0.00    -0.327 N 
ATOM     81  C   UNL A   1      32.116  26.328  21.624  1.00  0.00     0.136 C 
ATOM     82  C   UNL A   1      32.047  25.255  22.711  1.00  0.00     0.152 C 
BRANCH  80  83
ATOM     83  C   UNL A   1      31.486  25.411  25.190  1.00  0.00     0.233 C 
ATOM     84  O   UNL A   1      30.324  25.186  25.532  1.00  0.00    -0.274 OA
BRANCH  83  85
ATOM     85  C   UNL A   1      32.641  24.972  26.074  1.00  0.00     0.169 C 
BRANCH  85  86
ATOM     86  S   UNL A   1      32.726  23.127  26.141  1.00  0.00    -0.148 SA
BRANCH  86  87
ATOM     87  C   UNL A   1      34.451  22.861  25.633  1.00  0.00     0.063 C 
ATOM     88  C   UNL A   1      34.770  21.391  25.324  1.00  0.00     0.031 C 
ATOM     89  C   UNL A   1      34.846  23.574  24.348  1.00  0.00     0.151 C 
ATOM     90  C   UNL A   1      36.216  21.374  24.801  1.00  0.00     0.138 C 
ATOM     91  S   UNL A   1      36.502  22.996  24.099  1.00  0.00     0.151 S 
ATOM     92  O   UNL A   1      37.353  23.763  24.990  1.00  0.00    -0.229 OA
ATOM     93  O   UNL A   1      36.758  22.898  22.678  1.00  0.00    -0.229 OA
ENDBRANCH  86  87
ENDBRANCH  85  86
ENDBRANCH  83  85
ENDBRANCH  80  83
BRANCH  81  94
ATOM     94  O   UNL A   1      31.430  25.924  20.445  1.00  0.00    -0.391 OA
ATOM     95  H   UNL A   1      31.049  25.043  20.579  1.00  0.00     0.211 HD
ENDBRANCH  81  94
ENDBRANCH  75  78
ENDBRANCH  73  74
ENDBRANCH   1  73
TORSDOF 16
ENDMDL
