MODEL 1
REMARK VINA RESULT:     -14.1      0.000      0.000
REMARK SMILES CS(=O)(=O)c1ccc(C(=O)N2C[C@@H](C(=O)NCCCCNC(=O)c3ccc(-c4c5nc(c(-c6c(F)c(F)c(F)c(F)c6F)c6ccc([nH]6)c(-c6c(F)c(F)c(F)c(F)c6F)c6nc(c(-c7c(F)c(F)c(F)c(F)c7F)c7ccc4[nH]7)C=C6)C=C5)cc3)[C@H](c3ccncc3)C2)cc1
REMARK SMILES IDX 18 1 17 2 16 3 14 4 15 5 13 7 11 8 12 9 94 10 87 11 9 12
REMARK SMILES IDX 10 13 8 14 5 15 6 16 96 17 7 18 95 19 2 20 1 21 3 22 4 23
REMARK SMILES IDX 88 24 89 25 93 26 90 27 92 28 91 29 19 30 20 31 21 32 22 33
REMARK SMILES IDX 23 35 24 36 25 37 86 38 26 39 85 40 27 41 28 42 29 43 79 44
REMARK SMILES IDX 30 45 84 46 78 47 80 48 31 49 83 50 77 51 76 52 32 54 64 55
REMARK SMILES IDX 44 56 63 57 45 58 48 59 62 60 81 61 46 62 47 63 61 65 82 66
REMARK SMILES IDX 49 67 33 68 34 69 42 70 35 71 36 72 40 73 43 74 37 75 38 76
REMARK SMILES IDX 41 77 39 78 65 79 66 80 74 81 67 82 68 83 72 84 75 85 69 86
REMARK SMILES IDX 70 87 73 88 71 89 50 90 51 91 59 92 52 93 53 94 57 95 60 96
REMARK SMILES IDX 54 97 55 98 58 99 56 100
REMARK H PARENT 16 6 21 34 80 53 48 64
REMARK Flexibility Score: inf
ROOT
ATOM      1  C   UNL A   1      31.492  30.685  26.438  1.00  0.00     0.023 C 
ENDROOT
BRANCH   1   2
ATOM      2  C   UNL A   1      32.890  30.094  26.285  1.00  0.00     0.116 C 
BRANCH   2   3
ATOM      3  N   UNL A   1      33.256  29.920  24.891  1.00  0.00    -0.356 N 
ATOM      4  C   UNL A   1      32.797  29.024  23.971  1.00  0.00     0.225 C 
ATOM      5  O   UNL A   1      33.227  29.096  22.821  1.00  0.00    -0.275 OA
ATOM      6  H   UNL A   1      33.943  30.544  24.559  1.00  0.00     0.163 HD
BRANCH   4   7
ATOM      7  C   UNL A   1      31.806  27.969  24.395  1.00  0.00     0.107 C 
ATOM      8  N   UNL A   1      31.480  25.716  24.689  1.00  0.00    -0.337 N 
ATOM      9  C   UNL A   1      32.546  26.691  24.741  1.00  0.00     0.134 C 
ATOM     10  C   UNL A   1      30.594  26.025  23.575  1.00  0.00     0.129 C 
ATOM     11  C   UNL A   1      30.805  27.538  23.286  1.00  0.00     0.053 C 
BRANCH   8  12
ATOM     12  C   UNL A   1      31.217  24.637  25.511  1.00  0.00     0.253 C 
ATOM     13  O   UNL A   1      30.538  24.757  26.529  1.00  0.00    -0.269 OA
BRANCH  12  14
ATOM     14  C   UNL A   1      31.882  23.323  25.266  1.00  0.00     0.040 A 
ATOM     15  C   UNL A   1      32.716  20.667  24.908  1.00  0.00     0.067 A 
ATOM     16  C   UNL A   1      32.041  21.333  23.878  1.00  0.00     0.021 A 
ATOM     17  C   UNL A   1      33.001  21.324  26.104  1.00  0.00     0.021 A 
ATOM     18  C   UNL A   1      31.629  22.658  24.058  1.00  0.00     0.015 A 
ATOM     19  C   UNL A   1      32.558  22.637  26.287  1.00  0.00     0.015 A 
BRANCH  15  20
ATOM     20  S   UNL A   1      33.093  18.946  24.664  1.00  0.00     0.175 S 
ATOM     21  C   UNL A   1      32.447  18.481  23.081  1.00  0.00     0.163 C 
ATOM     22  O   UNL A   1      32.345  18.217  25.670  1.00  0.00    -0.224 OA
ATOM     23  O   UNL A   1      34.537  18.856  24.582  1.00  0.00    -0.224 OA
ENDBRANCH  15  20
ENDBRANCH  12  14
ENDBRANCH   8  12
BRANCH  11  24
ATOM     24  C   UNL A   1      29.590  28.463  23.298  1.00  0.00    -0.039 A 
ATOM     25  C   UNL A   1      28.306  27.892  23.283  1.00  0.00     0.024 A 
ATOM     26  C   UNL A   1      29.660  29.858  23.300  1.00  0.00     0.024 A 
ATOM     27  C   UNL A   1      27.188  28.711  23.217  1.00  0.00     0.111 A 
ATOM     28  C   UNL A   1      28.481  30.597  23.248  1.00  0.00     0.111 A 
ATOM     29  N   UNL A   1      27.249  30.054  23.189  1.00  0.00    -0.265 NA
ENDBRANCH  11  24
ENDBRANCH   4   7
ENDBRANCH   2   3
ENDBRANCH   1   2
BRANCH   1  30
ATOM     30  C   UNL A   1      31.444  32.210  26.551  1.00  0.00     0.023 C 
BRANCH  30  31
ATOM     31  C   UNL A   1      32.604  32.850  27.310  1.00  0.00     0.116 C 
BRANCH  31  32
ATOM     32  N   UNL A   1      32.364  34.243  27.647  1.00  0.00    -0.352 N 
ATOM     33  C   UNL A   1      32.990  35.041  28.575  1.00  0.00     0.251 C 
ATOM     34  H   UNL A   1      31.645  34.681  27.136  1.00  0.00     0.163 HD
ATOM     35  O   UNL A   1      32.550  36.163  28.808  1.00  0.00    -0.269 OA
BRANCH  33  36
ATOM     36  C   UNL A   1      34.167  34.541  29.318  1.00  0.00     0.039 A 
ATOM     37  C   UNL A   1      33.976  34.014  30.598  1.00  0.00     0.014 A 
ATOM     38  C   UNL A   1      35.449  34.585  28.764  1.00  0.00     0.014 A 
ATOM     39  C   UNL A   1      35.056  33.462  31.291  1.00  0.00     0.010 A 
ATOM     40  C   UNL A   1      36.513  33.975  29.426  1.00  0.00     0.010 A 
ATOM     41  C   UNL A   1      36.325  33.400  30.692  1.00  0.00    -0.014 A 
BRANCH  41  42
ATOM     42  C   UNL A   1      37.454  32.710  31.367  1.00  0.00     0.031 A 
ATOM     43  C   UNL A   1      38.150  31.555  30.706  1.00  0.00     0.074 A 
ATOM     44  C   UNL A   1      37.812  33.090  32.609  1.00  0.00     0.049 A 
ATOM     45  N   UNL A   1      39.125  30.806  31.161  1.00  0.00    -0.248 NA
ATOM     46  C   UNL A   1      37.673  31.170  29.369  1.00  0.00     0.031 C 
ATOM     47  C   UNL A   1      37.176  34.159  33.381  1.00  0.00     0.029 A 
ATOM     48  N   UNL A   1      38.791  32.614  33.445  1.00  0.00    -0.354 N 
ATOM     49  C   UNL A   1      39.369  29.861  30.174  1.00  0.00     0.074 A 
ATOM     50  C   UNL A   1      38.408  30.097  29.117  1.00  0.00     0.031 C 
ATOM     51  C   UNL A   1      37.796  34.274  34.567  1.00  0.00     0.029 A 
ATOM     52  C   UNL A   1      38.850  33.268  34.652  1.00  0.00     0.049 A 
ATOM     53  H   UNL A   1      39.394  31.876  33.203  1.00  0.00     0.167 HD
ATOM     54  C   UNL A   1      40.323  28.899  30.142  1.00  0.00     0.037 A 
ATOM     55  C   UNL A   1      39.661  33.078  35.708  1.00  0.00     0.037 A 
ATOM     56  C   UNL A   1      41.294  28.682  31.182  1.00  0.00     0.049 A 
ATOM     57  C   UNL A   1      40.717  32.008  35.642  1.00  0.00     0.074 A 
ATOM     58  C   UNL A   1      42.340  27.777  31.211  1.00  0.00     0.029 A 
ATOM     59  N   UNL A   1      41.333  29.376  32.383  1.00  0.00    -0.354 N 
ATOM     60  N   UNL A   1      40.986  31.171  34.671  1.00  0.00    -0.248 NA
ATOM     61  C   UNL A   1      41.586  31.864  36.819  1.00  0.00     0.031 C 
ATOM     62  C   UNL A   1      42.990  27.894  32.445  1.00  0.00     0.029 A 
ATOM     63  C   UNL A   1      42.375  28.904  33.168  1.00  0.00     0.049 A 
ATOM     64  H   UNL A   1      40.714  30.096  32.639  1.00  0.00     0.167 HD
ATOM     65  C   UNL A   1      42.067  30.416  35.108  1.00  0.00     0.074 A 
ATOM     66  C   UNL A   1      42.416  30.909  36.424  1.00  0.00     0.031 C 
ATOM     67  C   UNL A   1      42.709  29.403  34.476  1.00  0.00     0.037 A 
BRANCH  54  68
ATOM     68  C   UNL A   1      40.368  28.009  28.934  1.00  0.00     0.064 A 
ATOM     69  C   UNL A   1      41.131  28.344  27.805  1.00  0.00     0.173 A 
ATOM     70  C   UNL A   1      39.676  26.789  28.920  1.00  0.00     0.173 A 
ATOM     71  F   UNL A   1      41.802  29.505  27.763  1.00  0.00    -0.203 F 
ATOM     72  C   UNL A   1      41.178  27.503  26.696  1.00  0.00     0.198 A 
ATOM     73  C   UNL A   1      39.748  25.937  27.821  1.00  0.00     0.198 A 
ATOM     74  F   UNL A   1      38.937  26.419  29.976  1.00  0.00    -0.203 F 
ATOM     75  F   UNL A   1      41.877  27.865  25.612  1.00  0.00    -0.200 F 
ATOM     76  C   UNL A   1      40.492  26.297  26.708  1.00  0.00     0.200 A 
ATOM     77  F   UNL A   1      39.094  24.767  27.838  1.00  0.00    -0.200 F 
ATOM     78  F   UNL A   1      40.544  25.486  25.643  1.00  0.00    -0.200 F 
ENDBRANCH  54  68
BRANCH  55  79
ATOM     79  C   UNL A   1      39.527  33.938  36.911  1.00  0.00     0.064 A 
ATOM     80  C   UNL A   1      38.764  33.522  38.011  1.00  0.00     0.173 A 
ATOM     81  C   UNL A   1      40.155  35.190  36.987  1.00  0.00     0.173 A 
ATOM     82  F   UNL A   1      38.129  32.341  37.975  1.00  0.00    -0.203 F 
ATOM     83  C   UNL A   1      38.616  34.333  39.133  1.00  0.00     0.198 A 
ATOM     84  C   UNL A   1      40.028  35.990  38.122  1.00  0.00     0.198 A 
ATOM     85  F   UNL A   1      40.901  35.631  35.964  1.00  0.00    -0.203 F 
ATOM     86  F   UNL A   1      37.846  33.930  40.152  1.00  0.00    -0.200 F 
ATOM     87  C   UNL A   1      39.252  35.564  39.190  1.00  0.00     0.200 A 
ATOM     88  F   UNL A   1      40.656  37.172  38.178  1.00  0.00    -0.200 F 
ATOM     89  F   UNL A   1      39.114  36.343  40.271  1.00  0.00    -0.200 F 
ENDBRANCH  55  79
BRANCH  67  90
ATOM     90  C   UNL A   1      43.868  28.777  35.195  1.00  0.00     0.064 A 
ATOM     91  C   UNL A   1      43.689  27.706  36.083  1.00  0.00     0.173 A 
ATOM     92  C   UNL A   1      45.175  29.240  34.978  1.00  0.00     0.173 A 
ATOM     93  F   UNL A   1      42.458  27.238  36.337  1.00  0.00    -0.203 F 
ATOM     94  C   UNL A   1      44.773  27.140  36.748  1.00  0.00     0.198 A 
ATOM     95  C   UNL A   1      46.260  28.653  35.623  1.00  0.00     0.198 A 
ATOM     96  F   UNL A   1      45.400  30.258  34.134  1.00  0.00    -0.203 F 
ATOM     97  F   UNL A   1      44.573  26.152  37.632  1.00  0.00    -0.200 F 
ATOM     98  C   UNL A   1      46.057  27.610  36.514  1.00  0.00     0.200 A 
ATOM     99  F   UNL A   1      47.501  29.100  35.387  1.00  0.00    -0.200 F 
ATOM    100  F   UNL A   1      47.100  27.063  37.155  1.00  0.00    -0.200 F 
ENDBRANCH  67  90
ENDBRANCH  41  42
ENDBRANCH  33  36
ENDBRANCH  31  32
ENDBRANCH  30  31
ENDBRANCH   1  30
TORSDOF 15
ENDMDL
MODEL 2
REMARK VINA RESULT:     -14.1      0.519      7.131
REMARK SMILES CS(=O)(=O)c1ccc(C(=O)N2C[C@@H](C(=O)NCCCCNC(=O)c3ccc(-c4c5nc(c(-c6c(F)c(F)c(F)c(F)c6F)c6ccc([nH]6)c(-c6c(F)c(F)c(F)c(F)c6F)c6nc(c(-c7c(F)c(F)c(F)c(F)c7F)c7ccc4[nH]7)C=C6)C=C5)cc3)[C@H](c3ccncc3)C2)cc1
REMARK SMILES IDX 18 1 17 2 16 3 14 4 15 5 13 7 11 8 12 9 94 10 87 11 9 12
REMARK SMILES IDX 10 13 8 14 5 15 6 16 96 17 7 18 95 19 2 20 1 21 3 22 4 23
REMARK SMILES IDX 88 24 89 25 93 26 90 27 92 28 91 29 19 30 20 31 21 32 22 33
REMARK SMILES IDX 23 35 24 36 25 37 86 38 26 39 85 40 27 41 28 42 29 43 79 44
REMARK SMILES IDX 30 45 84 46 78 47 80 48 31 49 83 50 77 51 76 52 32 54 64 55
REMARK SMILES IDX 44 56 63 57 45 58 48 59 62 60 81 61 46 62 47 63 61 65 82 66
REMARK SMILES IDX 49 67 33 68 34 69 42 70 35 71 36 72 40 73 43 74 37 75 38 76
REMARK SMILES IDX 41 77 39 78 65 79 66 80 74 81 67 82 68 83 72 84 75 85 69 86
REMARK SMILES IDX 70 87 73 88 71 89 50 90 51 91 59 92 52 93 53 94 57 95 60 96
REMARK SMILES IDX 54 97 55 98 58 99 56 100
REMARK H PARENT 16 6 21 34 80 53 48 64
REMARK Flexibility Score: inf
ROOT
ATOM      1  C   UNL A   1      31.413  30.711  26.308  1.00  0.00     0.023 C 
ENDROOT
BRANCH   1   2
ATOM      2  C   UNL A   1      32.806  30.096  26.228  1.00  0.00     0.116 C 
BRANCH   2   3
ATOM      3  N   UNL A   1      33.227  29.881  24.855  1.00  0.00    -0.356 N 
ATOM      4  C   UNL A   1      32.798  28.963  23.942  1.00  0.00     0.225 C 
ATOM      5  O   UNL A   1      33.274  29.000  22.809  1.00  0.00    -0.275 OA
ATOM      6  H   UNL A   1      33.930  30.491  24.534  1.00  0.00     0.163 HD
BRANCH   4   7
ATOM      7  C   UNL A   1      31.783  27.926  24.355  1.00  0.00     0.107 C 
ATOM      8  N   UNL A   1      31.408  25.678  24.633  1.00  0.00    -0.337 N 
ATOM      9  C   UNL A   1      32.494  26.630  24.696  1.00  0.00     0.134 C 
ATOM     10  C   UNL A   1      30.535  26.013  23.517  1.00  0.00     0.129 C 
ATOM     11  C   UNL A   1      30.779  27.523  23.238  1.00  0.00     0.053 C 
BRANCH   8  12
ATOM     12  C   UNL A   1      31.120  24.600  25.447  1.00  0.00     0.253 C 
ATOM     13  O   UNL A   1      30.387  24.715  26.428  1.00  0.00    -0.269 OA
BRANCH  12  14
ATOM     14  C   UNL A   1      31.815  23.294  25.245  1.00  0.00     0.040 A 
ATOM     15  C   UNL A   1      32.700  20.651  24.919  1.00  0.00     0.067 A 
ATOM     16  C   UNL A   1      32.128  21.335  23.840  1.00  0.00     0.021 A 
ATOM     17  C   UNL A   1      32.856  21.284  26.151  1.00  0.00     0.021 A 
ATOM     18  C   UNL A   1      31.691  22.654  24.003  1.00  0.00     0.015 A 
ATOM     19  C   UNL A   1      32.388  22.591  26.315  1.00  0.00     0.015 A 
BRANCH  15  20
ATOM     20  S   UNL A   1      33.111  18.937  24.679  1.00  0.00     0.175 S 
ATOM     21  C   UNL A   1      32.440  18.444  23.116  1.00  0.00     0.163 C 
ATOM     22  O   UNL A   1      32.404  18.200  25.709  1.00  0.00    -0.224 OA
ATOM     23  O   UNL A   1      34.555  18.881  24.564  1.00  0.00    -0.224 OA
ENDBRANCH  15  20
ENDBRANCH  12  14
ENDBRANCH   8  12
BRANCH  11  24
ATOM     24  C   UNL A   1      29.583  28.473  23.251  1.00  0.00    -0.039 A 
ATOM     25  C   UNL A   1      28.287  27.929  23.234  1.00  0.00     0.024 A 
ATOM     26  C   UNL A   1      29.682  29.867  23.254  1.00  0.00     0.024 A 
ATOM     27  C   UNL A   1      27.186  28.771  23.169  1.00  0.00     0.111 A 
ATOM     28  C   UNL A   1      28.519  30.630  23.203  1.00  0.00     0.111 A 
ATOM     29  N   UNL A   1      27.276  30.113  23.142  1.00  0.00    -0.265 NA
ENDBRANCH  11  24
ENDBRANCH   4   7
ENDBRANCH   2   3
ENDBRANCH   1   2
BRANCH   1  30
ATOM     30  C   UNL A   1      31.386  32.229  26.496  1.00  0.00     0.023 C 
BRANCH  30  31
ATOM     31  C   UNL A   1      32.591  32.823  27.220  1.00  0.00     0.116 C 
BRANCH  31  32
ATOM     32  N   UNL A   1      32.393  34.208  27.615  1.00  0.00    -0.352 N 
ATOM     33  C   UNL A   1      33.051  34.952  28.564  1.00  0.00     0.251 C 
ATOM     34  H   UNL A   1      31.680  34.685  27.131  1.00  0.00     0.163 HD
ATOM     35  O   UNL A   1      32.645  36.075  28.847  1.00  0.00    -0.269 OA
BRANCH  33  36
ATOM     36  C   UNL A   1      34.224  34.392  29.272  1.00  0.00     0.039 A 
ATOM     37  C   UNL A   1      34.014  33.686  30.459  1.00  0.00     0.014 A 
ATOM     38  C   UNL A   1      35.520  34.555  28.774  1.00  0.00     0.014 A 
ATOM     39  C   UNL A   1      35.093  33.079  31.107  1.00  0.00     0.010 A 
ATOM     40  C   UNL A   1      36.585  33.894  29.382  1.00  0.00     0.010 A 
ATOM     41  C   UNL A   1      36.381  33.143  30.550  1.00  0.00    -0.014 A 
BRANCH  41  42
ATOM     42  C   UNL A   1      37.514  32.403  31.162  1.00  0.00     0.031 A 
ATOM     43  C   UNL A   1      38.008  32.757  32.535  1.00  0.00     0.074 A 
ATOM     44  C   UNL A   1      38.139  31.446  30.448  1.00  0.00     0.049 A 
ATOM     45  N   UNL A   1      39.009  32.249  33.211  1.00  0.00    -0.248 NA
ATOM     46  C   UNL A   1      37.303  33.842  33.234  1.00  0.00     0.031 C 
ATOM     47  C   UNL A   1      37.792  31.050  29.082  1.00  0.00     0.029 A 
ATOM     48  N   UNL A   1      39.203  30.640  30.767  1.00  0.00    -0.354 N 
ATOM     49  C   UNL A   1      39.059  32.957  34.404  1.00  0.00     0.074 A 
ATOM     50  C   UNL A   1      38.020  33.964  34.341  1.00  0.00     0.031 C 
ATOM     51  C   UNL A   1      38.611  30.060  28.690  1.00  0.00     0.029 A 
ATOM     52  C   UNL A   1      39.560  29.775  29.762  1.00  0.00     0.049 A 
ATOM     53  H   UNL A   1      39.666  30.678  31.634  1.00  0.00     0.167 HD
ATOM     54  C   UNL A   1      39.881  32.769  35.464  1.00  0.00     0.037 A 
ATOM     55  C   UNL A   1      40.541  28.856  29.709  1.00  0.00     0.037 A 
ATOM     56  C   UNL A   1      40.896  31.751  35.536  1.00  0.00     0.049 A 
ATOM     57  C   UNL A   1      41.434  28.663  30.904  1.00  0.00     0.074 A 
ATOM     58  C   UNL A   1      41.733  31.440  36.594  1.00  0.00     0.029 A 
ATOM     59  N   UNL A   1      41.217  30.882  34.504  1.00  0.00    -0.354 N 
ATOM     60  N   UNL A   1      41.421  29.288  32.055  1.00  0.00    -0.248 NA
ATOM     61  C   UNL A   1      42.472  27.628  30.793  1.00  0.00     0.031 C 
ATOM     62  C   UNL A   1      42.588  30.408  36.189  1.00  0.00     0.029 A 
ATOM     63  C   UNL A   1      42.254  30.047  34.894  1.00  0.00     0.049 A 
ATOM     64  H   UNL A   1      40.774  30.860  33.626  1.00  0.00     0.167 HD
ATOM     65  C   UNL A   1      42.432  28.711  32.813  1.00  0.00     0.074 A 
ATOM     66  C   UNL A   1      43.023  27.672  31.997  1.00  0.00     0.031 C 
ATOM     67  C   UNL A   1      42.835  29.018  34.071  1.00  0.00     0.037 A 
BRANCH  54  68
ATOM     68  C   UNL A   1      39.710  33.683  36.643  1.00  0.00     0.064 A 
ATOM     69  C   UNL A   1      40.354  34.927  36.706  1.00  0.00     0.173 A 
ATOM     70  C   UNL A   1      38.860  33.330  37.702  1.00  0.00     0.173 A 
ATOM     71  F   UNL A   1      41.187  35.307  35.724  1.00  0.00    -0.203 F 
ATOM     72  C   UNL A   1      40.176  35.773  37.798  1.00  0.00     0.198 A 
ATOM     73  C   UNL A   1      38.661  34.190  38.779  1.00  0.00     0.198 A 
ATOM     74  F   UNL A   1      38.215  32.154  37.689  1.00  0.00    -0.203 F 
ATOM     75  F   UNL A   1      40.838  36.937  37.857  1.00  0.00    -0.200 F 
ATOM     76  C   UNL A   1      39.325  35.407  38.830  1.00  0.00     0.200 A 
ATOM     77  F   UNL A   1      37.830  33.840  39.771  1.00  0.00    -0.200 F 
ATOM     78  F   UNL A   1      39.149  36.225  39.876  1.00  0.00    -0.200 F 
ENDBRANCH  54  68
BRANCH  55  79
ATOM     79  C   UNL A   1      40.716  28.026  28.489  1.00  0.00     0.064 A 
ATOM     80  C   UNL A   1      41.512  28.472  27.425  1.00  0.00     0.173 A 
ATOM     81  C   UNL A   1      40.092  26.777  28.361  1.00  0.00     0.173 A 
ATOM     82  F   UNL A   1      42.111  29.669  27.495  1.00  0.00    -0.203 F 
ATOM     83  C   UNL A   1      41.663  27.709  26.270  1.00  0.00     0.198 A 
ATOM     84  C   UNL A   1      40.265  26.002  27.215  1.00  0.00     0.198 A 
ATOM     85  F   UNL A   1      39.325  26.303  29.354  1.00  0.00    -0.203 F 
ATOM     86  F   UNL A   1      42.394  28.178  25.251  1.00  0.00    -0.200 F 
ATOM     87  C   UNL A   1      41.044  26.472  26.168  1.00  0.00     0.200 A 
ATOM     88  F   UNL A   1      39.677  24.802  27.127  1.00  0.00    -0.200 F 
ATOM     89  F   UNL A   1      41.191  25.736  25.058  1.00  0.00    -0.200 F 
ENDBRANCH  55  79
BRANCH  67  90
ATOM     90  C   UNL A   1      43.956  28.204  34.646  1.00  0.00     0.064 A 
ATOM     91  C   UNL A   1      45.292  28.616  34.539  1.00  0.00     0.173 A 
ATOM     92  C   UNL A   1      43.689  27.007  35.328  1.00  0.00     0.173 A 
ATOM     93  F   UNL A   1      45.600  29.744  33.881  1.00  0.00    -0.203 F 
ATOM     94  C   UNL A   1      46.323  27.847  35.071  1.00  0.00     0.198 A 
ATOM     95  C   UNL A   1      44.720  26.254  35.884  1.00  0.00     0.198 A 
ATOM     96  F   UNL A   1      42.428  26.572  35.462  1.00  0.00    -0.203 F 
ATOM     97  F   UNL A   1      47.597  28.234  34.912  1.00  0.00    -0.200 F 
ATOM     98  C   UNL A   1      46.036  26.670  35.747  1.00  0.00     0.200 A 
ATOM     99  F   UNL A   1      44.440  25.124  36.547  1.00  0.00    -0.200 F 
ATOM    100  F   UNL A   1      47.029  25.930  36.260  1.00  0.00    -0.200 F 
ENDBRANCH  67  90
ENDBRANCH  41  42
ENDBRANCH  33  36
ENDBRANCH  31  32
ENDBRANCH  30  31
ENDBRANCH   1  30
TORSDOF 15
ENDMDL
MODEL 3
REMARK VINA RESULT:     -14.0      0.406      1.943
REMARK SMILES CS(=O)(=O)c1ccc(C(=O)N2C[C@@H](C(=O)NCCCCNC(=O)c3ccc(-c4c5nc(c(-c6c(F)c(F)c(F)c(F)c6F)c6ccc([nH]6)c(-c6c(F)c(F)c(F)c(F)c6F)c6nc(c(-c7c(F)c(F)c(F)c(F)c7F)c7ccc4[nH]7)C=C6)C=C5)cc3)[C@H](c3ccncc3)C2)cc1
REMARK SMILES IDX 18 1 17 2 16 3 14 4 15 5 13 7 11 8 12 9 94 10 87 11 9 12
REMARK SMILES IDX 10 13 8 14 5 15 6 16 96 17 7 18 95 19 2 20 1 21 3 22 4 23
REMARK SMILES IDX 88 24 89 25 93 26 90 27 92 28 91 29 19 30 20 31 21 32 22 33
REMARK SMILES IDX 23 35 24 36 25 37 86 38 26 39 85 40 27 41 28 42 29 43 79 44
REMARK SMILES IDX 30 45 84 46 78 47 80 48 31 49 83 50 77 51 76 52 32 54 64 55
REMARK SMILES IDX 44 56 63 57 45 58 48 59 62 60 81 61 46 62 47 63 61 65 82 66
REMARK SMILES IDX 49 67 33 68 34 69 42 70 35 71 36 72 40 73 43 74 37 75 38 76
REMARK SMILES IDX 41 77 39 78 65 79 66 80 74 81 67 82 68 83 72 84 75 85 69 86
REMARK SMILES IDX 70 87 73 88 71 89 50 90 51 91 59 92 52 93 53 94 57 95 60 96
REMARK SMILES IDX 54 97 55 98 58 99 56 100
REMARK H PARENT 16 6 21 34 80 53 48 64
REMARK Flexibility Score: inf
ROOT
ATOM      1  C   UNL A   1      31.511  30.646  26.529  1.00  0.00     0.023 C 
ENDROOT
BRANCH   1   2
ATOM      2  C   UNL A   1      32.884  29.999  26.383  1.00  0.00     0.116 C 
BRANCH   2   3
ATOM      3  N   UNL A   1      33.269  29.850  24.991  1.00  0.00    -0.356 N 
ATOM      4  C   UNL A   1      32.802  28.991  24.040  1.00  0.00     0.225 C 
ATOM      5  O   UNL A   1      33.253  29.081  22.901  1.00  0.00    -0.275 OA
ATOM      6  H   UNL A   1      33.977  30.464  24.686  1.00  0.00     0.163 HD
BRANCH   4   7
ATOM      7  C   UNL A   1      31.776  27.952  24.422  1.00  0.00     0.107 C 
ATOM      8  N   UNL A   1      31.388  25.702  24.657  1.00  0.00    -0.337 N 
ATOM      9  C   UNL A   1      32.477  26.648  24.752  1.00  0.00     0.134 C 
ATOM     10  C   UNL A   1      30.533  26.058  23.535  1.00  0.00     0.129 C 
ATOM     11  C   UNL A   1      30.787  27.571  23.284  1.00  0.00     0.053 C 
BRANCH   8  12
ATOM     12  C   UNL A   1      31.083  24.612  25.449  1.00  0.00     0.253 C 
ATOM     13  O   UNL A   1      30.400  24.729  26.465  1.00  0.00    -0.269 OA
BRANCH  12  14
ATOM     14  C   UNL A   1      31.704  23.282  25.175  1.00  0.00     0.040 A 
ATOM     15  C   UNL A   1      32.435  20.623  24.655  1.00  0.00     0.067 A 
ATOM     16  C   UNL A   1      32.022  21.453  23.606  1.00  0.00     0.021 A 
ATOM     17  C   UNL A   1      32.510  21.117  25.956  1.00  0.00     0.021 A 
ATOM     18  C   UNL A   1      31.662  22.779  23.867  1.00  0.00     0.015 A 
ATOM     19  C   UNL A   1      32.118  22.434  26.214  1.00  0.00     0.015 A 
BRANCH  15  20
ATOM     20  S   UNL A   1      32.750  18.914  24.275  1.00  0.00     0.175 S 
ATOM     21  C   UNL A   1      34.483  18.630  24.508  1.00  0.00     0.163 C 
ATOM     22  O   UNL A   1      32.469  18.751  22.861  1.00  0.00    -0.224 OA
ATOM     23  O   UNL A   1      32.049  18.141  25.280  1.00  0.00    -0.224 OA
ENDBRANCH  15  20
ENDBRANCH  12  14
ENDBRANCH   8  12
BRANCH  11  24
ATOM     24  C   UNL A   1      29.596  28.527  23.294  1.00  0.00    -0.039 A 
ATOM     25  C   UNL A   1      28.300  27.992  23.193  1.00  0.00     0.024 A 
ATOM     26  C   UNL A   1      29.699  29.918  23.375  1.00  0.00     0.024 A 
ATOM     27  C   UNL A   1      27.206  28.843  23.124  1.00  0.00     0.111 A 
ATOM     28  C   UNL A   1      28.542  30.689  23.313  1.00  0.00     0.111 A 
ATOM     29  N   UNL A   1      27.301  30.184  23.171  1.00  0.00    -0.265 NA
ENDBRANCH  11  24
ENDBRANCH   4   7
ENDBRANCH   2   3
ENDBRANCH   1   2
BRANCH   1  30
ATOM     30  C   UNL A   1      31.512  32.176  26.509  1.00  0.00     0.023 C 
BRANCH  30  31
ATOM     31  C   UNL A   1      32.670  32.842  27.247  1.00  0.00     0.116 C 
BRANCH  31  32
ATOM     32  N   UNL A   1      32.392  34.220  27.618  1.00  0.00    -0.352 N 
ATOM     33  C   UNL A   1      32.978  35.003  28.584  1.00  0.00     0.251 C 
ATOM     34  H   UNL A   1      31.678  34.658  27.101  1.00  0.00     0.163 HD
ATOM     35  O   UNL A   1      32.508  36.108  28.838  1.00  0.00    -0.269 OA
BRANCH  33  36
ATOM     36  C   UNL A   1      34.146  34.505  29.343  1.00  0.00     0.039 A 
ATOM     37  C   UNL A   1      33.933  33.936  30.601  1.00  0.00     0.014 A 
ATOM     38  C   UNL A   1      35.441  34.593  28.825  1.00  0.00     0.014 A 
ATOM     39  C   UNL A   1      35.007  33.387  31.306  1.00  0.00     0.010 A 
ATOM     40  C   UNL A   1      36.500  33.986  29.496  1.00  0.00     0.010 A 
ATOM     41  C   UNL A   1      36.292  33.369  30.740  1.00  0.00    -0.014 A 
BRANCH  41  42
ATOM     42  C   UNL A   1      37.418  32.682  31.423  1.00  0.00     0.031 A 
ATOM     43  C   UNL A   1      38.119  31.525  30.771  1.00  0.00     0.074 A 
ATOM     44  C   UNL A   1      37.768  33.068  32.666  1.00  0.00     0.049 A 
ATOM     45  N   UNL A   1      39.091  30.780  31.234  1.00  0.00    -0.248 NA
ATOM     46  C   UNL A   1      37.649  31.135  29.433  1.00  0.00     0.031 C 
ATOM     47  C   UNL A   1      37.127  34.140  33.430  1.00  0.00     0.029 A 
ATOM     48  N   UNL A   1      38.743  32.597  33.509  1.00  0.00    -0.354 N 
ATOM     49  C   UNL A   1      39.341  29.831  30.252  1.00  0.00     0.074 A 
ATOM     50  C   UNL A   1      38.386  30.061  29.189  1.00  0.00     0.031 C 
ATOM     51  C   UNL A   1      37.741  34.260  34.619  1.00  0.00     0.029 A 
ATOM     52  C   UNL A   1      38.795  33.255  34.713  1.00  0.00     0.049 A 
ATOM     53  H   UNL A   1      39.348  31.858  33.273  1.00  0.00     0.167 HD
ATOM     54  C   UNL A   1      40.296  28.870  30.230  1.00  0.00     0.037 A 
ATOM     55  C   UNL A   1      39.601  33.070  35.775  1.00  0.00     0.037 A 
ATOM     56  C   UNL A   1      41.261  28.657  31.276  1.00  0.00     0.049 A 
ATOM     57  C   UNL A   1      40.658  32.001  35.719  1.00  0.00     0.074 A 
ATOM     58  C   UNL A   1      42.308  27.753  31.314  1.00  0.00     0.029 A 
ATOM     59  N   UNL A   1      41.294  29.356  32.474  1.00  0.00    -0.354 N 
ATOM     60  N   UNL A   1      40.933  31.160  34.754  1.00  0.00    -0.248 NA
ATOM     61  C   UNL A   1      41.521  31.863  36.901  1.00  0.00     0.031 C 
ATOM     62  C   UNL A   1      42.951  27.876  32.552  1.00  0.00     0.029 A 
ATOM     63  C   UNL A   1      42.332  28.888  33.267  1.00  0.00     0.049 A 
ATOM     64  H   UNL A   1      40.673  30.077  32.724  1.00  0.00     0.167 HD
ATOM     65  C   UNL A   1      42.012  30.408  35.199  1.00  0.00     0.074 A 
ATOM     66  C   UNL A   1      42.353  30.907  36.515  1.00  0.00     0.031 C 
ATOM     67  C   UNL A   1      42.658  29.393  34.575  1.00  0.00     0.037 A 
BRANCH  54  68
ATOM     68  C   UNL A   1      40.349  27.975  29.026  1.00  0.00     0.064 A 
ATOM     69  C   UNL A   1      39.636  26.768  28.977  1.00  0.00     0.173 A 
ATOM     70  C   UNL A   1      41.086  28.347  27.892  1.00  0.00     0.173 A 
ATOM     71  F   UNL A   1      38.924  26.360  30.040  1.00  0.00    -0.203 F 
ATOM     72  C   UNL A   1      39.681  25.953  27.849  1.00  0.00     0.198 A 
ATOM     73  C   UNL A   1      41.106  27.544  26.754  1.00  0.00     0.198 A 
ATOM     74  F   UNL A   1      41.782  29.494  27.883  1.00  0.00    -0.203 F 
ATOM     75  F   UNL A   1      39.028  24.782  27.844  1.00  0.00    -0.200 F 
ATOM     76  C   UNL A   1      40.410  26.345  26.736  1.00  0.00     0.200 A 
ATOM     77  F   UNL A   1      41.802  27.929  25.675  1.00  0.00    -0.200 F 
ATOM     78  F   UNL A   1      40.446  25.563  25.649  1.00  0.00    -0.200 F 
ENDBRANCH  54  68
BRANCH  55  79
ATOM     79  C   UNL A   1      39.460  33.935  36.974  1.00  0.00     0.064 A 
ATOM     80  C   UNL A   1      40.085  35.189  37.033  1.00  0.00     0.173 A 
ATOM     81  C   UNL A   1      38.701  33.531  38.082  1.00  0.00     0.173 A 
ATOM     82  F   UNL A   1      40.837  35.609  36.005  1.00  0.00    -0.203 F 
ATOM     83  C   UNL A   1      39.975  35.996  38.161  1.00  0.00     0.198 A 
ATOM     84  C   UNL A   1      38.569  34.351  39.201  1.00  0.00     0.198 A 
ATOM     85  F   UNL A   1      38.078  32.344  38.072  1.00  0.00    -0.203 F 
ATOM     86  F   UNL A   1      40.618  37.170  38.209  1.00  0.00    -0.200 F 
ATOM     87  C   UNL A   1      39.213  35.580  39.243  1.00  0.00     0.200 A 
ATOM     88  F   UNL A   1      37.821  33.951  40.237  1.00  0.00    -0.200 F 
ATOM     89  F   UNL A   1      39.103  36.358  40.328  1.00  0.00    -0.200 F 
ENDBRANCH  55  79
BRANCH  67  90
ATOM     90  C   UNL A   1      43.814  28.770  35.303  1.00  0.00     0.064 A 
ATOM     91  C   UNL A   1      45.123  29.248  35.145  1.00  0.00     0.173 A 
ATOM     92  C   UNL A   1      43.607  27.698  36.183  1.00  0.00     0.173 A 
ATOM     93  F   UNL A   1      45.375  30.261  34.302  1.00  0.00    -0.203 F 
ATOM     94  C   UNL A   1      46.187  28.657  35.822  1.00  0.00     0.198 A 
ATOM     95  C   UNL A   1      44.668  27.126  36.880  1.00  0.00     0.198 A 
ATOM     96  F   UNL A   1      42.373  27.207  36.373  1.00  0.00    -0.203 F 
ATOM     97  F   UNL A   1      47.436  29.096  35.616  1.00  0.00    -0.200 F 
ATOM     98  C   UNL A   1      45.958  27.601  36.691  1.00  0.00     0.200 A 
ATOM     99  F   UNL A   1      44.444  26.114  37.728  1.00  0.00    -0.200 F 
ATOM    100  F   UNL A   1      46.983  27.032  37.342  1.00  0.00    -0.200 F 
ENDBRANCH  67  90
ENDBRANCH  41  42
ENDBRANCH  33  36
ENDBRANCH  31  32
ENDBRANCH  30  31
ENDBRANCH   1  30
TORSDOF 15
ENDMDL
