MODEL 1
REMARK VINA RESULT:     -12.4      0.000      0.000
REMARK SMILES CC(C)n1cncc1[C@@H](NC(=O)OC(C)(C)C)C(=O)NCCCCNC(=O)c1ccc(-c2c3nc(c(-c4c(F)c(F)c(F)c(F)c4F)c4ccc([nH]4)c(-c4c(F)c(F)c(F)c(F)c4F)c4nc(c(-c5c(F)c(F)c(F)c(F)c5F)c5ccc2[nH]5)C=C4)C=C3)cc1
REMARK SMILES IDX 22 1 21 2 20 3 18 4 19 5 9 7 8 8 4 9 5 10 6 11 7 12 2 13
REMARK SMILES IDX 1 14 3 15 10 16 11 17 12 19 13 20 14 21 15 22 16 23 17 24
REMARK SMILES IDX 23 25 24 26 25 27 26 28 27 30 28 31 29 32 90 33 30 34 89 35
REMARK SMILES IDX 31 36 32 37 33 38 83 39 34 40 88 41 82 42 84 43 35 44 87 45
REMARK SMILES IDX 81 46 80 47 36 49 68 50 48 51 67 52 49 53 52 54 66 55 85 56
REMARK SMILES IDX 50 57 51 58 65 60 86 61 53 62 37 63 38 64 46 65 39 66 40 67
REMARK SMILES IDX 44 68 47 69 41 70 42 71 45 72 43 73 69 74 70 75 78 76 71 77
REMARK SMILES IDX 72 78 76 79 79 80 73 81 74 82 77 83 75 84 54 85 55 86 63 87
REMARK SMILES IDX 56 88 57 89 61 90 64 91 58 92 59 93 62 94 60 95
REMARK H PARENT 20 6 10 18 25 29 84 48 52 59
REMARK Flexibility Score: inf
ROOT
ATOM      1  C   UNL A   1      32.380  29.725  25.612  1.00  0.00     0.023 C 
ENDROOT
BRANCH   1   2
ATOM      2  C   UNL A   1      33.542  28.765  25.363  1.00  0.00     0.116 C 
BRANCH   2   3
ATOM      3  N   UNL A   1      34.020  28.823  24.002  1.00  0.00    -0.354 N 
ATOM      4  C   UNL A   1      33.685  28.056  22.924  1.00  0.00     0.248 C 
ATOM      5  O   UNL A   1      34.290  28.292  21.868  1.00  0.00    -0.272 OA
ATOM      6  H   UNL A   1      34.690  29.522  23.824  1.00  0.00     0.163 HD
BRANCH   4   7
ATOM      7  C   UNL A   1      32.678  26.861  22.985  1.00  0.00     0.223 C 
BRANCH   7   8
ATOM      8  C   UNL A   1      31.272  27.405  22.907  1.00  0.00     0.070 A 
ATOM      9  N   UNL A   1      30.209  27.099  23.737  1.00  0.00    -0.330 N 
ATOM     10  C   UNL A   1      29.238  28.038  23.486  1.00  0.00     0.199 A 
ATOM     11  N   UNL A   1      29.490  28.725  22.401  1.00  0.00    -0.245 NA
ATOM     12  C   UNL A   1      30.712  28.290  21.996  1.00  0.00     0.137 A 
BRANCH   9  13
ATOM     13  C   UNL A   1      30.056  25.937  24.615  1.00  0.00     0.082 C 
ATOM     14  C   UNL A   1      30.275  24.599  23.889  1.00  0.00     0.031 C 
ATOM     15  C   UNL A   1      31.049  25.990  25.785  1.00  0.00     0.031 C 
ENDBRANCH   9  13
ENDBRANCH   7   8
BRANCH   7  16
ATOM     16  N   UNL A   1      32.727  25.786  22.011  1.00  0.00    -0.304 N 
ATOM     17  C   UNL A   1      33.498  24.679  22.029  1.00  0.00     0.408 C 
ATOM     18  H   UNL A   1      32.122  25.876  21.239  1.00  0.00     0.168 HD
ATOM     19  O   UNL A   1      33.257  23.743  21.265  1.00  0.00    -0.225 OA
BRANCH  17  20
ATOM     20  O   UNL A   1      34.577  24.789  22.827  1.00  0.00    -0.444 OA
BRANCH  20  21
ATOM     21  C   UNL A   1      34.786  23.806  23.865  1.00  0.00     0.106 C 
ATOM     22  C   UNL A   1      35.044  24.490  25.202  1.00  0.00     0.056 C 
ATOM     23  C   UNL A   1      33.590  22.854  23.944  1.00  0.00     0.056 C 
ATOM     24  C   UNL A   1      36.042  23.015  23.457  1.00  0.00     0.056 C 
ENDBRANCH  20  21
ENDBRANCH  17  20
ENDBRANCH   7  16
ENDBRANCH   4   7
ENDBRANCH   2   3
ENDBRANCH   1   2
BRANCH   1  25
ATOM     25  C   UNL A   1      32.271  30.235  27.055  1.00  0.00     0.023 C 
BRANCH  25  26
ATOM     26  C   UNL A   1      33.605  30.434  27.769  1.00  0.00     0.116 C 
BRANCH  26  27
ATOM     27  N   UNL A   1      34.208  31.754  27.545  1.00  0.00    -0.352 N 
ATOM     28  C   UNL A   1      35.427  32.231  28.014  1.00  0.00     0.251 C 
ATOM     29  H   UNL A   1      33.684  32.380  26.995  1.00  0.00     0.163 HD
ATOM     30  O   UNL A   1      35.648  33.430  28.123  1.00  0.00    -0.269 OA
BRANCH  28  31
ATOM     31  C   UNL A   1      36.482  31.252  28.325  1.00  0.00     0.039 A 
ATOM     32  C   UNL A   1      36.577  29.978  27.758  1.00  0.00     0.014 A 
ATOM     33  C   UNL A   1      37.441  31.690  29.223  1.00  0.00     0.014 A 
ATOM     34  C   UNL A   1      37.679  29.178  28.081  1.00  0.00     0.010 A 
ATOM     35  C   UNL A   1      38.624  31.024  29.317  1.00  0.00     0.010 A 
ATOM     36  C   UNL A   1      38.700  29.718  28.874  1.00  0.00    -0.014 A 
BRANCH  36  37
ATOM     37  C   UNL A   1      39.953  29.044  29.187  1.00  0.00     0.031 A 
ATOM     38  C   UNL A   1      40.199  28.880  30.636  1.00  0.00     0.074 A 
ATOM     39  C   UNL A   1      40.657  28.371  28.244  1.00  0.00     0.049 A 
ATOM     40  N   UNL A   1      41.161  29.410  31.313  1.00  0.00    -0.248 NA
ATOM     41  C   UNL A   1      39.196  28.188  31.459  1.00  0.00     0.031 C 
ATOM     42  C   UNL A   1      40.392  28.261  26.807  1.00  0.00     0.029 A 
ATOM     43  N   UNL A   1      41.730  27.544  28.396  1.00  0.00    -0.354 N 
ATOM     44  C   UNL A   1      41.012  28.939  32.611  1.00  0.00     0.074 A 
ATOM     45  C   UNL A   1      39.689  28.381  32.685  1.00  0.00     0.031 C 
ATOM     46  C   UNL A   1      41.106  27.242  26.276  1.00  0.00     0.029 A 
ATOM     47  C   UNL A   1      42.019  26.748  27.284  1.00  0.00     0.049 A 
ATOM     48  H   UNL A   1      42.260  27.510  29.225  1.00  0.00     0.167 HD
ATOM     49  C   UNL A   1      42.103  28.801  33.414  1.00  0.00     0.037 A 
ATOM     50  C   UNL A   1      42.973  25.783  27.198  1.00  0.00     0.037 A 
ATOM     51  C   UNL A   1      43.220  29.557  32.892  1.00  0.00     0.049 A 
ATOM     52  C   UNL A   1      43.973  26.084  28.248  1.00  0.00     0.074 A 
ATOM     53  C   UNL A   1      43.441  30.892  32.612  1.00  0.00     0.029 A 
ATOM     54  N   UNL A   1      44.188  28.874  32.195  1.00  0.00    -0.354 N 
ATOM     55  N   UNL A   1      44.720  27.153  28.224  1.00  0.00    -0.248 NA
ATOM     56  C   UNL A   1      43.759  25.486  29.555  1.00  0.00     0.031 C 
ATOM     57  C   UNL A   1      44.185  30.897  31.392  1.00  0.00     0.029 A 
ATOM     58  C   UNL A   1      44.450  29.574  31.044  1.00  0.00     0.049 A 
ATOM     59  H   UNL A   1      44.616  28.033  32.472  1.00  0.00     0.167 HD
ATOM     60  C   UNL A   1      44.702  27.616  29.530  1.00  0.00     0.074 A 
ATOM     61  C   UNL A   1      44.143  26.514  30.317  1.00  0.00     0.031 C 
ATOM     62  C   UNL A   1      44.843  28.946  29.804  1.00  0.00     0.037 A 
BRANCH  49  63
ATOM     63  C   UNL A   1      42.289  27.677  34.408  1.00  0.00     0.064 A 
ATOM     64  C   UNL A   1      42.879  26.477  33.961  1.00  0.00     0.173 A 
ATOM     65  C   UNL A   1      41.650  27.602  35.665  1.00  0.00     0.173 A 
ATOM     66  F   UNL A   1      43.517  26.427  32.782  1.00  0.00    -0.203 F 
ATOM     67  C   UNL A   1      42.740  25.277  34.664  1.00  0.00     0.198 A 
ATOM     68  C   UNL A   1      41.559  26.415  36.388  1.00  0.00     0.198 A 
ATOM     69  F   UNL A   1      40.992  28.634  36.205  1.00  0.00    -0.203 F 
ATOM     70  F   UNL A   1      43.195  24.138  34.127  1.00  0.00    -0.200 F 
ATOM     71  C   UNL A   1      42.068  25.245  35.871  1.00  0.00     0.200 A 
ATOM     72  F   UNL A   1      40.892  26.404  37.551  1.00  0.00    -0.200 F 
ATOM     73  F   UNL A   1      41.868  24.086  36.509  1.00  0.00    -0.200 F 
ENDBRANCH  49  63
BRANCH  50  74
ATOM     74  C   UNL A   1      42.872  24.440  26.573  1.00  0.00     0.064 A 
ATOM     75  C   UNL A   1      43.845  23.943  25.693  1.00  0.00     0.173 A 
ATOM     76  C   UNL A   1      41.953  23.499  27.071  1.00  0.00     0.173 A 
ATOM     77  F   UNL A   1      44.829  24.745  25.259  1.00  0.00    -0.203 F 
ATOM     78  C   UNL A   1      43.869  22.595  25.305  1.00  0.00     0.198 A 
ATOM     79  C   UNL A   1      41.950  22.163  26.657  1.00  0.00     0.198 A 
ATOM     80  F   UNL A   1      41.116  23.838  28.062  1.00  0.00    -0.203 F 
ATOM     81  F   UNL A   1      44.853  22.141  24.516  1.00  0.00    -0.200 F 
ATOM     82  C   UNL A   1      42.913  21.709  25.777  1.00  0.00     0.200 A 
ATOM     83  F   UNL A   1      41.052  21.310  27.169  1.00  0.00    -0.200 F 
ATOM     84  F   UNL A   1      42.956  20.414  25.435  1.00  0.00    -0.200 F 
ENDBRANCH  50  74
BRANCH  62  85
ATOM     85  C   UNL A   1      45.234  29.862  28.672  1.00  0.00     0.064 A 
ATOM     86  C   UNL A   1      44.317  30.555  27.859  1.00  0.00     0.173 A 
ATOM     87  C   UNL A   1      46.588  30.169  28.504  1.00  0.00     0.173 A 
ATOM     88  F   UNL A   1      43.000  30.394  28.014  1.00  0.00    -0.203 F 
ATOM     89  C   UNL A   1      44.739  31.481  26.904  1.00  0.00     0.198 A 
ATOM     90  C   UNL A   1      47.007  31.116  27.573  1.00  0.00     0.198 A 
ATOM     91  F   UNL A   1      47.508  29.582  29.287  1.00  0.00    -0.203 F 
ATOM     92  F   UNL A   1      43.840  32.123  26.143  1.00  0.00    -0.200 F 
ATOM     93  C   UNL A   1      46.086  31.766  26.768  1.00  0.00     0.200 A 
ATOM     94  F   UNL A   1      48.309  31.424  27.479  1.00  0.00    -0.200 F 
ATOM     95  F   UNL A   1      46.494  32.686  25.882  1.00  0.00    -0.200 F 
ENDBRANCH  62  85
ENDBRANCH  36  37
ENDBRANCH  28  31
ENDBRANCH  26  27
ENDBRANCH  25  26
ENDBRANCH   1  25
TORSDOF 16
ENDMDL
MODEL 2
REMARK VINA RESULT:     -12.3      3.192      8.523
REMARK SMILES CC(C)n1cncc1[C@@H](NC(=O)OC(C)(C)C)C(=O)NCCCCNC(=O)c1ccc(-c2c3nc(c(-c4c(F)c(F)c(F)c(F)c4F)c4ccc([nH]4)c(-c4c(F)c(F)c(F)c(F)c4F)c4nc(c(-c5c(F)c(F)c(F)c(F)c5F)c5ccc2[nH]5)C=C4)C=C3)cc1
REMARK SMILES IDX 22 1 21 2 20 3 18 4 19 5 9 7 8 8 4 9 5 10 6 11 7 12 2 13
REMARK SMILES IDX 1 14 3 15 10 16 11 17 12 19 13 20 14 21 15 22 16 23 17 24
REMARK SMILES IDX 23 25 24 26 25 27 26 28 27 30 28 31 29 32 90 33 30 34 89 35
REMARK SMILES IDX 31 36 32 37 33 38 83 39 34 40 88 41 82 42 84 43 35 44 87 45
REMARK SMILES IDX 81 46 80 47 36 49 68 50 48 51 67 52 49 53 52 54 66 55 85 56
REMARK SMILES IDX 50 57 51 58 65 60 86 61 53 62 37 63 38 64 46 65 39 66 40 67
REMARK SMILES IDX 44 68 47 69 41 70 42 71 45 72 43 73 69 74 70 75 78 76 71 77
REMARK SMILES IDX 72 78 76 79 79 80 73 81 74 82 77 83 75 84 54 85 55 86 63 87
REMARK SMILES IDX 56 88 57 89 61 90 64 91 58 92 59 93 62 94 60 95
REMARK H PARENT 20 6 10 18 25 29 84 48 52 59
REMARK Flexibility Score: inf
ROOT
ATOM      1  C   UNL A   1      36.055  21.322  25.521  1.00  0.00     0.023 C 
ENDROOT
BRANCH   1   2
ATOM      2  C   UNL A   1      35.781  22.532  26.412  1.00  0.00     0.116 C 
BRANCH   2   3
ATOM      3  N   UNL A   1      34.769  22.264  27.406  1.00  0.00    -0.354 N 
ATOM      4  C   UNL A   1      33.458  22.642  27.444  1.00  0.00     0.248 C 
ATOM      5  O   UNL A   1      32.816  22.311  28.451  1.00  0.00    -0.272 OA
ATOM      6  H   UNL A   1      35.070  21.726  28.174  1.00  0.00     0.163 HD
BRANCH   4   7
ATOM      7  C   UNL A   1      32.777  23.535  26.355  1.00  0.00     0.223 C 
BRANCH   7   8
ATOM      8  C   UNL A   1      32.429  22.673  25.166  1.00  0.00     0.070 A 
ATOM      9  N   UNL A   1      32.370  23.060  23.839  1.00  0.00    -0.330 N 
ATOM     10  C   UNL A   1      32.317  21.905  23.100  1.00  0.00     0.199 A 
ATOM     11  N   UNL A   1      32.068  20.857  23.845  1.00  0.00    -0.245 NA
ATOM     12  C   UNL A   1      32.064  21.335  25.117  1.00  0.00     0.137 A 
BRANCH   9  13
ATOM     13  C   UNL A   1      32.245  24.417  23.302  1.00  0.00     0.082 C 
ATOM     14  C   UNL A   1      32.986  24.610  21.969  1.00  0.00     0.031 C 
ATOM     15  C   UNL A   1      30.773  24.787  23.064  1.00  0.00     0.031 C 
ENDBRANCH   9  13
ENDBRANCH   7   8
BRANCH   7  16
ATOM     16  N   UNL A   1      31.572  24.290  26.647  1.00  0.00    -0.304 N 
ATOM     17  C   UNL A   1      31.336  25.600  26.432  1.00  0.00     0.408 C 
ATOM     18  H   UNL A   1      30.834  23.780  27.054  1.00  0.00     0.168 HD
ATOM     19  O   UNL A   1      30.189  26.044  26.505  1.00  0.00    -0.225 OA
BRANCH  17  20
ATOM     20  O   UNL A   1      32.458  26.332  26.288  1.00  0.00    -0.444 OA
BRANCH  20  21
ATOM     21  C   UNL A   1      32.392  27.763  26.475  1.00  0.00     0.106 C 
ATOM     22  C   UNL A   1      31.592  28.101  27.726  1.00  0.00     0.056 C 
ATOM     23  C   UNL A   1      33.802  28.357  26.533  1.00  0.00     0.056 C 
ATOM     24  C   UNL A   1      31.654  28.320  25.242  1.00  0.00     0.056 C 
ENDBRANCH  20  21
ENDBRANCH  17  20
ENDBRANCH   7  16
ENDBRANCH   4   7
ENDBRANCH   2   3
ENDBRANCH   1   2
BRANCH   1  25
ATOM     25  C   UNL A   1      37.445  21.310  24.871  1.00  0.00     0.023 C 
BRANCH  25  26
ATOM     26  C   UNL A   1      38.494  22.161  25.581  1.00  0.00     0.116 C 
BRANCH  26  27
ATOM     27  N   UNL A   1      39.290  21.420  26.569  1.00  0.00    -0.352 N 
ATOM     28  C   UNL A   1      40.387  21.868  27.296  1.00  0.00     0.251 C 
ATOM     29  H   UNL A   1      39.012  20.491  26.737  1.00  0.00     0.163 HD
ATOM     30  O   UNL A   1      41.207  21.089  27.765  1.00  0.00    -0.269 OA
BRANCH  28  31
ATOM     31  C   UNL A   1      40.513  23.314  27.544  1.00  0.00     0.039 A 
ATOM     32  C   UNL A   1      39.534  24.262  27.231  1.00  0.00     0.014 A 
ATOM     33  C   UNL A   1      41.688  23.703  28.162  1.00  0.00     0.014 A 
ATOM     34  C   UNL A   1      39.749  25.596  27.596  1.00  0.00     0.010 A 
ATOM     35  C   UNL A   1      41.765  24.931  28.744  1.00  0.00     0.010 A 
ATOM     36  C   UNL A   1      40.882  25.919  28.354  1.00  0.00    -0.014 A 
BRANCH  36  37
ATOM     37  C   UNL A   1      41.167  27.238  28.902  1.00  0.00     0.031 A 
ATOM     38  C   UNL A   1      42.324  27.910  28.273  1.00  0.00     0.074 A 
ATOM     39  C   UNL A   1      40.277  27.894  29.685  1.00  0.00     0.049 A 
ATOM     40  N   UNL A   1      43.429  28.233  28.853  1.00  0.00    -0.248 NA
ATOM     41  C   UNL A   1      42.332  28.110  26.816  1.00  0.00     0.031 C 
ATOM     42  C   UNL A   1      38.984  27.426  30.192  1.00  0.00     0.029 A 
ATOM     43  N   UNL A   1      40.300  29.184  30.123  1.00  0.00    -0.354 N 
ATOM     44  C   UNL A   1      44.190  28.878  27.886  1.00  0.00     0.074 A 
ATOM     45  C   UNL A   1      43.566  28.583  26.625  1.00  0.00     0.031 C 
ATOM     46  C   UNL A   1      38.250  28.471  30.640  1.00  0.00     0.029 A 
ATOM     47  C   UNL A   1      39.085  29.653  30.630  1.00  0.00     0.049 A 
ATOM     48  H   UNL A   1      41.109  29.743  30.083  1.00  0.00     0.167 HD
ATOM     49  C   UNL A   1      45.094  29.828  28.253  1.00  0.00     0.037 A 
ATOM     50  C   UNL A   1      38.810  30.917  31.050  1.00  0.00     0.037 A 
ATOM     51  C   UNL A   1      45.397  29.726  29.663  1.00  0.00     0.049 A 
ATOM     52  C   UNL A   1      40.110  31.543  31.380  1.00  0.00     0.074 A 
ATOM     53  C   UNL A   1      45.920  28.737  30.474  1.00  0.00     0.029 A 
ATOM     54  N   UNL A   1      44.779  30.608  30.517  1.00  0.00    -0.354 N 
ATOM     55  N   UNL A   1      40.862  31.131  32.363  1.00  0.00    -0.248 NA
ATOM     56  C   UNL A   1      40.793  32.253  30.311  1.00  0.00     0.031 C 
ATOM     57  C   UNL A   1      45.164  28.813  31.685  1.00  0.00     0.029 A 
ATOM     58  C   UNL A   1      44.289  29.891  31.580  1.00  0.00     0.049 A 
ATOM     59  H   UNL A   1      44.701  31.580  30.389  1.00  0.00     0.167 HD
ATOM     60  C   UNL A   1      42.145  31.127  31.838  1.00  0.00     0.074 A 
ATOM     61  C   UNL A   1      42.047  31.886  30.589  1.00  0.00     0.031 C 
ATOM     62  C   UNL A   1      43.088  30.253  32.297  1.00  0.00     0.037 A 
BRANCH  49  63
ATOM     63  C   UNL A   1      45.377  31.083  27.459  1.00  0.00     0.064 A 
ATOM     64  C   UNL A   1      46.708  31.349  27.077  1.00  0.00     0.173 A 
ATOM     65  C   UNL A   1      44.484  32.169  27.327  1.00  0.00     0.173 A 
ATOM     66  F   UNL A   1      47.646  30.393  27.155  1.00  0.00    -0.203 F 
ATOM     67  C   UNL A   1      47.129  32.627  26.703  1.00  0.00     0.198 A 
ATOM     68  C   UNL A   1      44.898  33.430  26.904  1.00  0.00     0.198 A 
ATOM     69  F   UNL A   1      43.202  32.101  27.701  1.00  0.00    -0.203 F 
ATOM     70  F   UNL A   1      48.431  32.861  26.488  1.00  0.00    -0.200 F 
ATOM     71  C   UNL A   1      46.226  33.670  26.630  1.00  0.00     0.200 A 
ATOM     72  F   UNL A   1      44.007  34.430  26.852  1.00  0.00    -0.200 F 
ATOM     73  F   UNL A   1      46.638  34.912  26.345  1.00  0.00    -0.200 F 
ENDBRANCH  49  63
BRANCH  50  74
ATOM     74  C   UNL A   1      37.591  31.727  30.801  1.00  0.00     0.064 A 
ATOM     75  C   UNL A   1      37.188  32.106  29.511  1.00  0.00     0.173 A 
ATOM     76  C   UNL A   1      36.633  31.890  31.818  1.00  0.00     0.173 A 
ATOM     77  F   UNL A   1      37.994  31.879  28.464  1.00  0.00    -0.203 F 
ATOM     78  C   UNL A   1      35.919  32.652  29.266  1.00  0.00     0.198 A 
ATOM     79  C   UNL A   1      35.383  32.469  31.584  1.00  0.00     0.198 A 
ATOM     80  F   UNL A   1      36.856  31.376  33.036  1.00  0.00    -0.203 F 
ATOM     81  F   UNL A   1      35.544  32.939  28.011  1.00  0.00    -0.200 F 
ATOM     82  C   UNL A   1      35.022  32.845  30.304  1.00  0.00     0.200 A 
ATOM     83  F   UNL A   1      34.508  32.595  32.592  1.00  0.00    -0.200 F 
ATOM     84  F   UNL A   1      33.798  33.335  30.066  1.00  0.00    -0.200 F 
ENDBRANCH  50  74
BRANCH  62  85
ATOM     85  C   UNL A   1      42.762  29.445  33.528  1.00  0.00     0.064 A 
ATOM     86  C   UNL A   1      42.222  28.146  33.505  1.00  0.00     0.173 A 
ATOM     87  C   UNL A   1      43.154  29.948  34.773  1.00  0.00     0.173 A 
ATOM     88  F   UNL A   1      41.907  27.551  32.352  1.00  0.00    -0.203 F 
ATOM     89  C   UNL A   1      42.053  27.403  34.675  1.00  0.00     0.198 A 
ATOM     90  C   UNL A   1      43.015  29.194  35.936  1.00  0.00     0.198 A 
ATOM     91  F   UNL A   1      43.726  31.160  34.854  1.00  0.00    -0.203 F 
ATOM     92  F   UNL A   1      41.534  26.167  34.619  1.00  0.00    -0.200 F 
ATOM     93  C   UNL A   1      42.458  27.927  35.889  1.00  0.00     0.200 A 
ATOM     94  F   UNL A   1      43.453  29.687  37.103  1.00  0.00    -0.200 F 
ATOM     95  F   UNL A   1      42.337  27.201  37.010  1.00  0.00    -0.200 F 
ENDBRANCH  62  85
ENDBRANCH  36  37
ENDBRANCH  28  31
ENDBRANCH  26  27
ENDBRANCH  25  26
ENDBRANCH   1  25
TORSDOF 16
ENDMDL
MODEL 3
REMARK VINA RESULT:     -12.3      1.637      3.066
REMARK SMILES CC(C)n1cncc1[C@@H](NC(=O)OC(C)(C)C)C(=O)NCCCCNC(=O)c1ccc(-c2c3nc(c(-c4c(F)c(F)c(F)c(F)c4F)c4ccc([nH]4)c(-c4c(F)c(F)c(F)c(F)c4F)c4nc(c(-c5c(F)c(F)c(F)c(F)c5F)c5ccc2[nH]5)C=C4)C=C3)cc1
REMARK SMILES IDX 22 1 21 2 20 3 18 4 19 5 9 7 8 8 4 9 5 10 6 11 7 12 2 13
REMARK SMILES IDX 1 14 3 15 10 16 11 17 12 19 13 20 14 21 15 22 16 23 17 24
REMARK SMILES IDX 23 25 24 26 25 27 26 28 27 30 28 31 29 32 90 33 30 34 89 35
REMARK SMILES IDX 31 36 32 37 33 38 83 39 34 40 88 41 82 42 84 43 35 44 87 45
REMARK SMILES IDX 81 46 80 47 36 49 68 50 48 51 67 52 49 53 52 54 66 55 85 56
REMARK SMILES IDX 50 57 51 58 65 60 86 61 53 62 37 63 38 64 46 65 39 66 40 67
REMARK SMILES IDX 44 68 47 69 41 70 42 71 45 72 43 73 69 74 70 75 78 76 71 77
REMARK SMILES IDX 72 78 76 79 79 80 73 81 74 82 77 83 75 84 54 85 55 86 63 87
REMARK SMILES IDX 56 88 57 89 61 90 64 91 58 92 59 93 62 94 60 95
REMARK H PARENT 20 6 10 18 25 29 84 48 52 59
REMARK Flexibility Score: inf
ROOT
ATOM      1  C   UNL A   1      32.394  30.225  26.835  1.00  0.00     0.023 C 
ENDROOT
BRANCH   1   2
ATOM      2  C   UNL A   1      31.970  29.616  25.500  1.00  0.00     0.116 C 
BRANCH   2   3
ATOM      3  N   UNL A   1      33.061  29.550  24.556  1.00  0.00    -0.354 N 
ATOM      4  C   UNL A   1      33.168  28.849  23.390  1.00  0.00     0.248 C 
ATOM      5  O   UNL A   1      34.248  28.937  22.789  1.00  0.00    -0.272 OA
ATOM      6  H   UNL A   1      33.848  30.094  24.789  1.00  0.00     0.163 HD
BRANCH   4   7
ATOM      7  C   UNL A   1      32.060  27.886  22.848  1.00  0.00     0.223 C 
BRANCH   7   8
ATOM      8  C   UNL A   1      32.690  26.552  22.526  1.00  0.00     0.070 A 
ATOM      9  N   UNL A   1      33.276  25.668  23.414  1.00  0.00    -0.330 N 
ATOM     10  C   UNL A   1      33.431  24.484  22.736  1.00  0.00     0.199 A 
ATOM     11  N   UNL A   1      33.245  24.629  21.448  1.00  0.00    -0.245 NA
ATOM     12  C   UNL A   1      32.857  25.923  21.301  1.00  0.00     0.137 A 
BRANCH   9  13
ATOM     13  C   UNL A   1      33.775  25.943  24.763  1.00  0.00     0.082 C 
ATOM     14  C   UNL A   1      32.675  25.890  25.836  1.00  0.00     0.031 C 
ATOM     15  C   UNL A   1      34.861  24.937  25.171  1.00  0.00     0.031 C 
ENDBRANCH   9  13
ENDBRANCH   7   8
BRANCH   7  16
ATOM     16  N   UNL A   1      30.884  27.573  23.639  1.00  0.00    -0.304 N 
ATOM     17  C   UNL A   1      29.587  27.696  23.289  1.00  0.00     0.408 C 
ATOM     18  H   UNL A   1      31.054  27.229  24.546  1.00  0.00     0.168 HD
ATOM     19  O   UNL A   1      28.708  27.166  23.970  1.00  0.00    -0.225 OA
BRANCH  17  20
ATOM     20  O   UNL A   1      29.386  28.540  22.260  1.00  0.00    -0.444 OA
BRANCH  20  21
ATOM     21  C   UNL A   1      28.543  29.698  22.454  1.00  0.00     0.106 C 
ATOM     22  C   UNL A   1      28.429  30.498  21.163  1.00  0.00     0.056 C 
ATOM     23  C   UNL A   1      27.167  29.272  22.974  1.00  0.00     0.056 C 
ATOM     24  C   UNL A   1      29.245  30.562  23.518  1.00  0.00     0.056 C 
ENDBRANCH  20  21
ENDBRANCH  17  20
ENDBRANCH   7  16
ENDBRANCH   4   7
ENDBRANCH   2   3
ENDBRANCH   1   2
BRANCH   1  25
ATOM     25  C   UNL A   1      33.748  29.731  27.361  1.00  0.00     0.023 C 
BRANCH  25  26
ATOM     26  C   UNL A   1      34.880  30.749  27.278  1.00  0.00     0.116 C 
BRANCH  26  27
ATOM     27  N   UNL A   1      34.791  31.821  28.278  1.00  0.00    -0.352 N 
ATOM     28  C   UNL A   1      35.334  31.848  29.558  1.00  0.00     0.251 C 
ATOM     29  H   UNL A   1      34.284  32.621  28.009  1.00  0.00     0.163 HD
ATOM     30  O   UNL A   1      34.879  32.571  30.433  1.00  0.00    -0.269 OA
BRANCH  28  31
ATOM     31  C   UNL A   1      36.522  31.019  29.825  1.00  0.00     0.039 A 
ATOM     32  C   UNL A   1      36.490  29.648  30.100  1.00  0.00     0.014 A 
ATOM     33  C   UNL A   1      37.731  31.688  29.753  1.00  0.00     0.014 A 
ATOM     34  C   UNL A   1      37.702  28.965  30.254  1.00  0.00     0.010 A 
ATOM     35  C   UNL A   1      38.885  30.976  29.637  1.00  0.00     0.010 A 
ATOM     36  C   UNL A   1      38.902  29.650  30.024  1.00  0.00    -0.014 A 
BRANCH  36  37
ATOM     37  C   UNL A   1      40.222  29.036  30.031  1.00  0.00     0.031 A 
ATOM     38  C   UNL A   1      40.787  28.847  31.385  1.00  0.00     0.074 A 
ATOM     39  C   UNL A   1      40.734  28.429  28.933  1.00  0.00     0.049 A 
ATOM     40  N   UNL A   1      41.848  29.408  31.857  1.00  0.00    -0.248 NA
ATOM     41  C   UNL A   1      40.022  28.079  32.379  1.00  0.00     0.031 C 
ATOM     42  C   UNL A   1      40.166  28.345  27.585  1.00  0.00     0.029 A 
ATOM     43  N   UNL A   1      41.851  27.658  28.816  1.00  0.00    -0.354 N 
ATOM     44  C   UNL A   1      42.009  28.895  33.137  1.00  0.00     0.074 A 
ATOM     45  C   UNL A   1      40.762  28.265  33.475  1.00  0.00     0.031 C 
ATOM     46  C   UNL A   1      40.794  27.380  26.872  1.00  0.00     0.029 A 
ATOM     47  C   UNL A   1      41.927  26.909  27.638  1.00  0.00     0.049 A 
ATOM     48  H   UNL A   1      42.551  27.629  29.509  1.00  0.00     0.167 HD
ATOM     49  C   UNL A   1      43.255  28.794  33.678  1.00  0.00     0.037 A 
ATOM     50  C   UNL A   1      42.884  26.000  27.310  1.00  0.00     0.037 A 
ATOM     51  C   UNL A   1      44.193  29.624  32.956  1.00  0.00     0.049 A 
ATOM     52  C   UNL A   1      44.074  26.326  28.128  1.00  0.00     0.074 A 
ATOM     53  C   UNL A   1      44.284  30.977  32.686  1.00  0.00     0.029 A 
ATOM     54  N   UNL A   1      45.016  29.014  32.040  1.00  0.00    -0.354 N 
ATOM     55  N   UNL A   1      44.747  27.434  27.984  1.00  0.00    -0.248 NA
ATOM     56  C   UNL A   1      44.180  25.681  29.426  1.00  0.00     0.031 C 
ATOM     57  C   UNL A   1      44.743  31.055  31.335  1.00  0.00     0.029 A 
ATOM     58  C   UNL A   1      44.988  29.758  30.887  1.00  0.00     0.049 A 
ATOM     59  H   UNL A   1      45.534  28.190  32.184  1.00  0.00     0.167 HD
ATOM     60  C   UNL A   1      44.993  27.860  29.280  1.00  0.00     0.074 A 
ATOM     61  C   UNL A   1      44.673  26.708  30.126  1.00  0.00     0.031 C 
ATOM     62  C   UNL A   1      45.129  29.188  29.568  1.00  0.00     0.037 A 
BRANCH  49  63
ATOM     63  C   UNL A   1      43.706  27.655  34.564  1.00  0.00     0.064 A 
ATOM     64  C   UNL A   1      44.258  27.965  35.825  1.00  0.00     0.173 A 
ATOM     65  C   UNL A   1      43.911  26.329  34.127  1.00  0.00     0.173 A 
ATOM     66  F   UNL A   1      44.125  29.194  36.346  1.00  0.00    -0.203 F 
ATOM     67  C   UNL A   1      45.045  27.053  36.532  1.00  0.00     0.198 A 
ATOM     68  C   UNL A   1      44.653  25.405  34.860  1.00  0.00     0.198 A 
ATOM     69  F   UNL A   1      43.505  25.891  32.930  1.00  0.00    -0.203 F 
ATOM     70  F   UNL A   1      45.664  27.442  37.654  1.00  0.00    -0.200 F 
ATOM     71  C   UNL A   1      45.254  25.778  36.042  1.00  0.00     0.200 A 
ATOM     72  F   UNL A   1      44.853  24.178  34.359  1.00  0.00    -0.200 F 
ATOM     73  F   UNL A   1      46.067  24.926  36.678  1.00  0.00    -0.200 F 
ENDBRANCH  49  63
BRANCH  50  74
ATOM     74  C   UNL A   1      42.712  24.671  26.670  1.00  0.00     0.064 A 
ATOM     75  C   UNL A   1      43.389  24.306  25.497  1.00  0.00     0.173 A 
ATOM     76  C   UNL A   1      42.095  23.624  27.377  1.00  0.00     0.173 A 
ATOM     77  F   UNL A   1      44.100  25.221  24.821  1.00  0.00    -0.203 F 
ATOM     78  C   UNL A   1      43.411  22.979  25.041  1.00  0.00     0.198 A 
ATOM     79  C   UNL A   1      42.084  22.307  26.906  1.00  0.00     0.198 A 
ATOM     80  F   UNL A   1      41.597  23.844  28.602  1.00  0.00    -0.203 F 
ATOM     81  F   UNL A   1      44.126  22.656  23.953  1.00  0.00    -0.200 F 
ATOM     82  C   UNL A   1      42.748  21.983  25.739  1.00  0.00     0.200 A 
ATOM     83  F   UNL A   1      41.483  21.348  27.626  1.00  0.00    -0.200 F 
ATOM     84  F   UNL A   1      42.797  20.710  25.324  1.00  0.00    -0.200 F 
ENDBRANCH  50  74
BRANCH  62  85
ATOM     85  C   UNL A   1      45.218  30.154  28.414  1.00  0.00     0.064 A 
ATOM     86  C   UNL A   1      44.117  30.831  27.858  1.00  0.00     0.173 A 
ATOM     87  C   UNL A   1      46.487  30.524  27.956  1.00  0.00     0.173 A 
ATOM     88  F   UNL A   1      42.876  30.609  28.302  1.00  0.00    -0.203 F 
ATOM     89  C   UNL A   1      44.278  31.804  26.871  1.00  0.00     0.198 A 
ATOM     90  C   UNL A   1      46.650  31.517  26.993  1.00  0.00     0.198 A 
ATOM     91  F   UNL A   1      47.581  29.954  28.486  1.00  0.00    -0.203 F 
ATOM     92  F   UNL A   1      43.206  32.430  26.360  1.00  0.00    -0.200 F 
ATOM     93  C   UNL A   1      45.547  32.151  26.445  1.00  0.00     0.200 A 
ATOM     94  F   UNL A   1      47.884  31.883  26.619  1.00  0.00    -0.200 F 
ATOM     95  F   UNL A   1      45.710  33.114  25.527  1.00  0.00    -0.200 F 
ENDBRANCH  62  85
ENDBRANCH  36  37
ENDBRANCH  28  31
ENDBRANCH  26  27
ENDBRANCH  25  26
ENDBRANCH   1  25
TORSDOF 16
ENDMDL
