MODEL 1
REMARK VINA RESULT:     -12.1      0.000      0.000
REMARK SMILES CC(=O)c1ccc(O)c(C(=O)NCCCCNC(=O)c2ccc(-c3c4nc(c(-c5c(F)c(F)c(F)c(F)c5F)c5ccc([nH]5)c(-c5c(F)c(F)c(F)c(F)c5F)c5nc(c(-c6c(F)c(F)c(F)c(F)c6F)c6ccc3[nH]6)C=C5)C=C4)cc2)c1
REMARK SMILES IDX 15 1 14 2 13 3 12 4 10 5 11 6 9 8 4 9 5 10 83 11 6 12 7 13
REMARK SMILES IDX 2 14 1 15 3 16 8 17 16 19 17 20 18 21 19 23 20 24 21 25
REMARK SMILES IDX 82 26 22 27 81 28 23 29 24 30 25 31 75 32 26 33 80 34 74 35
REMARK SMILES IDX 76 36 27 37 79 38 73 39 72 40 28 42 60 43 40 44 59 45 41 46
REMARK SMILES IDX 44 47 58 48 77 49 42 50 43 51 57 53 78 54 45 55 29 56 30 57
REMARK SMILES IDX 38 58 31 59 32 60 36 61 39 62 33 63 34 64 37 65 35 66 61 67
REMARK SMILES IDX 62 68 70 69 63 70 64 71 68 72 71 73 65 74 66 75 69 76 67 77
REMARK SMILES IDX 46 78 47 79 55 80 48 81 49 82 53 83 56 84 50 85 51 86 54 87
REMARK SMILES IDX 52 88
REMARK H PARENT 12 7 8 18 17 22 76 41 44 52
REMARK Flexibility Score: inf
ROOT
ATOM      1  C   UNL A   1      31.809  31.774  26.557  1.00  0.00     0.023 C 
ENDROOT
BRANCH   1   2
ATOM      2  C   UNL A   1      31.742  30.282  26.883  1.00  0.00     0.023 C 
BRANCH   2   3
ATOM      3  C   UNL A   1      33.057  29.523  26.680  1.00  0.00     0.116 C 
BRANCH   3   4
ATOM      4  N   UNL A   1      33.473  29.612  25.300  1.00  0.00    -0.352 N 
ATOM      5  C   UNL A   1      32.939  29.127  24.137  1.00  0.00     0.255 C 
ATOM      6  O   UNL A   1      33.626  29.310  23.126  1.00  0.00    -0.269 OA
ATOM      7  H   UNL A   1      34.304  30.124  25.171  1.00  0.00     0.163 HD
BRANCH   5   8
ATOM      8  C   UNL A   1      31.592  28.489  23.975  1.00  0.00     0.082 A 
ATOM      9  C   UNL A   1      29.306  28.917  23.165  1.00  0.00     0.018 A 
ATOM     10  C   UNL A   1      28.928  27.624  23.513  1.00  0.00     0.015 A 
ATOM     11  C   UNL A   1      30.621  29.341  23.403  1.00  0.00     0.029 A 
ATOM     12  C   UNL A   1      29.874  26.754  24.049  1.00  0.00     0.048 A 
ATOM     13  C   UNL A   1      31.199  27.172  24.251  1.00  0.00     0.128 A 
BRANCH   9  14
ATOM     14  C   UNL A   1      28.362  29.861  22.509  1.00  0.00     0.159 C 
ATOM     15  C   UNL A   1      27.645  30.875  23.360  1.00  0.00     0.093 C 
ATOM     16  O   UNL A   1      28.202  29.814  21.292  1.00  0.00    -0.295 OA
ENDBRANCH   9  14
BRANCH  13  17
ATOM     17  O   UNL A   1      32.075  26.213  24.662  1.00  0.00    -0.507 OA
ATOM     18  H   UNL A   1      32.961  26.227  24.358  1.00  0.00     0.293 HD
ENDBRANCH  13  17
ENDBRANCH   5   8
ENDBRANCH   3   4
ENDBRANCH   2   3
ENDBRANCH   1   2
BRANCH   1  19
ATOM     19  C   UNL A   1      32.837  32.556  27.363  1.00  0.00     0.116 C 
BRANCH  19  20
ATOM     20  N   UNL A   1      32.436  33.927  27.637  1.00  0.00    -0.352 N 
ATOM     21  C   UNL A   1      32.978  34.817  28.537  1.00  0.00     0.251 C 
ATOM     22  H   UNL A   1      31.677  34.265  27.108  1.00  0.00     0.163 HD
ATOM     23  O   UNL A   1      32.474  35.912  28.714  1.00  0.00    -0.269 OA
BRANCH  21  24
ATOM     24  C   UNL A   1      34.153  34.398  29.328  1.00  0.00     0.039 A 
ATOM     25  C   UNL A   1      33.942  33.802  30.573  1.00  0.00     0.014 A 
ATOM     26  C   UNL A   1      35.445  34.542  28.818  1.00  0.00     0.014 A 
ATOM     27  C   UNL A   1      35.027  33.276  31.274  1.00  0.00     0.010 A 
ATOM     28  C   UNL A   1      36.515  33.958  29.484  1.00  0.00     0.010 A 
ATOM     29  C   UNL A   1      36.314  33.312  30.713  1.00  0.00    -0.014 A 
BRANCH  29  30
ATOM     30  C   UNL A   1      37.460  32.656  31.385  1.00  0.00     0.031 A 
ATOM     31  C   UNL A   1      38.163  31.505  30.728  1.00  0.00     0.074 A 
ATOM     32  C   UNL A   1      37.814  33.051  32.624  1.00  0.00     0.049 A 
ATOM     33  N   UNL A   1      39.142  30.765  31.183  1.00  0.00    -0.248 NA
ATOM     34  C   UNL A   1      37.681  31.113  29.396  1.00  0.00     0.031 C 
ATOM     35  C   UNL A   1      37.168  34.122  33.386  1.00  0.00     0.029 A 
ATOM     36  N   UNL A   1      38.796  32.591  33.463  1.00  0.00    -0.354 N 
ATOM     37  C   UNL A   1      39.380  29.812  30.203  1.00  0.00     0.074 A 
ATOM     38  C   UNL A   1      38.413  30.036  29.149  1.00  0.00     0.031 C 
ATOM     39  C   UNL A   1      37.788  34.254  34.569  1.00  0.00     0.029 A 
ATOM     40  C   UNL A   1      38.851  33.256  34.662  1.00  0.00     0.049 A 
ATOM     41  H   UNL A   1      39.404  31.853  33.228  1.00  0.00     0.167 HD
ATOM     42  C   UNL A   1      40.332  28.851  30.177  1.00  0.00     0.037 A 
ATOM     43  C   UNL A   1      39.666  33.081  35.719  1.00  0.00     0.037 A 
ATOM     44  C   UNL A   1      41.312  28.655  31.212  1.00  0.00     0.049 A 
ATOM     45  C   UNL A   1      40.717  32.007  35.662  1.00  0.00     0.074 A 
ATOM     46  C   UNL A   1      42.377  27.772  31.236  1.00  0.00     0.029 A 
ATOM     47  N   UNL A   1      41.342  29.352  32.411  1.00  0.00    -0.354 N 
ATOM     48  N   UNL A   1      40.991  31.167  34.693  1.00  0.00    -0.248 NA
ATOM     49  C   UNL A   1      41.575  31.859  36.846  1.00  0.00     0.031 C 
ATOM     50  C   UNL A   1      43.024  27.903  32.470  1.00  0.00     0.029 A 
ATOM     51  C   UNL A   1      42.390  28.898  33.196  1.00  0.00     0.049 A 
ATOM     52  H   UNL A   1      40.712  30.065  32.666  1.00  0.00     0.167 HD
ATOM     53  C   UNL A   1      42.062  30.407  35.139  1.00  0.00     0.074 A 
ATOM     54  C   UNL A   1      42.399  30.894  36.461  1.00  0.00     0.031 C 
ATOM     55  C   UNL A   1      42.709  29.395  34.511  1.00  0.00     0.037 A 
BRANCH  42  56
ATOM     56  C   UNL A   1      40.359  27.937  28.987  1.00  0.00     0.064 A 
ATOM     57  C   UNL A   1      39.633  26.736  28.964  1.00  0.00     0.173 A 
ATOM     58  C   UNL A   1      41.101  28.277  27.846  1.00  0.00     0.173 A 
ATOM     59  F   UNL A   1      38.917  26.360  30.035  1.00  0.00    -0.203 F 
ATOM     60  C   UNL A   1      39.675  25.893  27.857  1.00  0.00     0.198 A 
ATOM     61  C   UNL A   1      41.118  27.445  26.729  1.00  0.00     0.198 A 
ATOM     62  F   UNL A   1      41.809  29.415  27.814  1.00  0.00    -0.203 F 
ATOM     63  F   UNL A   1      39.016  24.726  27.879  1.00  0.00    -0.200 F 
ATOM     64  C   UNL A   1      40.413  26.251  26.738  1.00  0.00     0.200 A 
ATOM     65  F   UNL A   1      41.823  27.797  25.645  1.00  0.00    -0.200 F 
ATOM     66  F   UNL A   1      40.452  25.440  25.672  1.00  0.00    -0.200 F 
ENDBRANCH  42  56
BRANCH  43  67
ATOM     67  C   UNL A   1      39.546  33.968  36.903  1.00  0.00     0.064 A 
ATOM     68  C   UNL A   1      38.783  33.578  38.011  1.00  0.00     0.173 A 
ATOM     69  C   UNL A   1      40.194  35.210  36.957  1.00  0.00     0.173 A 
ATOM     70  F   UNL A   1      38.128  32.408  37.995  1.00  0.00    -0.203 F 
ATOM     71  C   UNL A   1      38.662  34.404  39.128  1.00  0.00     0.198 A 
ATOM     72  C   UNL A   1      40.091  36.024  38.084  1.00  0.00     0.198 A 
ATOM     73  F   UNL A   1      40.939  35.625  35.923  1.00  0.00    -0.203 F 
ATOM     74  F   UNL A   1      37.898  34.022  40.160  1.00  0.00    -0.200 F 
ATOM     75  C   UNL A   1      39.321  35.623  39.165  1.00  0.00     0.200 A 
ATOM     76  F   UNL A   1      40.740  37.196  38.121  1.00  0.00    -0.200 F 
ATOM     77  F   UNL A   1      39.210  36.413  40.242  1.00  0.00    -0.200 F 
ENDBRANCH  43  67
BRANCH  55  78
ATOM     78  C   UNL A   1      43.858  28.761  35.236  1.00  0.00     0.064 A 
ATOM     79  C   UNL A   1      43.674  27.651  36.072  1.00  0.00     0.173 A 
ATOM     80  C   UNL A   1      45.164  29.246  35.062  1.00  0.00     0.173 A 
ATOM     81  F   UNL A   1      42.443  27.162  36.283  1.00  0.00    -0.203 F 
ATOM     82  C   UNL A   1      44.753  27.061  36.724  1.00  0.00     0.198 A 
ATOM     83  C   UNL A   1      46.243  28.637  35.695  1.00  0.00     0.198 A 
ATOM     84  F   UNL A   1      45.392  30.303  34.269  1.00  0.00    -0.203 F 
ATOM     85  F   UNL A   1      44.548  26.026  37.552  1.00  0.00    -0.200 F 
ATOM     86  C   UNL A   1      46.036  27.549  36.530  1.00  0.00     0.200 A 
ATOM     87  F   UNL A   1      47.483  29.103  35.497  1.00  0.00    -0.200 F 
ATOM     88  F   UNL A   1      47.074  26.975  37.153  1.00  0.00    -0.200 F 
ENDBRANCH  55  78
ENDBRANCH  29  30
ENDBRANCH  21  24
ENDBRANCH  19  20
ENDBRANCH   1  19
TORSDOF 13
ENDMDL
MODEL 2
REMARK VINA RESULT:     -12.1      6.561     11.845
REMARK SMILES CC(=O)c1ccc(O)c(C(=O)NCCCCNC(=O)c2ccc(-c3c4nc(c(-c5c(F)c(F)c(F)c(F)c5F)c5ccc([nH]5)c(-c5c(F)c(F)c(F)c(F)c5F)c5nc(c(-c6c(F)c(F)c(F)c(F)c6F)c6ccc3[nH]6)C=C5)C=C4)cc2)c1
REMARK SMILES IDX 15 1 14 2 13 3 12 4 10 5 11 6 9 8 4 9 5 10 83 11 6 12 7 13
REMARK SMILES IDX 2 14 1 15 3 16 8 17 16 19 17 20 18 21 19 23 20 24 21 25
REMARK SMILES IDX 82 26 22 27 81 28 23 29 24 30 25 31 75 32 26 33 80 34 74 35
REMARK SMILES IDX 76 36 27 37 79 38 73 39 72 40 28 42 60 43 40 44 59 45 41 46
REMARK SMILES IDX 44 47 58 48 77 49 42 50 43 51 57 53 78 54 45 55 29 56 30 57
REMARK SMILES IDX 38 58 31 59 32 60 36 61 39 62 33 63 34 64 37 65 35 66 61 67
REMARK SMILES IDX 62 68 70 69 63 70 64 71 68 72 71 73 65 74 66 75 69 76 67 77
REMARK SMILES IDX 46 78 47 79 55 80 48 81 49 82 53 83 56 84 50 85 51 86 54 87
REMARK SMILES IDX 52 88
REMARK H PARENT 12 7 8 18 17 22 76 41 44 52
REMARK Flexibility Score: inf
ROOT
ATOM      1  C   UNL A   1      37.887  20.085  25.030  1.00  0.00     0.023 C 
ENDROOT
BRANCH   1   2
ATOM      2  C   UNL A   1      37.196  21.309  24.427  1.00  0.00     0.023 C 
BRANCH   2   3
ATOM      3  C   UNL A   1      37.072  22.505  25.375  1.00  0.00     0.116 C 
BRANCH   3   4
ATOM      4  N   UNL A   1      36.172  22.187  26.459  1.00  0.00    -0.352 N 
ATOM      5  C   UNL A   1      34.848  21.843  26.495  1.00  0.00     0.255 C 
ATOM      6  O   UNL A   1      34.362  21.736  27.626  1.00  0.00    -0.269 OA
ATOM      7  H   UNL A   1      36.595  22.226  27.347  1.00  0.00     0.163 HD
BRANCH   5   8
ATOM      8  C   UNL A   1      33.984  21.507  25.316  1.00  0.00     0.082 A 
ATOM      9  C   UNL A   1      32.889  19.627  24.162  1.00  0.00     0.018 A 
ATOM     10  C   UNL A   1      32.372  20.499  23.207  1.00  0.00     0.015 A 
ATOM     11  C   UNL A   1      33.690  20.131  25.196  1.00  0.00     0.029 A 
ATOM     12  C   UNL A   1      32.621  21.864  23.321  1.00  0.00     0.048 A 
ATOM     13  C   UNL A   1      33.394  22.367  24.380  1.00  0.00     0.128 A 
BRANCH   9  14
ATOM     14  C   UNL A   1      32.584  18.172  24.142  1.00  0.00     0.159 C 
ATOM     15  C   UNL A   1      33.277  17.303  23.126  1.00  0.00     0.093 C 
ATOM     16  O   UNL A   1      31.798  17.703  24.961  1.00  0.00    -0.295 OA
ENDBRANCH   9  14
BRANCH  13  17
ATOM     17  O   UNL A   1      33.475  23.724  24.473  1.00  0.00    -0.507 OA
ATOM     18  H   UNL A   1      34.115  24.190  23.972  1.00  0.00     0.293 HD
ENDBRANCH  13  17
ENDBRANCH   5   8
ENDBRANCH   3   4
ENDBRANCH   2   3
ENDBRANCH   1   2
BRANCH   1  19
ATOM     19  C   UNL A   1      39.194  20.385  25.751  1.00  0.00     0.116 C 
BRANCH  19  20
ATOM     20  N   UNL A   1      40.079  19.233  25.848  1.00  0.00    -0.352 N 
ATOM     21  C   UNL A   1      41.427  19.205  26.126  1.00  0.00     0.251 C 
ATOM     22  H   UNL A   1      39.657  18.356  25.697  1.00  0.00     0.163 HD
ATOM     23  O   UNL A   1      42.052  18.161  26.089  1.00  0.00    -0.269 OA
BRANCH  21  24
ATOM     24  C   UNL A   1      42.116  20.479  26.417  1.00  0.00     0.039 A 
ATOM     25  C   UNL A   1      42.613  21.229  25.349  1.00  0.00     0.014 A 
ATOM     26  C   UNL A   1      42.220  20.952  27.727  1.00  0.00     0.014 A 
ATOM     27  C   UNL A   1      43.144  22.497  25.589  1.00  0.00     0.010 A 
ATOM     28  C   UNL A   1      42.685  22.241  27.957  1.00  0.00     0.010 A 
ATOM     29  C   UNL A   1      43.143  23.027  26.889  1.00  0.00    -0.014 A 
BRANCH  29  30
ATOM     30  C   UNL A   1      43.594  24.414  27.150  1.00  0.00     0.031 A 
ATOM     31  C   UNL A   1      42.625  25.438  27.665  1.00  0.00     0.074 A 
ATOM     32  C   UNL A   1      44.858  24.767  26.845  1.00  0.00     0.049 A 
ATOM     33  N   UNL A   1      42.814  26.713  27.895  1.00  0.00    -0.248 NA
ATOM     34  C   UNL A   1      41.255  24.976  27.928  1.00  0.00     0.031 C 
ATOM     35  C   UNL A   1      45.873  23.872  26.285  1.00  0.00     0.029 A 
ATOM     36  N   UNL A   1      45.500  25.973  26.952  1.00  0.00    -0.354 N 
ATOM     37  C   UNL A   1      41.585  27.206  28.311  1.00  0.00     0.074 A 
ATOM     38  C   UNL A   1      40.646  26.106  28.257  1.00  0.00     0.031 C 
ATOM     39  C   UNL A   1      47.018  24.553  26.124  1.00  0.00     0.029 A 
ATOM     40  C   UNL A   1      46.808  25.939  26.536  1.00  0.00     0.049 A 
ATOM     41  H   UNL A   1      45.066  26.787  27.296  1.00  0.00     0.167 HD
ATOM     42  C   UNL A   1      41.276  28.458  28.719  1.00  0.00     0.037 A 
ATOM     43  C   UNL A   1      47.733  26.916  26.490  1.00  0.00     0.037 A 
ATOM     44  C   UNL A   1      42.222  29.540  28.803  1.00  0.00     0.049 A 
ATOM     45  C   UNL A   1      47.362  28.297  26.953  1.00  0.00     0.074 A 
ATOM     46  C   UNL A   1      42.030  30.819  29.294  1.00  0.00     0.029 A 
ATOM     47  N   UNL A   1      43.541  29.466  28.378  1.00  0.00    -0.354 N 
ATOM     48  N   UNL A   1      46.221  28.733  27.427  1.00  0.00    -0.248 NA
ATOM     49  C   UNL A   1      48.412  29.323  26.875  1.00  0.00     0.031 C 
ATOM     50  C   UNL A   1      43.220  31.534  29.124  1.00  0.00     0.029 A 
ATOM     51  C   UNL A   1      44.166  30.689  28.568  1.00  0.00     0.049 A 
ATOM     52  H   UNL A   1      43.969  28.665  27.998  1.00  0.00     0.167 HD
ATOM     53  C   UNL A   1      46.418  30.073  27.724  1.00  0.00     0.074 A 
ATOM     54  C   UNL A   1      47.795  30.377  27.390  1.00  0.00     0.031 C 
ATOM     55  C   UNL A   1      45.538  30.973  28.228  1.00  0.00     0.037 A 
BRANCH  42  56
ATOM     56  C   UNL A   1      39.851  28.725  29.108  1.00  0.00     0.064 A 
ATOM     57  C   UNL A   1      39.406  28.565  30.429  1.00  0.00     0.173 A 
ATOM     58  C   UNL A   1      38.924  29.168  28.152  1.00  0.00     0.173 A 
ATOM     59  F   UNL A   1      40.250  28.133  31.378  1.00  0.00    -0.203 F 
ATOM     60  C   UNL A   1      38.079  28.807  30.773  1.00  0.00     0.198 A 
ATOM     61  C   UNL A   1      37.605  29.436  28.505  1.00  0.00     0.198 A 
ATOM     62  F   UNL A   1      39.299  29.342  26.876  1.00  0.00    -0.203 F 
ATOM     63  F   UNL A   1      37.664  28.597  32.030  1.00  0.00    -0.200 F 
ATOM     64  C   UNL A   1      37.180  29.248  29.812  1.00  0.00     0.200 A 
ATOM     65  F   UNL A   1      36.740  29.873  27.579  1.00  0.00    -0.200 F 
ATOM     66  F   UNL A   1      35.903  29.482  30.144  1.00  0.00    -0.200 F 
ENDBRANCH  42  56
BRANCH  43  67
ATOM     67  C   UNL A   1      49.109  26.610  26.025  1.00  0.00     0.064 A 
ATOM     68  C   UNL A   1      49.503  26.912  24.714  1.00  0.00     0.173 A 
ATOM     69  C   UNL A   1      50.058  26.026  26.875  1.00  0.00     0.173 A 
ATOM     70  F   UNL A   1      48.622  27.453  23.860  1.00  0.00    -0.203 F 
ATOM     71  C   UNL A   1      50.791  26.629  24.266  1.00  0.00     0.198 A 
ATOM     72  C   UNL A   1      51.354  25.765  26.433  1.00  0.00     0.198 A 
ATOM     73  F   UNL A   1      49.731  25.722  28.139  1.00  0.00    -0.203 F 
ATOM     74  F   UNL A   1      51.131  26.897  22.998  1.00  0.00    -0.200 F 
ATOM     75  C   UNL A   1      51.717  26.062  25.128  1.00  0.00     0.200 A 
ATOM     76  F   UNL A   1      52.250  25.227  27.272  1.00  0.00    -0.200 F 
ATOM     77  F   UNL A   1      52.959  25.796  24.699  1.00  0.00    -0.200 F 
ENDBRANCH  43  67
BRANCH  55  78
ATOM     78  C   UNL A   1      46.042  32.364  28.468  1.00  0.00     0.064 A 
ATOM     79  C   UNL A   1      45.930  33.363  27.490  1.00  0.00     0.173 A 
ATOM     80  C   UNL A   1      46.608  32.713  29.704  1.00  0.00     0.173 A 
ATOM     81  F   UNL A   1      45.412  33.073  26.287  1.00  0.00    -0.203 F 
ATOM     82  C   UNL A   1      46.386  34.655  27.733  1.00  0.00     0.198 A 
ATOM     83  C   UNL A   1      47.037  34.013  29.953  1.00  0.00     0.198 A 
ATOM     84  F   UNL A   1      46.733  31.795  30.673  1.00  0.00    -0.203 F 
ATOM     85  F   UNL A   1      46.307  35.583  26.769  1.00  0.00    -0.200 F 
ATOM     86  C   UNL A   1      46.931  34.981  28.965  1.00  0.00     0.200 A 
ATOM     87  F   UNL A   1      47.554  34.328  31.148  1.00  0.00    -0.200 F 
ATOM     88  F   UNL A   1      47.362  36.228  29.200  1.00  0.00    -0.200 F 
ENDBRANCH  55  78
ENDBRANCH  29  30
ENDBRANCH  21  24
ENDBRANCH  19  20
ENDBRANCH   1  19
TORSDOF 13
ENDMDL
MODEL 3
REMARK VINA RESULT:     -12.1      3.044      9.559
REMARK SMILES CC(=O)c1ccc(O)c(C(=O)NCCCCNC(=O)c2ccc(-c3c4nc(c(-c5c(F)c(F)c(F)c(F)c5F)c5ccc([nH]5)c(-c5c(F)c(F)c(F)c(F)c5F)c5nc(c(-c6c(F)c(F)c(F)c(F)c6F)c6ccc3[nH]6)C=C5)C=C4)cc2)c1
REMARK SMILES IDX 15 1 14 2 13 3 12 4 10 5 11 6 9 8 4 9 5 10 83 11 6 12 7 13
REMARK SMILES IDX 2 14 1 15 3 16 8 17 16 19 17 20 18 21 19 23 20 24 21 25
REMARK SMILES IDX 82 26 22 27 81 28 23 29 24 30 25 31 75 32 26 33 80 34 74 35
REMARK SMILES IDX 76 36 27 37 79 38 73 39 72 40 28 42 60 43 40 44 59 45 41 46
REMARK SMILES IDX 44 47 58 48 77 49 42 50 43 51 57 53 78 54 45 55 29 56 30 57
REMARK SMILES IDX 38 58 31 59 32 60 36 61 39 62 33 63 34 64 37 65 35 66 61 67
REMARK SMILES IDX 62 68 70 69 63 70 64 71 68 72 71 73 65 74 66 75 69 76 67 77
REMARK SMILES IDX 46 78 47 79 55 80 48 81 49 82 53 83 56 84 50 85 51 86 54 87
REMARK SMILES IDX 52 88
REMARK H PARENT 12 7 8 18 17 22 76 41 44 52
REMARK Flexibility Score: inf
ROOT
ATOM      1  C   UNL A   1      34.805  34.917  28.253  1.00  0.00     0.023 C 
ENDROOT
BRANCH   1   2
ATOM      2  C   UNL A   1      34.100  36.267  28.382  1.00  0.00     0.023 C 
BRANCH   2   3
ATOM      3  C   UNL A   1      32.840  36.249  29.254  1.00  0.00     0.116 C 
BRANCH   3   4
ATOM      4  N   UNL A   1      32.985  37.174  30.353  1.00  0.00    -0.352 N 
ATOM      5  C   UNL A   1      33.357  37.010  31.661  1.00  0.00     0.255 C 
ATOM      6  O   UNL A   1      33.273  38.024  32.363  1.00  0.00    -0.269 OA
ATOM      7  H   UNL A   1      32.777  38.106  30.115  1.00  0.00     0.163 HD
BRANCH   5   8
ATOM      8  C   UNL A   1      33.923  35.765  32.275  1.00  0.00     0.082 A 
ATOM      9  C   UNL A   1      36.043  34.671  32.885  1.00  0.00     0.018 A 
ATOM     10  C   UNL A   1      35.347  33.570  33.377  1.00  0.00     0.015 A 
ATOM     11  C   UNL A   1      35.334  35.748  32.335  1.00  0.00     0.029 A 
ATOM     12  C   UNL A   1      33.955  33.576  33.358  1.00  0.00     0.048 A 
ATOM     13  C   UNL A   1      33.249  34.673  32.840  1.00  0.00     0.128 A 
BRANCH   9  14
ATOM     14  C   UNL A   1      37.526  34.758  32.958  1.00  0.00     0.159 C 
ATOM     15  C   UNL A   1      38.324  34.590  31.692  1.00  0.00     0.093 C 
ATOM     16  O   UNL A   1      38.070  34.987  34.036  1.00  0.00    -0.295 OA
ENDBRANCH   9  14
BRANCH  13  17
ATOM     17  O   UNL A   1      31.895  34.637  32.981  1.00  0.00    -0.507 OA
ATOM     18  H   UNL A   1      31.490  33.925  33.437  1.00  0.00     0.293 HD
ENDBRANCH  13  17
ENDBRANCH   5   8
ENDBRANCH   3   4
ENDBRANCH   2   3
ENDBRANCH   1   2
BRANCH   1  19
ATOM     19  C   UNL A   1      34.075  33.752  28.907  1.00  0.00     0.116 C 
BRANCH  19  20
ATOM     20  N   UNL A   1      33.419  32.871  27.954  1.00  0.00    -0.352 N 
ATOM     21  C   UNL A   1      33.838  31.646  27.485  1.00  0.00     0.251 C 
ATOM     22  H   UNL A   1      32.559  33.193  27.596  1.00  0.00     0.163 HD
ATOM     23  O   UNL A   1      33.214  31.062  26.617  1.00  0.00    -0.269 OA
BRANCH  21  24
ATOM     24  C   UNL A   1      35.092  31.076  28.017  1.00  0.00     0.039 A 
ATOM     25  C   UNL A   1      36.238  31.875  28.027  1.00  0.00     0.014 A 
ATOM     26  C   UNL A   1      35.120  29.786  28.552  1.00  0.00     0.014 A 
ATOM     27  C   UNL A   1      37.396  31.407  28.648  1.00  0.00     0.010 A 
ATOM     28  C   UNL A   1      36.251  29.348  29.230  1.00  0.00     0.010 A 
ATOM     29  C   UNL A   1      37.396  30.159  29.292  1.00  0.00    -0.014 A 
BRANCH  29  30
ATOM     30  C   UNL A   1      38.575  29.692  30.057  1.00  0.00     0.031 A 
ATOM     31  C   UNL A   1      38.815  30.190  31.452  1.00  0.00     0.074 A 
ATOM     32  C   UNL A   1      39.471  28.881  29.461  1.00  0.00     0.049 A 
ATOM     33  N   UNL A   1      39.819  29.947  32.256  1.00  0.00    -0.248 NA
ATOM     34  C   UNL A   1      37.808  31.107  32.007  1.00  0.00     0.031 C 
ATOM     35  C   UNL A   1      39.373  28.377  28.090  1.00  0.00     0.029 A 
ATOM     36  N   UNL A   1      40.644  28.348  29.930  1.00  0.00    -0.354 N 
ATOM     37  C   UNL A   1      39.574  30.694  33.400  1.00  0.00     0.074 A 
ATOM     38  C   UNL A   1      38.352  31.435  33.170  1.00  0.00     0.031 C 
ATOM     39  C   UNL A   1      40.427  27.586  27.837  1.00  0.00     0.029 A 
ATOM     40  C   UNL A   1      41.291  27.555  29.015  1.00  0.00     0.049 A 
ATOM     41  H   UNL A   1      40.989  28.516  30.836  1.00  0.00     0.167 HD
ATOM     42  C   UNL A   1      40.293  30.739  34.546  1.00  0.00     0.037 A 
ATOM     43  C   UNL A   1      42.452  26.880  29.114  1.00  0.00     0.037 A 
ATOM     44  C   UNL A   1      41.489  29.973  34.781  1.00  0.00     0.049 A 
ATOM     45  C   UNL A   1      43.229  26.946  30.399  1.00  0.00     0.074 A 
ATOM     46  C   UNL A   1      42.237  29.876  35.940  1.00  0.00     0.029 A 
ATOM     47  N   UNL A   1      42.112  29.175  33.833  1.00  0.00    -0.354 N 
ATOM     48  N   UNL A   1      42.944  27.586  31.507  1.00  0.00    -0.248 NA
ATOM     49  C   UNL A   1      44.490  26.193  30.447  1.00  0.00     0.031 C 
ATOM     50  C   UNL A   1      43.340  29.056  35.680  1.00  0.00     0.029 A 
ATOM     51  C   UNL A   1      43.255  28.606  34.373  1.00  0.00     0.049 A 
ATOM     52  H   UNL A   1      41.791  29.034  32.913  1.00  0.00     0.167 HD
ATOM     53  C   UNL A   1      43.974  27.298  32.390  1.00  0.00     0.074 A 
ATOM     54  C   UNL A   1      44.886  26.413  31.693  1.00  0.00     0.031 C 
ATOM     55  C   UNL A   1      44.151  27.728  33.663  1.00  0.00     0.037 A 
BRANCH  42  56
ATOM     56  C   UNL A   1      39.803  31.650  35.633  1.00  0.00     0.064 A 
ATOM     57  C   UNL A   1      40.374  32.914  35.848  1.00  0.00     0.173 A 
ATOM     58  C   UNL A   1      38.735  31.263  36.456  1.00  0.00     0.173 A 
ATOM     59  F   UNL A   1      41.405  33.325  35.095  1.00  0.00    -0.203 F 
ATOM     60  C   UNL A   1      39.915  33.743  36.867  1.00  0.00     0.198 A 
ATOM     61  C   UNL A   1      38.261  32.107  37.457  1.00  0.00     0.198 A 
ATOM     62  F   UNL A   1      38.152  30.067  36.290  1.00  0.00    -0.203 F 
ATOM     63  F   UNL A   1      40.510  34.924  37.087  1.00  0.00    -0.200 F 
ATOM     64  C   UNL A   1      38.855  33.342  37.667  1.00  0.00     0.200 A 
ATOM     65  F   UNL A   1      37.230  31.723  38.222  1.00  0.00    -0.200 F 
ATOM     66  F   UNL A   1      38.413  34.142  38.647  1.00  0.00    -0.200 F 
ENDBRANCH  42  56
BRANCH  43  67
ATOM     67  C   UNL A   1      42.926  26.052  27.977  1.00  0.00     0.064 A 
ATOM     68  C   UNL A   1      42.516  24.719  27.844  1.00  0.00     0.173 A 
ATOM     69  C   UNL A   1      43.783  26.574  26.998  1.00  0.00     0.173 A 
ATOM     70  F   UNL A   1      41.712  24.172  28.768  1.00  0.00    -0.203 F 
ATOM     71  C   UNL A   1      42.956  23.933  26.781  1.00  0.00     0.198 A 
ATOM     72  C   UNL A   1      44.204  25.794  25.923  1.00  0.00     0.198 A 
ATOM     73  F   UNL A   1      44.200  27.846  27.078  1.00  0.00    -0.203 F 
ATOM     74  F   UNL A   1      42.576  22.651  26.697  1.00  0.00    -0.200 F 
ATOM     75  C   UNL A   1      43.794  24.473  25.818  1.00  0.00     0.200 A 
ATOM     76  F   UNL A   1      45.004  26.323  24.987  1.00  0.00    -0.200 F 
ATOM     77  F   UNL A   1      44.211  23.719  24.792  1.00  0.00    -0.200 F 
ENDBRANCH  43  67
BRANCH  55  78
ATOM     78  C   UNL A   1      45.364  27.232  34.392  1.00  0.00     0.064 A 
ATOM     79  C   UNL A   1      46.571  27.944  34.376  1.00  0.00     0.173 A 
ATOM     80  C   UNL A   1      45.306  26.050  35.148  1.00  0.00     0.173 A 
ATOM     81  F   UNL A   1      46.680  29.070  33.654  1.00  0.00    -0.203 F 
ATOM     82  C   UNL A   1      47.683  27.481  35.072  1.00  0.00     0.198 A 
ATOM     83  C   UNL A   1      46.412  25.604  35.864  1.00  0.00     0.198 A 
ATOM     84  F   UNL A   1      44.173  25.335  35.198  1.00  0.00    -0.203 F 
ATOM     85  F   UNL A   1      48.840  28.156  35.009  1.00  0.00    -0.200 F 
ATOM     86  C   UNL A   1      47.601  26.317  35.822  1.00  0.00     0.200 A 
ATOM     87  F   UNL A   1      46.327  24.485  36.596  1.00  0.00    -0.200 F 
ATOM     88  F   UNL A   1      48.671  25.877  36.498  1.00  0.00    -0.200 F 
ENDBRANCH  55  78
ENDBRANCH  29  30
ENDBRANCH  21  24
ENDBRANCH  19  20
ENDBRANCH   1  19
TORSDOF 13
ENDMDL
