MODEL 1
REMARK VINA RESULT:     -12.3      0.000      0.000
REMARK SMILES Cn1cncc1COc1c(F)cc(C(=O)NCCCCNC(=O)c2ccc(-c3c4nc(c(-c5c(F)c(F)c(F)c(F)c5F)c5ccc([nH]5)c(-c5c(F)c(F)c(F)c(F)c5F)c5nc(c(-c6c(F)c(F)c(F)c(F)c6F)c6ccc3[nH]6)C=C5)C=C4)cc2)cc1F
REMARK SMILES IDX 18 1 17 2 16 3 14 4 15 5 13 7 9 8 10 9 88 10 11 11 12 12
REMARK SMILES IDX 87 13 89 14 8 15 7 16 6 17 1 18 2 19 3 20 4 21 5 22 19 23
REMARK SMILES IDX 20 24 21 25 22 26 23 28 24 29 25 30 86 31 26 32 85 33 27 34
REMARK SMILES IDX 28 35 29 36 79 37 30 38 84 39 78 40 80 41 31 42 83 43 77 44
REMARK SMILES IDX 76 45 32 47 64 48 44 49 63 50 45 51 48 52 62 53 81 54 46 55
REMARK SMILES IDX 47 56 61 58 82 59 49 60 33 61 34 62 42 63 35 64 36 65 40 66
REMARK SMILES IDX 43 67 37 68 38 69 41 70 39 71 65 72 66 73 74 74 67 75 68 76
REMARK SMILES IDX 72 77 75 78 69 79 70 80 73 81 71 82 50 83 51 84 59 85 52 86
REMARK SMILES IDX 53 87 57 88 60 89 54 90 55 91 58 92 56 93
REMARK H PARENT 16 6 21 27 80 46 48 57
REMARK Flexibility Score: inf
ROOT
ATOM      1  C   UNL A   1      31.793  30.595  26.794  1.00  0.00     0.023 C 
ENDROOT
BRANCH   1   2
ATOM      2  C   UNL A   1      33.171  30.161  26.283  1.00  0.00     0.116 C 
BRANCH   2   3
ATOM      3  N   UNL A   1      33.138  29.801  24.876  1.00  0.00    -0.352 N 
ATOM      4  C   UNL A   1      32.727  28.656  24.238  1.00  0.00     0.251 C 
ATOM      5  O   UNL A   1      32.662  28.669  23.009  1.00  0.00    -0.269 OA
ATOM      6  H   UNL A   1      33.472  30.503  24.272  1.00  0.00     0.163 HD
BRANCH   4   7
ATOM      7  C   UNL A   1      32.334  27.413  24.961  1.00  0.00     0.045 A 
ATOM      8  C   UNL A   1      31.695  25.055  26.376  1.00  0.00     0.191 A 
ATOM      9  C   UNL A   1      30.711  25.960  26.007  1.00  0.00     0.168 A 
ATOM     10  C   UNL A   1      33.019  25.378  26.100  1.00  0.00     0.168 A 
ATOM     11  F   UNL A   1      29.429  25.769  26.339  1.00  0.00    -0.203 F 
ATOM     12  C   UNL A   1      31.020  27.116  25.305  1.00  0.00     0.057 A 
ATOM     13  C   UNL A   1      33.346  26.544  25.399  1.00  0.00     0.057 A 
ATOM     14  F   UNL A   1      34.008  24.571  26.511  1.00  0.00    -0.203 F 
BRANCH   8  15
ATOM     15  O   UNL A   1      31.378  23.937  27.101  1.00  0.00    -0.481 OA
BRANCH  15  16
ATOM     16  C   UNL A   1      30.875  22.868  26.278  1.00  0.00     0.285 C 
BRANCH  16  17
ATOM     17  C   UNL A   1      32.016  22.162  25.630  1.00  0.00     0.075 A 
ATOM     18  C   UNL A   1      31.633  22.931  23.255  1.00  0.00     0.151 C 
ATOM     19  N   UNL A   1      32.302  22.175  24.286  1.00  0.00    -0.335 N 
ATOM     20  C   UNL A   1      33.358  21.335  24.073  1.00  0.00     0.199 A 
ATOM     21  N   UNL A   1      33.809  20.834  25.198  1.00  0.00    -0.245 NA
ATOM     22  C   UNL A   1      32.989  21.341  26.171  1.00  0.00     0.138 A 
ENDBRANCH  16  17
ENDBRANCH  15  16
ENDBRANCH   8  15
ENDBRANCH   4   7
ENDBRANCH   2   3
ENDBRANCH   1   2
BRANCH   1  23
ATOM     23  C   UNL A   1      31.543  32.100  26.809  1.00  0.00     0.023 C 
BRANCH  23  24
ATOM     24  C   UNL A   1      32.752  32.952  27.163  1.00  0.00     0.116 C 
BRANCH  24  25
ATOM     25  N   UNL A   1      32.413  34.268  27.680  1.00  0.00    -0.352 N 
ATOM     26  C   UNL A   1      33.022  34.967  28.696  1.00  0.00     0.251 C 
ATOM     27  H   UNL A   1      31.650  34.716  27.249  1.00  0.00     0.163 HD
ATOM     28  O   UNL A   1      32.567  36.036  29.074  1.00  0.00    -0.269 OA
BRANCH  26  29
ATOM     29  C   UNL A   1      34.209  34.387  29.361  1.00  0.00     0.039 A 
ATOM     30  C   UNL A   1      34.017  33.550  30.462  1.00  0.00     0.014 A 
ATOM     31  C   UNL A   1      35.497  34.641  28.884  1.00  0.00     0.014 A 
ATOM     32  C   UNL A   1      35.115  32.922  31.050  1.00  0.00     0.010 A 
ATOM     33  C   UNL A   1      36.581  33.951  29.418  1.00  0.00     0.010 A 
ATOM     34  C   UNL A   1      36.401  33.094  30.513  1.00  0.00    -0.014 A 
BRANCH  34  35
ATOM     35  C   UNL A   1      37.572  32.398  31.102  1.00  0.00     0.031 A 
ATOM     36  C   UNL A   1      38.058  32.771  32.474  1.00  0.00     0.074 A 
ATOM     37  C   UNL A   1      38.215  31.455  30.386  1.00  0.00     0.049 A 
ATOM     38  N   UNL A   1      39.062  32.281  33.155  1.00  0.00    -0.248 NA
ATOM     39  C   UNL A   1      37.341  33.856  33.163  1.00  0.00     0.031 C 
ATOM     40  C   UNL A   1      37.870  31.048  29.023  1.00  0.00     0.029 A 
ATOM     41  N   UNL A   1      39.291  30.664  30.706  1.00  0.00    -0.354 N 
ATOM     42  C   UNL A   1      39.097  32.999  34.343  1.00  0.00     0.074 A 
ATOM     43  C   UNL A   1      38.060  34.003  34.265  1.00  0.00     0.031 C 
ATOM     44  C   UNL A   1      38.690  30.058  28.639  1.00  0.00     0.029 A 
ATOM     45  C   UNL A   1      39.638  29.780  29.714  1.00  0.00     0.049 A 
ATOM     46  H   UNL A   1      39.767  30.726  31.564  1.00  0.00     0.167 HD
ATOM     47  C   UNL A   1      39.900  32.812  35.416  1.00  0.00     0.037 A 
ATOM     48  C   UNL A   1      40.607  28.844  29.681  1.00  0.00     0.037 A 
ATOM     49  C   UNL A   1      40.902  31.786  35.502  1.00  0.00     0.049 A 
ATOM     50  C   UNL A   1      41.488  28.658  30.885  1.00  0.00     0.074 A 
ATOM     51  C   UNL A   1      41.717  31.468  36.574  1.00  0.00     0.029 A 
ATOM     52  N   UNL A   1      41.226  30.910  34.476  1.00  0.00    -0.354 N 
ATOM     53  N   UNL A   1      41.459  29.289  32.034  1.00  0.00    -0.248 NA
ATOM     54  C   UNL A   1      42.537  27.631  30.794  1.00  0.00     0.031 C 
ATOM     55  C   UNL A   1      42.566  30.431  36.182  1.00  0.00     0.029 A 
ATOM     56  C   UNL A   1      42.248  30.069  34.882  1.00  0.00     0.049 A 
ATOM     57  H   UNL A   1      40.794  30.890  33.592  1.00  0.00     0.167 HD
ATOM     58  C   UNL A   1      42.463  28.724  32.807  1.00  0.00     0.074 A 
ATOM     59  C   UNL A   1      43.079  27.689  32.004  1.00  0.00     0.031 C 
ATOM     60  C   UNL A   1      42.842  29.038  34.070  1.00  0.00     0.037 A 
BRANCH  47  61
ATOM     61  C   UNL A   1      39.711  33.717  36.598  1.00  0.00     0.064 A 
ATOM     62  C   UNL A   1      38.870  33.341  37.657  1.00  0.00     0.173 A 
ATOM     63  C   UNL A   1      40.309  34.985  36.652  1.00  0.00     0.173 A 
ATOM     64  F   UNL A   1      38.271  32.141  37.652  1.00  0.00    -0.203 F 
ATOM     65  C   UNL A   1      38.628  34.206  38.719  1.00  0.00     0.198 A 
ATOM     66  C   UNL A   1      40.087  35.836  37.730  1.00  0.00     0.198 A 
ATOM     67  F   UNL A   1      41.130  35.386  35.670  1.00  0.00    -0.203 F 
ATOM     68  F   UNL A   1      37.798  33.839  39.705  1.00  0.00    -0.200 F 
ATOM     69  C   UNL A   1      39.239  35.450  38.757  1.00  0.00     0.200 A 
ATOM     70  F   UNL A   1      40.699  37.027  37.777  1.00  0.00    -0.200 F 
ATOM     71  F   UNL A   1      39.015  36.278  39.787  1.00  0.00    -0.200 F 
ENDBRANCH  47  61
BRANCH  48  72
ATOM     72  C   UNL A   1      40.755  27.983  28.478  1.00  0.00     0.064 A 
ATOM     73  C   UNL A   1      41.515  28.393  27.373  1.00  0.00     0.173 A 
ATOM     74  C   UNL A   1      40.108  26.743  28.400  1.00  0.00     0.173 A 
ATOM     75  F   UNL A   1      42.149  29.574  27.395  1.00  0.00    -0.203 F 
ATOM     76  C   UNL A   1      41.604  27.603  26.228  1.00  0.00     0.198 A 
ATOM     77  C   UNL A   1      40.219  25.941  27.266  1.00  0.00     0.198 A 
ATOM     78  F   UNL A   1      39.385  26.299  29.440  1.00  0.00    -0.203 F 
ATOM     79  F   UNL A   1      42.308  28.034  25.173  1.00  0.00    -0.200 F 
ATOM     80  C   UNL A   1      40.959  26.376  26.177  1.00  0.00     0.200 A 
ATOM     81  F   UNL A   1      39.613  24.747  27.229  1.00  0.00    -0.200 F 
ATOM     82  F   UNL A   1      41.055  25.612  25.081  1.00  0.00    -0.200 F 
ENDBRANCH  48  72
BRANCH  60  83
ATOM     83  C   UNL A   1      43.966  28.257  34.681  1.00  0.00     0.064 A 
ATOM     84  C   UNL A   1      43.703  27.086  35.409  1.00  0.00     0.173 A 
ATOM     85  C   UNL A   1      45.284  28.732  34.648  1.00  0.00     0.173 A 
ATOM     86  F   UNL A   1      42.456  26.598  35.480  1.00  0.00    -0.203 F 
ATOM     87  C   UNL A   1      44.717  26.435  36.105  1.00  0.00     0.198 A 
ATOM     88  C   UNL A   1      46.300  28.063  35.324  1.00  0.00     0.198 A 
ATOM     89  F   UNL A   1      45.584  29.840  33.955  1.00  0.00    -0.203 F 
ATOM     90  F   UNL A   1      44.436  25.346  36.835  1.00  0.00    -0.200 F 
ATOM     91  C   UNL A   1      46.014  26.925  36.064  1.00  0.00     0.200 A 
ATOM     92  F   UNL A   1      47.557  28.526  35.268  1.00  0.00    -0.200 F 
ATOM     93  F   UNL A   1      46.989  26.300  36.738  1.00  0.00    -0.200 F 
ENDBRANCH  60  83
ENDBRANCH  34  35
ENDBRANCH  26  29
ENDBRANCH  24  25
ENDBRANCH  23  24
ENDBRANCH   1  23
TORSDOF 14
ENDMDL
MODEL 2
REMARK VINA RESULT:     -12.2      1.134      2.222
REMARK SMILES Cn1cncc1COc1c(F)cc(C(=O)NCCCCNC(=O)c2ccc(-c3c4nc(c(-c5c(F)c(F)c(F)c(F)c5F)c5ccc([nH]5)c(-c5c(F)c(F)c(F)c(F)c5F)c5nc(c(-c6c(F)c(F)c(F)c(F)c6F)c6ccc3[nH]6)C=C5)C=C4)cc2)cc1F
REMARK SMILES IDX 18 1 17 2 16 3 14 4 15 5 13 7 9 8 10 9 88 10 11 11 12 12
REMARK SMILES IDX 87 13 89 14 8 15 7 16 6 17 1 18 2 19 3 20 4 21 5 22 19 23
REMARK SMILES IDX 20 24 21 25 22 26 23 28 24 29 25 30 86 31 26 32 85 33 27 34
REMARK SMILES IDX 28 35 29 36 79 37 30 38 84 39 78 40 80 41 31 42 83 43 77 44
REMARK SMILES IDX 76 45 32 47 64 48 44 49 63 50 45 51 48 52 62 53 81 54 46 55
REMARK SMILES IDX 47 56 61 58 82 59 49 60 33 61 34 62 42 63 35 64 36 65 40 66
REMARK SMILES IDX 43 67 37 68 38 69 41 70 39 71 65 72 66 73 74 74 67 75 68 76
REMARK SMILES IDX 72 77 75 78 69 79 70 80 73 81 71 82 50 83 51 84 59 85 52 86
REMARK SMILES IDX 53 87 57 88 60 89 54 90 55 91 58 92 56 93
REMARK H PARENT 16 6 21 27 80 46 48 57
REMARK Flexibility Score: inf
ROOT
ATOM      1  C   UNL A   1      31.565  30.804  26.089  1.00  0.00     0.023 C 
ENDROOT
BRANCH   1   2
ATOM      2  C   UNL A   1      31.792  29.818  27.240  1.00  0.00     0.116 C 
BRANCH   2   3
ATOM      3  N   UNL A   1      33.205  29.625  27.517  1.00  0.00    -0.352 N 
ATOM      4  C   UNL A   1      34.151  28.828  26.919  1.00  0.00     0.251 C 
ATOM      5  O   UNL A   1      35.326  28.969  27.257  1.00  0.00    -0.269 OA
ATOM      6  H   UNL A   1      33.546  30.161  28.270  1.00  0.00     0.163 HD
BRANCH   4   7
ATOM      7  C   UNL A   1      33.826  27.822  25.868  1.00  0.00     0.045 A 
ATOM      8  C   UNL A   1      33.134  25.871  23.948  1.00  0.00     0.191 A 
ATOM      9  C   UNL A   1      33.651  27.101  23.568  1.00  0.00     0.168 A 
ATOM     10  C   UNL A   1      32.889  25.653  25.300  1.00  0.00     0.168 A 
ATOM     11  F   UNL A   1      33.807  27.422  22.279  1.00  0.00    -0.203 F 
ATOM     12  C   UNL A   1      34.000  28.058  24.509  1.00  0.00     0.057 A 
ATOM     13  C   UNL A   1      33.228  26.613  26.258  1.00  0.00     0.057 A 
ATOM     14  F   UNL A   1      32.313  24.510  25.703  1.00  0.00    -0.203 F 
BRANCH   8  15
ATOM     15  O   UNL A   1      32.760  24.951  23.006  1.00  0.00    -0.481 OA
BRANCH  15  16
ATOM     16  C   UNL A   1      33.782  23.967  22.757  1.00  0.00     0.285 C 
BRANCH  16  17
ATOM     17  C   UNL A   1      33.306  22.631  23.211  1.00  0.00     0.075 A 
ATOM     18  C   UNL A   1      34.901  22.302  25.142  1.00  0.00     0.151 C 
ATOM     19  N   UNL A   1      33.847  21.901  24.243  1.00  0.00    -0.335 N 
ATOM     20  C   UNL A   1      33.204  20.696  24.286  1.00  0.00     0.199 A 
ATOM     21  N   UNL A   1      32.245  20.630  23.395  1.00  0.00    -0.245 NA
ATOM     22  C   UNL A   1      32.295  21.824  22.724  1.00  0.00     0.138 A 
ENDBRANCH  16  17
ENDBRANCH  15  16
ENDBRANCH   8  15
ENDBRANCH   4   7
ENDBRANCH   2   3
ENDBRANCH   1   2
BRANCH   1  23
ATOM     23  C   UNL A   1      31.338  32.255  26.503  1.00  0.00     0.023 C 
BRANCH  23  24
ATOM     24  C   UNL A   1      32.513  32.917  27.206  1.00  0.00     0.116 C 
BRANCH  24  25
ATOM     25  N   UNL A   1      32.245  34.278  27.642  1.00  0.00    -0.352 N 
ATOM     26  C   UNL A   1      32.920  35.019  28.584  1.00  0.00     0.251 C 
ATOM     27  H   UNL A   1      31.485  34.727  27.207  1.00  0.00     0.163 HD
ATOM     28  O   UNL A   1      32.523  36.130  28.902  1.00  0.00    -0.269 OA
BRANCH  26  29
ATOM     29  C   UNL A   1      34.108  34.437  29.245  1.00  0.00     0.039 A 
ATOM     30  C   UNL A   1      33.926  33.681  30.404  1.00  0.00     0.014 A 
ATOM     31  C   UNL A   1      35.387  34.609  28.709  1.00  0.00     0.014 A 
ATOM     32  C   UNL A   1      35.020  33.050  30.995  1.00  0.00     0.010 A 
ATOM     33  C   UNL A   1      36.463  33.913  29.250  1.00  0.00     0.010 A 
ATOM     34  C   UNL A   1      36.292  33.136  30.405  1.00  0.00    -0.014 A 
BRANCH  34  35
ATOM     35  C   UNL A   1      37.457  32.434  30.998  1.00  0.00     0.031 A 
ATOM     36  C   UNL A   1      37.942  32.807  32.370  1.00  0.00     0.074 A 
ATOM     37  C   UNL A   1      38.095  31.485  30.286  1.00  0.00     0.049 A 
ATOM     38  N   UNL A   1      38.941  32.312  33.055  1.00  0.00    -0.248 NA
ATOM     39  C   UNL A   1      37.230  33.899  33.055  1.00  0.00     0.031 C 
ATOM     40  C   UNL A   1      37.751  31.077  28.923  1.00  0.00     0.029 A 
ATOM     41  N   UNL A   1      39.165  30.688  30.611  1.00  0.00    -0.354 N 
ATOM     42  C   UNL A   1      38.978  33.033  34.241  1.00  0.00     0.074 A 
ATOM     43  C   UNL A   1      37.948  34.044  34.158  1.00  0.00     0.031 C 
ATOM     44  C   UNL A   1      38.565  30.080  28.544  1.00  0.00     0.029 A 
ATOM     45  C   UNL A   1      39.509  29.799  29.622  1.00  0.00     0.049 A 
ATOM     46  H   UNL A   1      39.640  30.749  31.470  1.00  0.00     0.167 HD
ATOM     47  C   UNL A   1      39.777  32.844  35.316  1.00  0.00     0.037 A 
ATOM     48  C   UNL A   1      40.472  28.857  29.593  1.00  0.00     0.037 A 
ATOM     49  C   UNL A   1      40.773  31.812  35.407  1.00  0.00     0.049 A 
ATOM     50  C   UNL A   1      41.350  28.669  30.800  1.00  0.00     0.074 A 
ATOM     51  C   UNL A   1      41.583  31.491  36.482  1.00  0.00     0.029 A 
ATOM     52  N   UNL A   1      41.093  30.931  34.385  1.00  0.00    -0.354 N 
ATOM     53  N   UNL A   1      41.321  29.303  31.948  1.00  0.00    -0.248 NA
ATOM     54  C   UNL A   1      42.391  27.634  30.714  1.00  0.00     0.031 C 
ATOM     55  C   UNL A   1      42.426  30.448  36.095  1.00  0.00     0.029 A 
ATOM     56  C   UNL A   1      42.109  30.085  34.795  1.00  0.00     0.049 A 
ATOM     57  H   UNL A   1      40.663  30.912  33.500  1.00  0.00     0.167 HD
ATOM     58  C   UNL A   1      42.321  28.733  32.725  1.00  0.00     0.074 A 
ATOM     59  C   UNL A   1      42.931  27.692  31.925  1.00  0.00     0.031 C 
ATOM     60  C   UNL A   1      42.698  29.048  33.988  1.00  0.00     0.037 A 
BRANCH  47  61
ATOM     61  C   UNL A   1      39.592  33.753  36.496  1.00  0.00     0.064 A 
ATOM     62  C   UNL A   1      40.271  34.979  36.566  1.00  0.00     0.173 A 
ATOM     63  C   UNL A   1      38.794  33.380  37.589  1.00  0.00     0.173 A 
ATOM     64  F   UNL A   1      41.050  35.380  35.550  1.00  0.00    -0.203 F 
ATOM     65  C   UNL A   1      40.166  35.791  37.691  1.00  0.00     0.198 A 
ATOM     66  C   UNL A   1      38.668  34.209  38.699  1.00  0.00     0.198 A 
ATOM     67  F   UNL A   1      38.116  32.223  37.565  1.00  0.00    -0.203 F 
ATOM     68  F   UNL A   1      40.847  36.944  37.749  1.00  0.00    -0.200 F 
ATOM     69  C   UNL A   1      39.362  35.409  38.754  1.00  0.00     0.200 A 
ATOM     70  F   UNL A   1      37.871  33.849  39.714  1.00  0.00    -0.200 F 
ATOM     71  F   UNL A   1      39.252  36.198  39.831  1.00  0.00    -0.200 F 
ENDBRANCH  47  61
BRANCH  48  72
ATOM     72  C   UNL A   1      40.618  27.992  28.393  1.00  0.00     0.064 A 
ATOM     73  C   UNL A   1      40.022  26.724  28.327  1.00  0.00     0.173 A 
ATOM     74  C   UNL A   1      41.389  28.408  27.299  1.00  0.00     0.173 A 
ATOM     75  F   UNL A   1      39.280  26.277  29.351  1.00  0.00    -0.203 F 
ATOM     76  C   UNL A   1      40.209  25.898  27.220  1.00  0.00     0.198 A 
ATOM     77  C   UNL A   1      41.553  27.593  26.182  1.00  0.00     0.198 A 
ATOM     78  F   UNL A   1      41.963  29.620  27.308  1.00  0.00    -0.203 F 
ATOM     79  F   UNL A   1      39.656  24.678  27.198  1.00  0.00    -0.200 F 
ATOM     80  C   UNL A   1      40.971  26.334  26.147  1.00  0.00     0.200 A 
ATOM     81  F   UNL A   1      42.271  28.026  25.137  1.00  0.00    -0.200 F 
ATOM     82  F   UNL A   1      41.140  25.544  25.078  1.00  0.00    -0.200 F 
ENDBRANCH  48  72
BRANCH  60  83
ATOM     83  C   UNL A   1      43.816  28.261  34.603  1.00  0.00     0.064 A 
ATOM     84  C   UNL A   1      43.546  27.080  35.312  1.00  0.00     0.173 A 
ATOM     85  C   UNL A   1      45.132  28.739  34.594  1.00  0.00     0.173 A 
ATOM     86  F   UNL A   1      42.299  26.588  35.358  1.00  0.00    -0.203 F 
ATOM     87  C   UNL A   1      44.552  26.422  36.012  1.00  0.00     0.198 A 
ATOM     88  C   UNL A   1      46.141  28.064  35.275  1.00  0.00     0.198 A 
ATOM     89  F   UNL A   1      45.440  29.858  33.921  1.00  0.00    -0.203 F 
ATOM     90  F   UNL A   1      44.263  25.323  36.723  1.00  0.00    -0.200 F 
ATOM     91  C   UNL A   1      45.848  26.915  35.995  1.00  0.00     0.200 A 
ATOM     92  F   UNL A   1      47.397  28.530  35.242  1.00  0.00    -0.200 F 
ATOM     93  F   UNL A   1      46.815  26.284  36.675  1.00  0.00    -0.200 F 
ENDBRANCH  60  83
ENDBRANCH  34  35
ENDBRANCH  26  29
ENDBRANCH  24  25
ENDBRANCH  23  24
ENDBRANCH   1  23
TORSDOF 14
ENDMDL
MODEL 3
REMARK VINA RESULT:     -12.1      1.190      7.563
REMARK SMILES Cn1cncc1COc1c(F)cc(C(=O)NCCCCNC(=O)c2ccc(-c3c4nc(c(-c5c(F)c(F)c(F)c(F)c5F)c5ccc([nH]5)c(-c5c(F)c(F)c(F)c(F)c5F)c5nc(c(-c6c(F)c(F)c(F)c(F)c6F)c6ccc3[nH]6)C=C5)C=C4)cc2)cc1F
REMARK SMILES IDX 18 1 17 2 16 3 14 4 15 5 13 7 9 8 10 9 88 10 11 11 12 12
REMARK SMILES IDX 87 13 89 14 8 15 7 16 6 17 1 18 2 19 3 20 4 21 5 22 19 23
REMARK SMILES IDX 20 24 21 25 22 26 23 28 24 29 25 30 86 31 26 32 85 33 27 34
REMARK SMILES IDX 28 35 29 36 79 37 30 38 84 39 78 40 80 41 31 42 83 43 77 44
REMARK SMILES IDX 76 45 32 47 64 48 44 49 63 50 45 51 48 52 62 53 81 54 46 55
REMARK SMILES IDX 47 56 61 58 82 59 49 60 33 61 34 62 42 63 35 64 36 65 40 66
REMARK SMILES IDX 43 67 37 68 38 69 41 70 39 71 65 72 66 73 74 74 67 75 68 76
REMARK SMILES IDX 72 77 75 78 69 79 70 80 73 81 71 82 50 83 51 84 59 85 52 86
REMARK SMILES IDX 53 87 57 88 60 89 54 90 55 91 58 92 56 93
REMARK H PARENT 16 6 21 27 80 46 48 57
REMARK Flexibility Score: inf
ROOT
ATOM      1  C   UNL A   1      31.631  30.775  26.091  1.00  0.00     0.023 C 
ENDROOT
BRANCH   1   2
ATOM      2  C   UNL A   1      31.848  29.780  27.236  1.00  0.00     0.116 C 
BRANCH   2   3
ATOM      3  N   UNL A   1      33.259  29.569  27.509  1.00  0.00    -0.352 N 
ATOM      4  C   UNL A   1      34.190  28.750  26.917  1.00  0.00     0.251 C 
ATOM      5  O   UNL A   1      35.369  28.877  27.249  1.00  0.00    -0.269 OA
ATOM      6  H   UNL A   1      33.611  30.109  28.254  1.00  0.00     0.163 HD
BRANCH   4   7
ATOM      7  C   UNL A   1      33.846  27.736  25.880  1.00  0.00     0.045 A 
ATOM      8  C   UNL A   1      33.116  25.773  23.986  1.00  0.00     0.191 A 
ATOM      9  C   UNL A   1      33.652  26.990  23.590  1.00  0.00     0.168 A 
ATOM     10  C   UNL A   1      32.872  25.576  25.342  1.00  0.00     0.168 A 
ATOM     11  F   UNL A   1      33.808  27.293  22.297  1.00  0.00    -0.203 F 
ATOM     12  C   UNL A   1      34.019  27.953  24.517  1.00  0.00     0.057 A 
ATOM     13  C   UNL A   1      33.230  26.542  26.287  1.00  0.00     0.057 A 
ATOM     14  F   UNL A   1      32.280  24.448  25.761  1.00  0.00    -0.203 F 
BRANCH   8  15
ATOM     15  O   UNL A   1      32.725  24.847  23.057  1.00  0.00    -0.481 OA
BRANCH  15  16
ATOM     16  C   UNL A   1      33.761  23.894  22.755  1.00  0.00     0.285 C 
BRANCH  16  17
ATOM     17  C   UNL A   1      33.425  22.582  23.374  1.00  0.00     0.075 A 
ATOM     18  C   UNL A   1      35.213  22.540  25.157  1.00  0.00     0.151 C 
ATOM     19  N   UNL A   1      34.110  21.990  24.408  1.00  0.00    -0.335 N 
ATOM     20  C   UNL A   1      33.560  20.758  24.625  1.00  0.00     0.199 A 
ATOM     21  N   UNL A   1      32.528  20.547  23.844  1.00  0.00    -0.245 NA
ATOM     22  C   UNL A   1      32.431  21.671  23.066  1.00  0.00     0.138 A 
ENDBRANCH  16  17
ENDBRANCH  15  16
ENDBRANCH   8  15
ENDBRANCH   4   7
ENDBRANCH   2   3
ENDBRANCH   1   2
BRANCH   1  23
ATOM     23  C   UNL A   1      31.380  32.219  26.516  1.00  0.00     0.023 C 
BRANCH  23  24
ATOM     24  C   UNL A   1      32.531  32.883  27.257  1.00  0.00     0.116 C 
BRANCH  24  25
ATOM     25  N   UNL A   1      32.272  34.265  27.626  1.00  0.00    -0.352 N 
ATOM     26  C   UNL A   1      32.918  35.031  28.569  1.00  0.00     0.251 C 
ATOM     27  H   UNL A   1      31.541  34.710  27.140  1.00  0.00     0.163 HD
ATOM     28  O   UNL A   1      32.529  36.161  28.825  1.00  0.00    -0.269 OA
BRANCH  26  29
ATOM     29  C   UNL A   1      34.062  34.453  29.307  1.00  0.00     0.039 A 
ATOM     30  C   UNL A   1      33.816  33.790  30.510  1.00  0.00     0.014 A 
ATOM     31  C   UNL A   1      35.361  34.538  28.800  1.00  0.00     0.014 A 
ATOM     32  C   UNL A   1      34.868  33.162  31.178  1.00  0.00     0.010 A 
ATOM     33  C   UNL A   1      36.393  33.843  29.422  1.00  0.00     0.010 A 
ATOM     34  C   UNL A   1      36.158  33.157  30.624  1.00  0.00    -0.014 A 
BRANCH  34  35
ATOM     35  C   UNL A   1      37.276  32.456  31.302  1.00  0.00     0.031 A 
ATOM     36  C   UNL A   1      37.983  31.323  30.613  1.00  0.00     0.074 A 
ATOM     37  C   UNL A   1      37.630  32.820  32.550  1.00  0.00     0.049 A 
ATOM     38  N   UNL A   1      38.977  30.589  31.042  1.00  0.00    -0.248 NA
ATOM     39  C   UNL A   1      37.493  30.946  29.277  1.00  0.00     0.031 C 
ATOM     40  C   UNL A   1      36.980  33.866  33.341  1.00  0.00     0.029 A 
ATOM     41  N   UNL A   1      38.625  32.353  33.372  1.00  0.00    -0.354 N 
ATOM     42  C   UNL A   1      39.225  29.666  30.035  1.00  0.00     0.074 A 
ATOM     43  C   UNL A   1      38.236  29.884  29.004  1.00  0.00     0.031 C 
ATOM     44  C   UNL A   1      37.618  33.990  34.515  1.00  0.00     0.029 A 
ATOM     45  C   UNL A   1      38.701  33.012  34.575  1.00  0.00     0.049 A 
ATOM     46  H   UNL A   1      39.227  31.615  33.123  1.00  0.00     0.167 HD
ATOM     47  C   UNL A   1      40.211  28.742  29.964  1.00  0.00     0.037 A 
ATOM     48  C   UNL A   1      39.554  32.850  35.605  1.00  0.00     0.037 A 
ATOM     49  C   UNL A   1      41.214  28.556  30.976  1.00  0.00     0.049 A 
ATOM     50  C   UNL A   1      40.639  31.815  35.503  1.00  0.00     0.074 A 
ATOM     51  C   UNL A   1      42.299  27.698  30.963  1.00  0.00     0.029 A 
ATOM     52  N   UNL A   1      41.257  29.242  32.181  1.00  0.00    -0.354 N 
ATOM     53  N   UNL A   1      40.913  31.002  34.511  1.00  0.00    -0.248 NA
ATOM     54  C   UNL A   1      41.538  31.672  36.658  1.00  0.00     0.031 C 
ATOM     55  C   UNL A   1      42.972  27.829  32.180  1.00  0.00     0.029 A 
ATOM     56  C   UNL A   1      42.335  28.805  32.932  1.00  0.00     0.049 A 
ATOM     57  H   UNL A   1      40.616  29.935  32.460  1.00  0.00     0.167 HD
ATOM     58  C   UNL A   1      42.023  30.270  34.910  1.00  0.00     0.074 A 
ATOM     59  C   UNL A   1      42.382  30.741  36.231  1.00  0.00     0.031 C 
ATOM     60  C   UNL A   1      42.682  29.293  34.241  1.00  0.00     0.037 A 
BRANCH  47  61
ATOM     61  C   UNL A   1      40.274  27.878  28.739  1.00  0.00     0.064 A 
ATOM     62  C   UNL A   1      39.632  26.630  28.711  1.00  0.00     0.173 A 
ATOM     63  C   UNL A   1      41.028  28.254  27.616  1.00  0.00     0.173 A 
ATOM     64  F   UNL A   1      38.903  26.222  29.761  1.00  0.00    -0.203 F 
ATOM     65  C   UNL A   1      39.751  25.789  27.610  1.00  0.00     0.198 A 
ATOM     66  C   UNL A   1      41.120  27.422  26.504  1.00  0.00     0.198 A 
ATOM     67  F   UNL A   1      41.651  29.441  27.589  1.00  0.00    -0.203 F 
ATOM     68  F   UNL A   1      39.153  24.589  27.617  1.00  0.00    -0.200 F 
ATOM     69  C   UNL A   1      40.490  26.187  26.506  1.00  0.00     0.200 A 
ATOM     70  F   UNL A   1      41.814  27.820  25.429  1.00  0.00    -0.200 F 
ATOM     71  F   UNL A   1      40.594  25.380  25.440  1.00  0.00    -0.200 F 
ENDBRANCH  47  61
BRANCH  48  72
ATOM     72  C   UNL A   1      39.437  33.728  36.799  1.00  0.00     0.064 A 
ATOM     73  C   UNL A   1      38.678  33.349  37.916  1.00  0.00     0.173 A 
ATOM     74  C   UNL A   1      40.059  34.983  36.829  1.00  0.00     0.173 A 
ATOM     75  F   UNL A   1      38.058  32.160  37.934  1.00  0.00    -0.203 F 
ATOM     76  C   UNL A   1      38.531  34.201  39.009  1.00  0.00     0.198 A 
ATOM     77  C   UNL A   1      39.933  35.823  37.933  1.00  0.00     0.198 A 
ATOM     78  F   UNL A   1      40.811  35.383  35.793  1.00  0.00    -0.203 F 
ATOM     79  F   UNL A   1      37.772  33.828  40.048  1.00  0.00    -0.200 F 
ATOM     80  C   UNL A   1      39.161  35.436  39.019  1.00  0.00     0.200 A 
ATOM     81  F   UNL A   1      40.562  37.007  37.949  1.00  0.00    -0.200 F 
ATOM     82  F   UNL A   1      39.028  36.250  40.074  1.00  0.00    -0.200 F 
ENDBRANCH  48  72
BRANCH  60  83
ATOM     83  C   UNL A   1      43.869  28.663  34.908  1.00  0.00     0.064 A 
ATOM     84  C   UNL A   1      45.161  29.154  34.666  1.00  0.00     0.173 A 
ATOM     85  C   UNL A   1      43.736  27.505  35.684  1.00  0.00     0.173 A 
ATOM     86  F   UNL A   1      45.339  30.254  33.919  1.00  0.00    -0.203 F 
ATOM     87  C   UNL A   1      46.280  28.489  35.157  1.00  0.00     0.198 A 
ATOM     88  C   UNL A   1      44.857  26.858  36.196  1.00  0.00     0.198 A 
ATOM     89  F   UNL A   1      42.520  27.006  35.951  1.00  0.00    -0.203 F 
ATOM     90  F   UNL A   1      47.508  28.946  34.874  1.00  0.00    -0.200 F 
ATOM     91  C   UNL A   1      46.128  27.341  35.920  1.00  0.00     0.200 A 
ATOM     92  F   UNL A   1      44.708  25.759  36.949  1.00  0.00    -0.200 F 
ATOM     93  F   UNL A   1      47.207  26.698  36.388  1.00  0.00    -0.200 F 
ENDBRANCH  60  83
ENDBRANCH  34  35
ENDBRANCH  26  29
ENDBRANCH  24  25
ENDBRANCH  23  24
ENDBRANCH   1  23
TORSDOF 14
ENDMDL
