MODEL 1
REMARK VINA RESULT:     -12.1      0.000      0.000
REMARK SMILES CC(C)(C[S@](=O)c1cccc(Cl)c1)C(=O)NCCCCNC(=O)c1ccc(-c2c3nc(c(-c4c(F)c(F)c(F)c(F)c4F)c4ccc([nH]4)c(-c4c(F)c(F)c(F)c(F)c4F)c4nc(c(-c5c(F)c(F)c(F)c(F)c5F)c5ccc2[nH]5)C=C4)C=C3)cc1
REMARK SMILES IDX 18 1 17 2 16 3 14 4 15 5 2 7 1 8 3 9 4 10 5 11 6 12 7 13
REMARK SMILES IDX 8 14 13 15 9 16 11 17 10 18 12 19 19 20 20 21 21 22 22 23
REMARK SMILES IDX 23 25 24 26 25 27 86 28 26 29 85 30 27 31 28 32 29 33 79 34
REMARK SMILES IDX 30 35 84 36 78 37 80 38 31 39 83 40 77 41 76 42 32 44 64 45
REMARK SMILES IDX 44 46 63 47 45 48 48 49 62 50 81 51 46 52 47 53 61 55 82 56
REMARK SMILES IDX 49 57 33 58 34 59 42 60 35 61 36 62 40 63 43 64 37 65 38 66
REMARK SMILES IDX 41 67 39 68 65 69 66 70 74 71 67 72 68 73 72 74 75 75 69 76
REMARK SMILES IDX 70 77 73 78 71 79 50 80 51 81 59 82 52 83 53 84 57 85 60 86
REMARK SMILES IDX 54 87 55 88 58 89 56 90
REMARK H PARENT 16 6 21 24 80 43 48 54
REMARK Flexibility Score: inf
ROOT
ATOM      1  C   UNL A   1      31.611  30.921  26.176  1.00  0.00     0.023 C 
ENDROOT
BRANCH   1   2
ATOM      2  C   UNL A   1      32.299  30.008  27.189  1.00  0.00     0.116 C 
BRANCH   2   3
ATOM      3  N   UNL A   1      31.674  28.705  27.279  1.00  0.00    -0.356 N 
ATOM      4  C   UNL A   1      31.803  27.556  26.564  1.00  0.00     0.226 C 
ATOM      5  O   UNL A   1      31.247  26.566  27.049  1.00  0.00    -0.274 OA
ATOM      6  H   UNL A   1      31.018  28.637  28.010  1.00  0.00     0.163 HD
BRANCH   4   7
ATOM      7  C   UNL A   1      32.663  27.448  25.289  1.00  0.00     0.055 C 
ATOM      8  C   UNL A   1      32.949  25.953  24.998  1.00  0.00     0.022 C 
ATOM      9  C   UNL A   1      34.044  28.082  25.574  1.00  0.00     0.022 C 
BRANCH   7  10
ATOM     10  C   UNL A   1      32.046  28.102  24.040  1.00  0.00     0.126 C 
BRANCH  10  11
ATOM     11  S   UNL A   1      30.785  27.132  23.134  1.00  0.00     0.054 S 
ATOM     12  O   UNL A   1      31.157  27.039  21.688  1.00  0.00    -0.254 OA
BRANCH  11  13
ATOM     13  C   UNL A   1      29.447  28.341  23.222  1.00  0.00     0.040 A 
ATOM     14  C   UNL A   1      28.108  27.941  23.155  1.00  0.00     0.018 A 
ATOM     15  C   UNL A   1      29.759  29.698  23.347  1.00  0.00     0.038 A 
ATOM     16  C   UNL A   1      27.086  28.892  23.184  1.00  0.00     0.003 A 
ATOM     17  C   UNL A   1      28.734  30.642  23.380  1.00  0.00     0.042 A 
ATOM     18  C   UNL A   1      27.400  30.247  23.293  1.00  0.00     0.020 A 
ATOM     19  Cl  UNL A   1      29.122  32.313  23.521  1.00  0.00    -0.084 Cl
ENDBRANCH  11  13
ENDBRANCH  10  11
ENDBRANCH   7  10
ENDBRANCH   4   7
ENDBRANCH   2   3
ENDBRANCH   1   2
BRANCH   1  20
ATOM     20  C   UNL A   1      31.391  32.359  26.645  1.00  0.00     0.023 C 
BRANCH  20  21
ATOM     21  C   UNL A   1      32.574  33.001  27.362  1.00  0.00     0.116 C 
BRANCH  21  22
ATOM     22  N   UNL A   1      32.359  34.403  27.694  1.00  0.00    -0.352 N 
ATOM     23  C   UNL A   1      33.002  35.161  28.646  1.00  0.00     0.251 C 
ATOM     24  H   UNL A   1      31.666  34.867  27.172  1.00  0.00     0.163 HD
ATOM     25  O   UNL A   1      32.650  36.312  28.876  1.00  0.00    -0.269 OA
BRANCH  23  26
ATOM     26  C   UNL A   1      34.101  34.550  29.418  1.00  0.00     0.039 A 
ATOM     27  C   UNL A   1      33.804  33.877  30.607  1.00  0.00     0.014 A 
ATOM     28  C   UNL A   1      35.407  34.584  28.925  1.00  0.00     0.014 A 
ATOM     29  C   UNL A   1      34.809  33.161  31.261  1.00  0.00     0.010 A 
ATOM     30  C   UNL A   1      36.391  33.822  29.544  1.00  0.00     0.010 A 
ATOM     31  C   UNL A   1      36.098  33.094  30.710  1.00  0.00    -0.014 A 
BRANCH  31  32
ATOM     32  C   UNL A   1      37.175  32.275  31.319  1.00  0.00     0.031 A 
ATOM     33  C   UNL A   1      37.685  32.631  32.685  1.00  0.00     0.074 A 
ATOM     34  C   UNL A   1      37.764  31.296  30.607  1.00  0.00     0.049 A 
ATOM     35  N   UNL A   1      38.747  32.201  33.313  1.00  0.00    -0.248 NA
ATOM     36  C   UNL A   1      36.907  33.633  33.431  1.00  0.00     0.031 C 
ATOM     37  C   UNL A   1      37.371  30.867  29.265  1.00  0.00     0.029 A 
ATOM     38  N   UNL A   1      38.842  30.500  30.908  1.00  0.00    -0.354 N 
ATOM     39  C   UNL A   1      38.785  32.902  34.510  1.00  0.00     0.074 A 
ATOM     40  C   UNL A   1      37.657  33.809  34.509  1.00  0.00     0.031 C 
ATOM     41  C   UNL A   1      38.192  29.884  28.860  1.00  0.00     0.029 A 
ATOM     42  C   UNL A   1      39.197  29.647  29.892  1.00  0.00     0.049 A 
ATOM     43  H   UNL A   1      39.316  30.537  31.771  1.00  0.00     0.167 HD
ATOM     44  C   UNL A   1      39.675  32.790  35.525  1.00  0.00     0.037 A 
ATOM     45  C   UNL A   1      40.231  28.789  29.798  1.00  0.00     0.037 A 
ATOM     46  C   UNL A   1      40.774  31.862  35.536  1.00  0.00     0.049 A 
ATOM     47  C   UNL A   1      41.209  28.686  30.938  1.00  0.00     0.074 A 
ATOM     48  C   UNL A   1      41.715  31.652  36.528  1.00  0.00     0.029 A 
ATOM     49  N   UNL A   1      41.070  30.982  34.507  1.00  0.00    -0.354 N 
ATOM     50  N   UNL A   1      41.226  29.341  32.072  1.00  0.00    -0.248 NA
ATOM     51  C   UNL A   1      42.311  27.726  30.782  1.00  0.00     0.031 C 
ATOM     52  C   UNL A   1      42.596  30.658  36.089  1.00  0.00     0.029 A 
ATOM     53  C   UNL A   1      42.181  30.225  34.840  1.00  0.00     0.049 A 
ATOM     54  H   UNL A   1      40.566  30.907  33.664  1.00  0.00     0.167 HD
ATOM     55  C   UNL A   1      42.313  28.848  32.780  1.00  0.00     0.074 A 
ATOM     56  C   UNL A   1      42.933  27.838  31.948  1.00  0.00     0.031 C 
ATOM     57  C   UNL A   1      42.757  29.199  34.012  1.00  0.00     0.037 A 
BRANCH  44  58
ATOM     58  C   UNL A   1      39.492  33.694  36.706  1.00  0.00     0.064 A 
ATOM     59  C   UNL A   1      38.790  33.275  37.846  1.00  0.00     0.173 A 
ATOM     60  C   UNL A   1      40.047  34.981  36.711  1.00  0.00     0.173 A 
ATOM     61  F   UNL A   1      38.227  32.058  37.883  1.00  0.00    -0.203 F 
ATOM     62  C   UNL A   1      38.627  34.124  38.937  1.00  0.00     0.198 A 
ATOM     63  C   UNL A   1      39.907  35.817  37.816  1.00  0.00     0.198 A 
ATOM     64  F   UNL A   1      40.732  35.428  35.647  1.00  0.00    -0.203 F 
ATOM     65  F   UNL A   1      37.911  33.720  39.996  1.00  0.00    -0.200 F 
ATOM     66  C   UNL A   1      39.191  35.391  38.924  1.00  0.00     0.200 A 
ATOM     67  F   UNL A   1      40.459  37.038  37.806  1.00  0.00    -0.200 F 
ATOM     68  F   UNL A   1      39.037  36.205  39.978  1.00  0.00    -0.200 F 
ENDBRANCH  44  58
BRANCH  45  69
ATOM     69  C   UNL A   1      40.391  27.945  28.586  1.00  0.00     0.064 A 
ATOM     70  C   UNL A   1      39.808  26.672  28.522  1.00  0.00     0.173 A 
ATOM     71  C   UNL A   1      41.134  28.381  27.479  1.00  0.00     0.173 A 
ATOM     72  F   UNL A   1      39.108  26.204  29.565  1.00  0.00    -0.203 F 
ATOM     73  C   UNL A   1      39.980  25.857  27.404  1.00  0.00     0.198 A 
ATOM     74  C   UNL A   1      41.284  27.575  26.351  1.00  0.00     0.198 A 
ATOM     75  F   UNL A   1      41.709  29.591  27.490  1.00  0.00    -0.203 F 
ATOM     76  F   UNL A   1      39.448  24.627  27.387  1.00  0.00    -0.200 F 
ATOM     77  C   UNL A   1      40.713  26.311  26.318  1.00  0.00     0.200 A 
ATOM     78  F   UNL A   1      41.983  28.020  25.300  1.00  0.00    -0.200 F 
ATOM     79  F   UNL A   1      40.876  25.527  25.244  1.00  0.00    -0.200 F 
ENDBRANCH  45  69
BRANCH  57  80
ATOM     80  C   UNL A   1      43.925  28.443  34.567  1.00  0.00     0.064 A 
ATOM     81  C   UNL A   1      45.238  28.919  34.443  1.00  0.00     0.173 A 
ATOM     82  C   UNL A   1      43.716  27.263  35.296  1.00  0.00     0.173 A 
ATOM     83  F   UNL A   1      45.487  30.036  33.742  1.00  0.00    -0.203 F 
ATOM     84  C   UNL A   1      46.302  28.232  35.021  1.00  0.00     0.198 A 
ATOM     85  C   UNL A   1      44.780  26.591  35.891  1.00  0.00     0.198 A 
ATOM     86  F   UNL A   1      42.477  26.772  35.446  1.00  0.00    -0.203 F 
ATOM     87  F   UNL A   1      47.553  28.688  34.867  1.00  0.00    -0.200 F 
ATOM     88  C   UNL A   1      46.072  27.075  35.750  1.00  0.00     0.200 A 
ATOM     89  F   UNL A   1      44.554  25.480  36.604  1.00  0.00    -0.200 F 
ATOM     90  F   UNL A   1      47.097  26.424  36.318  1.00  0.00    -0.200 F 
ENDBRANCH  57  80
ENDBRANCH  31  32
ENDBRANCH  23  26
ENDBRANCH  21  22
ENDBRANCH  20  21
ENDBRANCH   1  20
TORSDOF 14
ENDMDL
MODEL 2
REMARK VINA RESULT:     -12.1      0.123      1.625
REMARK SMILES CC(C)(C[S@](=O)c1cccc(Cl)c1)C(=O)NCCCCNC(=O)c1ccc(-c2c3nc(c(-c4c(F)c(F)c(F)c(F)c4F)c4ccc([nH]4)c(-c4c(F)c(F)c(F)c(F)c4F)c4nc(c(-c5c(F)c(F)c(F)c(F)c5F)c5ccc2[nH]5)C=C4)C=C3)cc1
REMARK SMILES IDX 18 1 17 2 16 3 14 4 15 5 2 7 1 8 3 9 4 10 5 11 6 12 7 13
REMARK SMILES IDX 8 14 13 15 9 16 11 17 10 18 12 19 19 20 20 21 21 22 22 23
REMARK SMILES IDX 23 25 24 26 25 27 86 28 26 29 85 30 27 31 28 32 29 33 79 34
REMARK SMILES IDX 30 35 84 36 78 37 80 38 31 39 83 40 77 41 76 42 32 44 64 45
REMARK SMILES IDX 44 46 63 47 45 48 48 49 62 50 81 51 46 52 47 53 61 55 82 56
REMARK SMILES IDX 49 57 33 58 34 59 42 60 35 61 36 62 40 63 43 64 37 65 38 66
REMARK SMILES IDX 41 67 39 68 65 69 66 70 74 71 67 72 68 73 72 74 75 75 69 76
REMARK SMILES IDX 70 77 73 78 71 79 50 80 51 81 59 82 52 83 53 84 57 85 60 86
REMARK SMILES IDX 54 87 55 88 58 89 56 90
REMARK H PARENT 16 6 21 24 80 43 48 54
REMARK Flexibility Score: inf
ROOT
ATOM      1  C   UNL A   1      31.651  31.001  26.254  1.00  0.00     0.023 C 
ENDROOT
BRANCH   1   2
ATOM      2  C   UNL A   1      32.339  30.047  27.227  1.00  0.00     0.116 C 
BRANCH   2   3
ATOM      3  N   UNL A   1      31.673  28.764  27.315  1.00  0.00    -0.356 N 
ATOM      4  C   UNL A   1      31.774  27.610  26.604  1.00  0.00     0.226 C 
ATOM      5  O   UNL A   1      31.182  26.639  27.086  1.00  0.00    -0.274 OA
ATOM      6  H   UNL A   1      31.008  28.719  28.039  1.00  0.00     0.163 HD
BRANCH   4   7
ATOM      7  C   UNL A   1      32.642  27.471  25.338  1.00  0.00     0.055 C 
ATOM      8  C   UNL A   1      32.904  25.968  25.067  1.00  0.00     0.022 C 
ATOM      9  C   UNL A   1      34.033  28.083  25.628  1.00  0.00     0.022 C 
BRANCH   7  10
ATOM     10  C   UNL A   1      32.049  28.122  24.076  1.00  0.00     0.126 C 
BRANCH  10  11
ATOM     11  S   UNL A   1      30.786  27.160  23.164  1.00  0.00     0.054 S 
ATOM     12  O   UNL A   1      31.170  27.055  21.722  1.00  0.00    -0.254 OA
BRANCH  11  13
ATOM     13  C   UNL A   1      29.460  28.383  23.233  1.00  0.00     0.040 A 
ATOM     14  C   UNL A   1      28.119  28.000  23.120  1.00  0.00     0.018 A 
ATOM     15  C   UNL A   1      29.783  29.734  23.391  1.00  0.00     0.038 A 
ATOM     16  C   UNL A   1      27.107  28.962  23.135  1.00  0.00     0.003 A 
ATOM     17  C   UNL A   1      28.769  30.689  23.410  1.00  0.00     0.042 A 
ATOM     18  C   UNL A   1      27.433  30.311  23.277  1.00  0.00     0.020 A 
ATOM     19  Cl  UNL A   1      29.171  32.352  23.592  1.00  0.00    -0.084 Cl
ENDBRANCH  11  13
ENDBRANCH  10  11
ENDBRANCH   7  10
ENDBRANCH   4   7
ENDBRANCH   2   3
ENDBRANCH   1   2
BRANCH   1  20
ATOM     20  C   UNL A   1      31.439  32.421  26.779  1.00  0.00     0.023 C 
BRANCH  20  21
ATOM     21  C   UNL A   1      32.662  33.075  27.412  1.00  0.00     0.116 C 
BRANCH  21  22
ATOM     22  N   UNL A   1      32.465  34.479  27.741  1.00  0.00    -0.352 N 
ATOM     23  C   UNL A   1      33.122  35.233  28.686  1.00  0.00     0.251 C 
ATOM     24  H   UNL A   1      31.773  34.949  27.223  1.00  0.00     0.163 HD
ATOM     25  O   UNL A   1      32.785  36.389  28.915  1.00  0.00    -0.269 OA
BRANCH  23  26
ATOM     26  C   UNL A   1      34.221  34.613  29.451  1.00  0.00     0.039 A 
ATOM     27  C   UNL A   1      33.935  34.000  30.675  1.00  0.00     0.014 A 
ATOM     28  C   UNL A   1      35.513  34.578  28.922  1.00  0.00     0.014 A 
ATOM     29  C   UNL A   1      34.932  33.274  31.330  1.00  0.00     0.010 A 
ATOM     30  C   UNL A   1      36.485  33.805  29.544  1.00  0.00     0.010 A 
ATOM     31  C   UNL A   1      36.200  33.136  30.746  1.00  0.00    -0.014 A 
BRANCH  31  32
ATOM     32  C   UNL A   1      37.264  32.303  31.359  1.00  0.00     0.031 A 
ATOM     33  C   UNL A   1      37.771  32.648  32.729  1.00  0.00     0.074 A 
ATOM     34  C   UNL A   1      37.846  31.319  30.647  1.00  0.00     0.049 A 
ATOM     35  N   UNL A   1      38.824  32.203  33.361  1.00  0.00    -0.248 NA
ATOM     36  C   UNL A   1      37.001  33.657  33.474  1.00  0.00     0.031 C 
ATOM     37  C   UNL A   1      37.455  30.899  29.301  1.00  0.00     0.029 A 
ATOM     38  N   UNL A   1      38.913  30.509  30.951  1.00  0.00    -0.354 N 
ATOM     39  C   UNL A   1      38.864  32.900  34.560  1.00  0.00     0.074 A 
ATOM     40  C   UNL A   1      37.747  33.820  34.556  1.00  0.00     0.031 C 
ATOM     41  C   UNL A   1      38.267  29.907  28.897  1.00  0.00     0.029 A 
ATOM     42  C   UNL A   1      39.263  29.655  29.934  1.00  0.00     0.049 A 
ATOM     43  H   UNL A   1      39.382  30.538  31.816  1.00  0.00     0.167 HD
ATOM     44  C   UNL A   1      39.747  32.774  35.580  1.00  0.00     0.037 A 
ATOM     45  C   UNL A   1      40.288  28.786  29.843  1.00  0.00     0.037 A 
ATOM     46  C   UNL A   1      40.835  31.833  35.594  1.00  0.00     0.049 A 
ATOM     47  C   UNL A   1      41.258  28.667  30.987  1.00  0.00     0.074 A 
ATOM     48  C   UNL A   1      41.769  31.608  36.590  1.00  0.00     0.029 A 
ATOM     49  N   UNL A   1      41.127  30.953  34.563  1.00  0.00    -0.354 N 
ATOM     50  N   UNL A   1      41.276  29.318  32.124  1.00  0.00    -0.248 NA
ATOM     51  C   UNL A   1      42.349  27.695  30.835  1.00  0.00     0.031 C 
ATOM     52  C   UNL A   1      42.640  30.606  36.153  1.00  0.00     0.029 A 
ATOM     53  C   UNL A   1      42.226  30.182  34.900  1.00  0.00     0.049 A 
ATOM     54  H   UNL A   1      40.626  30.887  33.718  1.00  0.00     0.167 HD
ATOM     55  C   UNL A   1      42.354  28.810  32.837  1.00  0.00     0.074 A 
ATOM     56  C   UNL A   1      42.966  27.796  32.004  1.00  0.00     0.031 C 
ATOM     57  C   UNL A   1      42.795  29.152  34.071  1.00  0.00     0.037 A 
BRANCH  44  58
ATOM     58  C   UNL A   1      39.569  33.676  36.763  1.00  0.00     0.064 A 
ATOM     59  C   UNL A   1      40.128  34.962  36.794  1.00  0.00     0.173 A 
ATOM     60  C   UNL A   1      38.808  33.262  37.866  1.00  0.00     0.173 A 
ATOM     61  F   UNL A   1      40.876  35.398  35.770  1.00  0.00    -0.203 F 
ATOM     62  C   UNL A   1      39.954  35.790  37.899  1.00  0.00     0.198 A 
ATOM     63  C   UNL A   1      38.613  34.104  38.958  1.00  0.00     0.198 A 
ATOM     64  F   UNL A   1      38.248  32.043  37.884  1.00  0.00    -0.203 F 
ATOM     65  F   UNL A   1      40.538  36.997  37.928  1.00  0.00    -0.200 F 
ATOM     66  C   UNL A   1      39.192  35.364  38.977  1.00  0.00     0.200 A 
ATOM     67  F   UNL A   1      37.869  33.695  39.994  1.00  0.00    -0.200 F 
ATOM     68  F   UNL A   1      39.022  36.165  40.038  1.00  0.00    -0.200 F 
ENDBRANCH  44  58
BRANCH  45  69
ATOM     69  C   UNL A   1      40.444  27.944  28.629  1.00  0.00     0.064 A 
ATOM     70  C   UNL A   1      39.835  26.684  28.551  1.00  0.00     0.173 A 
ATOM     71  C   UNL A   1      41.210  28.368  27.533  1.00  0.00     0.173 A 
ATOM     72  F   UNL A   1      39.112  26.226  29.584  1.00  0.00    -0.203 F 
ATOM     73  C   UNL A   1      40.003  25.870  27.432  1.00  0.00     0.198 A 
ATOM     74  C   UNL A   1      41.356  27.564  26.403  1.00  0.00     0.198 A 
ATOM     75  F   UNL A   1      41.811  29.566  27.557  1.00  0.00    -0.203 F 
ATOM     76  F   UNL A   1      39.445  24.652  27.403  1.00  0.00    -0.200 F 
ATOM     77  C   UNL A   1      40.759  26.313  26.357  1.00  0.00     0.200 A 
ATOM     78  F   UNL A   1      42.078  27.999  25.363  1.00  0.00    -0.200 F 
ATOM     79  F   UNL A   1      40.918  25.531  25.282  1.00  0.00    -0.200 F 
ENDBRANCH  45  69
BRANCH  57  80
ATOM     80  C   UNL A   1      43.951  28.380  34.631  1.00  0.00     0.064 A 
ATOM     81  C   UNL A   1      43.767  27.182  35.334  1.00  0.00     0.173 A 
ATOM     82  C   UNL A   1      45.264  28.814  34.396  1.00  0.00     0.173 A 
ATOM     83  F   UNL A   1      42.529  26.736  35.596  1.00  0.00    -0.203 F 
ATOM     84  C   UNL A   1      44.860  26.450  35.792  1.00  0.00     0.198 A 
ATOM     85  C   UNL A   1      46.354  28.068  34.835  1.00  0.00     0.198 A 
ATOM     86  F   UNL A   1      45.489  29.953  33.722  1.00  0.00    -0.203 F 
ATOM     87  F   UNL A   1      44.663  25.321  36.486  1.00  0.00    -0.200 F 
ATOM     88  C   UNL A   1      46.150  26.889  35.535  1.00  0.00     0.200 A 
ATOM     89  F   UNL A   1      47.600  28.488  34.577  1.00  0.00    -0.200 F 
ATOM     90  F   UNL A   1      47.200  26.174  35.964  1.00  0.00    -0.200 F 
ENDBRANCH  57  80
ENDBRANCH  31  32
ENDBRANCH  23  26
ENDBRANCH  21  22
ENDBRANCH  20  21
ENDBRANCH   1  20
TORSDOF 14
ENDMDL
MODEL 3
REMARK VINA RESULT:     -11.9      1.768      7.901
REMARK SMILES CC(C)(C[S@](=O)c1cccc(Cl)c1)C(=O)NCCCCNC(=O)c1ccc(-c2c3nc(c(-c4c(F)c(F)c(F)c(F)c4F)c4ccc([nH]4)c(-c4c(F)c(F)c(F)c(F)c4F)c4nc(c(-c5c(F)c(F)c(F)c(F)c5F)c5ccc2[nH]5)C=C4)C=C3)cc1
REMARK SMILES IDX 18 1 17 2 16 3 14 4 15 5 2 7 1 8 3 9 4 10 5 11 6 12 7 13
REMARK SMILES IDX 8 14 13 15 9 16 11 17 10 18 12 19 19 20 20 21 21 22 22 23
REMARK SMILES IDX 23 25 24 26 25 27 86 28 26 29 85 30 27 31 28 32 29 33 79 34
REMARK SMILES IDX 30 35 84 36 78 37 80 38 31 39 83 40 77 41 76 42 32 44 64 45
REMARK SMILES IDX 44 46 63 47 45 48 48 49 62 50 81 51 46 52 47 53 61 55 82 56
REMARK SMILES IDX 49 57 33 58 34 59 42 60 35 61 36 62 40 63 43 64 37 65 38 66
REMARK SMILES IDX 41 67 39 68 65 69 66 70 74 71 67 72 68 73 72 74 75 75 69 76
REMARK SMILES IDX 70 77 73 78 71 79 50 80 51 81 59 82 52 83 53 84 57 85 60 86
REMARK SMILES IDX 54 87 55 88 58 89 56 90
REMARK H PARENT 16 6 21 24 80 43 48 54
REMARK Flexibility Score: inf
ROOT
ATOM      1  C   UNL A   1      32.204  30.274  26.839  1.00  0.00     0.023 C 
ENDROOT
BRANCH   1   2
ATOM      2  C   UNL A   1      32.390  29.710  25.433  1.00  0.00     0.116 C 
BRANCH   2   3
ATOM      3  N   UNL A   1      31.277  30.018  24.558  1.00  0.00    -0.356 N 
ATOM      4  C   UNL A   1      30.377  29.251  23.888  1.00  0.00     0.226 C 
ATOM      5  O   UNL A   1      29.431  29.864  23.383  1.00  0.00    -0.274 OA
ATOM      6  H   UNL A   1      31.145  30.984  24.420  1.00  0.00     0.163 HD
BRANCH   4   7
ATOM      7  C   UNL A   1      30.455  27.713  23.832  1.00  0.00     0.055 C 
ATOM      8  C   UNL A   1      31.289  27.293  22.595  1.00  0.00     0.022 C 
ATOM      9  C   UNL A   1      29.034  27.159  23.575  1.00  0.00     0.022 C 
BRANCH   7  10
ATOM     10  C   UNL A   1      31.043  27.052  25.092  1.00  0.00     0.126 C 
BRANCH  10  11
ATOM     11  S   UNL A   1      30.638  25.288  25.368  1.00  0.00     0.054 S 
ATOM     12  O   UNL A   1      29.921  25.129  26.672  1.00  0.00    -0.254 OA
BRANCH  11  13
ATOM     13  C   UNL A   1      32.320  24.700  25.656  1.00  0.00     0.040 A 
ATOM     14  C   UNL A   1      33.419  25.341  25.074  1.00  0.00     0.018 A 
ATOM     15  C   UNL A   1      32.523  23.577  26.465  1.00  0.00     0.038 A 
ATOM     16  C   UNL A   1      34.710  24.848  25.274  1.00  0.00     0.003 A 
ATOM     17  C   UNL A   1      33.814  23.093  26.665  1.00  0.00     0.042 A 
ATOM     18  C   UNL A   1      34.907  23.720  26.068  1.00  0.00     0.020 A 
ATOM     19  Cl  UNL A   1      34.058  21.705  27.651  1.00  0.00    -0.084 Cl
ENDBRANCH  11  13
ENDBRANCH  10  11
ENDBRANCH   7  10
ENDBRANCH   4   7
ENDBRANCH   2   3
ENDBRANCH   1   2
BRANCH   1  20
ATOM     20  C   UNL A   1      31.860  31.762  26.900  1.00  0.00     0.023 C 
BRANCH  20  21
ATOM     21  C   UNL A   1      32.960  32.667  27.445  1.00  0.00     0.116 C 
BRANCH  21  22
ATOM     22  N   UNL A   1      32.513  34.027  27.713  1.00  0.00    -0.352 N 
ATOM     23  C   UNL A   1      33.025  34.929  28.616  1.00  0.00     0.251 C 
ATOM     24  H   UNL A   1      31.747  34.341  27.180  1.00  0.00     0.163 HD
ATOM     25  O   UNL A   1      32.485  36.015  28.795  1.00  0.00    -0.269 OA
BRANCH  23  26
ATOM     26  C   UNL A   1      34.218  34.553  29.398  1.00  0.00     0.039 A 
ATOM     27  C   UNL A   1      34.050  34.016  30.678  1.00  0.00     0.014 A 
ATOM     28  C   UNL A   1      35.491  34.666  28.835  1.00  0.00     0.014 A 
ATOM     29  C   UNL A   1      35.157  33.511  31.363  1.00  0.00     0.010 A 
ATOM     30  C   UNL A   1      36.581  34.107  29.492  1.00  0.00     0.010 A 
ATOM     31  C   UNL A   1      36.421  33.514  30.755  1.00  0.00    -0.014 A 
BRANCH  31  32
ATOM     32  C   UNL A   1      37.610  32.908  31.405  1.00  0.00     0.031 A 
ATOM     33  C   UNL A   1      38.308  31.759  30.736  1.00  0.00     0.074 A 
ATOM     34  C   UNL A   1      37.989  33.312  32.632  1.00  0.00     0.049 A 
ATOM     35  N   UNL A   1      39.215  30.948  31.212  1.00  0.00    -0.248 NA
ATOM     36  C   UNL A   1      37.901  31.465  29.353  1.00  0.00     0.031 C 
ATOM     37  C   UNL A   1      37.382  34.405  33.392  1.00  0.00     0.029 A 
ATOM     38  N   UNL A   1      38.963  32.826  33.470  1.00  0.00    -0.354 N 
ATOM     39  C   UNL A   1      39.463  30.029  30.203  1.00  0.00     0.074 A 
ATOM     40  C   UNL A   1      38.589  30.362  29.098  1.00  0.00     0.031 C 
ATOM     41  C   UNL A   1      38.000  34.510  34.580  1.00  0.00     0.029 A 
ATOM     42  C   UNL A   1      39.011  33.464  34.685  1.00  0.00     0.049 A 
ATOM     43  H   UNL A   1      39.569  32.091  33.222  1.00  0.00     0.167 HD
ATOM     44  C   UNL A   1      40.351  29.006  30.194  1.00  0.00     0.037 A 
ATOM     45  C   UNL A   1      39.771  33.213  35.769  1.00  0.00     0.037 A 
ATOM     46  C   UNL A   1      41.242  28.701  31.280  1.00  0.00     0.049 A 
ATOM     47  C   UNL A   1      40.748  32.068  35.735  1.00  0.00     0.074 A 
ATOM     48  C   UNL A   1      42.198  27.703  31.359  1.00  0.00     0.029 A 
ATOM     49  N   UNL A   1      41.293  29.401  32.477  1.00  0.00    -0.354 N 
ATOM     50  N   UNL A   1      40.988  31.216  34.769  1.00  0.00    -0.248 NA
ATOM     51  C   UNL A   1      41.557  31.850  36.943  1.00  0.00     0.031 C 
ATOM     52  C   UNL A   1      42.813  27.786  32.613  1.00  0.00     0.029 A 
ATOM     53  C   UNL A   1      42.264  28.857  33.299  1.00  0.00     0.049 A 
ATOM     54  H   UNL A   1      40.722  30.170  32.706  1.00  0.00     0.167 HD
ATOM     55  C   UNL A   1      41.998  30.386  35.235  1.00  0.00     0.074 A 
ATOM     56  C   UNL A   1      42.327  30.836  36.572  1.00  0.00     0.031 C 
ATOM     57  C   UNL A   1      42.601  29.346  34.611  1.00  0.00     0.037 A 
BRANCH  44  58
ATOM     58  C   UNL A   1      40.401  28.146  28.968  1.00  0.00     0.064 A 
ATOM     59  C   UNL A   1      39.665  26.955  28.879  1.00  0.00     0.173 A 
ATOM     60  C   UNL A   1      41.169  28.529  27.859  1.00  0.00     0.173 A 
ATOM     61  F   UNL A   1      38.927  26.538  29.920  1.00  0.00    -0.203 F 
ATOM     62  C   UNL A   1      39.719  26.165  27.735  1.00  0.00     0.198 A 
ATOM     63  C   UNL A   1      41.198  27.750  26.705  1.00  0.00     0.198 A 
ATOM     64  F   UNL A   1      41.887  29.661  27.891  1.00  0.00    -0.203 F 
ATOM     65  F   UNL A   1      39.046  25.006  27.691  1.00  0.00    -0.200 F 
ATOM     66  C   UNL A   1      40.480  26.566  26.647  1.00  0.00     0.200 A 
ATOM     67  F   UNL A   1      41.926  28.143  25.651  1.00  0.00    -0.200 F 
ATOM     68  F   UNL A   1      40.527  25.805  25.544  1.00  0.00    -0.200 F 
ENDBRANCH  44  58
BRANCH  45  69
ATOM     69  C   UNL A   1      39.654  34.072  36.975  1.00  0.00     0.064 A 
ATOM     70  C   UNL A   1      38.851  33.679  38.055  1.00  0.00     0.173 A 
ATOM     71  C   UNL A   1      40.324  35.300  37.071  1.00  0.00     0.173 A 
ATOM     72  F   UNL A   1      38.174  32.523  37.999  1.00  0.00    -0.203 F 
ATOM     73  C   UNL A   1      38.706  34.492  39.178  1.00  0.00     0.198 A 
ATOM     74  C   UNL A   1      40.198  36.101  38.206  1.00  0.00     0.198 A 
ATOM     75  F   UNL A   1      41.106  35.720  36.067  1.00  0.00    -0.203 F 
ATOM     76  F   UNL A   1      37.898  34.112  40.177  1.00  0.00    -0.200 F 
ATOM     77  C   UNL A   1      39.383  35.699  39.254  1.00  0.00     0.200 A 
ATOM     78  F   UNL A   1      40.861  37.262  38.281  1.00  0.00    -0.200 F 
ATOM     79  F   UNL A   1      39.244  36.480  40.334  1.00  0.00    -0.200 F 
ENDBRANCH  45  69
BRANCH  57  80
ATOM     80  C   UNL A   1      43.724  28.664  35.331  1.00  0.00     0.064 A 
ATOM     81  C   UNL A   1      45.058  29.058  35.158  1.00  0.00     0.173 A 
ATOM     82  C   UNL A   1      43.449  27.648  36.259  1.00  0.00     0.173 A 
ATOM     83  F   UNL A   1      45.370  30.014  34.270  1.00  0.00    -0.203 F 
ATOM     84  C   UNL A   1      46.080  28.451  35.884  1.00  0.00     0.198 A 
ATOM     85  C   UNL A   1      44.471  27.059  36.998  1.00  0.00     0.198 A 
ATOM     86  F   UNL A   1      42.187  27.242  36.461  1.00  0.00    -0.203 F 
ATOM     87  F   UNL A   1      47.351  28.822  35.685  1.00  0.00    -0.200 F 
ATOM     88  C   UNL A   1      45.784  27.459  36.808  1.00  0.00     0.200 A 
ATOM     89  F   UNL A   1      44.182  26.110  37.898  1.00  0.00    -0.200 F 
ATOM     90  F   UNL A   1      46.768  26.887  37.516  1.00  0.00    -0.200 F 
ENDBRANCH  57  80
ENDBRANCH  31  32
ENDBRANCH  23  26
ENDBRANCH  21  22
ENDBRANCH  20  21
ENDBRANCH   1  20
TORSDOF 14
ENDMDL
