MODEL 1
REMARK VINA RESULT:     -12.6      0.000      0.000
REMARK SMILES CC1=C(C)C[C@@H](C(=O)NCCCCNC(=O)c2ccc(-c3c4nc(c(-c5c(F)c(F)c(F)c(F)c5F)c5ccc([nH]5)c(-c5c(F)c(F)c(F)c(F)c5F)c5nc(c(-c6c(F)c(F)c(F)c(F)c6F)c6ccc3[nH]6)C=C5)C=C4)cc2)[C@@H](C(=O)NCC[NH+]2CCOCC2)C1
REMARK SMILES IDX 10 1 9 2 7 3 8 4 6 6 1 7 2 8 3 9 92 10 4 11 5 12 80 13 81 14
REMARK SMILES IDX 82 15 83 16 84 18 85 19 86 20 87 21 91 22 88 24 90 25 89 26
REMARK SMILES IDX 11 27 12 28 13 29 14 30 15 31 16 33 17 34 18 35 79 36 19 37
REMARK SMILES IDX 78 38 20 39 21 40 22 41 72 42 23 43 77 44 71 45 73 46 24 47
REMARK SMILES IDX 76 48 70 49 69 50 25 52 57 53 37 54 56 55 38 56 41 57 55 58
REMARK SMILES IDX 74 59 39 60 40 61 54 63 75 64 42 65 26 66 27 67 35 68 28 69
REMARK SMILES IDX 29 70 33 71 36 72 30 73 31 74 34 75 32 76 58 77 59 78 67 79
REMARK SMILES IDX 60 80 61 81 65 82 68 83 62 84 63 85 66 86 64 87 43 88 44 89
REMARK SMILES IDX 52 90 45 91 46 92 50 93 53 94 47 95 48 96 51 97 49 98
REMARK H PARENT 9 5 83 17 86 23 14 32 73 51 41 62
REMARK Flexibility Score: inf
ROOT
ATOM      1  C   UNL A   1      31.812  29.538  26.897  1.00  0.00     0.116 C 
ENDROOT
BRANCH   1   2
ATOM      2  N   UNL A   1      33.134  28.961  26.896  1.00  0.00    -0.356 N 
ATOM      3  C   UNL A   1      33.631  27.825  26.342  1.00  0.00     0.224 C 
ATOM      4  O   UNL A   1      34.858  27.665  26.418  1.00  0.00    -0.275 OA
ATOM      5  H   UNL A   1      33.801  29.490  27.389  1.00  0.00     0.163 HD
BRANCH   3   6
ATOM      6  C   UNL A   1      32.788  26.770  25.602  1.00  0.00     0.095 C 
ATOM      7  C   UNL A   1      35.137  23.636  23.568  1.00  0.00     0.039 C 
ATOM      8  C   UNL A   1      34.146  24.540  24.264  1.00  0.00    -0.074 C 
ATOM      9  C   UNL A   1      33.826  24.416  25.571  1.00  0.00    -0.074 C 
ATOM     10  C   UNL A   1      33.619  25.670  23.394  1.00  0.00     0.045 C 
ATOM     11  C   UNL A   1      34.370  23.362  26.504  1.00  0.00     0.039 C 
ATOM     12  C   UNL A   1      32.917  25.398  26.262  1.00  0.00     0.045 C 
ATOM     13  C   UNL A   1      32.745  26.753  24.058  1.00  0.00     0.095 C 
BRANCH  13  14
ATOM     14  C   UNL A   1      33.048  28.128  23.480  1.00  0.00     0.224 C 
ATOM     15  O   UNL A   1      34.186  28.553  23.280  1.00  0.00    -0.275 OA
ATOM     16  N   UNL A   1      32.108  28.991  23.090  1.00  0.00    -0.350 N 
ATOM     17  H   UNL A   1      32.502  29.711  22.547  1.00  0.00     0.163 HD
BRANCH  16  18
ATOM     18  C   UNL A   1      30.688  29.181  23.230  1.00  0.00     0.177 C 
BRANCH  18  19
ATOM     19  C   UNL A   1      30.166  29.924  21.970  1.00  0.00     0.283 C 
BRANCH  19  20
ATOM     20  N   UNL A   1      28.939  30.718  22.087  1.00  0.00    -0.330 N 
ATOM     21  C   UNL A   1      28.059  30.988  20.955  1.00  0.00     0.291 C 
ATOM     22  C   UNL A   1      28.804  31.676  23.182  1.00  0.00     0.291 C 
ATOM     23  H   UNL A   1      28.525  29.839  22.396  1.00  0.00     0.348 HD
ATOM     24  C   UNL A   1      27.925  32.488  20.583  1.00  0.00     0.221 C 
ATOM     25  C   UNL A   1      28.798  33.133  22.700  1.00  0.00     0.221 C 
ATOM     26  O   UNL A   1      27.768  33.340  21.724  1.00  0.00    -0.370 OA
ENDBRANCH  19  20
ENDBRANCH  18  19
ENDBRANCH  16  18
ENDBRANCH  13  14
ENDBRANCH   3   6
ENDBRANCH   1   2
BRANCH   1  27
ATOM     27  C   UNL A   1      31.667  30.825  26.086  1.00  0.00     0.023 C 
BRANCH  27  28
ATOM     28  C   UNL A   1      31.425  32.086  26.911  1.00  0.00     0.023 C 
BRANCH  28  29
ATOM     29  C   UNL A   1      32.686  32.877  27.212  1.00  0.00     0.116 C 
BRANCH  29  30
ATOM     30  N   UNL A   1      32.418  34.261  27.584  1.00  0.00    -0.352 N 
ATOM     31  C   UNL A   1      33.018  35.014  28.559  1.00  0.00     0.251 C 
ATOM     32  H   UNL A   1      31.714  34.714  27.065  1.00  0.00     0.163 HD
ATOM     33  O   UNL A   1      32.598  36.135  28.831  1.00  0.00    -0.269 OA
BRANCH  31  34
ATOM     34  C   UNL A   1      34.154  34.443  29.302  1.00  0.00     0.039 A 
ATOM     35  C   UNL A   1      33.897  33.647  30.419  1.00  0.00     0.014 A 
ATOM     36  C   UNL A   1      35.465  34.664  28.872  1.00  0.00     0.014 A 
ATOM     37  C   UNL A   1      34.959  33.035  31.080  1.00  0.00     0.010 A 
ATOM     38  C   UNL A   1      36.510  33.975  29.469  1.00  0.00     0.010 A 
ATOM     39  C   UNL A   1      36.270  33.175  30.594  1.00  0.00    -0.014 A 
BRANCH  39  40
ATOM     40  C   UNL A   1      37.410  32.522  31.279  1.00  0.00     0.031 A 
ATOM     41  C   UNL A   1      38.145  31.401  30.599  1.00  0.00     0.074 A 
ATOM     42  C   UNL A   1      37.744  32.906  32.525  1.00  0.00     0.049 A 
ATOM     43  N   UNL A   1      39.154  30.691  31.032  1.00  0.00    -0.248 NA
ATOM     44  C   UNL A   1      37.660  31.002  29.268  1.00  0.00     0.031 C 
ATOM     45  C   UNL A   1      37.054  33.931  33.309  1.00  0.00     0.029 A 
ATOM     46  N   UNL A   1      38.749  32.474  33.351  1.00  0.00    -0.354 N 
ATOM     47  C   UNL A   1      39.409  29.755  30.039  1.00  0.00     0.074 A 
ATOM     48  C   UNL A   1      38.409  29.940  29.012  1.00  0.00     0.031 C 
ATOM     49  C   UNL A   1      37.676  34.073  34.490  1.00  0.00     0.029 A 
ATOM     50  C   UNL A   1      38.788  33.129  34.557  1.00  0.00     0.049 A 
ATOM     51  H   UNL A   1      39.382  31.762  33.104  1.00  0.00     0.167 HD
ATOM     52  C   UNL A   1      40.408  28.844  29.975  1.00  0.00     0.037 A 
ATOM     53  C   UNL A   1      39.632  32.986  35.595  1.00  0.00     0.037 A 
ATOM     54  C   UNL A   1      41.418  28.690  30.987  1.00  0.00     0.049 A 
ATOM     55  C   UNL A   1      40.753  31.988  35.487  1.00  0.00     0.074 A 
ATOM     56  C   UNL A   1      42.517  27.851  30.991  1.00  0.00     0.029 A 
ATOM     57  N   UNL A   1      41.447  29.396  32.182  1.00  0.00    -0.354 N 
ATOM     58  N   UNL A   1      41.042  31.170  34.504  1.00  0.00    -0.248 NA
ATOM     59  C   UNL A   1      41.676  31.906  36.627  1.00  0.00     0.031 C 
ATOM     60  C   UNL A   1      43.185  28.014  32.210  1.00  0.00     0.029 A 
ATOM     61  C   UNL A   1      42.535  28.996  32.941  1.00  0.00     0.049 A 
ATOM     62  H   UNL A   1      40.792  30.081  32.450  1.00  0.00     0.167 HD
ATOM     63  C   UNL A   1      42.192  30.496  34.892  1.00  0.00     0.074 A 
ATOM     64  C   UNL A   1      42.559  31.017  36.193  1.00  0.00     0.031 C 
ATOM     65  C   UNL A   1      42.883  29.532  34.232  1.00  0.00     0.037 A 
BRANCH  52  66
ATOM     66  C   UNL A   1      40.455  27.951  28.768  1.00  0.00     0.064 A 
ATOM     67  C   UNL A   1      41.183  28.300  27.619  1.00  0.00     0.173 A 
ATOM     68  C   UNL A   1      39.778  26.723  28.764  1.00  0.00     0.173 A 
ATOM     69  F   UNL A   1      41.839  29.470  27.563  1.00  0.00    -0.203 F 
ATOM     70  C   UNL A   1      41.201  27.471  26.500  1.00  0.00     0.198 A 
ATOM     71  C   UNL A   1      39.826  25.880  27.657  1.00  0.00     0.198 A 
ATOM     72  F   UNL A   1      39.069  26.337  29.836  1.00  0.00    -0.203 F 
ATOM     73  F   UNL A   1      41.854  27.853  25.395  1.00  0.00    -0.200 F 
ATOM     74  C   UNL A   1      40.530  26.258  26.523  1.00  0.00     0.200 A 
ATOM     75  F   UNL A   1      39.187  24.703  27.685  1.00  0.00    -0.200 F 
ATOM     76  F   UNL A   1      40.552  25.459  25.448  1.00  0.00    -0.200 F 
ENDBRANCH  52  66
BRANCH  53  77
ATOM     77  C   UNL A   1      39.474  33.836  36.803  1.00  0.00     0.064 A 
ATOM     78  C   UNL A   1      38.733  33.392  37.907  1.00  0.00     0.173 A 
ATOM     79  C   UNL A   1      40.065  35.106  36.884  1.00  0.00     0.173 A 
ATOM     80  F   UNL A   1      38.136  32.190  37.871  1.00  0.00    -0.203 F 
ATOM     81  C   UNL A   1      38.569  34.192  39.035  1.00  0.00     0.198 A 
ATOM     82  C   UNL A   1      39.923  35.894  38.024  1.00  0.00     0.198 A 
ATOM     83  F   UNL A   1      40.791  35.575  35.859  1.00  0.00    -0.203 F 
ATOM     84  F   UNL A   1      37.816  33.760  40.057  1.00  0.00    -0.200 F 
ATOM     85  C   UNL A   1      39.169  35.441  39.095  1.00  0.00     0.200 A 
ATOM     86  F   UNL A   1      40.519  37.093  38.085  1.00  0.00    -0.200 F 
ATOM     87  F   UNL A   1      39.014  36.209  40.182  1.00  0.00    -0.200 F 
ENDBRANCH  53  77
BRANCH  65  88
ATOM     88  C   UNL A   1      44.124  29.007  34.894  1.00  0.00     0.064 A 
ATOM     89  C   UNL A   1      45.374  29.614  34.707  1.00  0.00     0.173 A 
ATOM     90  C   UNL A   1      44.052  27.899  35.752  1.00  0.00     0.173 A 
ATOM     91  F   UNL A   1      45.497  30.668  33.886  1.00  0.00    -0.203 F 
ATOM     92  C   UNL A   1      46.513  29.110  35.328  1.00  0.00     0.198 A 
ATOM     93  C   UNL A   1      45.187  27.420  36.398  1.00  0.00     0.198 A 
ATOM     94  F   UNL A   1      42.878  27.287  35.972  1.00  0.00    -0.203 F 
ATOM     95  F   UNL A   1      47.706  29.671  35.090  1.00  0.00    -0.200 F 
ATOM     96  C   UNL A   1      46.418  28.019  36.178  1.00  0.00     0.200 A 
ATOM     97  F   UNL A   1      45.091  26.374  37.233  1.00  0.00    -0.200 F 
ATOM     98  F   UNL A   1      47.516  27.538  36.779  1.00  0.00    -0.200 F 
ENDBRANCH  65  88
ENDBRANCH  39  40
ENDBRANCH  31  34
ENDBRANCH  29  30
ENDBRANCH  28  29
ENDBRANCH  27  28
ENDBRANCH   1  27
TORSDOF 15
ENDMDL
MODEL 2
REMARK VINA RESULT:     -12.5      1.212      7.303
REMARK SMILES CC1=C(C)C[C@@H](C(=O)NCCCCNC(=O)c2ccc(-c3c4nc(c(-c5c(F)c(F)c(F)c(F)c5F)c5ccc([nH]5)c(-c5c(F)c(F)c(F)c(F)c5F)c5nc(c(-c6c(F)c(F)c(F)c(F)c6F)c6ccc3[nH]6)C=C5)C=C4)cc2)[C@@H](C(=O)NCC[NH+]2CCOCC2)C1
REMARK SMILES IDX 10 1 9 2 7 3 8 4 6 6 1 7 2 8 3 9 92 10 4 11 5 12 80 13 81 14
REMARK SMILES IDX 82 15 83 16 84 18 85 19 86 20 87 21 91 22 88 24 90 25 89 26
REMARK SMILES IDX 11 27 12 28 13 29 14 30 15 31 16 33 17 34 18 35 79 36 19 37
REMARK SMILES IDX 78 38 20 39 21 40 22 41 72 42 23 43 77 44 71 45 73 46 24 47
REMARK SMILES IDX 76 48 70 49 69 50 25 52 57 53 37 54 56 55 38 56 41 57 55 58
REMARK SMILES IDX 74 59 39 60 40 61 54 63 75 64 42 65 26 66 27 67 35 68 28 69
REMARK SMILES IDX 29 70 33 71 36 72 30 73 31 74 34 75 32 76 58 77 59 78 67 79
REMARK SMILES IDX 60 80 61 81 65 82 68 83 62 84 63 85 66 86 64 87 43 88 44 89
REMARK SMILES IDX 52 90 45 91 46 92 50 93 53 94 47 95 48 96 51 97 49 98
REMARK H PARENT 9 5 83 17 86 23 14 32 73 51 41 62
REMARK Flexibility Score: inf
ROOT
ATOM      1  C   UNL A   1      31.770  28.997  26.217  1.00  0.00     0.116 C 
ENDROOT
BRANCH   1   2
ATOM      2  N   UNL A   1      32.772  28.094  25.706  1.00  0.00    -0.356 N 
ATOM      3  C   UNL A   1      32.703  26.812  25.262  1.00  0.00     0.224 C 
ATOM      4  O   UNL A   1      33.737  26.344  24.765  1.00  0.00    -0.275 OA
ATOM      5  H   UNL A   1      33.677  28.480  25.672  1.00  0.00     0.163 HD
BRANCH   3   6
ATOM      6  C   UNL A   1      31.433  25.941  25.297  1.00  0.00     0.095 C 
ATOM      7  C   UNL A   1      32.113  21.666  24.438  1.00  0.00     0.039 C 
ATOM      8  C   UNL A   1      31.673  23.052  24.851  1.00  0.00    -0.074 C 
ATOM      9  C   UNL A   1      31.825  23.531  26.106  1.00  0.00    -0.074 C 
ATOM     10  C   UNL A   1      31.140  23.900  23.708  1.00  0.00     0.045 C 
ATOM     11  C   UNL A   1      32.412  22.764  27.266  1.00  0.00     0.039 C 
ATOM     12  C   UNL A   1      31.475  24.952  26.460  1.00  0.00     0.045 C 
ATOM     13  C   UNL A   1      30.835  25.386  23.986  1.00  0.00     0.095 C 
BRANCH  13  14
ATOM     14  C   UNL A   1      31.215  26.252  22.793  1.00  0.00     0.224 C 
ATOM     15  O   UNL A   1      32.070  25.942  21.963  1.00  0.00    -0.275 OA
ATOM     16  N   UNL A   1      30.626  27.415  22.504  1.00  0.00    -0.350 N 
ATOM     17  H   UNL A   1      30.853  27.700  21.590  1.00  0.00     0.163 HD
BRANCH  16  18
ATOM     18  C   UNL A   1      29.760  28.375  23.136  1.00  0.00     0.177 C 
BRANCH  18  19
ATOM     19  C   UNL A   1      29.917  29.735  22.402  1.00  0.00     0.283 C 
BRANCH  19  20
ATOM     20  N   UNL A   1      28.771  30.648  22.371  1.00  0.00    -0.330 N 
ATOM     21  C   UNL A   1      28.007  30.921  21.158  1.00  0.00     0.291 C 
ATOM     22  C   UNL A   1      28.653  31.690  23.390  1.00  0.00     0.291 C 
ATOM     23  H   UNL A   1      28.250  29.836  22.701  1.00  0.00     0.348 HD
ATOM     24  C   UNL A   1      28.051  32.396  20.684  1.00  0.00     0.221 C 
ATOM     25  C   UNL A   1      28.828  33.103  22.818  1.00  0.00     0.221 C 
ATOM     26  O   UNL A   1      27.897  33.337  21.752  1.00  0.00    -0.370 OA
ENDBRANCH  19  20
ENDBRANCH  18  19
ENDBRANCH  16  18
ENDBRANCH  13  14
ENDBRANCH   3   6
ENDBRANCH   1   2
BRANCH   1  27
ATOM     27  C   UNL A   1      31.779  30.393  25.596  1.00  0.00     0.023 C 
BRANCH  27  28
ATOM     28  C   UNL A   1      31.497  31.535  26.568  1.00  0.00     0.023 C 
BRANCH  28  29
ATOM     29  C   UNL A   1      32.742  32.270  27.033  1.00  0.00     0.116 C 
BRANCH  29  30
ATOM     30  N   UNL A   1      32.478  33.645  27.436  1.00  0.00    -0.352 N 
ATOM     31  C   UNL A   1      33.112  34.390  28.396  1.00  0.00     0.251 C 
ATOM     32  H   UNL A   1      31.748  34.099  26.955  1.00  0.00     0.163 HD
ATOM     33  O   UNL A   1      32.695  35.503  28.702  1.00  0.00    -0.269 OA
BRANCH  31  34
ATOM     34  C   UNL A   1      34.285  33.819  29.081  1.00  0.00     0.039 A 
ATOM     35  C   UNL A   1      34.083  32.897  30.108  1.00  0.00     0.014 A 
ATOM     36  C   UNL A   1      35.578  34.169  28.682  1.00  0.00     0.014 A 
ATOM     37  C   UNL A   1      35.184  32.289  30.706  1.00  0.00     0.010 A 
ATOM     38  C   UNL A   1      36.667  33.491  29.209  1.00  0.00     0.010 A 
ATOM     39  C   UNL A   1      36.482  32.564  30.244  1.00  0.00    -0.014 A 
BRANCH  39  40
ATOM     40  C   UNL A   1      37.663  31.918  30.862  1.00  0.00     0.031 A 
ATOM     41  C   UNL A   1      38.092  32.319  32.246  1.00  0.00     0.074 A 
ATOM     42  C   UNL A   1      38.370  31.014  30.159  1.00  0.00     0.049 A 
ATOM     43  N   UNL A   1      39.102  31.888  32.956  1.00  0.00    -0.248 NA
ATOM     44  C   UNL A   1      37.301  33.368  32.908  1.00  0.00     0.031 C 
ATOM     45  C   UNL A   1      38.088  30.604  28.783  1.00  0.00     0.029 A 
ATOM     46  N   UNL A   1      39.474  30.279  30.507  1.00  0.00    -0.354 N 
ATOM     47  C   UNL A   1      39.077  32.625  34.132  1.00  0.00     0.074 A 
ATOM     48  C   UNL A   1      37.996  33.576  34.015  1.00  0.00     0.031 C 
ATOM     49  C   UNL A   1      38.975  29.666  28.414  1.00  0.00     0.029 A 
ATOM     50  C   UNL A   1      39.904  29.432  29.515  1.00  0.00     0.049 A 
ATOM     51  H   UNL A   1      39.915  30.352  31.383  1.00  0.00     0.167 HD
ATOM     52  C   UNL A   1      39.865  32.495  35.225  1.00  0.00     0.037 A 
ATOM     53  C   UNL A   1      40.930  28.561  29.504  1.00  0.00     0.037 A 
ATOM     54  C   UNL A   1      40.916  31.523  35.344  1.00  0.00     0.049 A 
ATOM     55  C   UNL A   1      41.772  28.414  30.743  1.00  0.00     0.074 A 
ATOM     56  C   UNL A   1      41.728  31.256  36.431  1.00  0.00     0.029 A 
ATOM     57  N   UNL A   1      41.303  30.655  34.331  1.00  0.00    -0.354 N 
ATOM     58  N   UNL A   1      41.682  29.052  31.885  1.00  0.00    -0.248 NA
ATOM     59  C   UNL A   1      42.846  27.415  30.695  1.00  0.00     0.031 C 
ATOM     60  C   UNL A   1      42.639  30.259  36.061  1.00  0.00     0.029 A 
ATOM     61  C   UNL A   1      42.357  29.865  34.762  1.00  0.00     0.049 A 
ATOM     62  H   UNL A   1      40.890  30.608  33.439  1.00  0.00     0.167 HD
ATOM     63  C   UNL A   1      42.668  28.514  32.701  1.00  0.00     0.074 A 
ATOM     64  C   UNL A   1      43.330  27.484  31.927  1.00  0.00     0.031 C 
ATOM     65  C   UNL A   1      42.998  28.842  33.976  1.00  0.00     0.037 A 
BRANCH  52  66
ATOM     66  C   UNL A   1      39.611  33.428  36.376  1.00  0.00     0.064 A 
ATOM     67  C   UNL A   1      38.772  33.072  37.444  1.00  0.00     0.173 A 
ATOM     68  C   UNL A   1      40.227  34.687  36.421  1.00  0.00     0.173 A 
ATOM     69  F   UNL A   1      38.147  31.884  37.445  1.00  0.00    -0.203 F 
ATOM     70  C   UNL A   1      38.531  33.954  38.494  1.00  0.00     0.198 A 
ATOM     71  C   UNL A   1      40.011  35.554  37.489  1.00  0.00     0.198 A 
ATOM     72  F   UNL A   1      41.041  35.079  35.428  1.00  0.00    -0.203 F 
ATOM     73  F   UNL A   1      37.680  33.614  39.471  1.00  0.00    -0.200 F 
ATOM     74  C   UNL A   1      39.157  35.191  38.519  1.00  0.00     0.200 A 
ATOM     75  F   UNL A   1      40.626  36.744  37.519  1.00  0.00    -0.200 F 
ATOM     76  F   UNL A   1      38.928  36.037  39.532  1.00  0.00    -0.200 F 
ENDBRANCH  52  66
BRANCH  53  77
ATOM     77  C   UNL A   1      41.187  27.734  28.297  1.00  0.00     0.064 A 
ATOM     78  C   UNL A   1      40.561  26.491  28.128  1.00  0.00     0.173 A 
ATOM     79  C   UNL A   1      42.055  28.169  27.286  1.00  0.00     0.173 A 
ATOM     80  F   UNL A   1      39.733  26.025  29.075  1.00  0.00    -0.203 F 
ATOM     81  C   UNL A   1      40.811  25.705  27.006  1.00  0.00     0.198 A 
ATOM     82  C   UNL A   1      42.284  27.395  26.150  1.00  0.00     0.198 A 
ATOM     83  F   UNL A   1      42.673  29.354  27.395  1.00  0.00    -0.203 F 
ATOM     84  F   UNL A   1      40.235  24.500  26.892  1.00  0.00    -0.200 F 
ATOM     85  C   UNL A   1      41.668  26.160  26.014  1.00  0.00     0.200 A 
ATOM     86  F   UNL A   1      43.099  27.845  25.187  1.00  0.00    -0.200 F 
ATOM     87  F   UNL A   1      41.905  25.405  24.933  1.00  0.00    -0.200 F 
ENDBRANCH  53  77
BRANCH  65  88
ATOM     88  C   UNL A   1      44.100  28.055  34.622  1.00  0.00     0.064 A 
ATOM     89  C   UNL A   1      45.434  28.486  34.587  1.00  0.00     0.173 A 
ATOM     90  C   UNL A   1      43.811  26.867  35.312  1.00  0.00     0.173 A 
ATOM     91  F   UNL A   1      45.764  29.608  33.929  1.00  0.00    -0.203 F 
ATOM     92  C   UNL A   1      46.442  27.741  35.192  1.00  0.00     0.198 A 
ATOM     93  C   UNL A   1      44.816  26.143  35.944  1.00  0.00     0.198 A 
ATOM     94  F   UNL A   1      42.549  26.416  35.383  1.00  0.00    -0.203 F 
ATOM     95  F   UNL A   1      47.717  28.143  35.097  1.00  0.00    -0.200 F 
ATOM     96  C   UNL A   1      46.133  26.575  35.874  1.00  0.00     0.200 A 
ATOM     97  F   UNL A   1      44.513  25.024  36.618  1.00  0.00    -0.200 F 
ATOM     98  F   UNL A   1      47.104  25.860  36.460  1.00  0.00    -0.200 F 
ENDBRANCH  65  88
ENDBRANCH  39  40
ENDBRANCH  31  34
ENDBRANCH  29  30
ENDBRANCH  28  29
ENDBRANCH  27  28
ENDBRANCH   1  27
TORSDOF 15
ENDMDL
MODEL 3
REMARK VINA RESULT:     -12.2      4.030      7.627
REMARK SMILES CC1=C(C)C[C@@H](C(=O)NCCCCNC(=O)c2ccc(-c3c4nc(c(-c5c(F)c(F)c(F)c(F)c5F)c5ccc([nH]5)c(-c5c(F)c(F)c(F)c(F)c5F)c5nc(c(-c6c(F)c(F)c(F)c(F)c6F)c6ccc3[nH]6)C=C5)C=C4)cc2)[C@@H](C(=O)NCC[NH+]2CCOCC2)C1
REMARK SMILES IDX 10 1 9 2 7 3 8 4 6 6 1 7 2 8 3 9 92 10 4 11 5 12 80 13 81 14
REMARK SMILES IDX 82 15 83 16 84 18 85 19 86 20 87 21 91 22 88 24 90 25 89 26
REMARK SMILES IDX 11 27 12 28 13 29 14 30 15 31 16 33 17 34 18 35 79 36 19 37
REMARK SMILES IDX 78 38 20 39 21 40 22 41 72 42 23 43 77 44 71 45 73 46 24 47
REMARK SMILES IDX 76 48 70 49 69 50 25 52 57 53 37 54 56 55 38 56 41 57 55 58
REMARK SMILES IDX 74 59 39 60 40 61 54 63 75 64 42 65 26 66 27 67 35 68 28 69
REMARK SMILES IDX 29 70 33 71 36 72 30 73 31 74 34 75 32 76 58 77 59 78 67 79
REMARK SMILES IDX 60 80 61 81 65 82 68 83 62 84 63 85 66 86 64 87 43 88 44 89
REMARK SMILES IDX 52 90 45 91 46 92 50 93 53 94 47 95 48 96 51 97 49 98
REMARK H PARENT 9 5 83 17 86 23 14 32 73 51 41 62
REMARK Flexibility Score: inf
ROOT
ATOM      1  C   UNL A   1      33.844  23.725  23.224  1.00  0.00     0.116 C 
ENDROOT
BRANCH   1   2
ATOM      2  N   UNL A   1      32.674  24.264  23.875  1.00  0.00    -0.356 N 
ATOM      3  C   UNL A   1      32.423  25.470  24.445  1.00  0.00     0.224 C 
ATOM      4  O   UNL A   1      31.259  25.672  24.819  1.00  0.00    -0.275 OA
ATOM      5  H   UNL A   1      31.915  23.639  23.912  1.00  0.00     0.163 HD
BRANCH   3   6
ATOM      6  C   UNL A   1      33.464  26.594  24.610  1.00  0.00     0.095 C 
ATOM      7  C   UNL A   1      31.797  30.467  25.913  1.00  0.00     0.039 C 
ATOM      8  C   UNL A   1      32.584  29.225  25.564  1.00  0.00    -0.074 C 
ATOM      9  C   UNL A   1      32.914  28.281  26.472  1.00  0.00    -0.074 C 
ATOM     10  C   UNL A   1      32.881  29.075  24.080  1.00  0.00     0.045 C 
ATOM     11  C   UNL A   1      32.586  28.336  27.945  1.00  0.00     0.039 C 
ATOM     12  C   UNL A   1      33.606  27.003  26.074  1.00  0.00     0.045 C 
ATOM     13  C   UNL A   1      33.518  27.758  23.595  1.00  0.00     0.095 C 
BRANCH  13  14
ATOM     14  C   UNL A   1      32.951  27.343  22.245  1.00  0.00     0.224 C 
ATOM     15  O   UNL A   1      33.631  26.893  21.323  1.00  0.00    -0.275 OA
ATOM     16  N   UNL A   1      31.651  27.385  21.944  1.00  0.00    -0.350 N 
ATOM     17  H   UNL A   1      31.469  26.873  21.123  1.00  0.00     0.163 HD
BRANCH  16  18
ATOM     18  C   UNL A   1      30.437  27.958  22.464  1.00  0.00     0.177 C 
BRANCH  18  19
ATOM     19  C   UNL A   1      30.350  29.435  21.989  1.00  0.00     0.283 C 
BRANCH  19  20
ATOM     20  N   UNL A   1      29.094  30.162  22.199  1.00  0.00    -0.330 N 
ATOM     21  C   UNL A   1      28.215  30.559  21.105  1.00  0.00     0.291 C 
ATOM     22  C   UNL A   1      28.914  30.950  23.417  1.00  0.00     0.291 C 
ATOM     23  H   UNL A   1      28.709  29.234  22.376  1.00  0.00     0.348 HD
ATOM     24  C   UNL A   1      28.031  32.090  20.946  1.00  0.00     0.221 C 
ATOM     25  C   UNL A   1      28.860  32.459  23.144  1.00  0.00     0.221 C 
ATOM     26  O   UNL A   1      27.833  32.767  22.192  1.00  0.00    -0.370 OA
ENDBRANCH  19  20
ENDBRANCH  18  19
ENDBRANCH  16  18
ENDBRANCH  13  14
ENDBRANCH   3   6
ENDBRANCH   1   2
BRANCH   1  27
ATOM     27  C   UNL A   1      34.826  23.007  24.149  1.00  0.00     0.023 C 
BRANCH  27  28
ATOM     28  C   UNL A   1      36.018  23.845  24.601  1.00  0.00     0.023 C 
BRANCH  28  29
ATOM     29  C   UNL A   1      36.525  23.496  25.990  1.00  0.00     0.116 C 
BRANCH  29  30
ATOM     30  N   UNL A   1      37.657  22.579  25.973  1.00  0.00    -0.352 N 
ATOM     31  C   UNL A   1      38.964  22.830  26.302  1.00  0.00     0.251 C 
ATOM     32  H   UNL A   1      37.457  21.658  25.688  1.00  0.00     0.163 HD
ATOM     33  O   UNL A   1      39.829  21.978  26.124  1.00  0.00    -0.269 OA
BRANCH  31  34
ATOM     34  C   UNL A   1      39.321  24.154  26.843  1.00  0.00     0.039 A 
ATOM     35  C   UNL A   1      39.019  24.441  28.175  1.00  0.00     0.014 A 
ATOM     36  C   UNL A   1      39.983  25.090  26.044  1.00  0.00     0.014 A 
ATOM     37  C   UNL A   1      39.426  25.657  28.719  1.00  0.00     0.010 A 
ATOM     38  C   UNL A   1      40.473  26.255  26.614  1.00  0.00     0.010 A 
ATOM     39  C   UNL A   1      40.177  26.561  27.949  1.00  0.00    -0.014 A 
BRANCH  39  40
ATOM     40  C   UNL A   1      40.626  27.854  28.516  1.00  0.00     0.031 A 
ATOM     41  C   UNL A   1      42.079  28.061  28.840  1.00  0.00     0.074 A 
ATOM     42  C   UNL A   1      39.720  28.813  28.782  1.00  0.00     0.049 A 
ATOM     43  N   UNL A   1      42.670  29.108  29.354  1.00  0.00    -0.248 NA
ATOM     44  C   UNL A   1      42.984  26.929  28.583  1.00  0.00     0.031 C 
ATOM     45  C   UNL A   1      38.276  28.693  28.577  1.00  0.00     0.029 A 
ATOM     46  N   UNL A   1      39.882  30.078  29.286  1.00  0.00    -0.354 N 
ATOM     47  C   UNL A   1      44.005  28.753  29.499  1.00  0.00     0.074 A 
ATOM     48  C   UNL A   1      44.126  27.374  29.083  1.00  0.00     0.031 C 
ATOM     49  C   UNL A   1      37.686  29.850  28.921  1.00  0.00     0.029 A 
ATOM     50  C   UNL A   1      38.706  30.778  29.397  1.00  0.00     0.049 A 
ATOM     51  H   UNL A   1      40.757  30.447  29.544  1.00  0.00     0.167 HD
ATOM     52  C   UNL A   1      45.042  29.520  29.910  1.00  0.00     0.037 A 
ATOM     53  C   UNL A   1      38.483  32.033  29.830  1.00  0.00     0.037 A 
ATOM     54  C   UNL A   1      44.916  30.900  30.290  1.00  0.00     0.049 A 
ATOM     55  C   UNL A   1      39.656  32.875  30.252  1.00  0.00     0.074 A 
ATOM     56  C   UNL A   1      45.909  31.791  30.653  1.00  0.00     0.029 A 
ATOM     57  N   UNL A   1      43.713  31.590  30.358  1.00  0.00    -0.354 N 
ATOM     58  N   UNL A   1      40.928  32.560  30.299  1.00  0.00    -0.248 NA
ATOM     59  C   UNL A   1      39.363  34.253  30.668  1.00  0.00     0.031 C 
ATOM     60  C   UNL A   1      45.303  33.007  30.988  1.00  0.00     0.029 A 
ATOM     61  C   UNL A   1      43.937  32.892  30.777  1.00  0.00     0.049 A 
ATOM     62  H   UNL A   1      42.831  31.211  30.139  1.00  0.00     0.167 HD
ATOM     63  C   UNL A   1      41.591  33.704  30.720  1.00  0.00     0.074 A 
ATOM     64  C   UNL A   1      40.580  34.728  30.897  1.00  0.00     0.031 C 
ATOM     65  C   UNL A   1      42.916  33.894  30.942  1.00  0.00     0.037 A 
BRANCH  52  66
ATOM     66  C   UNL A   1      46.399  28.877  29.963  1.00  0.00     0.064 A 
ATOM     67  C   UNL A   1      46.877  28.254  31.127  1.00  0.00     0.173 A 
ATOM     68  C   UNL A   1      47.227  28.868  28.831  1.00  0.00     0.173 A 
ATOM     69  F   UNL A   1      46.132  28.245  32.244  1.00  0.00    -0.203 F 
ATOM     70  C   UNL A   1      48.145  27.680  31.167  1.00  0.00     0.198 A 
ATOM     71  C   UNL A   1      48.480  28.263  28.863  1.00  0.00     0.198 A 
ATOM     72  F   UNL A   1      46.820  29.446  27.690  1.00  0.00    -0.203 F 
ATOM     73  F   UNL A   1      48.602  27.145  32.307  1.00  0.00    -0.200 F 
ATOM     74  C   UNL A   1      48.942  27.678  30.032  1.00  0.00     0.200 A 
ATOM     75  F   UNL A   1      49.245  28.251  27.762  1.00  0.00    -0.200 F 
ATOM     76  F   UNL A   1      50.160  27.121  30.070  1.00  0.00    -0.200 F 
ENDBRANCH  52  66
BRANCH  53  77
ATOM     77  C   UNL A   1      37.101  32.578  29.841  1.00  0.00     0.064 A 
ATOM     78  C   UNL A   1      36.270  32.414  30.958  1.00  0.00     0.173 A 
ATOM     79  C   UNL A   1      36.585  33.281  28.743  1.00  0.00     0.173 A 
ATOM     80  F   UNL A   1      36.713  31.736  32.027  1.00  0.00    -0.203 F 
ATOM     81  C   UNL A   1      34.968  32.910  30.967  1.00  0.00     0.198 A 
ATOM     82  C   UNL A   1      35.292  33.801  28.764  1.00  0.00     0.198 A 
ATOM     83  F   UNL A   1      37.342  33.474  27.652  1.00  0.00    -0.203 F 
ATOM     84  F   UNL A   1      34.180  32.697  32.030  1.00  0.00    -0.200 F 
ATOM     85  C   UNL A   1      34.482  33.608  29.872  1.00  0.00     0.200 A 
ATOM     86  F   UNL A   1      34.832  34.490  27.710  1.00  0.00    -0.200 F 
ATOM     87  F   UNL A   1      33.231  34.089  29.883  1.00  0.00    -0.200 F 
ENDBRANCH  53  77
BRANCH  65  88
ATOM     88  C   UNL A   1      43.349  35.267  31.367  1.00  0.00     0.064 A 
ATOM     89  C   UNL A   1      43.754  36.234  30.436  1.00  0.00     0.173 A 
ATOM     90  C   UNL A   1      43.328  35.628  32.723  1.00  0.00     0.173 A 
ATOM     91  F   UNL A   1      43.804  35.935  29.128  1.00  0.00    -0.203 F 
ATOM     92  C   UNL A   1      44.153  37.502  30.850  1.00  0.00     0.198 A 
ATOM     93  C   UNL A   1      43.694  36.907  33.129  1.00  0.00     0.198 A 
ATOM     94  F   UNL A   1      42.939  34.742  33.653  1.00  0.00    -0.203 F 
ATOM     95  F   UNL A   1      44.590  38.392  29.948  1.00  0.00    -0.200 F 
ATOM     96  C   UNL A   1      44.116  37.839  32.194  1.00  0.00     0.200 A 
ATOM     97  F   UNL A   1      43.643  37.236  34.428  1.00  0.00    -0.200 F 
ATOM     98  F   UNL A   1      44.497  39.062  32.591  1.00  0.00    -0.200 F 
ENDBRANCH  65  88
ENDBRANCH  39  40
ENDBRANCH  31  34
ENDBRANCH  29  30
ENDBRANCH  28  29
ENDBRANCH  27  28
ENDBRANCH   1  27
TORSDOF 15
ENDMDL
