MODEL 1
REMARK VINA RESULT:     -13.0      0.000      0.000
REMARK SMILES Cc1nc(-c2ccccc2F)sc1C(=O)NCc1ccc(C(=O)NCCCCNC(=O)c2ccc(-c3c4nc(c(-c5c(F)c(F)c(F)c(F)c5F)c5ccc([nH]5)c(-c5c(F)c(F)c(F)c(F)c5F)c5nc(c(-c6c(F)c(F)c(F)c(F)c6F)c6ccc3[nH]6)C=C5)C=C4)cc2)cc1
REMARK SMILES IDX 25 1 24 2 22 3 23 4 21 6 18 7 19 8 96 9 20 10 95 11 17 12
REMARK SMILES IDX 16 13 14 14 15 15 13 17 1 18 2 19 3 20 4 21 12 22 5 23 6 24
REMARK SMILES IDX 10 25 7 26 9 27 11 28 8 29 26 30 27 31 28 32 29 33 30 34
REMARK SMILES IDX 31 36 32 37 33 38 94 39 34 40 93 41 35 42 36 43 37 44 87 45
REMARK SMILES IDX 38 46 92 47 86 48 88 49 39 50 91 51 85 52 84 53 40 55 72 56
REMARK SMILES IDX 52 57 71 58 53 59 56 60 70 61 89 62 54 63 55 64 69 66 90 67
REMARK SMILES IDX 57 68 41 69 42 70 50 71 43 72 44 73 48 74 51 75 45 76 46 77
REMARK SMILES IDX 49 78 47 79 73 80 74 81 82 82 75 83 76 84 80 85 83 86 77 87
REMARK SMILES IDX 78 88 81 89 79 90 58 91 59 92 67 93 60 94 61 95 65 96 68 97
REMARK SMILES IDX 62 98 63 99 66 100 64 101
REMARK H PARENT 24 5 16 16 29 35 88 54 56 65
REMARK Flexibility Score: inf
ROOT
ATOM      1  C   UNL A   1      31.170  29.977  24.982  1.00  0.00     0.116 C 
ENDROOT
BRANCH   1   2
ATOM      2  N   UNL A   1      30.707  30.082  23.614  1.00  0.00    -0.352 N 
ATOM      3  C   UNL A   1      30.382  29.101  22.710  1.00  0.00     0.251 C 
ATOM      4  O   UNL A   1      29.936  29.439  21.614  1.00  0.00    -0.269 OA
ATOM      5  H   UNL A   1      30.610  31.002  23.279  1.00  0.00     0.163 HD
BRANCH   3   6
ATOM      6  C   UNL A   1      30.499  27.653  23.030  1.00  0.00     0.039 A 
ATOM      7  C   UNL A   1      30.608  24.916  23.751  1.00  0.00    -0.029 A 
ATOM      8  C   UNL A   1      29.601  25.754  24.245  1.00  0.00     0.006 A 
ATOM      9  C   UNL A   1      31.556  25.468  22.884  1.00  0.00     0.006 A 
ATOM     10  C   UNL A   1      29.535  27.102  23.877  1.00  0.00     0.014 A 
ATOM     11  C   UNL A   1      31.487  26.813  22.515  1.00  0.00     0.014 A 
BRANCH   7  12
ATOM     12  C   UNL A   1      30.755  23.478  24.179  1.00  0.00     0.152 C 
BRANCH  12  13
ATOM     13  N   UNL A   1      31.156  22.672  23.065  1.00  0.00    -0.347 N 
ATOM     14  C   UNL A   1      32.149  21.786  22.780  1.00  0.00     0.263 C 
ATOM     15  O   UNL A   1      32.013  21.337  21.632  1.00  0.00    -0.268 OA
ATOM     16  H   UNL A   1      30.550  22.790  22.299  1.00  0.00     0.164 HD
BRANCH  14  17
ATOM     17  C   UNL A   1      33.241  21.358  23.654  1.00  0.00     0.115 A 
ATOM     18  C   UNL A   1      32.979  19.047  24.964  1.00  0.00     0.068 C 
ATOM     19  C   UNL A   1      33.608  20.308  24.500  1.00  0.00     0.062 A 
ATOM     20  N   UNL A   1      34.846  20.464  25.121  1.00  0.00    -0.240 NA
ATOM     21  C   UNL A   1      35.392  21.623  24.860  1.00  0.00     0.127 A 
ATOM     22  S   UNL A   1      34.538  22.560  23.739  1.00  0.00    -0.108 S 
BRANCH  21  23
ATOM     23  C   UNL A   1      36.666  22.038  25.435  1.00  0.00     0.046 A 
ATOM     24  C   UNL A   1      36.789  23.352  25.916  1.00  0.00     0.014 A 
ATOM     25  C   UNL A   1      37.801  21.222  25.430  1.00  0.00     0.133 A 
ATOM     26  C   UNL A   1      38.015  23.832  26.380  1.00  0.00     0.001 A 
ATOM     27  C   UNL A   1      39.029  21.699  25.887  1.00  0.00     0.040 A 
ATOM     28  F   UNL A   1      37.750  19.974  24.942  1.00  0.00    -0.206 F 
ATOM     29  C   UNL A   1      39.137  23.006  26.359  1.00  0.00     0.003 A 
ENDBRANCH  21  23
ENDBRANCH  14  17
ENDBRANCH  12  13
ENDBRANCH   7  12
ENDBRANCH   3   6
ENDBRANCH   1   2
BRANCH   1  30
ATOM     30  C   UNL A   1      32.642  29.563  25.029  1.00  0.00     0.023 C 
BRANCH  30  31
ATOM     31  C   UNL A   1      32.940  28.352  25.907  1.00  0.00     0.023 C 
BRANCH  31  32
ATOM     32  C   UNL A   1      33.829  28.642  27.104  1.00  0.00     0.116 C 
BRANCH  32  33
ATOM     33  N   UNL A   1      33.707  30.002  27.604  1.00  0.00    -0.352 N 
ATOM     34  C   UNL A   1      34.650  30.742  28.283  1.00  0.00     0.251 C 
ATOM     35  H   UNL A   1      32.845  30.448  27.437  1.00  0.00     0.163 HD
ATOM     36  O   UNL A   1      34.386  31.843  28.729  1.00  0.00    -0.269 OA
BRANCH  34  37
ATOM     37  C   UNL A   1      35.979  30.138  28.502  1.00  0.00     0.039 A 
ATOM     38  C   UNL A   1      36.938  30.245  27.494  1.00  0.00     0.014 A 
ATOM     39  C   UNL A   1      36.292  29.552  29.731  1.00  0.00     0.014 A 
ATOM     40  C   UNL A   1      38.243  29.823  27.747  1.00  0.00     0.010 A 
ATOM     41  C   UNL A   1      37.608  29.203  30.005  1.00  0.00     0.010 A 
ATOM     42  C   UNL A   1      38.594  29.339  29.017  1.00  0.00    -0.014 A 
BRANCH  42  43
ATOM     43  C   UNL A   1      39.993  28.967  29.339  1.00  0.00     0.031 A 
ATOM     44  C   UNL A   1      40.841  29.899  30.154  1.00  0.00     0.074 A 
ATOM     45  C   UNL A   1      40.511  27.829  28.841  1.00  0.00     0.049 A 
ATOM     46  N   UNL A   1      42.107  29.799  30.471  1.00  0.00    -0.248 NA
ATOM     47  C   UNL A   1      40.190  31.119  30.657  1.00  0.00     0.031 C 
ATOM     48  C   UNL A   1      39.794  26.871  27.999  1.00  0.00     0.029 A 
ATOM     49  N   UNL A   1      41.768  27.290  28.963  1.00  0.00    -0.354 N 
ATOM     50  C   UNL A   1      42.403  30.944  31.194  1.00  0.00     0.074 A 
ATOM     51  C   UNL A   1      41.204  31.752  31.227  1.00  0.00     0.031 C 
ATOM     52  C   UNL A   1      40.613  25.848  27.704  1.00  0.00     0.029 A 
ATOM     53  C   UNL A   1      41.921  26.096  28.303  1.00  0.00     0.049 A 
ATOM     54  H   UNL A   1      42.491  27.719  29.475  1.00  0.00     0.167 HD
ATOM     55  C   UNL A   1      43.567  31.278  31.800  1.00  0.00     0.037 A 
ATOM     56  C   UNL A   1      42.997  25.295  28.192  1.00  0.00     0.037 A 
ATOM     57  C   UNL A   1      44.744  30.453  31.794  1.00  0.00     0.049 A 
ATOM     58  C   UNL A   1      44.278  25.689  28.874  1.00  0.00     0.074 A 
ATOM     59  C   UNL A   1      45.953  30.677  32.428  1.00  0.00     0.029 A 
ATOM     60  N   UNL A   1      44.856  29.244  31.125  1.00  0.00    -0.354 N 
ATOM     61  N   UNL A   1      44.534  26.750  29.599  1.00  0.00    -0.248 NA
ATOM     62  C   UNL A   1      45.420  24.774  28.726  1.00  0.00     0.031 C 
ATOM     63  C   UNL A   1      46.812  29.620  32.111  1.00  0.00     0.029 A 
ATOM     64  C   UNL A   1      46.123  28.717  31.318  1.00  0.00     0.049 A 
ATOM     65  H   UNL A   1      44.144  28.823  30.592  1.00  0.00     0.167 HD
ATOM     66  C   UNL A   1      45.853  26.623  30.011  1.00  0.00     0.074 A 
ATOM     67  C   UNL A   1      46.343  25.376  29.464  1.00  0.00     0.031 C 
ATOM     68  C   UNL A   1      46.589  27.467  30.773  1.00  0.00     0.037 A 
BRANCH  55  69
ATOM     69  C   UNL A   1      43.620  32.582  32.538  1.00  0.00     0.064 A 
ATOM     70  C   UNL A   1      43.249  32.654  33.888  1.00  0.00     0.173 A 
ATOM     71  C   UNL A   1      43.982  33.773  31.890  1.00  0.00     0.173 A 
ATOM     72  F   UNL A   1      42.892  31.544  34.552  1.00  0.00    -0.203 F 
ATOM     73  C   UNL A   1      43.226  33.873  34.560  1.00  0.00     0.198 A 
ATOM     74  C   UNL A   1      43.984  34.986  32.572  1.00  0.00     0.198 A 
ATOM     75  F   UNL A   1      44.358  33.754  30.602  1.00  0.00    -0.203 F 
ATOM     76  F   UNL A   1      42.839  33.922  35.842  1.00  0.00    -0.200 F 
ATOM     77  C   UNL A   1      43.597  35.037  33.903  1.00  0.00     0.200 A 
ATOM     78  F   UNL A   1      44.366  36.106  31.944  1.00  0.00    -0.200 F 
ATOM     79  F   UNL A   1      43.584  36.209  34.554  1.00  0.00    -0.200 F 
ENDBRANCH  55  69
BRANCH  56  80
ATOM     80  C   UNL A   1      42.890  24.021  27.435  1.00  0.00     0.064 A 
ATOM     81  C   UNL A   1      42.512  22.825  28.062  1.00  0.00     0.173 A 
ATOM     82  C   UNL A   1      43.196  23.973  26.068  1.00  0.00     0.173 A 
ATOM     83  F   UNL A   1      42.215  22.817  29.370  1.00  0.00    -0.203 F 
ATOM     84  C   UNL A   1      42.462  21.626  27.353  1.00  0.00     0.198 A 
ATOM     85  C   UNL A   1      43.123  22.779  25.355  1.00  0.00     0.198 A 
ATOM     86  F   UNL A   1      43.545  25.096  25.422  1.00  0.00    -0.203 F 
ATOM     87  F   UNL A   1      42.129  20.491  27.982  1.00  0.00    -0.200 F 
ATOM     88  C   UNL A   1      42.763  21.606  25.999  1.00  0.00     0.200 A 
ATOM     89  F   UNL A   1      43.393  22.767  24.043  1.00  0.00    -0.200 F 
ATOM     90  F   UNL A   1      42.706  20.454  25.316  1.00  0.00    -0.200 F 
ENDBRANCH  56  80
BRANCH  68  91
ATOM     91  C   UNL A   1      48.001  27.070  31.087  1.00  0.00     0.064 A 
ATOM     92  C   UNL A   1      49.050  27.452  30.239  1.00  0.00     0.173 A 
ATOM     93  C   UNL A   1      48.299  26.235  32.172  1.00  0.00     0.173 A 
ATOM     94  F   UNL A   1      48.812  28.244  29.182  1.00  0.00    -0.203 F 
ATOM     95  C   UNL A   1      50.347  26.995  30.455  1.00  0.00     0.198 A 
ATOM     96  C   UNL A   1      49.601  25.800  32.400  1.00  0.00     0.198 A 
ATOM     97  F   UNL A   1      47.329  25.853  33.017  1.00  0.00    -0.203 F 
ATOM     98  F   UNL A   1      51.328  27.341  29.611  1.00  0.00    -0.200 F 
ATOM     99  C   UNL A   1      50.621  26.171  31.536  1.00  0.00     0.200 A 
ATOM    100  F   UNL A   1      49.870  25.020  33.457  1.00  0.00    -0.200 F 
ATOM    101  F   UNL A   1      51.870  25.733  31.746  1.00  0.00    -0.200 F 
ENDBRANCH  68  91
ENDBRANCH  42  43
ENDBRANCH  34  37
ENDBRANCH  32  33
ENDBRANCH  31  32
ENDBRANCH  30  31
ENDBRANCH   1  30
TORSDOF 15
ENDMDL
MODEL 2
REMARK VINA RESULT:     -12.9      4.047      6.215
REMARK SMILES Cc1nc(-c2ccccc2F)sc1C(=O)NCc1ccc(C(=O)NCCCCNC(=O)c2ccc(-c3c4nc(c(-c5c(F)c(F)c(F)c(F)c5F)c5ccc([nH]5)c(-c5c(F)c(F)c(F)c(F)c5F)c5nc(c(-c6c(F)c(F)c(F)c(F)c6F)c6ccc3[nH]6)C=C5)C=C4)cc2)cc1
REMARK SMILES IDX 25 1 24 2 22 3 23 4 21 6 18 7 19 8 96 9 20 10 95 11 17 12
REMARK SMILES IDX 16 13 14 14 15 15 13 17 1 18 2 19 3 20 4 21 12 22 5 23 6 24
REMARK SMILES IDX 10 25 7 26 9 27 11 28 8 29 26 30 27 31 28 32 29 33 30 34
REMARK SMILES IDX 31 36 32 37 33 38 94 39 34 40 93 41 35 42 36 43 37 44 87 45
REMARK SMILES IDX 38 46 92 47 86 48 88 49 39 50 91 51 85 52 84 53 40 55 72 56
REMARK SMILES IDX 52 57 71 58 53 59 56 60 70 61 89 62 54 63 55 64 69 66 90 67
REMARK SMILES IDX 57 68 41 69 42 70 50 71 43 72 44 73 48 74 51 75 45 76 46 77
REMARK SMILES IDX 49 78 47 79 73 80 74 81 82 82 75 83 76 84 80 85 83 86 77 87
REMARK SMILES IDX 78 88 81 89 79 90 58 91 59 92 67 93 60 94 61 95 65 96 68 97
REMARK SMILES IDX 62 98 63 99 66 100 64 101
REMARK H PARENT 24 5 16 16 29 35 88 54 56 65
REMARK Flexibility Score: inf
ROOT
ATOM      1  C   UNL A   1      33.959  31.963  27.861  1.00  0.00     0.116 C 
ENDROOT
BRANCH   1   2
ATOM      2  N   UNL A   1      35.097  31.069  27.912  1.00  0.00    -0.352 N 
ATOM      3  C   UNL A   1      35.200  29.744  27.565  1.00  0.00     0.251 C 
ATOM      4  O   UNL A   1      36.306  29.208  27.628  1.00  0.00    -0.269 OA
ATOM      5  H   UNL A   1      35.928  31.474  28.250  1.00  0.00     0.163 HD
BRANCH   3   6
ATOM      6  C   UNL A   1      34.039  28.960  27.066  1.00  0.00     0.039 A 
ATOM      7  C   UNL A   1      31.896  27.466  25.972  1.00  0.00    -0.029 A 
ATOM      8  C   UNL A   1      33.061  27.707  25.232  1.00  0.00     0.006 A 
ATOM      9  C   UNL A   1      31.825  27.978  27.271  1.00  0.00     0.006 A 
ATOM     10  C   UNL A   1      34.127  28.430  25.777  1.00  0.00     0.014 A 
ATOM     11  C   UNL A   1      32.892  28.696  27.815  1.00  0.00     0.014 A 
BRANCH   7  12
ATOM     12  C   UNL A   1      30.699  26.754  25.396  1.00  0.00     0.152 C 
BRANCH  12  13
ATOM     13  N   UNL A   1      30.356  25.629  26.215  1.00  0.00    -0.347 N 
ATOM     14  C   UNL A   1      30.561  24.283  26.198  1.00  0.00     0.263 C 
ATOM     15  O   UNL A   1      30.053  23.755  27.199  1.00  0.00    -0.268 OA
ATOM     16  H   UNL A   1      29.831  25.902  27.000  1.00  0.00     0.164 HD
BRANCH  14  17
ATOM     17  C   UNL A   1      31.283  23.502  25.194  1.00  0.00     0.115 A 
ATOM     18  C   UNL A   1      31.783  24.638  22.831  1.00  0.00     0.068 C 
ATOM     19  C   UNL A   1      31.786  23.603  23.894  1.00  0.00     0.062 A 
ATOM     20  N   UNL A   1      32.412  22.452  23.420  1.00  0.00    -0.240 NA
ATOM     21  C   UNL A   1      32.327  21.455  24.261  1.00  0.00     0.127 A 
ATOM     22  S   UNL A   1      31.617  21.853  25.745  1.00  0.00    -0.108 S 
BRANCH  21  23
ATOM     23  C   UNL A   1      32.864  20.131  23.968  1.00  0.00     0.046 A 
ATOM     24  C   UNL A   1      32.174  19.314  23.058  1.00  0.00     0.014 A 
ATOM     25  C   UNL A   1      33.973  19.601  24.632  1.00  0.00     0.133 A 
ATOM     26  C   UNL A   1      32.586  18.001  22.821  1.00  0.00     0.001 A 
ATOM     27  C   UNL A   1      34.385  18.288  24.404  1.00  0.00     0.040 A 
ATOM     28  F   UNL A   1      34.642  20.323  25.543  1.00  0.00    -0.206 F 
ATOM     29  C   UNL A   1      33.690  17.487  23.499  1.00  0.00     0.003 A 
ENDBRANCH  21  23
ENDBRANCH  14  17
ENDBRANCH  12  13
ENDBRANCH   7  12
ENDBRANCH   3   6
ENDBRANCH   1   2
BRANCH   1  30
ATOM     30  C   UNL A   1      34.085  33.066  28.913  1.00  0.00     0.023 C 
BRANCH  30  31
ATOM     31  C   UNL A   1      33.249  34.312  28.639  1.00  0.00     0.023 C 
BRANCH  31  32
ATOM     32  C   UNL A   1      33.648  35.534  29.448  1.00  0.00     0.116 C 
BRANCH  32  33
ATOM     33  N   UNL A   1      32.648  35.939  30.422  1.00  0.00    -0.352 N 
ATOM     34  C   UNL A   1      32.654  35.723  31.782  1.00  0.00     0.251 C 
ATOM     35  H   UNL A   1      31.871  36.429  30.066  1.00  0.00     0.163 HD
ATOM     36  O   UNL A   1      31.704  36.036  32.475  1.00  0.00    -0.269 OA
BRANCH  34  37
ATOM     37  C   UNL A   1      33.827  35.048  32.371  1.00  0.00     0.039 A 
ATOM     38  C   UNL A   1      33.685  33.740  32.837  1.00  0.00     0.014 A 
ATOM     39  C   UNL A   1      35.073  35.680  32.379  1.00  0.00     0.014 A 
ATOM     40  C   UNL A   1      34.817  33.036  33.247  1.00  0.00     0.010 A 
ATOM     41  C   UNL A   1      36.206  34.953  32.716  1.00  0.00     0.010 A 
ATOM     42  C   UNL A   1      36.088  33.624  33.149  1.00  0.00    -0.014 A 
BRANCH  42  43
ATOM     43  C   UNL A   1      37.314  32.866  33.495  1.00  0.00     0.031 A 
ATOM     44  C   UNL A   1      38.032  33.158  34.780  1.00  0.00     0.074 A 
ATOM     45  C   UNL A   1      37.812  31.970  32.622  1.00  0.00     0.049 A 
ATOM     46  N   UNL A   1      39.162  32.670  35.224  1.00  0.00    -0.248 NA
ATOM     47  C   UNL A   1      37.415  34.153  35.672  1.00  0.00     0.031 C 
ATOM     48  C   UNL A   1      37.224  31.638  31.323  1.00  0.00     0.029 A 
ATOM     49  N   UNL A   1      38.933  31.180  32.692  1.00  0.00    -0.354 N 
ATOM     50  C   UNL A   1      39.394  33.305  36.434  1.00  0.00     0.074 A 
ATOM     51  C   UNL A   1      38.320  34.253  36.634  1.00  0.00     0.031 C 
ATOM     52  C   UNL A   1      37.973  30.694  30.732  1.00  0.00     0.029 A 
ATOM     53  C   UNL A   1      39.112  30.381  31.590  1.00  0.00     0.049 A 
ATOM     54  H   UNL A   1      39.550  31.187  33.458  1.00  0.00     0.167 HD
ATOM     55  C   UNL A   1      40.402  33.095  37.314  1.00  0.00     0.037 A 
ATOM     56  C   UNL A   1      40.088  29.499  31.304  1.00  0.00     0.037 A 
ATOM     57  C   UNL A   1      41.447  32.126  37.126  1.00  0.00     0.049 A 
ATOM     58  C   UNL A   1      41.197  29.285  32.298  1.00  0.00     0.074 A 
ATOM     59  C   UNL A   1      42.479  31.798  37.986  1.00  0.00     0.029 A 
ATOM     60  N   UNL A   1      41.588  31.326  36.002  1.00  0.00    -0.354 N 
ATOM     61  N   UNL A   1      41.381  29.854  33.464  1.00  0.00    -0.248 NA
ATOM     62  C   UNL A   1      42.233  28.305  31.939  1.00  0.00     0.031 C 
ATOM     63  C   UNL A   1      43.268  30.825  37.367  1.00  0.00     0.029 A 
ATOM     64  C   UNL A   1      42.702  30.515  36.141  1.00  0.00     0.049 A 
ATOM     65  H   UNL A   1      40.986  31.334  35.223  1.00  0.00     0.167 HD
ATOM     66  C   UNL A   1      42.535  29.290  33.988  1.00  0.00     0.074 A 
ATOM     67  C   UNL A   1      43.005  28.324  33.017  1.00  0.00     0.031 C 
ATOM     68  C   UNL A   1      43.149  29.552  35.167  1.00  0.00     0.037 A 
BRANCH  55  69
ATOM     69  C   UNL A   1      40.414  33.915  38.569  1.00  0.00     0.064 A 
ATOM     70  C   UNL A   1      39.660  33.524  39.684  1.00  0.00     0.173 A 
ATOM     71  C   UNL A   1      41.126  35.121  38.646  1.00  0.00     0.173 A 
ATOM     72  F   UNL A   1      38.958  32.379  39.660  1.00  0.00    -0.203 F 
ATOM     73  C   UNL A   1      39.607  34.317  40.827  1.00  0.00     0.198 A 
ATOM     74  C   UNL A   1      41.094  35.898  39.801  1.00  0.00     0.198 A 
ATOM     75  F   UNL A   1      41.874  35.532  37.611  1.00  0.00    -0.203 F 
ATOM     76  F   UNL A   1      38.857  33.937  41.870  1.00  0.00    -0.200 F 
ATOM     77  C   UNL A   1      40.327  35.500  40.886  1.00  0.00     0.200 A 
ATOM     78  F   UNL A   1      41.809  37.029  39.866  1.00  0.00    -0.200 F 
ATOM     79  F   UNL A   1      40.285  36.258  41.991  1.00  0.00    -0.200 F 
ENDBRANCH  55  69
BRANCH  56  80
ATOM     80  C   UNL A   1      40.033  28.726  30.038  1.00  0.00     0.064 A 
ATOM     81  C   UNL A   1      39.427  27.462  29.976  1.00  0.00     0.173 A 
ATOM     82  C   UNL A   1      40.615  29.228  28.866  1.00  0.00     0.173 A 
ATOM     83  F   UNL A   1      38.860  26.935  31.070  1.00  0.00    -0.203 F 
ATOM     84  C   UNL A   1      39.423  26.724  28.793  1.00  0.00     0.198 A 
ATOM     85  C   UNL A   1      40.591  28.500  27.679  1.00  0.00     0.198 A 
ATOM     86  F   UNL A   1      41.190  30.441  28.873  1.00  0.00    -0.203 F 
ATOM     87  F   UNL A   1      38.866  25.506  28.768  1.00  0.00    -0.200 F 
ATOM     88  C   UNL A   1      40.001  27.246  27.646  1.00  0.00     0.200 A 
ATOM     89  F   UNL A   1      41.130  29.017  26.567  1.00  0.00    -0.200 F 
ATOM     90  F   UNL A   1      39.989  26.539  26.507  1.00  0.00    -0.200 F 
ENDBRANCH  56  80
BRANCH  68  91
ATOM     91  C   UNL A   1      44.386  28.772  35.496  1.00  0.00     0.064 A 
ATOM     92  C   UNL A   1      45.641  29.210  35.045  1.00  0.00     0.173 A 
ATOM     93  C   UNL A   1      44.319  27.547  36.173  1.00  0.00     0.173 A 
ATOM     94  F   UNL A   1      45.754  30.373  34.384  1.00  0.00    -0.203 F 
ATOM     95  C   UNL A   1      46.782  28.438  35.244  1.00  0.00     0.198 A 
ATOM     96  C   UNL A   1      45.466  26.790  36.392  1.00  0.00     0.198 A 
ATOM     97  F   UNL A   1      43.142  27.094  36.633  1.00  0.00    -0.203 F 
ATOM     98  F   UNL A   1      47.963  28.856  34.772  1.00  0.00    -0.200 F 
ATOM     99  C   UNL A   1      46.693  27.230  35.919  1.00  0.00     0.200 A 
ATOM    100  F   UNL A   1      45.383  25.631  37.063  1.00  0.00    -0.200 F 
ATOM    101  F   UNL A   1      47.792  26.488  36.112  1.00  0.00    -0.200 F 
ENDBRANCH  68  91
ENDBRANCH  42  43
ENDBRANCH  34  37
ENDBRANCH  32  33
ENDBRANCH  31  32
ENDBRANCH  30  31
ENDBRANCH   1  30
TORSDOF 15
ENDMDL
MODEL 3
REMARK VINA RESULT:     -12.7      4.150      9.547
REMARK SMILES Cc1nc(-c2ccccc2F)sc1C(=O)NCc1ccc(C(=O)NCCCCNC(=O)c2ccc(-c3c4nc(c(-c5c(F)c(F)c(F)c(F)c5F)c5ccc([nH]5)c(-c5c(F)c(F)c(F)c(F)c5F)c5nc(c(-c6c(F)c(F)c(F)c(F)c6F)c6ccc3[nH]6)C=C5)C=C4)cc2)cc1
REMARK SMILES IDX 25 1 24 2 22 3 23 4 21 6 18 7 19 8 96 9 20 10 95 11 17 12
REMARK SMILES IDX 16 13 14 14 15 15 13 17 1 18 2 19 3 20 4 21 12 22 5 23 6 24
REMARK SMILES IDX 10 25 7 26 9 27 11 28 8 29 26 30 27 31 28 32 29 33 30 34
REMARK SMILES IDX 31 36 32 37 33 38 94 39 34 40 93 41 35 42 36 43 37 44 87 45
REMARK SMILES IDX 38 46 92 47 86 48 88 49 39 50 91 51 85 52 84 53 40 55 72 56
REMARK SMILES IDX 52 57 71 58 53 59 56 60 70 61 89 62 54 63 55 64 69 66 90 67
REMARK SMILES IDX 57 68 41 69 42 70 50 71 43 72 44 73 48 74 51 75 45 76 46 77
REMARK SMILES IDX 49 78 47 79 73 80 74 81 82 82 75 83 76 84 80 85 83 86 77 87
REMARK SMILES IDX 78 88 81 89 79 90 58 91 59 92 67 93 60 94 61 95 65 96 68 97
REMARK SMILES IDX 62 98 63 99 66 100 64 101
REMARK H PARENT 24 5 16 16 29 35 88 54 56 65
REMARK Flexibility Score: inf
ROOT
ATOM      1  C   UNL A   1      39.685  21.743  26.161  1.00  0.00     0.116 C 
ENDROOT
BRANCH   1   2
ATOM      2  N   UNL A   1      39.523  23.106  26.622  1.00  0.00    -0.352 N 
ATOM      3  C   UNL A   1      38.492  23.992  26.428  1.00  0.00     0.251 C 
ATOM      4  O   UNL A   1      38.547  25.086  26.988  1.00  0.00    -0.269 OA
ATOM      5  H   UNL A   1      40.271  23.453  27.161  1.00  0.00     0.163 HD
BRANCH   3   6
ATOM      6  C   UNL A   1      37.295  23.653  25.612  1.00  0.00     0.039 A 
ATOM      7  C   UNL A   1      34.930  23.008  24.194  1.00  0.00    -0.029 A 
ATOM      8  C   UNL A   1      34.886  23.374  25.545  1.00  0.00     0.006 A 
ATOM      9  C   UNL A   1      36.177  22.978  23.562  1.00  0.00     0.006 A 
ATOM     10  C   UNL A   1      36.051  23.709  26.243  1.00  0.00     0.014 A 
ATOM     11  C   UNL A   1      37.338  23.317  24.259  1.00  0.00     0.014 A 
BRANCH   7  12
ATOM     12  C   UNL A   1      33.708  22.572  23.428  1.00  0.00     0.152 C 
BRANCH  12  13
ATOM     13  N   UNL A   1      33.531  23.400  22.271  1.00  0.00    -0.347 N 
ATOM     14  C   UNL A   1      32.800  24.496  21.931  1.00  0.00     0.263 C 
ATOM     15  O   UNL A   1      33.052  24.839  20.765  1.00  0.00    -0.268 OA
ATOM     16  H   UNL A   1      34.089  23.093  21.521  1.00  0.00     0.164 HD
BRANCH  14  17
ATOM     17  C   UNL A   1      31.851  25.232  22.766  1.00  0.00     0.115 A 
ATOM     18  C   UNL A   1      30.950  24.057  24.987  1.00  0.00     0.068 C 
ATOM     19  C   UNL A   1      31.127  25.108  23.955  1.00  0.00     0.062 A 
ATOM     20  N   UNL A   1      30.318  26.200  24.261  1.00  0.00    -0.240 NA
ATOM     21  C   UNL A   1      30.323  27.105  23.318  1.00  0.00     0.127 A 
ATOM     22  S   UNL A   1      31.405  26.790  22.055  1.00  0.00    -0.108 S 
BRANCH  21  23
ATOM     23  C   UNL A   1      29.516  28.318  23.388  1.00  0.00     0.046 A 
ATOM     24  C   UNL A   1      28.164  28.246  23.018  1.00  0.00     0.014 A 
ATOM     25  C   UNL A   1      30.055  29.568  23.704  1.00  0.00     0.133 A 
ATOM     26  C   UNL A   1      27.374  29.396  22.966  1.00  0.00     0.001 A 
ATOM     27  C   UNL A   1      29.272  30.720  23.648  1.00  0.00     0.040 A 
ATOM     28  F   UNL A   1      31.351  29.700  24.022  1.00  0.00    -0.206 F 
ATOM     29  C   UNL A   1      27.931  30.635  23.276  1.00  0.00     0.003 A 
ENDBRANCH  21  23
ENDBRANCH  14  17
ENDBRANCH  12  13
ENDBRANCH   7  12
ENDBRANCH   3   6
ENDBRANCH   1   2
BRANCH   1  30
ATOM     30  C   UNL A   1      41.160  21.338  26.166  1.00  0.00     0.023 C 
BRANCH  30  31
ATOM     31  C   UNL A   1      41.413  19.837  26.064  1.00  0.00     0.023 C 
BRANCH  31  32
ATOM     32  C   UNL A   1      42.847  19.417  26.334  1.00  0.00     0.116 C 
BRANCH  32  33
ATOM     33  N   UNL A   1      43.523  18.871  25.168  1.00  0.00    -0.352 N 
ATOM     34  C   UNL A   1      44.410  19.508  24.329  1.00  0.00     0.251 C 
ATOM     35  H   UNL A   1      43.322  17.932  24.952  1.00  0.00     0.163 HD
ATOM     36  O   UNL A   1      44.836  18.962  23.329  1.00  0.00    -0.269 OA
BRANCH  34  37
ATOM     37  C   UNL A   1      44.791  20.899  24.649  1.00  0.00     0.039 A 
ATOM     38  C   UNL A   1      44.307  21.929  23.841  1.00  0.00     0.014 A 
ATOM     39  C   UNL A   1      45.547  21.177  25.791  1.00  0.00     0.014 A 
ATOM     40  C   UNL A   1      44.524  23.253  24.222  1.00  0.00     0.010 A 
ATOM     41  C   UNL A   1      45.696  22.493  26.206  1.00  0.00     0.010 A 
ATOM     42  C   UNL A   1      45.183  23.541  25.427  1.00  0.00    -0.014 A 
BRANCH  42  43
ATOM     43  C   UNL A   1      45.349  24.937  25.899  1.00  0.00     0.031 A 
ATOM     44  C   UNL A   1      46.698  25.590  25.833  1.00  0.00     0.074 A 
ATOM     45  C   UNL A   1      44.302  25.584  26.445  1.00  0.00     0.049 A 
ATOM     46  N   UNL A   1      47.069  26.766  26.270  1.00  0.00    -0.248 NA
ATOM     47  C   UNL A   1      47.784  24.807  25.219  1.00  0.00     0.031 C 
ATOM     48  C   UNL A   1      42.956  25.033  26.603  1.00  0.00     0.029 A 
ATOM     49  N   UNL A   1      44.210  26.846  26.978  1.00  0.00    -0.354 N 
ATOM     50  C   UNL A   1      48.426  26.856  25.998  1.00  0.00     0.074 A 
ATOM     51  C   UNL A   1      48.829  25.599  25.407  1.00  0.00     0.031 C 
ATOM     52  C   UNL A   1      42.165  25.960  27.166  1.00  0.00     0.029 A 
ATOM     53  C   UNL A   1      42.956  27.156  27.444  1.00  0.00     0.049 A 
ATOM     54  H   UNL A   1      44.970  27.469  27.022  1.00  0.00     0.167 HD
ATOM     55  C   UNL A   1      49.255  27.906  26.200  1.00  0.00     0.037 A 
ATOM     56  C   UNL A   1      42.499  28.278  28.031  1.00  0.00     0.037 A 
ATOM     57  C   UNL A   1      48.841  29.166  26.755  1.00  0.00     0.049 A 
ATOM     58  C   UNL A   1      43.442  29.431  28.244  1.00  0.00     0.074 A 
ATOM     59  C   UNL A   1      49.594  30.311  26.945  1.00  0.00     0.029 A 
ATOM     60  N   UNL A   1      47.559  29.446  27.204  1.00  0.00    -0.354 N 
ATOM     61  N   UNL A   1      44.712  29.525  27.937  1.00  0.00    -0.248 NA
ATOM     62  C   UNL A   1      42.888  30.634  28.884  1.00  0.00     0.031 C 
ATOM     63  C   UNL A   1      48.777  31.273  27.544  1.00  0.00     0.029 A 
ATOM     64  C   UNL A   1      47.504  30.744  27.686  1.00  0.00     0.049 A 
ATOM     65  H   UNL A   1      46.802  28.818  27.183  1.00  0.00     0.167 HD
ATOM     66  C   UNL A   1      45.105  30.798  28.323  1.00  0.00     0.074 A 
ATOM     67  C   UNL A   1      43.936  31.446  28.878  1.00  0.00     0.031 C 
ATOM     68  C   UNL A   1      46.327  31.375  28.226  1.00  0.00     0.037 A 
BRANCH  55  69
ATOM     69  C   UNL A   1      50.692  27.747  25.801  1.00  0.00     0.064 A 
ATOM     70  C   UNL A   1      51.078  27.874  24.459  1.00  0.00     0.173 A 
ATOM     71  C   UNL A   1      51.677  27.409  26.741  1.00  0.00     0.173 A 
ATOM     72  F   UNL A   1      50.173  28.193  23.521  1.00  0.00    -0.203 F 
ATOM     73  C   UNL A   1      52.397  27.656  24.070  1.00  0.00     0.198 A 
ATOM     74  C   UNL A   1      53.000  27.219  26.353  1.00  0.00     0.198 A 
ATOM     75  F   UNL A   1      51.361  27.290  28.039  1.00  0.00    -0.203 F 
ATOM     76  F   UNL A   1      52.737  27.754  22.778  1.00  0.00    -0.200 F 
ATOM     77  C   UNL A   1      53.357  27.333  25.017  1.00  0.00     0.200 A 
ATOM     78  F   UNL A   1      53.932  26.931  27.272  1.00  0.00    -0.200 F 
ATOM     79  F   UNL A   1      54.629  27.133  24.643  1.00  0.00    -0.200 F 
ENDBRANCH  55  69
BRANCH  56  80
ATOM     80  C   UNL A   1      41.069  28.373  28.420  1.00  0.00     0.064 A 
ATOM     81  C   UNL A   1      40.106  28.905  27.549  1.00  0.00     0.173 A 
ATOM     82  C   UNL A   1      40.643  27.960  29.689  1.00  0.00     0.173 A 
ATOM     83  F   UNL A   1      40.463  29.320  26.325  1.00  0.00    -0.203 F 
ATOM     84  C   UNL A   1      38.775  29.034  27.942  1.00  0.00     0.198 A 
ATOM     85  C   UNL A   1      39.308  28.069  30.073  1.00  0.00     0.198 A 
ATOM     86  F   UNL A   1      41.525  27.429  30.550  1.00  0.00    -0.203 F 
ATOM     87  F   UNL A   1      37.880  29.574  27.103  1.00  0.00    -0.200 F 
ATOM     88  C   UNL A   1      38.377  28.612  29.202  1.00  0.00     0.200 A 
ATOM     89  F   UNL A   1      38.924  27.640  31.282  1.00  0.00    -0.200 F 
ATOM     90  F   UNL A   1      37.095  28.729  29.575  1.00  0.00    -0.200 F 
ENDBRANCH  56  80
BRANCH  68  91
ATOM     91  C   UNL A   1      46.470  32.788  28.707  1.00  0.00     0.064 A 
ATOM     92  C   UNL A   1      46.282  33.860  27.822  1.00  0.00     0.173 A 
ATOM     93  C   UNL A   1      46.884  33.075  30.014  1.00  0.00     0.173 A 
ATOM     94  F   UNL A   1      45.894  33.634  26.557  1.00  0.00    -0.203 F 
ATOM     95  C   UNL A   1      46.523  35.171  28.225  1.00  0.00     0.198 A 
ATOM     96  C   UNL A   1      47.100  34.389  30.421  1.00  0.00     0.198 A 
ATOM     97  F   UNL A   1      47.066  32.083  30.899  1.00  0.00    -0.203 F 
ATOM     98  F   UNL A   1      46.374  36.176  27.353  1.00  0.00    -0.200 F 
ATOM     99  C   UNL A   1      46.930  35.434  29.524  1.00  0.00     0.200 A 
ATOM    100  F   UNL A   1      47.474  34.645  31.683  1.00  0.00    -0.200 F 
ATOM    101  F   UNL A   1      47.160  36.695  29.912  1.00  0.00    -0.200 F 
ENDBRANCH  68  91
ENDBRANCH  42  43
ENDBRANCH  34  37
ENDBRANCH  32  33
ENDBRANCH  31  32
ENDBRANCH  30  31
ENDBRANCH   1  30
TORSDOF 15
ENDMDL
