MODEL 1
REMARK VINA RESULT:     -13.7      0.000      0.000
REMARK SMILES Cc1ccc(/[NH+]=C2/S[C@@H](CC(=O)Nc3ccc(C(=O)NCCCCNC(=O)c4ccc(-c5c6nc(c(-c7c(F)c(F)c(F)c(F)c7F)c7ccc([nH]7)c(-c7c(F)c(F)c(F)c(F)c7F)c7nc(c(-c8c(F)c(F)c(F)c(F)c8F)c8ccc5[nH]8)C=C7)C=C6)cc4)cc3)C(=O)N2C)cc1
REMARK SMILES IDX 21 1 20 2 18 3 19 4 17 6 14 7 15 8 92 9 16 10 91 11 13 12
REMARK SMILES IDX 11 13 12 14 10 16 9 17 6 18 7 19 8 21 95 22 93 23 96 24
REMARK SMILES IDX 94 25 5 26 1 27 2 28 3 29 98 30 4 31 97 32 22 33 23 34 24 35
REMARK SMILES IDX 25 36 26 37 27 39 28 40 29 41 90 42 30 43 89 44 31 45 32 46
REMARK SMILES IDX 33 47 83 48 34 49 88 50 82 51 84 52 35 53 87 54 81 55 80 56
REMARK SMILES IDX 36 58 68 59 48 60 67 61 49 62 52 63 66 64 85 65 50 66 51 67
REMARK SMILES IDX 65 69 86 70 53 71 37 72 38 73 46 74 39 75 40 76 44 77 47 78
REMARK SMILES IDX 41 79 42 80 45 81 43 82 69 83 70 84 78 85 71 86 72 87 76 88
REMARK SMILES IDX 79 89 73 90 74 91 77 92 75 93 54 94 55 95 63 96 56 97 57 98
REMARK SMILES IDX 61 99 64 100 58 101 59 102 62 103 60 104
REMARK H PARENT 20 5 13 15 6 20 25 38 84 57 52 68
REMARK Flexibility Score: inf
ROOT
ATOM      1  C   UNL A   1      42.423  18.938  26.659  1.00  0.00     0.116 C 
ENDROOT
BRANCH   1   2
ATOM      2  N   UNL A   1      42.363  20.115  27.521  1.00  0.00    -0.352 N 
ATOM      3  C   UNL A   1      41.488  21.178  27.608  1.00  0.00     0.251 C 
ATOM      4  O   UNL A   1      41.747  22.081  28.402  1.00  0.00    -0.269 OA
ATOM      5  H   UNL A   1      43.097  20.159  28.175  1.00  0.00     0.163 HD
BRANCH   3   6
ATOM      6  C   UNL A   1      40.273  21.302  26.761  1.00  0.00     0.039 A 
ATOM      7  C   UNL A   1      37.838  21.413  25.312  1.00  0.00     0.041 A 
ATOM      8  C   UNL A   1      38.402  22.562  25.859  1.00  0.00     0.027 A 
ATOM      9  C   UNL A   1      38.586  20.227  25.374  1.00  0.00     0.027 A 
ATOM     10  C   UNL A   1      39.620  22.513  26.552  1.00  0.00     0.016 A 
ATOM     11  C   UNL A   1      39.788  20.167  26.098  1.00  0.00     0.016 A 
BRANCH   7  12
ATOM     12  N   UNL A   1      36.563  21.330  24.721  1.00  0.00    -0.326 N 
ATOM     13  C   UNL A   1      35.278  21.421  25.175  1.00  0.00     0.226 C 
ATOM     14  O   UNL A   1      34.375  21.230  24.351  1.00  0.00    -0.275 OA
ATOM     15  H   UNL A   1      36.608  21.170  23.751  1.00  0.00     0.169 HD
BRANCH  13  16
ATOM     16  C   UNL A   1      34.896  21.669  26.621  1.00  0.00     0.128 C 
BRANCH  16  17
ATOM     17  C   UNL A   1      34.321  23.066  26.862  1.00  0.00     0.183 C 
ATOM     18  N   UNL A   1      31.258  25.161  25.938  1.00  0.00    -0.235 N 
ATOM     19  C   UNL A   1      32.369  24.500  25.888  1.00  0.00     0.319 C 
ATOM     20  H   UNL A   1      30.595  24.789  26.564  1.00  0.00     0.313 HD
ATOM     21  S   UNL A   1      32.501  23.092  26.951  1.00  0.00    -0.022 SA
ATOM     22  N   UNL A   1      33.533  24.611  25.185  1.00  0.00    -0.193 N 
ATOM     23  C   UNL A   1      34.656  24.078  25.790  1.00  0.00     0.324 C 
ATOM     24  C   UNL A   1      33.759  25.289  23.934  1.00  0.00     0.301 C 
ATOM     25  O   UNL A   1      35.793  24.446  25.542  1.00  0.00    -0.245 OA
BRANCH  18  26
ATOM     26  C   UNL A   1      30.826  26.313  25.259  1.00  0.00     0.125 A 
ATOM     27  C   UNL A   1      29.670  29.439  22.473  1.00  0.00     0.044 C 
ATOM     28  C   UNL A   1      30.030  28.378  23.469  1.00  0.00    -0.051 A 
ATOM     29  C   UNL A   1      29.335  27.173  23.509  1.00  0.00     0.008 A 
ATOM     30  C   UNL A   1      31.011  28.599  24.434  1.00  0.00     0.008 A 
ATOM     31  C   UNL A   1      29.720  26.169  24.410  1.00  0.00     0.052 A 
ATOM     32  C   UNL A   1      31.355  27.593  25.351  1.00  0.00     0.052 A 
ENDBRANCH  18  26
ENDBRANCH  16  17
ENDBRANCH  13  16
ENDBRANCH   7  12
ENDBRANCH   3   6
ENDBRANCH   1   2
BRANCH   1  33
ATOM     33  C   UNL A   1      43.201  19.160  25.353  1.00  0.00     0.023 C 
BRANCH  33  34
ATOM     34  C   UNL A   1      44.679  18.781  25.370  1.00  0.00     0.023 C 
BRANCH  34  35
ATOM     35  C   UNL A   1      45.523  19.519  24.333  1.00  0.00     0.116 C 
BRANCH  35  36
ATOM     36  N   UNL A   1      44.831  20.594  23.612  1.00  0.00    -0.352 N 
ATOM     37  C   UNL A   1      44.695  21.949  23.915  1.00  0.00     0.251 C 
ATOM     38  H   UNL A   1      44.392  20.312  22.777  1.00  0.00     0.163 HD
ATOM     39  O   UNL A   1      44.041  22.701  23.199  1.00  0.00    -0.269 OA
BRANCH  37  40
ATOM     40  C   UNL A   1      45.505  22.539  25.006  1.00  0.00     0.039 A 
ATOM     41  C   UNL A   1      45.183  22.114  26.303  1.00  0.00     0.014 A 
ATOM     42  C   UNL A   1      46.073  23.779  24.793  1.00  0.00     0.014 A 
ATOM     43  C   UNL A   1      45.045  23.071  27.296  1.00  0.00     0.010 A 
ATOM     44  C   UNL A   1      45.742  24.756  25.694  1.00  0.00     0.010 A 
ATOM     45  C   UNL A   1      45.168  24.401  26.919  1.00  0.00    -0.014 A 
BRANCH  45  46
ATOM     46  C   UNL A   1      44.878  25.511  27.795  1.00  0.00     0.031 A 
ATOM     47  C   UNL A   1      43.595  26.176  27.555  1.00  0.00     0.074 A 
ATOM     48  C   UNL A   1      45.701  25.878  28.798  1.00  0.00     0.049 A 
ATOM     49  N   UNL A   1      43.399  27.435  27.719  1.00  0.00    -0.248 NA
ATOM     50  C   UNL A   1      42.443  25.470  26.998  1.00  0.00     0.031 C 
ATOM     51  C   UNL A   1      45.416  26.788  29.900  1.00  0.00     0.029 A 
ATOM     52  N   UNL A   1      47.065  25.606  28.929  1.00  0.00    -0.354 N 
ATOM     53  C   UNL A   1      42.039  27.616  27.654  1.00  0.00     0.074 A 
ATOM     54  C   UNL A   1      41.516  26.426  27.032  1.00  0.00     0.031 C 
ATOM     55  C   UNL A   1      46.576  27.241  30.404  1.00  0.00     0.029 A 
ATOM     56  C   UNL A   1      47.642  26.741  29.561  1.00  0.00     0.049 A 
ATOM     57  H   UNL A   1      47.534  24.790  28.643  1.00  0.00     0.167 HD
ATOM     58  C   UNL A   1      41.489  28.647  28.351  1.00  0.00     0.037 A 
ATOM     59  C   UNL A   1      48.610  27.487  28.940  1.00  0.00     0.037 A 
ATOM     60  C   UNL A   1      42.529  29.420  29.034  1.00  0.00     0.049 A 
ATOM     61  C   UNL A   1      48.159  28.878  28.605  1.00  0.00     0.074 A 
ATOM     62  C   UNL A   1      43.023  29.412  30.330  1.00  0.00     0.029 A 
ATOM     63  N   UNL A   1      43.488  30.073  28.277  1.00  0.00    -0.354 N 
ATOM     64  N   UNL A   1      46.956  29.311  28.844  1.00  0.00    -0.248 NA
ATOM     65  C   UNL A   1      48.971  29.837  27.865  1.00  0.00     0.031 C 
ATOM     66  C   UNL A   1      44.268  30.101  30.341  1.00  0.00     0.029 A 
ATOM     67  C   UNL A   1      44.531  30.536  29.056  1.00  0.00     0.049 A 
ATOM     68  H   UNL A   1      43.432  30.192  27.300  1.00  0.00     0.167 HD
ATOM     69  C   UNL A   1      46.804  30.549  28.298  1.00  0.00     0.074 A 
ATOM     70  C   UNL A   1      48.078  30.818  27.654  1.00  0.00     0.031 C 
ATOM     71  C   UNL A   1      45.631  31.237  28.411  1.00  0.00     0.037 A 
BRANCH  58  72
ATOM     72  C   UNL A   1      40.020  28.701  28.693  1.00  0.00     0.064 A 
ATOM     73  C   UNL A   1      39.091  29.200  27.759  1.00  0.00     0.173 A 
ATOM     74  C   UNL A   1      39.468  28.326  29.934  1.00  0.00     0.173 A 
ATOM     75  F   UNL A   1      39.448  29.493  26.504  1.00  0.00    -0.203 F 
ATOM     76  C   UNL A   1      37.752  29.421  28.080  1.00  0.00     0.198 A 
ATOM     77  C   UNL A   1      38.139  28.601  30.276  1.00  0.00     0.198 A 
ATOM     78  F   UNL A   1      40.179  27.637  30.836  1.00  0.00    -0.203 F 
ATOM     79  F   UNL A   1      36.922  29.907  27.147  1.00  0.00    -0.200 F 
ATOM     80  C   UNL A   1      37.283  29.156  29.349  1.00  0.00     0.200 A 
ATOM     81  F   UNL A   1      37.697  28.319  31.510  1.00  0.00    -0.200 F 
ATOM     82  F   UNL A   1      36.006  29.406  29.666  1.00  0.00    -0.200 F 
ENDBRANCH  58  72
BRANCH  59  83
ATOM     83  C   UNL A   1      49.526  26.661  28.093  1.00  0.00     0.064 A 
ATOM     84  C   UNL A   1      49.285  26.843  26.722  1.00  0.00     0.173 A 
ATOM     85  C   UNL A   1      50.844  26.446  28.518  1.00  0.00     0.173 A 
ATOM     86  F   UNL A   1      48.025  26.971  26.274  1.00  0.00    -0.203 F 
ATOM     87  C   UNL A   1      50.318  27.343  25.953  1.00  0.00     0.198 A 
ATOM     88  C   UNL A   1      51.894  26.742  27.663  1.00  0.00     0.198 A 
ATOM     89  F   UNL A   1      51.117  26.137  29.793  1.00  0.00    -0.203 F 
ATOM     90  F   UNL A   1      50.022  28.054  24.853  1.00  0.00    -0.200 F 
ATOM     91  C   UNL A   1      51.620  27.303  26.427  1.00  0.00     0.200 A 
ATOM     92  F   UNL A   1      53.160  26.656  28.097  1.00  0.00    -0.200 F 
ATOM     93  F   UNL A   1      52.599  27.873  25.718  1.00  0.00    -0.200 F 
ENDBRANCH  59  83
BRANCH  71  94
ATOM     94  C   UNL A   1      45.433  32.632  27.889  1.00  0.00     0.064 A 
ATOM     95  C   UNL A   1      45.907  33.767  28.565  1.00  0.00     0.173 A 
ATOM     96  C   UNL A   1      44.684  32.891  26.720  1.00  0.00     0.173 A 
ATOM     97  F   UNL A   1      46.460  33.669  29.783  1.00  0.00    -0.203 F 
ATOM     98  C   UNL A   1      45.789  35.047  28.026  1.00  0.00     0.198 A 
ATOM     99  C   UNL A   1      44.510  34.175  26.217  1.00  0.00     0.198 A 
ATOM    100  F   UNL A   1      44.097  31.916  26.015  1.00  0.00    -0.203 F 
ATOM    101  F   UNL A   1      46.349  36.086  28.661  1.00  0.00    -0.200 F 
ATOM    102  C   UNL A   1      45.098  35.249  26.848  1.00  0.00     0.200 A 
ATOM    103  F   UNL A   1      43.780  34.355  25.108  1.00  0.00    -0.200 F 
ATOM    104  F   UNL A   1      44.983  36.478  26.329  1.00  0.00    -0.200 F 
ENDBRANCH  71  94
ENDBRANCH  45  46
ENDBRANCH  37  40
ENDBRANCH  35  36
ENDBRANCH  34  35
ENDBRANCH  33  34
ENDBRANCH   1  33
TORSDOF 15
ENDMDL
MODEL 2
REMARK VINA RESULT:     -13.6      5.250     10.984
REMARK SMILES Cc1ccc(/[NH+]=C2/S[C@@H](CC(=O)Nc3ccc(C(=O)NCCCCNC(=O)c4ccc(-c5c6nc(c(-c7c(F)c(F)c(F)c(F)c7F)c7ccc([nH]7)c(-c7c(F)c(F)c(F)c(F)c7F)c7nc(c(-c8c(F)c(F)c(F)c(F)c8F)c8ccc5[nH]8)C=C7)C=C6)cc4)cc3)C(=O)N2C)cc1
REMARK SMILES IDX 21 1 20 2 18 3 19 4 17 6 14 7 15 8 92 9 16 10 91 11 13 12
REMARK SMILES IDX 11 13 12 14 10 16 9 17 6 18 7 19 8 21 95 22 93 23 96 24
REMARK SMILES IDX 94 25 5 26 1 27 2 28 3 29 98 30 4 31 97 32 22 33 23 34 24 35
REMARK SMILES IDX 25 36 26 37 27 39 28 40 29 41 90 42 30 43 89 44 31 45 32 46
REMARK SMILES IDX 33 47 83 48 34 49 88 50 82 51 84 52 35 53 87 54 81 55 80 56
REMARK SMILES IDX 36 58 68 59 48 60 67 61 49 62 52 63 66 64 85 65 50 66 51 67
REMARK SMILES IDX 65 69 86 70 53 71 37 72 38 73 46 74 39 75 40 76 44 77 47 78
REMARK SMILES IDX 41 79 42 80 45 81 43 82 69 83 70 84 78 85 71 86 72 87 76 88
REMARK SMILES IDX 79 89 73 90 74 91 77 92 75 93 54 94 55 95 63 96 56 97 57 98
REMARK SMILES IDX 61 99 64 100 58 101 59 102 62 103 60 104
REMARK H PARENT 20 5 13 15 6 20 25 38 84 57 52 68
REMARK Flexibility Score: inf
ROOT
ATOM      1  C   UNL A   1      33.848  30.462  27.885  1.00  0.00     0.116 C 
ENDROOT
BRANCH   1   2
ATOM      2  N   UNL A   1      32.687  31.164  27.343  1.00  0.00    -0.352 N 
ATOM      3  C   UNL A   1      31.925  30.993  26.207  1.00  0.00     0.251 C 
ATOM      4  O   UNL A   1      31.035  31.810  25.974  1.00  0.00    -0.269 OA
ATOM      5  H   UNL A   1      32.386  31.913  27.906  1.00  0.00     0.163 HD
BRANCH   3   6
ATOM      6  C   UNL A   1      32.154  29.893  25.233  1.00  0.00     0.039 A 
ATOM      7  C   UNL A   1      32.511  27.942  23.207  1.00  0.00     0.041 A 
ATOM      8  C   UNL A   1      33.602  28.504  23.864  1.00  0.00     0.027 A 
ATOM      9  C   UNL A   1      31.230  28.263  23.680  1.00  0.00     0.027 A 
ATOM     10  C   UNL A   1      33.426  29.448  24.886  1.00  0.00     0.016 A 
ATOM     11  C   UNL A   1      31.050  29.236  24.677  1.00  0.00     0.016 A 
BRANCH   7  12
ATOM     12  N   UNL A   1      32.581  27.096  22.084  1.00  0.00    -0.326 N 
ATOM     13  C   UNL A   1      33.133  25.873  21.826  1.00  0.00     0.226 C 
ATOM     14  O   UNL A   1      33.045  25.449  20.667  1.00  0.00    -0.275 OA
ATOM     15  H   UNL A   1      32.123  27.475  21.299  1.00  0.00     0.169 HD
BRANCH  13  16
ATOM     16  C   UNL A   1      33.895  25.046  22.843  1.00  0.00     0.128 C 
BRANCH  16  17
ATOM     17  C   UNL A   1      33.938  23.557  22.498  1.00  0.00     0.183 C 
ATOM     18  N   UNL A   1      32.414  20.245  23.655  1.00  0.00    -0.235 N 
ATOM     19  C   UNL A   1      33.105  21.337  23.591  1.00  0.00     0.319 C 
ATOM     20  H   UNL A   1      31.523  20.307  23.241  1.00  0.00     0.313 HD
ATOM     21  S   UNL A   1      32.348  22.707  22.765  1.00  0.00    -0.022 SA
ATOM     22  N   UNL A   1      34.337  21.731  24.024  1.00  0.00    -0.193 N 
ATOM     23  C   UNL A   1      34.931  22.752  23.305  1.00  0.00     0.324 C 
ATOM     24  C   UNL A   1      35.136  21.164  25.080  1.00  0.00     0.301 C 
ATOM     25  O   UNL A   1      36.138  22.931  23.261  1.00  0.00    -0.245 OA
BRANCH  18  26
ATOM     26  C   UNL A   1      32.704  18.987  24.210  1.00  0.00     0.125 A 
ATOM     27  C   UNL A   1      32.983  14.828  25.432  1.00  0.00     0.044 C 
ATOM     28  C   UNL A   1      32.941  16.268  25.018  1.00  0.00    -0.051 A 
ATOM     29  C   UNL A   1      33.228  16.643  23.709  1.00  0.00     0.008 A 
ATOM     30  C   UNL A   1      32.696  17.277  25.947  1.00  0.00     0.008 A 
ATOM     31  C   UNL A   1      33.130  17.988  23.325  1.00  0.00     0.052 A 
ATOM     32  C   UNL A   1      32.639  18.623  25.548  1.00  0.00     0.052 A 
ENDBRANCH  18  26
ENDBRANCH  16  17
ENDBRANCH  13  16
ENDBRANCH   7  12
ENDBRANCH   3   6
ENDBRANCH   1   2
BRANCH   1  33
ATOM     33  C   UNL A   1      35.125  31.314  27.932  1.00  0.00     0.023 C 
BRANCH  33  34
ATOM     34  C   UNL A   1      35.065  32.582  28.777  1.00  0.00     0.023 C 
BRANCH  34  35
ATOM     35  C   UNL A   1      35.330  32.355  30.263  1.00  0.00     0.116 C 
BRANCH  35  36
ATOM     36  N   UNL A   1      34.354  32.963  31.175  1.00  0.00    -0.352 N 
ATOM     37  C   UNL A   1      34.504  33.445  32.476  1.00  0.00     0.251 C 
ATOM     38  H   UNL A   1      33.444  33.044  30.808  1.00  0.00     0.163 HD
ATOM     39  O   UNL A   1      33.551  33.894  33.104  1.00  0.00    -0.269 OA
BRANCH  37  40
ATOM     40  C   UNL A   1      35.863  33.599  33.046  1.00  0.00     0.039 A 
ATOM     41  C   UNL A   1      36.740  34.419  32.321  1.00  0.00     0.014 A 
ATOM     42  C   UNL A   1      36.349  32.583  33.844  1.00  0.00     0.014 A 
ATOM     43  C   UNL A   1      38.024  33.960  32.077  1.00  0.00     0.010 A 
ATOM     44  C   UNL A   1      37.531  32.016  33.445  1.00  0.00     0.010 A 
ATOM     45  C   UNL A   1      38.335  32.679  32.512  1.00  0.00    -0.014 A 
BRANCH  45  46
ATOM     46  C   UNL A   1      39.563  31.998  32.181  1.00  0.00     0.031 A 
ATOM     47  C   UNL A   1      39.406  30.789  31.367  1.00  0.00     0.074 A 
ATOM     48  C   UNL A   1      40.774  32.467  32.545  1.00  0.00     0.049 A 
ATOM     49  N   UNL A   1      40.161  29.755  31.469  1.00  0.00    -0.248 NA
ATOM     50  C   UNL A   1      38.296  30.617  30.433  1.00  0.00     0.031 C 
ATOM     51  C   UNL A   1      42.080  32.036  32.064  1.00  0.00     0.029 A 
ATOM     52  N   UNL A   1      41.072  33.354  33.582  1.00  0.00    -0.354 N 
ATOM     53  C   UNL A   1      39.870  28.968  30.382  1.00  0.00     0.074 A 
ATOM     54  C   UNL A   1      38.604  29.444  29.884  1.00  0.00     0.031 C 
ATOM     55  C   UNL A   1      43.016  32.395  32.960  1.00  0.00     0.029 A 
ATOM     56  C   UNL A   1      42.329  32.951  34.107  1.00  0.00     0.049 A 
ATOM     57  H   UNL A   1      40.521  34.110  33.888  1.00  0.00     0.167 HD
ATOM     58  C   UNL A   1      40.847  28.162  29.885  1.00  0.00     0.037 A 
ATOM     59  C   UNL A   1      42.462  32.550  35.411  1.00  0.00     0.037 A 
ATOM     60  C   UNL A   1      42.068  28.279  30.686  1.00  0.00     0.049 A 
ATOM     61  C   UNL A   1      42.819  31.100  35.549  1.00  0.00     0.074 A 
ATOM     62  C   UNL A   1      43.235  29.013  30.538  1.00  0.00     0.029 A 
ATOM     63  N   UNL A   1      42.038  27.896  32.016  1.00  0.00    -0.354 N 
ATOM     64  N   UNL A   1      42.946  30.300  34.532  1.00  0.00    -0.248 NA
ATOM     65  C   UNL A   1      42.930  30.411  36.830  1.00  0.00     0.031 C 
ATOM     66  C   UNL A   1      43.917  29.030  31.787  1.00  0.00     0.029 A 
ATOM     67  C   UNL A   1      43.172  28.300  32.694  1.00  0.00     0.049 A 
ATOM     68  H   UNL A   1      41.297  27.396  32.430  1.00  0.00     0.167 HD
ATOM     69  C   UNL A   1      43.126  29.026  34.977  1.00  0.00     0.074 A 
ATOM     70  C   UNL A   1      43.061  29.137  36.424  1.00  0.00     0.031 C 
ATOM     71  C   UNL A   1      43.294  27.986  34.110  1.00  0.00     0.037 A 
BRANCH  58  72
ATOM     72  C   UNL A   1      40.790  27.586  28.491  1.00  0.00     0.064 A 
ATOM     73  C   UNL A   1      40.092  26.388  28.245  1.00  0.00     0.173 A 
ATOM     74  C   UNL A   1      41.442  28.132  27.367  1.00  0.00     0.173 A 
ATOM     75  F   UNL A   1      39.336  25.812  29.187  1.00  0.00    -0.203 F 
ATOM     76  C   UNL A   1      40.141  25.730  27.017  1.00  0.00     0.198 A 
ATOM     77  C   UNL A   1      41.540  27.445  26.152  1.00  0.00     0.198 A 
ATOM     78  F   UNL A   1      41.958  29.368  27.390  1.00  0.00    -0.203 F 
ATOM     79  F   UNL A   1      39.459  24.589  26.851  1.00  0.00    -0.200 F 
ATOM     80  C   UNL A   1      40.896  26.239  25.980  1.00  0.00     0.200 A 
ATOM     81  F   UNL A   1      42.263  27.965  25.150  1.00  0.00    -0.200 F 
ATOM     82  F   UNL A   1      40.974  25.585  24.814  1.00  0.00    -0.200 F 
ENDBRANCH  58  72
BRANCH  59  83
ATOM     83  C   UNL A   1      41.562  33.299  36.343  1.00  0.00     0.064 A 
ATOM     84  C   UNL A   1      42.123  34.519  36.753  1.00  0.00     0.173 A 
ATOM     85  C   UNL A   1      40.174  33.229  36.160  1.00  0.00     0.173 A 
ATOM     86  F   UNL A   1      43.438  34.597  37.015  1.00  0.00    -0.203 F 
ATOM     87  C   UNL A   1      41.438  35.675  36.433  1.00  0.00     0.198 A 
ATOM     88  C   UNL A   1      39.439  34.399  36.056  1.00  0.00     0.198 A 
ATOM     89  F   UNL A   1      39.571  32.062  35.897  1.00  0.00    -0.203 F 
ATOM     90  F   UNL A   1      42.131  36.813  36.267  1.00  0.00    -0.200 F 
ATOM     91  C   UNL A   1      40.101  35.615  36.075  1.00  0.00     0.200 A 
ATOM     92  F   UNL A   1      38.132  34.349  35.761  1.00  0.00    -0.200 F 
ATOM     93  F   UNL A   1      39.473  36.726  35.677  1.00  0.00    -0.200 F 
ENDBRANCH  59  83
BRANCH  71  94
ATOM     94  C   UNL A   1      43.565  26.575  34.548  1.00  0.00     0.064 A 
ATOM     95  C   UNL A   1      44.849  26.008  34.523  1.00  0.00     0.173 A 
ATOM     96  C   UNL A   1      42.524  25.703  34.937  1.00  0.00     0.173 A 
ATOM     97  F   UNL A   1      45.887  26.666  33.989  1.00  0.00    -0.203 F 
ATOM     98  C   UNL A   1      45.096  24.727  35.012  1.00  0.00     0.198 A 
ATOM     99  C   UNL A   1      42.764  24.402  35.363  1.00  0.00     0.198 A 
ATOM    100  F   UNL A   1      41.238  26.075  34.929  1.00  0.00    -0.203 F 
ATOM    101  F   UNL A   1      46.355  24.270  35.062  1.00  0.00    -0.200 F 
ATOM    102  C   UNL A   1      44.055  23.927  35.440  1.00  0.00     0.200 A 
ATOM    103  F   UNL A   1      41.732  23.621  35.711  1.00  0.00    -0.200 F 
ATOM    104  F   UNL A   1      44.291  22.695  35.909  1.00  0.00    -0.200 F 
ENDBRANCH  71  94
ENDBRANCH  45  46
ENDBRANCH  37  40
ENDBRANCH  35  36
ENDBRANCH  34  35
ENDBRANCH  33  34
ENDBRANCH   1  33
TORSDOF 15
ENDMDL
MODEL 3
REMARK VINA RESULT:     -13.5      4.257     10.568
REMARK SMILES Cc1ccc(/[NH+]=C2/S[C@@H](CC(=O)Nc3ccc(C(=O)NCCCCNC(=O)c4ccc(-c5c6nc(c(-c7c(F)c(F)c(F)c(F)c7F)c7ccc([nH]7)c(-c7c(F)c(F)c(F)c(F)c7F)c7nc(c(-c8c(F)c(F)c(F)c(F)c8F)c8ccc5[nH]8)C=C7)C=C6)cc4)cc3)C(=O)N2C)cc1
REMARK SMILES IDX 21 1 20 2 18 3 19 4 17 6 14 7 15 8 92 9 16 10 91 11 13 12
REMARK SMILES IDX 11 13 12 14 10 16 9 17 6 18 7 19 8 21 95 22 93 23 96 24
REMARK SMILES IDX 94 25 5 26 1 27 2 28 3 29 98 30 4 31 97 32 22 33 23 34 24 35
REMARK SMILES IDX 25 36 26 37 27 39 28 40 29 41 90 42 30 43 89 44 31 45 32 46
REMARK SMILES IDX 33 47 83 48 34 49 88 50 82 51 84 52 35 53 87 54 81 55 80 56
REMARK SMILES IDX 36 58 68 59 48 60 67 61 49 62 52 63 66 64 85 65 50 66 51 67
REMARK SMILES IDX 65 69 86 70 53 71 37 72 38 73 46 74 39 75 40 76 44 77 47 78
REMARK SMILES IDX 41 79 42 80 45 81 43 82 69 83 70 84 78 85 71 86 72 87 76 88
REMARK SMILES IDX 79 89 73 90 74 91 77 92 75 93 54 94 55 95 63 96 56 97 57 98
REMARK SMILES IDX 61 99 64 100 58 101 59 102 62 103 60 104
REMARK H PARENT 20 5 13 15 6 20 25 38 84 57 52 68
REMARK Flexibility Score: inf
ROOT
ATOM      1  C   UNL A   1      31.300  30.290  24.635  1.00  0.00     0.116 C 
ENDROOT
BRANCH   1   2
ATOM      2  N   UNL A   1      30.259  30.439  23.622  1.00  0.00    -0.352 N 
ATOM      3  C   UNL A   1      29.534  29.536  22.872  1.00  0.00     0.251 C 
ATOM      4  O   UNL A   1      28.761  29.974  22.022  1.00  0.00    -0.269 OA
ATOM      5  H   UNL A   1      30.024  31.377  23.438  1.00  0.00     0.163 HD
BRANCH   3   6
ATOM      6  C   UNL A   1      29.673  28.063  23.017  1.00  0.00     0.039 A 
ATOM      7  C   UNL A   1      30.111  25.296  23.451  1.00  0.00     0.041 A 
ATOM      8  C   UNL A   1      28.925  25.906  23.848  1.00  0.00     0.027 A 
ATOM      9  C   UNL A   1      31.018  26.059  22.701  1.00  0.00     0.027 A 
ATOM     10  C   UNL A   1      28.695  27.269  23.609  1.00  0.00     0.016 A 
ATOM     11  C   UNL A   1      30.807  27.432  22.492  1.00  0.00     0.016 A 
BRANCH   7  12
ATOM     12  N   UNL A   1      30.495  23.978  23.763  1.00  0.00    -0.326 N 
ATOM     13  C   UNL A   1      30.824  23.309  24.908  1.00  0.00     0.226 C 
ATOM     14  O   UNL A   1      31.180  22.131  24.790  1.00  0.00    -0.275 OA
ATOM     15  H   UNL A   1      30.537  23.400  22.966  1.00  0.00     0.169 HD
BRANCH  13  16
ATOM     16  C   UNL A   1      30.844  23.936  26.289  1.00  0.00     0.128 C 
BRANCH  16  17
ATOM     17  C   UNL A   1      32.255  24.235  26.795  1.00  0.00     0.183 C 
ATOM     18  N   UNL A   1      35.876  24.154  25.566  1.00  0.00    -0.235 N 
ATOM     19  C   UNL A   1      34.693  23.811  25.960  1.00  0.00     0.319 C 
ATOM     20  H   UNL A   1      35.900  24.982  25.034  1.00  0.00     0.313 HD
ATOM     21  S   UNL A   1      33.363  24.886  25.502  1.00  0.00    -0.022 SA
ATOM     22  N   UNL A   1      34.172  22.773  26.676  1.00  0.00    -0.193 N 
ATOM     23  C   UNL A   1      32.993  23.036  27.349  1.00  0.00     0.324 C 
ATOM     24  C   UNL A   1      34.736  21.466  26.892  1.00  0.00     0.301 C 
ATOM     25  O   UNL A   1      32.629  22.419  28.337  1.00  0.00    -0.245 OA
BRANCH  18  26
ATOM     26  C   UNL A   1      37.134  23.557  25.758  1.00  0.00     0.125 A 
ATOM     27  C   UNL A   1      40.584  21.084  26.681  1.00  0.00     0.044 C 
ATOM     28  C   UNL A   1      39.421  21.957  26.319  1.00  0.00    -0.051 A 
ATOM     29  C   UNL A   1      38.478  21.537  25.385  1.00  0.00     0.008 A 
ATOM     30  C   UNL A   1      39.295  23.243  26.841  1.00  0.00     0.008 A 
ATOM     31  C   UNL A   1      37.365  22.343  25.099  1.00  0.00     0.052 A 
ATOM     32  C   UNL A   1      38.191  24.047  26.511  1.00  0.00     0.052 A 
ENDBRANCH  18  26
ENDBRANCH  16  17
ENDBRANCH  13  16
ENDBRANCH   7  12
ENDBRANCH   3   6
ENDBRANCH   1   2
BRANCH   1  33
ATOM     33  C   UNL A   1      31.075  31.144  25.892  1.00  0.00     0.023 C 
BRANCH  33  34
ATOM     34  C   UNL A   1      31.676  30.614  27.190  1.00  0.00     0.023 C 
BRANCH  34  35
ATOM     35  C   UNL A   1      33.196  30.472  27.160  1.00  0.00     0.116 C 
BRANCH  35  36
ATOM     36  N   UNL A   1      33.939  31.552  27.820  1.00  0.00    -0.352 N 
ATOM     37  C   UNL A   1      35.129  31.523  28.549  1.00  0.00     0.251 C 
ATOM     38  H   UNL A   1      33.532  32.444  27.733  1.00  0.00     0.163 HD
ATOM     39  O   UNL A   1      35.587  32.538  29.063  1.00  0.00    -0.269 OA
BRANCH  37  40
ATOM     40  C   UNL A   1      35.957  30.294  28.547  1.00  0.00     0.039 A 
ATOM     41  C   UNL A   1      36.225  29.736  29.805  1.00  0.00     0.014 A 
ATOM     42  C   UNL A   1      36.828  30.104  27.493  1.00  0.00     0.014 A 
ATOM     43  C   UNL A   1      37.526  29.363  30.099  1.00  0.00     0.010 A 
ATOM     44  C   UNL A   1      38.148  29.941  27.825  1.00  0.00     0.010 A 
ATOM     45  C   UNL A   1      38.497  29.634  29.143  1.00  0.00    -0.014 A 
BRANCH  45  46
ATOM     46  C   UNL A   1      39.912  29.468  29.371  1.00  0.00     0.031 A 
ATOM     47  C   UNL A   1      40.454  28.157  29.008  1.00  0.00     0.074 A 
ATOM     48  C   UNL A   1      40.693  30.466  29.834  1.00  0.00     0.049 A 
ATOM     49  N   UNL A   1      41.414  27.580  29.636  1.00  0.00    -0.248 NA
ATOM     50  C   UNL A   1      39.867  27.336  27.952  1.00  0.00     0.031 C 
ATOM     51  C   UNL A   1      42.149  30.521  29.859  1.00  0.00     0.029 A 
ATOM     52  N   UNL A   1      40.300  31.603  30.543  1.00  0.00    -0.354 N 
ATOM     53  C   UNL A   1      41.798  26.523  28.849  1.00  0.00     0.074 A 
ATOM     54  C   UNL A   1      40.711  26.307  27.928  1.00  0.00     0.031 C 
ATOM     55  C   UNL A   1      42.536  31.425  30.775  1.00  0.00     0.029 A 
ATOM     56  C   UNL A   1      41.347  31.886  31.461  1.00  0.00     0.049 A 
ATOM     57  H   UNL A   1      39.464  32.109  30.430  1.00  0.00     0.167 HD
ATOM     58  C   UNL A   1      43.093  26.108  28.908  1.00  0.00     0.037 A 
ATOM     59  C   UNL A   1      41.130  31.877  32.815  1.00  0.00     0.037 A 
ATOM     60  C   UNL A   1      43.842  26.895  29.890  1.00  0.00     0.049 A 
ATOM     61  C   UNL A   1      41.864  30.777  33.522  1.00  0.00     0.074 A 
ATOM     62  C   UNL A   1      44.681  27.995  29.786  1.00  0.00     0.029 A 
ATOM     63  N   UNL A   1      43.468  26.841  31.222  1.00  0.00    -0.354 N 
ATOM     64  N   UNL A   1      42.595  29.898  32.903  1.00  0.00    -0.248 NA
ATOM     65  C   UNL A   1      41.730  30.499  34.948  1.00  0.00     0.031 C 
ATOM     66  C   UNL A   1      44.831  28.570  31.079  1.00  0.00     0.029 A 
ATOM     67  C   UNL A   1      44.092  27.819  31.973  1.00  0.00     0.049 A 
ATOM     68  H   UNL A   1      42.832  26.183  31.590  1.00  0.00     0.167 HD
ATOM     69  C   UNL A   1      43.007  28.947  33.786  1.00  0.00     0.074 A 
ATOM     70  C   UNL A   1      42.401  29.340  35.047  1.00  0.00     0.031 C 
ATOM     71  C   UNL A   1      43.798  27.907  33.395  1.00  0.00     0.037 A 
BRANCH  58  72
ATOM     72  C   UNL A   1      43.724  25.266  27.826  1.00  0.00     0.064 A 
ATOM     73  C   UNL A   1      44.426  25.877  26.769  1.00  0.00     0.173 A 
ATOM     74  C   UNL A   1      43.631  23.862  27.741  1.00  0.00     0.173 A 
ATOM     75  F   UNL A   1      44.690  27.189  26.769  1.00  0.00    -0.203 F 
ATOM     76  C   UNL A   1      44.888  25.162  25.664  1.00  0.00     0.198 A 
ATOM     77  C   UNL A   1      44.041  23.152  26.608  1.00  0.00     0.198 A 
ATOM     78  F   UNL A   1      43.189  23.127  28.770  1.00  0.00    -0.203 F 
ATOM     79  F   UNL A   1      45.542  25.806  24.688  1.00  0.00    -0.200 F 
ATOM     80  C   UNL A   1      44.663  23.805  25.565  1.00  0.00     0.200 A 
ATOM     81  F   UNL A   1      43.831  21.830  26.537  1.00  0.00    -0.200 F 
ATOM     82  F   UNL A   1      45.073  23.128  24.484  1.00  0.00    -0.200 F 
ENDBRANCH  58  72
BRANCH  59  83
ATOM     83  C   UNL A   1      39.768  32.371  33.188  1.00  0.00     0.064 A 
ATOM     84  C   UNL A   1      38.933  31.334  33.631  1.00  0.00     0.173 A 
ATOM     85  C   UNL A   1      39.636  33.635  33.779  1.00  0.00     0.173 A 
ATOM     86  F   UNL A   1      38.979  30.133  33.030  1.00  0.00    -0.203 F 
ATOM     87  C   UNL A   1      38.447  31.413  34.921  1.00  0.00     0.198 A 
ATOM     88  C   UNL A   1      38.952  33.760  34.979  1.00  0.00     0.198 A 
ATOM     89  F   UNL A   1      40.313  34.691  33.309  1.00  0.00    -0.203 F 
ATOM     90  F   UNL A   1      38.160  30.277  35.577  1.00  0.00    -0.200 F 
ATOM     91  C   UNL A   1      38.466  32.622  35.599  1.00  0.00     0.200 A 
ATOM     92  F   UNL A   1      38.921  34.940  35.615  1.00  0.00    -0.200 F 
ATOM     93  F   UNL A   1      38.079  32.669  36.878  1.00  0.00    -0.200 F 
ENDBRANCH  59  83
BRANCH  71  94
ATOM     94  C   UNL A   1      44.337  26.871  34.341  1.00  0.00     0.064 A 
ATOM     95  C   UNL A   1      43.529  25.877  34.915  1.00  0.00     0.173 A 
ATOM     96  C   UNL A   1      45.681  26.885  34.774  1.00  0.00     0.173 A 
ATOM     97  F   UNL A   1      42.199  25.876  34.739  1.00  0.00    -0.203 F 
ATOM     98  C   UNL A   1      44.060  24.874  35.723  1.00  0.00     0.198 A 
ATOM     99  C   UNL A   1      46.196  25.921  35.633  1.00  0.00     0.198 A 
ATOM    100  F   UNL A   1      46.550  27.824  34.381  1.00  0.00    -0.203 F 
ATOM    101  F   UNL A   1      43.265  23.889  36.163  1.00  0.00    -0.200 F 
ATOM    102  C   UNL A   1      45.395  24.891  36.075  1.00  0.00     0.200 A 
ATOM    103  F   UNL A   1      47.478  25.996  36.015  1.00  0.00    -0.200 F 
ATOM    104  F   UNL A   1      45.906  23.929  36.853  1.00  0.00    -0.200 F 
ENDBRANCH  71  94
ENDBRANCH  45  46
ENDBRANCH  37  40
ENDBRANCH  35  36
ENDBRANCH  34  35
ENDBRANCH  33  34
ENDBRANCH   1  33
TORSDOF 15
ENDMDL
