MODEL 1
REMARK VINA RESULT:     -11.9      0.000      0.000
REMARK SMILES C[C@@H](O)[C@@H](NC(=O)c1csc(-c2ccsc2)n1)C(=O)NCCCCNC(=O)c1ccc(-c2c3nc(c(-c4c(F)c(F)c(F)c(F)c4F)c4ccc([nH]4)c(-c4c(F)c(F)c(F)c(F)c4F)c4nc(c(-c5c(F)c(F)c(F)c(F)c5F)c5ccc2[nH]5)C=C4)C=C3)cc1
REMARK SMILES IDX 22 1 21 2 20 3 18 4 19 5 4 7 2 8 1 9 3 10 5 12 6 13 7 15
REMARK SMILES IDX 8 16 9 17 17 18 10 19 11 20 12 21 13 22 16 23 14 24 15 25
REMARK SMILES IDX 23 26 24 27 25 28 26 29 27 31 28 32 29 33 90 34 30 35 89 36
REMARK SMILES IDX 31 37 32 38 33 39 83 40 34 41 88 42 82 43 84 44 35 45 87 46
REMARK SMILES IDX 81 47 80 48 36 50 68 51 48 52 67 53 49 54 52 55 66 56 85 57
REMARK SMILES IDX 50 58 51 59 65 61 86 62 53 63 37 64 38 65 46 66 39 67 40 68
REMARK SMILES IDX 44 69 47 70 41 71 42 72 45 73 43 74 69 75 70 76 78 77 71 78
REMARK SMILES IDX 72 79 76 80 79 81 73 82 74 83 77 84 75 85 54 86 55 87 63 88
REMARK SMILES IDX 56 89 57 90 61 91 64 92 58 93 59 94 62 95 60 96
REMARK H PARENT 20 6 3 11 5 14 25 30 84 49 52 60
REMARK Flexibility Score: inf
ROOT
ATOM      1  C   UNL A   1      37.105  21.752  24.265  1.00  0.00     0.023 C 
ENDROOT
BRANCH   1   2
ATOM      2  C   UNL A   1      35.669  22.106  24.644  1.00  0.00     0.116 C 
BRANCH   2   3
ATOM      3  N   UNL A   1      35.396  21.736  26.016  1.00  0.00    -0.354 N 
ATOM      4  C   UNL A   1      34.213  21.582  26.677  1.00  0.00     0.245 C 
ATOM      5  O   UNL A   1      34.290  21.443  27.902  1.00  0.00    -0.273 OA
ATOM      6  H   UNL A   1      36.197  21.567  26.564  1.00  0.00     0.163 HD
BRANCH   4   7
ATOM      7  C   UNL A   1      32.854  21.749  25.962  1.00  0.00     0.200 C 
BRANCH   7   8
ATOM      8  C   UNL A   1      32.573  20.354  25.304  1.00  0.00     0.143 C 
ATOM      9  C   UNL A   1      32.575  20.337  23.779  1.00  0.00     0.041 C 
BRANCH   8  10
ATOM     10  O   UNL A   1      33.571  19.413  25.709  1.00  0.00    -0.391 OA
ATOM     11  H   UNL A   1      33.759  18.805  24.977  1.00  0.00     0.211 HD
ENDBRANCH   8  10
ENDBRANCH   7   8
BRANCH   7  12
ATOM     12  N   UNL A   1      31.730  22.206  26.810  1.00  0.00    -0.337 N 
ATOM     13  C   UNL A   1      30.898  23.296  26.692  1.00  0.00     0.271 C 
ATOM     14  H   UNL A   1      31.547  21.632  27.588  1.00  0.00     0.164 HD
ATOM     15  O   UNL A   1      29.874  23.307  27.377  1.00  0.00    -0.267 OA
BRANCH  13  16
ATOM     16  C   UNL A   1      31.341  24.476  25.957  1.00  0.00     0.139 A 
ATOM     17  C   UNL A   1      31.316  24.516  24.573  1.00  0.00     0.101 A 
ATOM     18  N   UNL A   1      31.770  25.654  26.557  1.00  0.00    -0.231 NA
ATOM     19  S   UNL A   1      31.531  26.122  24.032  1.00  0.00    -0.122 S 
ATOM     20  C   UNL A   1      31.834  26.615  25.654  1.00  0.00     0.125 A 
BRANCH  20  21
ATOM     21  C   UNL A   1      32.131  28.038  26.022  1.00  0.00     0.021 A 
ATOM     22  C   UNL A   1      31.494  29.175  25.442  1.00  0.00     0.023 A 
ATOM     23  C   UNL A   1      33.078  28.403  26.956  1.00  0.00     0.076 A 
ATOM     24  C   UNL A   1      31.942  30.357  25.991  1.00  0.00     0.065 A 
ATOM     25  S   UNL A   1      33.184  30.102  27.141  1.00  0.00    -0.152 S 
ENDBRANCH  20  21
ENDBRANCH  13  16
ENDBRANCH   7  12
ENDBRANCH   4   7
ENDBRANCH   2   3
ENDBRANCH   1   2
BRANCH   1  26
ATOM     26  C   UNL A   1      37.662  20.517  24.980  1.00  0.00     0.023 C 
BRANCH  26  27
ATOM     27  C   UNL A   1      38.924  20.765  25.798  1.00  0.00     0.116 C 
BRANCH  27  28
ATOM     28  N   UNL A   1      39.806  19.609  25.826  1.00  0.00    -0.352 N 
ATOM     29  C   UNL A   1      41.160  19.569  26.049  1.00  0.00     0.251 C 
ATOM     30  H   UNL A   1      39.374  18.739  25.662  1.00  0.00     0.163 HD
ATOM     31  O   UNL A   1      41.794  18.532  25.884  1.00  0.00    -0.269 OA
BRANCH  29  32
ATOM     32  C   UNL A   1      41.851  20.804  26.464  1.00  0.00     0.039 A 
ATOM     33  C   UNL A   1      42.306  21.687  25.482  1.00  0.00     0.014 A 
ATOM     34  C   UNL A   1      41.997  21.108  27.820  1.00  0.00     0.014 A 
ATOM     35  C   UNL A   1      42.842  22.917  25.862  1.00  0.00     0.010 A 
ATOM     36  C   UNL A   1      42.476  22.359  28.194  1.00  0.00     0.010 A 
ATOM     37  C   UNL A   1      42.892  23.277  27.218  1.00  0.00    -0.014 A 
BRANCH  37  38
ATOM     38  C   UNL A   1      43.362  24.620  27.640  1.00  0.00     0.031 A 
ATOM     39  C   UNL A   1      42.369  25.685  28.001  1.00  0.00     0.074 A 
ATOM     40  C   UNL A   1      44.680  24.898  27.622  1.00  0.00     0.049 A 
ATOM     41  N   UNL A   1      42.577  26.940  28.309  1.00  0.00    -0.248 NA
ATOM     42  C   UNL A   1      40.951  25.292  27.992  1.00  0.00     0.031 C 
ATOM     43  C   UNL A   1      45.738  23.957  27.250  1.00  0.00     0.029 A 
ATOM     44  N   UNL A   1      45.353  26.058  27.912  1.00  0.00    -0.354 N 
ATOM     45  C   UNL A   1      41.319  27.488  28.517  1.00  0.00     0.074 A 
ATOM     46  C   UNL A   1      40.352  26.444  28.254  1.00  0.00     0.031 C 
ATOM     47  C   UNL A   1      46.927  24.572  27.353  1.00  0.00     0.029 A 
ATOM     48  C   UNL A   1      46.714  25.957  27.761  1.00  0.00     0.049 A 
ATOM     49  H   UNL A   1      44.903  26.885  28.200  1.00  0.00     0.167 HD
ATOM     50  C   UNL A   1      41.002  28.743  28.915  1.00  0.00     0.037 A 
ATOM     51  C   UNL A   1      47.679  26.881  27.926  1.00  0.00     0.037 A 
ATOM     52  C   UNL A   1      41.967  29.773  29.196  1.00  0.00     0.049 A 
ATOM     53  C   UNL A   1      47.298  28.274  28.347  1.00  0.00     0.074 A 
ATOM     54  C   UNL A   1      41.749  31.058  29.658  1.00  0.00     0.029 A 
ATOM     55  N   UNL A   1      43.338  29.632  29.038  1.00  0.00    -0.354 N 
ATOM     56  N   UNL A   1      46.110  28.765  28.601  1.00  0.00    -0.248 NA
ATOM     57  C   UNL A   1      48.394  29.241  28.504  1.00  0.00     0.031 C 
ATOM     58  C   UNL A   1      42.985  31.708  29.742  1.00  0.00     0.029 A 
ATOM     59  C   UNL A   1      43.977  30.815  29.373  1.00  0.00     0.049 A 
ATOM     60  H   UNL A   1      43.790  28.812  28.732  1.00  0.00     0.167 HD
ATOM     61  C   UNL A   1      46.315  30.087  28.972  1.00  0.00     0.074 A 
ATOM     62  C   UNL A   1      47.743  30.319  28.921  1.00  0.00     0.031 C 
ATOM     63  C   UNL A   1      45.400  31.024  29.324  1.00  0.00     0.037 A 
BRANCH  50  64
ATOM     64  C   UNL A   1      39.547  29.068  29.073  1.00  0.00     0.064 A 
ATOM     65  C   UNL A   1      38.752  29.430  27.974  1.00  0.00     0.173 A 
ATOM     66  C   UNL A   1      38.932  28.994  30.331  1.00  0.00     0.173 A 
ATOM     67  F   UNL A   1      39.296  29.528  26.752  1.00  0.00    -0.203 F 
ATOM     68  C   UNL A   1      37.403  29.734  28.135  1.00  0.00     0.198 A 
ATOM     69  C   UNL A   1      37.575  29.272  30.484  1.00  0.00     0.198 A 
ATOM     70  F   UNL A   1      39.645  28.649  31.413  1.00  0.00    -0.203 F 
ATOM     71  F   UNL A   1      36.677  30.127  27.079  1.00  0.00    -0.200 F 
ATOM     72  C   UNL A   1      36.814  29.650  29.387  1.00  0.00     0.200 A 
ATOM     73  F   UNL A   1      37.006  29.180  31.693  1.00  0.00    -0.200 F 
ATOM     74  F   UNL A   1      35.516  29.941  29.539  1.00  0.00    -0.200 F 
ENDBRANCH  50  64
BRANCH  51  75
ATOM     75  C   UNL A   1      49.103  26.513  27.720  1.00  0.00     0.064 A 
ATOM     76  C   UNL A   1      49.949  26.291  28.814  1.00  0.00     0.173 A 
ATOM     77  C   UNL A   1      49.644  26.373  26.433  1.00  0.00     0.173 A 
ATOM     78  F   UNL A   1      49.481  26.433  30.062  1.00  0.00    -0.203 F 
ATOM     79  C   UNL A   1      51.290  25.958  28.630  1.00  0.00     0.198 A 
ATOM     80  C   UNL A   1      50.978  26.016  26.251  1.00  0.00     0.198 A 
ATOM     81  F   UNL A   1      48.873  26.570  25.355  1.00  0.00    -0.203 F 
ATOM     82  F   UNL A   1      52.087  25.788  29.693  1.00  0.00    -0.200 F 
ATOM     83  C   UNL A   1      51.802  25.814  27.349  1.00  0.00     0.200 A 
ATOM     84  F   UNL A   1      51.466  25.866  25.012  1.00  0.00    -0.200 F 
ATOM     85  F   UNL A   1      53.090  25.490  27.172  1.00  0.00    -0.200 F 
ENDBRANCH  51  75
BRANCH  63  86
ATOM     86  C   UNL A   1      45.920  32.377  29.712  1.00  0.00     0.064 A 
ATOM     87  C   UNL A   1      46.055  33.408  28.772  1.00  0.00     0.173 A 
ATOM     88  C   UNL A   1      46.242  32.656  31.048  1.00  0.00     0.173 A 
ATOM     89  F   UNL A   1      45.775  33.184  27.479  1.00  0.00    -0.203 F 
ATOM     90  C   UNL A   1      46.512  34.666  29.153  1.00  0.00     0.198 A 
ATOM     91  C   UNL A   1      46.674  33.923  31.431  1.00  0.00     0.198 A 
ATOM     92  F   UNL A   1      46.126  31.704  31.986  1.00  0.00    -0.203 F 
ATOM     93  F   UNL A   1      46.672  35.627  28.232  1.00  0.00    -0.200 F 
ATOM     94  C   UNL A   1      46.814  34.925  30.483  1.00  0.00     0.200 A 
ATOM     95  F   UNL A   1      46.955  34.173  32.716  1.00  0.00    -0.200 F 
ATOM     96  F   UNL A   1      47.246  36.139  30.849  1.00  0.00    -0.200 F 
ENDBRANCH  63  86
ENDBRANCH  37  38
ENDBRANCH  29  32
ENDBRANCH  27  28
ENDBRANCH  26  27
ENDBRANCH   1  26
TORSDOF 16
ENDMDL
MODEL 2
REMARK VINA RESULT:     -11.9      5.809     10.653
REMARK SMILES C[C@@H](O)[C@@H](NC(=O)c1csc(-c2ccsc2)n1)C(=O)NCCCCNC(=O)c1ccc(-c2c3nc(c(-c4c(F)c(F)c(F)c(F)c4F)c4ccc([nH]4)c(-c4c(F)c(F)c(F)c(F)c4F)c4nc(c(-c5c(F)c(F)c(F)c(F)c5F)c5ccc2[nH]5)C=C4)C=C3)cc1
REMARK SMILES IDX 22 1 21 2 20 3 18 4 19 5 4 7 2 8 1 9 3 10 5 12 6 13 7 15
REMARK SMILES IDX 8 16 9 17 17 18 10 19 11 20 12 21 13 22 16 23 14 24 15 25
REMARK SMILES IDX 23 26 24 27 25 28 26 29 27 31 28 32 29 33 90 34 30 35 89 36
REMARK SMILES IDX 31 37 32 38 33 39 83 40 34 41 88 42 82 43 84 44 35 45 87 46
REMARK SMILES IDX 81 47 80 48 36 50 68 51 48 52 67 53 49 54 52 55 66 56 85 57
REMARK SMILES IDX 50 58 51 59 65 61 86 62 53 63 37 64 38 65 46 66 39 67 40 68
REMARK SMILES IDX 44 69 47 70 41 71 42 72 45 73 43 74 69 75 70 76 78 77 71 78
REMARK SMILES IDX 72 79 76 80 79 81 73 82 74 83 77 84 75 85 54 86 55 87 63 88
REMARK SMILES IDX 56 89 57 90 61 91 64 92 58 93 59 94 62 95 60 96
REMARK H PARENT 20 6 3 11 5 14 25 30 84 49 52 60
REMARK Flexibility Score: inf
ROOT
ATOM      1  C   UNL A   1      31.778  30.509  26.627  1.00  0.00     0.023 C 
ENDROOT
BRANCH   1   2
ATOM      2  C   UNL A   1      31.701  30.063  25.169  1.00  0.00     0.116 C 
BRANCH   2   3
ATOM      3  N   UNL A   1      33.010  29.686  24.680  1.00  0.00    -0.354 N 
ATOM      4  C   UNL A   1      33.395  28.657  23.873  1.00  0.00     0.245 C 
ATOM      5  O   UNL A   1      34.612  28.470  23.775  1.00  0.00    -0.273 OA
ATOM      6  H   UNL A   1      33.745  30.270  24.980  1.00  0.00     0.163 HD
BRANCH   4   7
ATOM      7  C   UNL A   1      32.370  27.675  23.261  1.00  0.00     0.200 C 
BRANCH   7   8
ATOM      8  C   UNL A   1      33.169  26.900  22.156  1.00  0.00     0.143 C 
ATOM      9  C   UNL A   1      32.342  25.953  21.294  1.00  0.00     0.041 C 
BRANCH   8  10
ATOM     10  O   UNL A   1      33.776  27.827  21.251  1.00  0.00    -0.391 OA
ATOM     11  H   UNL A   1      34.687  27.551  21.069  1.00  0.00     0.211 HD
ENDBRANCH   8  10
ENDBRANCH   7   8
BRANCH   7  12
ATOM     12  N   UNL A   1      31.703  26.761  24.215  1.00  0.00    -0.337 N 
ATOM     13  C   UNL A   1      30.390  26.360  24.309  1.00  0.00     0.271 C 
ATOM     14  H   UNL A   1      32.299  26.376  24.896  1.00  0.00     0.164 HD
ATOM     15  O   UNL A   1      30.141  25.389  25.025  1.00  0.00    -0.267 OA
BRANCH  13  16
ATOM     16  C   UNL A   1      29.330  27.198  23.760  1.00  0.00     0.139 A 
ATOM     17  C   UNL A   1      27.995  26.854  23.891  1.00  0.00     0.101 A 
ATOM     18  N   UNL A   1      29.548  28.412  23.117  1.00  0.00    -0.231 NA
ATOM     19  S   UNL A   1      27.006  28.188  23.489  1.00  0.00    -0.122 S 
ATOM     20  C   UNL A   1      28.405  29.058  22.987  1.00  0.00     0.125 A 
BRANCH  20  21
ATOM     21  C   UNL A   1      28.336  30.460  22.457  1.00  0.00     0.021 A 
ATOM     22  C   UNL A   1      28.542  31.633  23.241  1.00  0.00     0.023 A 
ATOM     23  C   UNL A   1      28.040  30.766  21.145  1.00  0.00     0.076 A 
ATOM     24  C   UNL A   1      28.446  32.783  22.487  1.00  0.00     0.065 A 
ATOM     25  S   UNL A   1      28.028  32.455  20.861  1.00  0.00    -0.152 S 
ENDBRANCH  20  21
ENDBRANCH  13  16
ENDBRANCH   7  12
ENDBRANCH   4   7
ENDBRANCH   2   3
ENDBRANCH   1   2
BRANCH   1  26
ATOM     26  C   UNL A   1      31.539  32.006  26.845  1.00  0.00     0.023 C 
BRANCH  26  27
ATOM     27  C   UNL A   1      32.738  32.775  27.387  1.00  0.00     0.116 C 
BRANCH  27  28
ATOM     28  N   UNL A   1      32.435  34.176  27.634  1.00  0.00    -0.352 N 
ATOM     29  C   UNL A   1      33.000  35.026  28.553  1.00  0.00     0.251 C 
ATOM     30  H   UNL A   1      31.732  34.567  27.066  1.00  0.00     0.163 HD
ATOM     31  O   UNL A   1      32.528  36.141  28.751  1.00  0.00    -0.269 OA
BRANCH  29  32
ATOM     32  C   UNL A   1      34.168  34.566  29.326  1.00  0.00     0.039 A 
ATOM     33  C   UNL A   1      33.969  34.039  30.604  1.00  0.00     0.014 A 
ATOM     34  C   UNL A   1      35.446  34.608  28.763  1.00  0.00     0.014 A 
ATOM     35  C   UNL A   1      35.047  33.481  31.291  1.00  0.00     0.010 A 
ATOM     36  C   UNL A   1      36.507  33.998  29.423  1.00  0.00     0.010 A 
ATOM     37  C   UNL A   1      36.314  33.420  30.687  1.00  0.00    -0.014 A 
BRANCH  37  38
ATOM     38  C   UNL A   1      37.451  32.740  31.355  1.00  0.00     0.031 A 
ATOM     39  C   UNL A   1      38.137  31.587  30.683  1.00  0.00     0.074 A 
ATOM     40  C   UNL A   1      37.812  33.114  32.597  1.00  0.00     0.049 A 
ATOM     41  N   UNL A   1      39.088  30.811  31.137  1.00  0.00    -0.248 NA
ATOM     42  C   UNL A   1      37.676  31.247  29.327  1.00  0.00     0.031 C 
ATOM     43  C   UNL A   1      37.194  34.195  33.368  1.00  0.00     0.029 A 
ATOM     44  N   UNL A   1      38.779  32.619  33.435  1.00  0.00    -0.354 N 
ATOM     45  C   UNL A   1      39.330  29.885  30.132  1.00  0.00     0.074 A 
ATOM     46  C   UNL A   1      38.394  30.165  29.064  1.00  0.00     0.031 C 
ATOM     47  C   UNL A   1      37.810  34.292  34.557  1.00  0.00     0.029 A 
ATOM     48  C   UNL A   1      38.838  33.260  34.647  1.00  0.00     0.049 A 
ATOM     49  H   UNL A   1      39.374  31.874  33.190  1.00  0.00     0.167 HD
ATOM     50  C   UNL A   1      40.263  28.905  30.094  1.00  0.00     0.037 A 
ATOM     51  C   UNL A   1      39.629  33.035  35.713  1.00  0.00     0.037 A 
ATOM     52  C   UNL A   1      41.206  28.644  31.150  1.00  0.00     0.049 A 
ATOM     53  C   UNL A   1      40.643  31.926  35.654  1.00  0.00     0.074 A 
ATOM     54  C   UNL A   1      42.226  27.711  31.184  1.00  0.00     0.029 A 
ATOM     55  N   UNL A   1      41.240  29.319  32.362  1.00  0.00    -0.354 N 
ATOM     56  N   UNL A   1      40.905  31.096  34.675  1.00  0.00    -0.248 NA
ATOM     57  C   UNL A   1      41.472  31.724  36.851  1.00  0.00     0.031 C 
ATOM     58  C   UNL A   1      42.853  27.794  32.432  1.00  0.00     0.029 A 
ATOM     59  C   UNL A   1      42.250  28.807  33.159  1.00  0.00     0.049 A 
ATOM     60  H   UNL A   1      40.634  30.051  32.616  1.00  0.00     0.167 HD
ATOM     61  C   UNL A   1      41.943  30.291  35.125  1.00  0.00     0.074 A 
ATOM     62  C   UNL A   1      42.272  30.739  36.461  1.00  0.00     0.031 C 
ATOM     63  C   UNL A   1      42.568  29.272  34.485  1.00  0.00     0.037 A 
BRANCH  50  64
ATOM     64  C   UNL A   1      40.311  28.047  28.866  1.00  0.00     0.064 A 
ATOM     65  C   UNL A   1      41.056  28.422  27.737  1.00  0.00     0.173 A 
ATOM     66  C   UNL A   1      39.626  26.824  28.824  1.00  0.00     0.173 A 
ATOM     67  F   UNL A   1      41.717  29.589  27.724  1.00  0.00    -0.203 F 
ATOM     68  C   UNL A   1      41.088  27.619  26.600  1.00  0.00     0.198 A 
ATOM     69  C   UNL A   1      39.683  26.009  27.694  1.00  0.00     0.198 A 
ATOM     70  F   UNL A   1      38.903  26.416  29.876  1.00  0.00    -0.203 F 
ATOM     71  F   UNL A   1      41.764  28.024  25.517  1.00  0.00    -0.200 F 
ATOM     72  C   UNL A   1      40.407  26.412  26.581  1.00  0.00     0.200 A 
ATOM     73  F   UNL A   1      39.034  24.838  27.682  1.00  0.00    -0.200 F 
ATOM     74  F   UNL A   1      40.442  25.640  25.488  1.00  0.00    -0.200 F 
ENDBRANCH  50  64
BRANCH  51  75
ATOM     75  C   UNL A   1      39.512  33.895  36.919  1.00  0.00     0.064 A 
ATOM     76  C   UNL A   1      38.747  33.484  38.018  1.00  0.00     0.173 A 
ATOM     77  C   UNL A   1      40.160  35.136  36.999  1.00  0.00     0.173 A 
ATOM     78  F   UNL A   1      38.093  32.313  37.979  1.00  0.00    -0.203 F 
ATOM     79  C   UNL A   1      38.620  34.289  39.148  1.00  0.00     0.198 A 
ATOM     80  C   UNL A   1      40.052  35.930  38.139  1.00  0.00     0.198 A 
ATOM     81  F   UNL A   1      40.907  35.571  35.975  1.00  0.00    -0.203 F 
ATOM     82  F   UNL A   1      37.852  33.889  40.170  1.00  0.00    -0.200 F 
ATOM     83  C   UNL A   1      39.278  35.509  39.210  1.00  0.00     0.200 A 
ATOM     84  F   UNL A   1      40.699  37.102  38.200  1.00  0.00    -0.200 F 
ATOM     85  F   UNL A   1      39.159  36.282  40.299  1.00  0.00    -0.200 F 
ENDBRANCH  51  75
BRANCH  63  86
ATOM     86  C   UNL A   1      43.691  28.592  35.211  1.00  0.00     0.064 A 
ATOM     87  C   UNL A   1      45.010  29.056  35.121  1.00  0.00     0.173 A 
ATOM     88  C   UNL A   1      43.434  27.492  36.043  1.00  0.00     0.173 A 
ATOM     89  F   UNL A   1      45.307  30.095  34.325  1.00  0.00    -0.203 F 
ATOM     90  C   UNL A   1      46.037  28.433  35.823  1.00  0.00     0.198 A 
ATOM     91  C   UNL A   1      44.459  26.886  36.765  1.00  0.00     0.198 A 
ATOM     92  F   UNL A   1      42.187  27.013  36.166  1.00  0.00    -0.203 F 
ATOM     93  F   UNL A   1      47.298  28.868  35.692  1.00  0.00    -0.200 F 
ATOM     94  C   UNL A   1      45.760  27.353  36.650  1.00  0.00     0.200 A 
ATOM     95  F   UNL A   1      44.187  25.851  37.570  1.00  0.00    -0.200 F 
ATOM     96  F   UNL A   1      46.748  26.758  37.332  1.00  0.00    -0.200 F 
ENDBRANCH  63  86
ENDBRANCH  37  38
ENDBRANCH  29  32
ENDBRANCH  27  28
ENDBRANCH  26  27
ENDBRANCH   1  26
TORSDOF 16
ENDMDL
MODEL 3
REMARK VINA RESULT:     -11.9      5.563     10.803
REMARK SMILES C[C@@H](O)[C@@H](NC(=O)c1csc(-c2ccsc2)n1)C(=O)NCCCCNC(=O)c1ccc(-c2c3nc(c(-c4c(F)c(F)c(F)c(F)c4F)c4ccc([nH]4)c(-c4c(F)c(F)c(F)c(F)c4F)c4nc(c(-c5c(F)c(F)c(F)c(F)c5F)c5ccc2[nH]5)C=C4)C=C3)cc1
REMARK SMILES IDX 22 1 21 2 20 3 18 4 19 5 4 7 2 8 1 9 3 10 5 12 6 13 7 15
REMARK SMILES IDX 8 16 9 17 17 18 10 19 11 20 12 21 13 22 16 23 14 24 15 25
REMARK SMILES IDX 23 26 24 27 25 28 26 29 27 31 28 32 29 33 90 34 30 35 89 36
REMARK SMILES IDX 31 37 32 38 33 39 83 40 34 41 88 42 82 43 84 44 35 45 87 46
REMARK SMILES IDX 81 47 80 48 36 50 68 51 48 52 67 53 49 54 52 55 66 56 85 57
REMARK SMILES IDX 50 58 51 59 65 61 86 62 53 63 37 64 38 65 46 66 39 67 40 68
REMARK SMILES IDX 44 69 47 70 41 71 42 72 45 73 43 74 69 75 70 76 78 77 71 78
REMARK SMILES IDX 72 79 76 80 79 81 73 82 74 83 77 84 75 85 54 86 55 87 63 88
REMARK SMILES IDX 56 89 57 90 61 91 64 92 58 93 59 94 62 95 60 96
REMARK H PARENT 20 6 3 11 5 14 25 30 84 49 52 60
REMARK Flexibility Score: inf
ROOT
ATOM      1  C   UNL A   1      31.772  30.296  26.763  1.00  0.00     0.023 C 
ENDROOT
BRANCH   1   2
ATOM      2  C   UNL A   1      32.235  29.555  25.511  1.00  0.00     0.116 C 
BRANCH   2   3
ATOM      3  N   UNL A   1      31.351  29.828  24.399  1.00  0.00    -0.354 N 
ATOM      4  C   UNL A   1      30.978  29.045  23.346  1.00  0.00     0.245 C 
ATOM      5  O   UNL A   1      30.354  29.612  22.443  1.00  0.00    -0.273 OA
ATOM      6  H   UNL A   1      30.951  30.728  24.403  1.00  0.00     0.163 HD
BRANCH   4   7
ATOM      7  C   UNL A   1      31.462  27.584  23.208  1.00  0.00     0.200 C 
BRANCH   7   8
ATOM      8  C   UNL A   1      30.167  26.717  23.379  1.00  0.00     0.143 C 
ATOM      9  C   UNL A   1      30.255  25.606  24.421  1.00  0.00     0.041 C 
BRANCH   8  10
ATOM     10  O   UNL A   1      29.072  27.546  23.781  1.00  0.00    -0.391 OA
ATOM     11  H   UNL A   1      28.273  27.004  23.872  1.00  0.00     0.211 HD
ENDBRANCH   8  10
ENDBRANCH   7   8
BRANCH   7  12
ATOM     12  N   UNL A   1      32.192  27.261  21.962  1.00  0.00    -0.337 N 
ATOM     13  C   UNL A   1      32.869  26.123  21.584  1.00  0.00     0.271 C 
ATOM     14  H   UNL A   1      32.193  27.980  21.291  1.00  0.00     0.164 HD
ATOM     15  O   UNL A   1      33.164  26.005  20.394  1.00  0.00    -0.267 OA
BRANCH  13  16
ATOM     16  C   UNL A   1      33.404  25.222  22.600  1.00  0.00     0.139 A 
ATOM     17  C   UNL A   1      34.014  25.705  23.745  1.00  0.00     0.101 A 
ATOM     18  N   UNL A   1      33.309  23.836  22.542  1.00  0.00    -0.231 NA
ATOM     19  S   UNL A   1      34.190  24.447  24.887  1.00  0.00    -0.122 S 
ATOM     20  C   UNL A   1      33.626  23.320  23.714  1.00  0.00     0.125 A 
BRANCH  20  21
ATOM     21  C   UNL A   1      33.483  21.855  24.007  1.00  0.00     0.021 A 
ATOM     22  C   UNL A   1      34.406  21.090  24.778  1.00  0.00     0.023 A 
ATOM     23  C   UNL A   1      32.443  21.081  23.535  1.00  0.00     0.076 A 
ATOM     24  C   UNL A   1      34.009  19.776  24.908  1.00  0.00     0.065 A 
ATOM     25  S   UNL A   1      32.574  19.448  24.035  1.00  0.00    -0.152 S 
ENDBRANCH  20  21
ENDBRANCH  13  16
ENDBRANCH   7  12
ENDBRANCH   4   7
ENDBRANCH   2   3
ENDBRANCH   1   2
BRANCH   1  26
ATOM     26  C   UNL A   1      31.708  31.819  26.610  1.00  0.00     0.023 C 
BRANCH  26  27
ATOM     27  C   UNL A   1      32.813  32.583  27.328  1.00  0.00     0.116 C 
BRANCH  27  28
ATOM     28  N   UNL A   1      32.454  33.968  27.589  1.00  0.00    -0.352 N 
ATOM     29  C   UNL A   1      32.978  34.828  28.523  1.00  0.00     0.251 C 
ATOM     30  H   UNL A   1      31.740  34.338  27.021  1.00  0.00     0.163 HD
ATOM     31  O   UNL A   1      32.461  35.921  28.730  1.00  0.00    -0.269 OA
BRANCH  29  32
ATOM     32  C   UNL A   1      34.158  34.405  29.299  1.00  0.00     0.039 A 
ATOM     33  C   UNL A   1      33.971  33.854  30.569  1.00  0.00     0.014 A 
ATOM     34  C   UNL A   1      35.438  34.506  28.746  1.00  0.00     0.014 A 
ATOM     35  C   UNL A   1      35.065  33.331  31.257  1.00  0.00     0.010 A 
ATOM     36  C   UNL A   1      36.517  33.930  29.407  1.00  0.00     0.010 A 
ATOM     37  C   UNL A   1      36.338  33.329  30.663  1.00  0.00    -0.014 A 
BRANCH  37  38
ATOM     38  C   UNL A   1      37.497  32.686  31.330  1.00  0.00     0.031 A 
ATOM     39  C   UNL A   1      38.216  31.552  30.661  1.00  0.00     0.074 A 
ATOM     40  C   UNL A   1      37.848  33.076  32.570  1.00  0.00     0.049 A 
ATOM     41  N   UNL A   1      39.191  30.807  31.116  1.00  0.00    -0.248 NA
ATOM     42  C   UNL A   1      37.763  31.193  29.308  1.00  0.00     0.031 C 
ATOM     43  C   UNL A   1      37.199  34.140  33.339  1.00  0.00     0.029 A 
ATOM     44  N   UNL A   1      38.832  32.613  33.408  1.00  0.00    -0.354 N 
ATOM     45  C   UNL A   1      39.459  29.885  30.114  1.00  0.00     0.074 A 
ATOM     46  C   UNL A   1      38.513  30.133  29.047  1.00  0.00     0.031 C 
ATOM     47  C   UNL A   1      37.814  34.260  34.526  1.00  0.00     0.029 A 
ATOM     48  C   UNL A   1      38.873  33.261  34.618  1.00  0.00     0.049 A 
ATOM     49  H   UNL A   1      39.449  31.885  33.165  1.00  0.00     0.167 HD
ATOM     50  C   UNL A   1      40.422  28.934  30.079  1.00  0.00     0.037 A 
ATOM     51  C   UNL A   1      39.672  33.063  35.683  1.00  0.00     0.037 A 
ATOM     52  C   UNL A   1      41.374  28.705  31.133  1.00  0.00     0.049 A 
ATOM     53  C   UNL A   1      40.720  31.985  35.627  1.00  0.00     0.074 A 
ATOM     54  C   UNL A   1      42.422  27.804  31.168  1.00  0.00     0.029 A 
ATOM     55  N   UNL A   1      41.389  29.385  32.342  1.00  0.00    -0.354 N 
ATOM     56  N   UNL A   1      41.005  31.160  34.650  1.00  0.00    -0.248 NA
ATOM     57  C   UNL A   1      41.557  31.813  36.823  1.00  0.00     0.031 C 
ATOM     58  C   UNL A   1      43.049  27.911  32.415  1.00  0.00     0.029 A 
ATOM     59  C   UNL A   1      42.417  28.908  33.140  1.00  0.00     0.049 A 
ATOM     60  H   UNL A   1      40.762  30.100  32.596  1.00  0.00     0.167 HD
ATOM     61  C   UNL A   1      42.068  30.389  35.100  1.00  0.00     0.074 A 
ATOM     62  C   UNL A   1      42.385  30.852  36.435  1.00  0.00     0.031 C 
ATOM     63  C   UNL A   1      42.722  29.387  34.463  1.00  0.00     0.037 A 
BRANCH  50  64
ATOM     64  C   UNL A   1      40.494  28.073  28.854  1.00  0.00     0.064 A 
ATOM     65  C   UNL A   1      39.787  26.863  28.764  1.00  0.00     0.173 A 
ATOM     66  C   UNL A   1      41.257  28.470  27.746  1.00  0.00     0.173 A 
ATOM     67  F   UNL A   1      39.053  26.434  29.802  1.00  0.00    -0.203 F 
ATOM     68  C   UNL A   1      39.866  26.069  27.623  1.00  0.00     0.198 A 
ATOM     69  C   UNL A   1      41.312  27.686  26.595  1.00  0.00     0.198 A 
ATOM     70  F   UNL A   1      41.949  29.618  27.778  1.00  0.00    -0.203 F 
ATOM     71  F   UNL A   1      39.223  24.895  27.582  1.00  0.00    -0.200 F 
ATOM     72  C   UNL A   1      40.623  26.483  26.538  1.00  0.00     0.200 A 
ATOM     73  F   UNL A   1      42.035  28.093  25.544  1.00  0.00    -0.200 F 
ATOM     74  F   UNL A   1      40.696  25.719  25.441  1.00  0.00    -0.200 F 
ENDBRANCH  50  64
BRANCH  51  75
ATOM     75  C   UNL A   1      39.532  33.924  36.886  1.00  0.00     0.064 A 
ATOM     76  C   UNL A   1      38.749  33.511  37.972  1.00  0.00     0.173 A 
ATOM     77  C   UNL A   1      40.173  35.167  36.976  1.00  0.00     0.173 A 
ATOM     78  F   UNL A   1      38.100  32.338  37.923  1.00  0.00    -0.203 F 
ATOM     79  C   UNL A   1      38.600  34.317  39.099  1.00  0.00     0.198 A 
ATOM     80  C   UNL A   1      40.042  35.961  38.113  1.00  0.00     0.198 A 
ATOM     81  F   UNL A   1      40.937  35.604  35.965  1.00  0.00    -0.203 F 
ATOM     82  F   UNL A   1      37.816  33.915  40.108  1.00  0.00    -0.200 F 
ATOM     83  C   UNL A   1      39.252  35.539  39.172  1.00  0.00     0.200 A 
ATOM     84  F   UNL A   1      40.684  37.136  38.185  1.00  0.00    -0.200 F 
ATOM     85  F   UNL A   1      39.112  36.312  40.257  1.00  0.00    -0.200 F 
ENDBRANCH  51  75
BRANCH  63  86
ATOM     86  C   UNL A   1      43.867  28.745  35.190  1.00  0.00     0.064 A 
ATOM     87  C   UNL A   1      45.175  29.235  35.077  1.00  0.00     0.173 A 
ATOM     88  C   UNL A   1      43.642  27.655  36.044  1.00  0.00     0.173 A 
ATOM     89  F   UNL A   1      45.442  30.265  34.260  1.00  0.00    -0.203 F 
ATOM     90  C   UNL A   1      46.222  28.646  35.780  1.00  0.00     0.198 A 
ATOM     91  C   UNL A   1      44.687  27.084  36.766  1.00  0.00     0.198 A 
ATOM     92  F   UNL A   1      42.407  27.152  36.189  1.00  0.00    -0.203 F 
ATOM     93  F   UNL A   1      47.472  29.105  35.628  1.00  0.00    -0.200 F 
ATOM     94  C   UNL A   1      45.976  27.576  36.629  1.00  0.00     0.200 A 
ATOM     95  F   UNL A   1      44.445  26.058  37.592  1.00  0.00    -0.200 F 
ATOM     96  F   UNL A   1      46.983  27.014  37.311  1.00  0.00    -0.200 F 
ENDBRANCH  63  86
ENDBRANCH  37  38
ENDBRANCH  29  32
ENDBRANCH  27  28
ENDBRANCH  26  27
ENDBRANCH   1  26
TORSDOF 16
ENDMDL
