MODEL 1
REMARK VINA RESULT:     -11.0      0.000      0.000
REMARK SMILES Cc1cccc(N2C(=O)/C(=C/c3cccn3-c3cccc(C(=O)NCCCCNC(=O)c4ccc(-c5c6nc(c(-c7c(F)c(F)c(F)c(F)c7F)c7ccc([nH]7)c(-c7c(F)c(F)c(F)c(F)c7F)c7nc(c(-c8c(F)c(F)c(F)c(F)c8F)c8ccc5[nH]8)C=C7)C=C6)cc4)c3)C(O)=NC2=S)c1C
REMARK SMILES IDX 26 1 25 2 24 3 22 4 23 5 21 7 17 8 18 9 95 10 19 11 20 12
REMARK SMILES IDX 16 13 12 14 13 15 14 16 15 17 11 18 7 19 8 20 99 21 9 22
REMARK SMILES IDX 10 23 98 24 100 25 96 26 6 27 1 28 2 29 3 30 101 31 4 32
REMARK SMILES IDX 102 33 5 34 97 35 27 37 28 38 29 39 30 40 31 42 32 43 33 44
REMARK SMILES IDX 94 45 34 46 93 47 35 48 36 49 37 50 87 51 38 52 92 53 86 54
REMARK SMILES IDX 88 55 39 56 91 57 85 58 84 59 40 61 72 62 52 63 71 64 53 65
REMARK SMILES IDX 56 66 70 67 89 68 54 69 55 70 69 72 90 73 57 74 41 75 42 76
REMARK SMILES IDX 50 77 43 78 44 79 48 80 51 81 45 82 46 83 49 84 47 85 73 86
REMARK SMILES IDX 74 87 82 88 75 89 76 90 80 91 83 92 77 93 78 94 81 95 79 96
REMARK SMILES IDX 58 97 59 98 67 99 60 100 61 101 65 102 68 103 62 104 63 105
REMARK SMILES IDX 66 106 64 107
REMARK H PARENT 24 6 97 36 29 41 88 60 56 71
REMARK Flexibility Score: inf
ROOT
ATOM      1  C   UNL A   1      43.166  22.468  27.854  1.00  0.00     0.023 C 
ENDROOT
BRANCH   1   2
ATOM      2  C   UNL A   1      44.592  22.964  27.611  1.00  0.00     0.116 C 
BRANCH   2   3
ATOM      3  N   UNL A   1      44.984  23.110  26.215  1.00  0.00    -0.352 N 
ATOM      4  C   UNL A   1      45.294  24.221  25.452  1.00  0.00     0.251 C 
ATOM      5  O   UNL A   1      45.609  24.053  24.275  1.00  0.00    -0.269 OA
ATOM      6  H   UNL A   1      45.039  22.259  25.723  1.00  0.00     0.163 HD
BRANCH   4   7
ATOM      7  C   UNL A   1      45.183  25.611  25.980  1.00  0.00     0.041 A 
ATOM      8  C   UNL A   1      45.943  27.349  27.491  1.00  0.00     0.046 A 
ATOM      9  C   UNL A   1      44.726  28.022  27.317  1.00  0.00     0.026 A 
ATOM     10  C   UNL A   1      46.203  26.207  26.724  1.00  0.00     0.040 A 
ATOM     11  C   UNL A   1      43.774  27.531  26.421  1.00  0.00     0.003 A 
ATOM     12  C   UNL A   1      43.988  26.310  25.779  1.00  0.00     0.014 A 
BRANCH   8  13
ATOM     13  N   UNL A   1      46.816  27.708  28.570  1.00  0.00    -0.317 N 
ATOM     14  C   UNL A   1      47.086  28.966  29.122  1.00  0.00     0.047 A 
ATOM     15  C   UNL A   1      48.163  28.842  29.984  1.00  0.00     0.028 A 
ATOM     16  C   UNL A   1      48.584  27.501  29.961  1.00  0.00     0.020 A 
ATOM     17  C   UNL A   1      47.728  26.824  29.124  1.00  0.00     0.092 A 
BRANCH  14  18
ATOM     18  C   UNL A   1      46.248  30.076  28.863  1.00  0.00     0.046 C 
ATOM     19  N   UNL A   1      45.717  33.221  27.164  1.00  0.00    -0.251 N 
ATOM     20  C   UNL A   1      45.395  32.078  27.890  1.00  0.00     0.270 C 
ATOM     21  C   UNL A   1      46.943  33.408  26.496  1.00  0.00     0.210 C 
ATOM     22  O   UNL A   1      44.301  31.869  28.414  1.00  0.00    -0.268 OA
ATOM     23  C   UNL A   1      46.473  31.051  27.961  1.00  0.00     0.104 C 
ATOM     24  N   UNL A   1      47.766  32.319  26.333  1.00  0.00    -0.184 NA
ATOM     25  S   UNL A   1      47.442  34.891  25.836  1.00  0.00    -0.038 S 
ATOM     26  C   UNL A   1      47.558  31.243  26.996  1.00  0.00     0.226 C 
BRANCH  19  27
ATOM     27  C   UNL A   1      44.645  34.152  26.994  1.00  0.00     0.055 A 
ATOM     28  C   UNL A   1      43.013  37.136  28.778  1.00  0.00     0.044 C 
ATOM     29  C   UNL A   1      43.369  36.077  27.769  1.00  0.00    -0.046 A 
ATOM     30  C   UNL A   1      42.587  35.980  26.607  1.00  0.00     0.004 A 
ATOM     31  C   UNL A   1      44.434  35.172  27.955  1.00  0.00    -0.024 A 
ATOM     32  C   UNL A   1      42.850  35.012  25.637  1.00  0.00     0.002 A 
ATOM     33  C   UNL A   1      45.417  35.319  29.084  1.00  0.00     0.047 C 
ATOM     34  C   UNL A   1      43.873  34.091  25.831  1.00  0.00     0.027 A 
ENDBRANCH  19  27
BRANCH  26  35
ATOM     35  O   UNL A   1      48.351  30.205  26.693  1.00  0.00    -0.493 OA
ATOM     36  H   UNL A   1      49.174  30.101  27.131  1.00  0.00     0.295 HD
ENDBRANCH  26  35
ENDBRANCH  14  18
ENDBRANCH   8  13
ENDBRANCH   4   7
ENDBRANCH   2   3
ENDBRANCH   1   2
BRANCH   1  37
ATOM     37  C   UNL A   1      42.033  23.492  27.763  1.00  0.00     0.023 C 
BRANCH  37  38
ATOM     38  C   UNL A   1      41.568  23.803  26.346  1.00  0.00     0.116 C 
BRANCH  38  39
ATOM     39  N   UNL A   1      40.125  23.838  26.184  1.00  0.00    -0.352 N 
ATOM     40  C   UNL A   1      39.158  24.616  26.802  1.00  0.00     0.251 C 
ATOM     41  H   UNL A   1      39.773  23.200  25.522  1.00  0.00     0.163 HD
ATOM     42  O   UNL A   1      37.995  24.253  26.727  1.00  0.00    -0.269 OA
BRANCH  40  43
ATOM     43  C   UNL A   1      39.476  25.879  27.535  1.00  0.00     0.039 A 
ATOM     44  C   UNL A   1      40.089  26.944  26.852  1.00  0.00     0.014 A 
ATOM     45  C   UNL A   1      39.271  26.016  28.901  1.00  0.00     0.014 A 
ATOM     46  C   UNL A   1      40.446  28.122  27.529  1.00  0.00     0.010 A 
ATOM     47  C   UNL A   1      39.669  27.148  29.587  1.00  0.00     0.010 A 
ATOM     48  C   UNL A   1      40.221  28.221  28.903  1.00  0.00    -0.014 A 
BRANCH  48  49
ATOM     49  C   UNL A   1      40.349  29.484  29.660  1.00  0.00     0.031 A 
ATOM     50  C   UNL A   1      39.092  30.362  29.520  1.00  0.00     0.074 A 
ATOM     51  C   UNL A   1      41.480  29.649  30.408  1.00  0.00     0.049 A 
ATOM     52  N   UNL A   1      38.970  31.652  29.593  1.00  0.00    -0.248 NA
ATOM     53  C   UNL A   1      37.787  29.727  29.177  1.00  0.00     0.031 C 
ATOM     54  C   UNL A   1      42.567  28.653  30.504  1.00  0.00     0.029 A 
ATOM     55  N   UNL A   1      41.948  30.650  31.240  1.00  0.00    -0.354 N 
ATOM     56  C   UNL A   1      37.604  31.966  29.425  1.00  0.00     0.074 A 
ATOM     57  C   UNL A   1      36.938  30.751  29.084  1.00  0.00     0.031 C 
ATOM     58  C   UNL A   1      43.583  29.119  31.260  1.00  0.00     0.029 A 
ATOM     59  C   UNL A   1      43.261  30.450  31.740  1.00  0.00     0.049 A 
ATOM     60  H   UNL A   1      41.411  31.443  31.467  1.00  0.00     0.167 HD
ATOM     61  C   UNL A   1      37.078  33.198  29.683  1.00  0.00     0.037 A 
ATOM     62  C   UNL A   1      44.071  31.314  32.428  1.00  0.00     0.037 A 
ATOM     63  C   UNL A   1      38.104  34.085  30.110  1.00  0.00     0.049 A 
ATOM     64  C   UNL A   1      43.281  32.542  32.614  1.00  0.00     0.074 A 
ATOM     65  C   UNL A   1      39.140  34.686  29.442  1.00  0.00     0.029 A 
ATOM     66  N   UNL A   1      38.349  34.140  31.459  1.00  0.00    -0.354 N 
ATOM     67  N   UNL A   1      42.320  32.698  33.476  1.00  0.00    -0.248 NA
ATOM     68  C   UNL A   1      43.492  33.646  31.668  1.00  0.00     0.031 C 
ATOM     69  C   UNL A   1      40.192  34.672  30.382  1.00  0.00     0.029 A 
ATOM     70  C   UNL A   1      39.709  34.243  31.623  1.00  0.00     0.049 A 
ATOM     71  H   UNL A   1      37.676  34.111  32.175  1.00  0.00     0.167 HD
ATOM     72  C   UNL A   1      41.637  33.776  32.958  1.00  0.00     0.074 A 
ATOM     73  C   UNL A   1      42.548  34.478  32.088  1.00  0.00     0.031 C 
ATOM     74  C   UNL A   1      40.287  33.731  32.843  1.00  0.00     0.037 A 
BRANCH  61  75
ATOM     75  C   UNL A   1      35.661  33.676  29.807  1.00  0.00     0.064 A 
ATOM     76  C   UNL A   1      35.093  34.363  28.706  1.00  0.00     0.173 A 
ATOM     77  C   UNL A   1      34.988  33.798  31.029  1.00  0.00     0.173 A 
ATOM     78  F   UNL A   1      35.639  34.269  27.483  1.00  0.00    -0.203 F 
ATOM     79  C   UNL A   1      34.007  35.224  28.853  1.00  0.00     0.198 A 
ATOM     80  C   UNL A   1      33.867  34.624  31.161  1.00  0.00     0.198 A 
ATOM     81  F   UNL A   1      35.455  33.211  32.139  1.00  0.00    -0.203 F 
ATOM     82  F   UNL A   1      33.594  35.962  27.813  1.00  0.00    -0.200 F 
ATOM     83  C   UNL A   1      33.406  35.368  30.088  1.00  0.00     0.200 A 
ATOM     84  F   UNL A   1      33.281  34.757  32.359  1.00  0.00    -0.200 F 
ATOM     85  F   UNL A   1      32.409  36.247  30.253  1.00  0.00    -0.200 F 
ENDBRANCH  61  75
BRANCH  62  86
ATOM     86  C   UNL A   1      45.526  31.343  32.843  1.00  0.00     0.064 A 
ATOM     87  C   UNL A   1      46.040  30.824  34.038  1.00  0.00     0.173 A 
ATOM     88  C   UNL A   1      46.512  31.921  31.994  1.00  0.00     0.173 A 
ATOM     89  F   UNL A   1      45.223  30.414  35.016  1.00  0.00    -0.203 F 
ATOM     90  C   UNL A   1      47.425  30.756  34.290  1.00  0.00     0.198 A 
ATOM     91  C   UNL A   1      47.885  31.829  32.226  1.00  0.00     0.198 A 
ATOM     92  F   UNL A   1      46.185  32.617  30.899  1.00  0.00    -0.203 F 
ATOM     93  F   UNL A   1      47.868  30.230  35.441  1.00  0.00    -0.200 F 
ATOM     94  C   UNL A   1      48.346  31.221  33.366  1.00  0.00     0.200 A 
ATOM     95  F   UNL A   1      48.745  32.328  31.326  1.00  0.00    -0.200 F 
ATOM     96  F   UNL A   1      49.663  31.112  33.586  1.00  0.00    -0.200 F 
ENDBRANCH  62  86
BRANCH  74  97
ATOM     97  C   UNL A   1      39.621  32.808  33.834  1.00  0.00     0.064 A 
ATOM     98  C   UNL A   1      39.594  33.168  35.190  1.00  0.00     0.173 A 
ATOM     99  C   UNL A   1      39.118  31.538  33.511  1.00  0.00     0.173 A 
ATOM    100  F   UNL A   1      40.051  34.371  35.570  1.00  0.00    -0.203 F 
ATOM    101  C   UNL A   1      39.102  32.303  36.168  1.00  0.00     0.198 A 
ATOM    102  C   UNL A   1      38.607  30.677  34.487  1.00  0.00     0.198 A 
ATOM    103  F   UNL A   1      39.120  31.100  32.251  1.00  0.00    -0.203 F 
ATOM    104  F   UNL A   1      39.103  32.679  37.454  1.00  0.00    -0.200 F 
ATOM    105  C   UNL A   1      38.608  31.058  35.816  1.00  0.00     0.200 A 
ATOM    106  F   UNL A   1      38.117  29.479  34.134  1.00  0.00    -0.200 F 
ATOM    107  F   UNL A   1      38.125  30.231  36.755  1.00  0.00    -0.200 F 
ENDBRANCH  74  97
ENDBRANCH  48  49
ENDBRANCH  40  43
ENDBRANCH  38  39
ENDBRANCH  37  38
ENDBRANCH   1  37
TORSDOF 15
ENDMDL
MODEL 2
REMARK VINA RESULT:     -10.9      4.574     10.782
REMARK SMILES Cc1cccc(N2C(=O)/C(=C/c3cccn3-c3cccc(C(=O)NCCCCNC(=O)c4ccc(-c5c6nc(c(-c7c(F)c(F)c(F)c(F)c7F)c7ccc([nH]7)c(-c7c(F)c(F)c(F)c(F)c7F)c7nc(c(-c8c(F)c(F)c(F)c(F)c8F)c8ccc5[nH]8)C=C7)C=C6)cc4)c3)C(O)=NC2=S)c1C
REMARK SMILES IDX 26 1 25 2 24 3 22 4 23 5 21 7 17 8 18 9 95 10 19 11 20 12
REMARK SMILES IDX 16 13 12 14 13 15 14 16 15 17 11 18 7 19 8 20 99 21 9 22
REMARK SMILES IDX 10 23 98 24 100 25 96 26 6 27 1 28 2 29 3 30 101 31 4 32
REMARK SMILES IDX 102 33 5 34 97 35 27 37 28 38 29 39 30 40 31 42 32 43 33 44
REMARK SMILES IDX 94 45 34 46 93 47 35 48 36 49 37 50 87 51 38 52 92 53 86 54
REMARK SMILES IDX 88 55 39 56 91 57 85 58 84 59 40 61 72 62 52 63 71 64 53 65
REMARK SMILES IDX 56 66 70 67 89 68 54 69 55 70 69 72 90 73 57 74 41 75 42 76
REMARK SMILES IDX 50 77 43 78 44 79 48 80 51 81 45 82 46 83 49 84 47 85 73 86
REMARK SMILES IDX 74 87 82 88 75 89 76 90 80 91 83 92 77 93 78 94 81 95 79 96
REMARK SMILES IDX 58 97 59 98 67 99 60 100 61 101 65 102 68 103 62 104 63 105
REMARK SMILES IDX 66 106 64 107
REMARK H PARENT 24 6 97 36 29 41 88 60 56 71
REMARK Flexibility Score: inf
ROOT
ATOM      1  C   UNL A   1      45.307  30.054  34.888  1.00  0.00     0.023 C 
ENDROOT
BRANCH   1   2
ATOM      2  C   UNL A   1      43.933  30.695  35.086  1.00  0.00     0.116 C 
BRANCH   2   3
ATOM      3  N   UNL A   1      43.451  31.517  33.984  1.00  0.00    -0.352 N 
ATOM      4  C   UNL A   1      42.491  31.293  33.014  1.00  0.00     0.251 C 
ATOM      5  O   UNL A   1      42.272  32.182  32.192  1.00  0.00    -0.269 OA
ATOM      6  H   UNL A   1      43.892  32.395  33.916  1.00  0.00     0.163 HD
BRANCH   4   7
ATOM      7  C   UNL A   1      41.774  29.993  32.882  1.00  0.00     0.041 A 
ATOM      8  C   UNL A   1      40.657  28.343  31.499  1.00  0.00     0.046 A 
ATOM      9  C   UNL A   1      40.037  27.817  32.640  1.00  0.00     0.026 A 
ATOM     10  C   UNL A   1      41.614  29.354  31.651  1.00  0.00     0.040 A 
ATOM     11  C   UNL A   1      40.343  28.328  33.903  1.00  0.00     0.003 A 
ATOM     12  C   UNL A   1      41.183  29.436  34.021  1.00  0.00     0.014 A 
BRANCH   8  13
ATOM     13  N   UNL A   1      40.180  27.991  30.194  1.00  0.00    -0.317 N 
ATOM     14  C   UNL A   1      38.916  28.179  29.622  1.00  0.00     0.047 A 
ATOM     15  C   UNL A   1      38.866  27.473  28.432  1.00  0.00     0.028 A 
ATOM     16  C   UNL A   1      40.101  26.823  28.262  1.00  0.00     0.020 A 
ATOM     17  C   UNL A   1      40.895  27.181  29.325  1.00  0.00     0.092 A 
BRANCH  14  18
ATOM     18  C   UNL A   1      37.977  29.069  30.195  1.00  0.00     0.046 C 
ATOM     19  N   UNL A   1      37.178  32.399  31.352  1.00  0.00    -0.251 N 
ATOM     20  C   UNL A   1      36.953  31.084  30.955  1.00  0.00     0.270 C 
ATOM     21  C   UNL A   1      38.398  33.078  31.164  1.00  0.00     0.210 C 
ATOM     22  O   UNL A   1      35.872  30.502  31.044  1.00  0.00    -0.268 OA
ATOM     23  C   UNL A   1      38.127  30.400  30.342  1.00  0.00     0.104 C 
ATOM     24  N   UNL A   1      39.331  32.517  30.326  1.00  0.00    -0.184 NA
ATOM     25  S   UNL A   1      38.761  34.577  31.874  1.00  0.00    -0.038 S 
ATOM     26  C   UNL A   1      39.215  31.299  29.947  1.00  0.00     0.226 C 
BRANCH  19  27
ATOM     27  C   UNL A   1      36.022  33.092  31.829  1.00  0.00     0.055 A 
ATOM     28  C   UNL A   1      33.270  35.457  30.573  1.00  0.00     0.044 C 
ATOM     29  C   UNL A   1      34.107  34.544  31.425  1.00  0.00    -0.046 A 
ATOM     30  C   UNL A   1      33.750  34.384  32.774  1.00  0.00     0.004 A 
ATOM     31  C   UNL A   1      35.241  33.865  30.934  1.00  0.00    -0.024 A 
ATOM     32  C   UNL A   1      34.491  33.564  33.627  1.00  0.00     0.002 A 
ATOM     33  C   UNL A   1      35.588  33.851  29.470  1.00  0.00     0.047 C 
ATOM     34  C   UNL A   1      35.632  32.924  33.159  1.00  0.00     0.027 A 
ENDBRANCH  19  27
BRANCH  26  35
ATOM     35  O   UNL A   1      40.117  30.875  29.050  1.00  0.00    -0.493 OA
ATOM     36  H   UNL A   1      40.234  31.343  28.247  1.00  0.00     0.295 HD
ENDBRANCH  26  35
ENDBRANCH  14  18
ENDBRANCH   8  13
ENDBRANCH   4   7
ENDBRANCH   2   3
ENDBRANCH   1   2
BRANCH   1  37
ATOM     37  C   UNL A   1      45.965  29.395  36.103  1.00  0.00     0.023 C 
BRANCH  37  38
ATOM     38  C   UNL A   1      44.990  28.791  37.105  1.00  0.00     0.116 C 
BRANCH  38  39
ATOM     39  N   UNL A   1      45.235  27.391  37.408  1.00  0.00    -0.352 N 
ATOM     40  C   UNL A   1      45.049  26.249  36.646  1.00  0.00     0.251 C 
ATOM     41  H   UNL A   1      45.595  27.226  38.309  1.00  0.00     0.163 HD
ATOM     42  O   UNL A   1      45.034  25.172  37.220  1.00  0.00    -0.269 OA
BRANCH  40  43
ATOM     43  C   UNL A   1      44.883  26.279  35.160  1.00  0.00     0.039 A 
ATOM     44  C   UNL A   1      43.613  26.518  34.608  1.00  0.00     0.014 A 
ATOM     45  C   UNL A   1      45.925  25.988  34.291  1.00  0.00     0.014 A 
ATOM     46  C   UNL A   1      43.418  26.499  33.217  1.00  0.00     0.010 A 
ATOM     47  C   UNL A   1      45.733  25.912  32.924  1.00  0.00     0.010 A 
ATOM     48  C   UNL A   1      44.492  26.205  32.376  1.00  0.00    -0.014 A 
BRANCH  48  49
ATOM     49  C   UNL A   1      44.450  26.379  30.909  1.00  0.00     0.031 A 
ATOM     50  C   UNL A   1      44.612  27.856  30.506  1.00  0.00     0.074 A 
ATOM     51  C   UNL A   1      44.358  25.247  30.150  1.00  0.00     0.049 A 
ATOM     52  N   UNL A   1      44.177  28.481  29.455  1.00  0.00    -0.248 NA
ATOM     53  C   UNL A   1      45.296  28.801  31.436  1.00  0.00     0.031 C 
ATOM     54  C   UNL A   1      44.300  23.878  30.702  1.00  0.00     0.029 A 
ATOM     55  N   UNL A   1      44.309  24.999  28.791  1.00  0.00    -0.354 N 
ATOM     56  C   UNL A   1      44.616  29.820  29.537  1.00  0.00     0.074 A 
ATOM     57  C   UNL A   1      45.223  29.980  30.819  1.00  0.00     0.031 C 
ATOM     58  C   UNL A   1      44.145  22.967  29.719  1.00  0.00     0.029 A 
ATOM     59  C   UNL A   1      44.096  23.642  28.435  1.00  0.00     0.049 A 
ATOM     60  H   UNL A   1      44.414  25.711  28.119  1.00  0.00     0.167 HD
ATOM     61  C   UNL A   1      44.549  30.698  28.495  1.00  0.00     0.037 A 
ATOM     62  C   UNL A   1      43.824  23.096  27.209  1.00  0.00     0.037 A 
ATOM     63  C   UNL A   1      43.962  30.068  27.364  1.00  0.00     0.049 A 
ATOM     64  C   UNL A   1      43.841  24.219  26.257  1.00  0.00     0.074 A 
ATOM     65  C   UNL A   1      42.678  29.674  27.092  1.00  0.00     0.029 A 
ATOM     66  N   UNL A   1      44.818  29.434  26.499  1.00  0.00    -0.354 N 
ATOM     67  N   UNL A   1      44.908  24.806  25.801  1.00  0.00    -0.248 NA
ATOM     68  C   UNL A   1      42.555  24.825  25.886  1.00  0.00     0.031 C 
ATOM     69  C   UNL A   1      42.846  28.468  26.379  1.00  0.00     0.029 A 
ATOM     70  C   UNL A   1      44.201  28.278  26.088  1.00  0.00     0.049 A 
ATOM     71  H   UNL A   1      45.709  29.749  26.225  1.00  0.00     0.167 HD
ATOM     72  C   UNL A   1      44.409  26.011  25.357  1.00  0.00     0.074 A 
ATOM     73  C   UNL A   1      42.995  25.832  25.142  1.00  0.00     0.031 C 
ATOM     74  C   UNL A   1      45.033  27.166  25.692  1.00  0.00     0.037 A 
BRANCH  61  75
ATOM     75  C   UNL A   1      45.161  32.053  28.287  1.00  0.00     0.064 A 
ATOM     76  C   UNL A   1      44.300  33.178  28.284  1.00  0.00     0.173 A 
ATOM     77  C   UNL A   1      46.443  32.251  27.759  1.00  0.00     0.173 A 
ATOM     78  F   UNL A   1      43.068  33.100  28.811  1.00  0.00    -0.203 F 
ATOM     79  C   UNL A   1      44.654  34.376  27.669  1.00  0.00     0.198 A 
ATOM     80  C   UNL A   1      46.812  33.473  27.187  1.00  0.00     0.198 A 
ATOM     81  F   UNL A   1      47.327  31.246  27.689  1.00  0.00    -0.203 F 
ATOM     82  F   UNL A   1      43.754  35.365  27.565  1.00  0.00    -0.200 F 
ATOM     83  C   UNL A   1      45.905  34.516  27.103  1.00  0.00     0.200 A 
ATOM     84  F   UNL A   1      48.030  33.608  26.645  1.00  0.00    -0.200 F 
ATOM     85  F   UNL A   1      46.226  35.639  26.446  1.00  0.00    -0.200 F 
ENDBRANCH  61  75
BRANCH  62  86
ATOM     86  C   UNL A   1      43.377  21.745  26.695  1.00  0.00     0.064 A 
ATOM     87  C   UNL A   1      44.030  20.993  25.710  1.00  0.00     0.173 A 
ATOM     88  C   UNL A   1      42.209  21.119  27.217  1.00  0.00     0.173 A 
ATOM     89  F   UNL A   1      45.033  21.520  24.997  1.00  0.00    -0.203 F 
ATOM     90  C   UNL A   1      43.638  19.678  25.388  1.00  0.00     0.198 A 
ATOM     91  C   UNL A   1      41.835  19.808  26.923  1.00  0.00     0.198 A 
ATOM     92  F   UNL A   1      41.366  21.762  28.033  1.00  0.00    -0.203 F 
ATOM     93  F   UNL A   1      44.310  18.992  24.453  1.00  0.00    -0.200 F 
ATOM     94  C   UNL A   1      42.566  19.074  26.023  1.00  0.00     0.200 A 
ATOM     95  F   UNL A   1      40.765  19.271  27.529  1.00  0.00    -0.200 F 
ATOM     96  F   UNL A   1      42.223  17.807  25.751  1.00  0.00    -0.200 F 
ENDBRANCH  62  86
BRANCH  74  97
ATOM     97  C   UNL A   1      46.507  27.005  25.972  1.00  0.00     0.064 A 
ATOM     98  C   UNL A   1      47.399  26.906  24.893  1.00  0.00     0.173 A 
ATOM     99  C   UNL A   1      47.051  26.828  27.254  1.00  0.00     0.173 A 
ATOM    100  F   UNL A   1      46.951  27.072  23.639  1.00  0.00    -0.203 F 
ATOM    101  C   UNL A   1      48.754  26.634  25.085  1.00  0.00     0.198 A 
ATOM    102  C   UNL A   1      48.411  26.576  27.450  1.00  0.00     0.198 A 
ATOM    103  F   UNL A   1      46.278  26.885  28.340  1.00  0.00    -0.203 F 
ATOM    104  F   UNL A   1      49.572  26.536  24.028  1.00  0.00    -0.200 F 
ATOM    105  C   UNL A   1      49.260  26.470  26.364  1.00  0.00     0.200 A 
ATOM    106  F   UNL A   1      48.895  26.432  28.694  1.00  0.00    -0.200 F 
ATOM    107  F   UNL A   1      50.565  26.220  26.549  1.00  0.00    -0.200 F 
ENDBRANCH  74  97
ENDBRANCH  48  49
ENDBRANCH  40  43
ENDBRANCH  38  39
ENDBRANCH  37  38
ENDBRANCH   1  37
TORSDOF 15
ENDMDL
MODEL 3
REMARK VINA RESULT:     -10.8      2.553      4.589
REMARK SMILES Cc1cccc(N2C(=O)/C(=C/c3cccn3-c3cccc(C(=O)NCCCCNC(=O)c4ccc(-c5c6nc(c(-c7c(F)c(F)c(F)c(F)c7F)c7ccc([nH]7)c(-c7c(F)c(F)c(F)c(F)c7F)c7nc(c(-c8c(F)c(F)c(F)c(F)c8F)c8ccc5[nH]8)C=C7)C=C6)cc4)c3)C(O)=NC2=S)c1C
REMARK SMILES IDX 26 1 25 2 24 3 22 4 23 5 21 7 17 8 18 9 95 10 19 11 20 12
REMARK SMILES IDX 16 13 12 14 13 15 14 16 15 17 11 18 7 19 8 20 99 21 9 22
REMARK SMILES IDX 10 23 98 24 100 25 96 26 6 27 1 28 2 29 3 30 101 31 4 32
REMARK SMILES IDX 102 33 5 34 97 35 27 37 28 38 29 39 30 40 31 42 32 43 33 44
REMARK SMILES IDX 94 45 34 46 93 47 35 48 36 49 37 50 87 51 38 52 92 53 86 54
REMARK SMILES IDX 88 55 39 56 91 57 85 58 84 59 40 61 72 62 52 63 71 64 53 65
REMARK SMILES IDX 56 66 70 67 89 68 54 69 55 70 69 72 90 73 57 74 41 75 42 76
REMARK SMILES IDX 50 77 43 78 44 79 48 80 51 81 45 82 46 83 49 84 47 85 73 86
REMARK SMILES IDX 74 87 82 88 75 89 76 90 80 91 83 92 77 93 78 94 81 95 79 96
REMARK SMILES IDX 58 97 59 98 67 99 60 100 61 101 65 102 68 103 62 104 63 105
REMARK SMILES IDX 66 106 64 107
REMARK H PARENT 24 6 97 36 29 41 88 60 56 71
REMARK Flexibility Score: inf
ROOT
ATOM      1  C   UNL A   1      43.171  25.846  25.000  1.00  0.00     0.023 C 
ENDROOT
BRANCH   1   2
ATOM      2  C   UNL A   1      44.215  26.749  25.659  1.00  0.00     0.116 C 
BRANCH   2   3
ATOM      3  N   UNL A   1      45.071  27.499  24.749  1.00  0.00    -0.352 N 
ATOM      4  C   UNL A   1      46.222  28.237  24.959  1.00  0.00     0.251 C 
ATOM      5  O   UNL A   1      46.760  28.769  23.989  1.00  0.00    -0.269 OA
ATOM      6  H   UNL A   1      44.775  27.477  23.810  1.00  0.00     0.163 HD
BRANCH   4   7
ATOM      7  C   UNL A   1      46.785  28.474  26.319  1.00  0.00     0.041 A 
ATOM      8  C   UNL A   1      48.190  27.761  28.163  1.00  0.00     0.046 A 
ATOM      9  C   UNL A   1      47.498  28.630  29.017  1.00  0.00     0.026 A 
ATOM     10  C   UNL A   1      47.900  27.781  26.793  1.00  0.00     0.040 A 
ATOM     11  C   UNL A   1      46.507  29.472  28.508  1.00  0.00     0.003 A 
ATOM     12  C   UNL A   1      46.128  29.370  27.168  1.00  0.00     0.014 A 
BRANCH   8  13
ATOM     13  N   UNL A   1      49.032  26.737  28.707  1.00  0.00    -0.317 N 
ATOM     14  C   UNL A   1      48.903  26.009  29.895  1.00  0.00     0.047 A 
ATOM     15  C   UNL A   1      50.075  25.301  30.104  1.00  0.00     0.028 A 
ATOM     16  C   UNL A   1      50.954  25.599  29.049  1.00  0.00     0.020 A 
ATOM     17  C   UNL A   1      50.287  26.444  28.193  1.00  0.00     0.092 A 
BRANCH  14  18
ATOM     18  C   UNL A   1      47.681  25.981  30.609  1.00  0.00     0.046 C 
ATOM     19  N   UNL A   1      45.882  26.581  33.685  1.00  0.00    -0.251 N 
ATOM     20  C   UNL A   1      46.068  26.324  32.330  1.00  0.00     0.270 C 
ATOM     21  C   UNL A   1      46.912  26.993  34.555  1.00  0.00     0.210 C 
ATOM     22  O   UNL A   1      45.165  26.037  31.543  1.00  0.00    -0.268 OA
ATOM     23  C   UNL A   1      47.470  26.470  31.847  1.00  0.00     0.104 C 
ATOM     24  N   UNL A   1      48.099  27.409  34.003  1.00  0.00    -0.184 NA
ATOM     25  S   UNL A   1      46.752  27.053  36.244  1.00  0.00    -0.038 S 
ATOM     26  C   UNL A   1      48.361  27.176  32.771  1.00  0.00     0.226 C 
BRANCH  19  27
ATOM     27  C   UNL A   1      44.522  26.559  34.125  1.00  0.00     0.055 A 
ATOM     28  C   UNL A   1      41.887  24.101  35.454  1.00  0.00     0.044 C 
ATOM     29  C   UNL A   1      42.606  25.351  35.022  1.00  0.00    -0.046 A 
ATOM     30  C   UNL A   1      41.891  26.560  35.023  1.00  0.00     0.004 A 
ATOM     31  C   UNL A   1      43.950  25.351  34.596  1.00  0.00    -0.024 A 
ATOM     32  C   UNL A   1      42.490  27.754  34.621  1.00  0.00     0.002 A 
ATOM     33  C   UNL A   1      44.826  24.135  34.725  1.00  0.00     0.047 C 
ATOM     34  C   UNL A   1      43.802  27.755  34.163  1.00  0.00     0.027 A 
ENDBRANCH  19  27
BRANCH  26  35
ATOM     35  O   UNL A   1      49.498  27.710  32.301  1.00  0.00    -0.493 OA
ATOM     36  H   UNL A   1      49.628  27.792  31.376  1.00  0.00     0.295 HD
ENDBRANCH  26  35
ENDBRANCH  14  18
ENDBRANCH   8  13
ENDBRANCH   4   7
ENDBRANCH   2   3
ENDBRANCH   1   2
BRANCH   1  37
ATOM     37  C   UNL A   1      43.146  24.373  25.410  1.00  0.00     0.023 C 
BRANCH  37  38
ATOM     38  C   UNL A   1      42.235  24.055  26.589  1.00  0.00     0.116 C 
BRANCH  38  39
ATOM     39  N   UNL A   1      40.837  23.881  26.235  1.00  0.00    -0.352 N 
ATOM     40  C   UNL A   1      39.693  24.498  26.714  1.00  0.00     0.251 C 
ATOM     41  H   UNL A   1      40.675  23.210  25.533  1.00  0.00     0.163 HD
ATOM     42  O   UNL A   1      38.616  23.969  26.485  1.00  0.00    -0.269 OA
BRANCH  40  43
ATOM     43  C   UNL A   1      39.719  25.781  27.481  1.00  0.00     0.039 A 
ATOM     44  C   UNL A   1      39.251  25.807  28.806  1.00  0.00     0.014 A 
ATOM     45  C   UNL A   1      40.105  26.982  26.905  1.00  0.00     0.014 A 
ATOM     46  C   UNL A   1      39.215  27.009  29.532  1.00  0.00     0.010 A 
ATOM     47  C   UNL A   1      40.021  28.179  27.591  1.00  0.00     0.010 A 
ATOM     48  C   UNL A   1      39.615  28.196  28.918  1.00  0.00    -0.014 A 
BRANCH  48  49
ATOM     49  C   UNL A   1      39.828  29.462  29.651  1.00  0.00     0.031 A 
ATOM     50  C   UNL A   1      38.593  30.379  29.575  1.00  0.00     0.074 A 
ATOM     51  C   UNL A   1      41.006  29.598  30.329  1.00  0.00     0.049 A 
ATOM     52  N   UNL A   1      38.516  31.672  29.640  1.00  0.00    -0.248 NA
ATOM     53  C   UNL A   1      37.250  29.782  29.317  1.00  0.00     0.031 C 
ATOM     54  C   UNL A   1      42.065  28.569  30.372  1.00  0.00     0.029 A 
ATOM     55  N   UNL A   1      41.554  30.592  31.118  1.00  0.00    -0.354 N 
ATOM     56  C   UNL A   1      37.153  32.029  29.549  1.00  0.00     0.074 A 
ATOM     57  C   UNL A   1      36.430  30.832  29.262  1.00  0.00     0.031 C 
ATOM     58  C   UNL A   1      43.138  29.010  31.061  1.00  0.00     0.029 A 
ATOM     59  C   UNL A   1      42.887  30.355  31.542  1.00  0.00     0.049 A 
ATOM     60  H   UNL A   1      41.057  31.404  31.368  1.00  0.00     0.167 HD
ATOM     61  C   UNL A   1      36.683  33.279  29.822  1.00  0.00     0.037 A 
ATOM     62  C   UNL A   1      43.764  31.200  32.170  1.00  0.00     0.037 A 
ATOM     63  C   UNL A   1      37.760  34.137  30.176  1.00  0.00     0.049 A 
ATOM     64  C   UNL A   1      43.026  32.454  32.388  1.00  0.00     0.074 A 
ATOM     65  C   UNL A   1      38.772  34.697  29.441  1.00  0.00     0.029 A 
ATOM     66  N   UNL A   1      38.087  34.198  31.508  1.00  0.00    -0.354 N 
ATOM     67  N   UNL A   1      42.123  32.650  33.304  1.00  0.00    -0.248 NA
ATOM     68  C   UNL A   1      43.214  33.541  31.418  1.00  0.00     0.031 C 
ATOM     69  C   UNL A   1      39.877  34.660  30.317  1.00  0.00     0.029 A 
ATOM     70  C   UNL A   1      39.456  34.259  31.590  1.00  0.00     0.049 A 
ATOM     71  H   UNL A   1      37.456  34.198  32.263  1.00  0.00     0.167 HD
ATOM     72  C   UNL A   1      41.444  33.744  32.814  1.00  0.00     0.074 A 
ATOM     73  C   UNL A   1      42.323  34.408  31.883  1.00  0.00     0.031 C 
ATOM     74  C   UNL A   1      40.090  33.742  32.780  1.00  0.00     0.037 A 
BRANCH  61  75
ATOM     75  C   UNL A   1      35.292  33.804  30.024  1.00  0.00     0.064 A 
ATOM     76  C   UNL A   1      34.708  34.559  28.977  1.00  0.00     0.173 A 
ATOM     77  C   UNL A   1      34.673  33.898  31.277  1.00  0.00     0.173 A 
ATOM     78  F   UNL A   1      35.201  34.498  27.730  1.00  0.00    -0.203 F 
ATOM     79  C   UNL A   1      33.663  35.452  29.205  1.00  0.00     0.198 A 
ATOM     80  C   UNL A   1      33.591  34.759  31.489  1.00  0.00     0.198 A 
ATOM     81  F   UNL A   1      35.159  33.246  32.341  1.00  0.00    -0.203 F 
ATOM     82  F   UNL A   1      33.238  36.249  28.214  1.00  0.00    -0.200 F 
ATOM     83  C   UNL A   1      33.117  35.565  30.468  1.00  0.00     0.200 A 
ATOM     84  F   UNL A   1      33.058  34.860  32.715  1.00  0.00    -0.200 F 
ATOM     85  F   UNL A   1      32.162  36.473  30.710  1.00  0.00    -0.200 F 
ENDBRANCH  61  75
BRANCH  62  86
ATOM     86  C   UNL A   1      45.241  31.186  32.498  1.00  0.00     0.064 A 
ATOM     87  C   UNL A   1      45.793  30.892  33.752  1.00  0.00     0.173 A 
ATOM     88  C   UNL A   1      46.210  31.477  31.497  1.00  0.00     0.173 A 
ATOM     89  F   UNL A   1      45.014  30.776  34.835  1.00  0.00    -0.203 F 
ATOM     90  C   UNL A   1      47.182  30.755  33.946  1.00  0.00     0.198 A 
ATOM     91  C   UNL A   1      47.584  31.314  31.676  1.00  0.00     0.198 A 
ATOM     92  F   UNL A   1      45.865  31.949  30.293  1.00  0.00    -0.203 F 
ATOM     93  F   UNL A   1      47.659  30.450  35.161  1.00  0.00    -0.200 F 
ATOM     94  C   UNL A   1      48.072  30.926  32.899  1.00  0.00     0.200 A 
ATOM     95  F   UNL A   1      48.418  31.529  30.649  1.00  0.00    -0.200 F 
ATOM     96  F   UNL A   1      49.389  30.749  33.073  1.00  0.00    -0.200 F 
ENDBRANCH  62  86
BRANCH  74  97
ATOM     97  C   UNL A   1      39.455  32.851  33.819  1.00  0.00     0.064 A 
ATOM     98  C   UNL A   1      39.500  33.237  35.168  1.00  0.00     0.173 A 
ATOM     99  C   UNL A   1      38.913  31.584  33.547  1.00  0.00     0.173 A 
ATOM    100  F   UNL A   1      39.997  34.438  35.502  1.00  0.00    -0.203 F 
ATOM    101  C   UNL A   1      39.040  32.401  36.185  1.00  0.00     0.198 A 
ATOM    102  C   UNL A   1      38.434  30.753  34.563  1.00  0.00     0.198 A 
ATOM    103  F   UNL A   1      38.847  31.123  32.297  1.00  0.00    -0.203 F 
ATOM    104  F   UNL A   1      39.110  32.801  37.462  1.00  0.00    -0.200 F 
ATOM    105  C   UNL A   1      38.506  31.159  35.883  1.00  0.00     0.200 A 
ATOM    106  F   UNL A   1      37.906  29.558  34.258  1.00  0.00    -0.200 F 
ATOM    107  F   UNL A   1      38.054  30.359  36.859  1.00  0.00    -0.200 F 
ENDBRANCH  74  97
ENDBRANCH  48  49
ENDBRANCH  40  43
ENDBRANCH  38  39
ENDBRANCH  37  38
ENDBRANCH   1  37
TORSDOF 15
ENDMDL
