MODEL 1
REMARK VINA RESULT:     -14.1      0.000      0.000
REMARK SMILES Cc1ccc([C@H](C)NC(=O)[C@H]2[C@@H]3CC[C@@H](C3)[C@@H]2C(=O)NCCCCNC(=O)c2ccc(-c3c4nc(c(-c5c(F)c(F)c(F)c(F)c5F)c5ccc([nH]5)c(-c5c(F)c(F)c(F)c(F)c5F)c5nc(c(-c6c(F)c(F)c(F)c(F)c6F)c6ccc3[nH]6)C=C5)C=C4)cc2)cc1
REMARK SMILES IDX 22 1 21 2 20 3 18 4 19 5 17 7 11 8 12 9 13 10 16 11 15 12
REMARK SMILES IDX 14 13 9 14 8 15 10 17 6 18 7 19 5 20 1 21 2 22 3 23 92 24
REMARK SMILES IDX 4 25 91 26 23 27 24 28 25 29 26 30 27 32 28 33 29 34 90 35
REMARK SMILES IDX 30 36 89 37 31 38 32 39 33 40 83 41 34 42 88 43 82 44 84 45
REMARK SMILES IDX 35 46 87 47 81 48 80 49 36 51 68 52 48 53 67 54 49 55 52 56
REMARK SMILES IDX 66 57 85 58 50 59 51 60 65 62 86 63 53 64 37 65 38 66 46 67
REMARK SMILES IDX 39 68 40 69 44 70 47 71 41 72 42 73 45 74 43 75 69 76 70 77
REMARK SMILES IDX 78 78 71 79 72 80 76 81 79 82 73 83 74 84 77 85 75 86 54 87
REMARK SMILES IDX 55 88 63 89 56 90 57 91 61 92 64 93 58 94 59 95 62 96 60 97
REMARK H PARENT 20 6 8 16 25 31 84 50 52 61
REMARK Flexibility Score: inf
ROOT
ATOM      1  C   UNL A   1      37.388  23.194  24.908  1.00  0.00     0.023 C 
ENDROOT
BRANCH   1   2
ATOM      2  C   UNL A   1      36.376  23.866  25.855  1.00  0.00     0.116 C 
BRANCH   2   3
ATOM      3  N   UNL A   1      35.710  22.916  26.730  1.00  0.00    -0.356 N 
ATOM      4  C   UNL A   1      34.418  22.539  26.888  1.00  0.00     0.224 C 
ATOM      5  O   UNL A   1      34.217  21.674  27.750  1.00  0.00    -0.275 OA
ATOM      6  H   UNL A   1      36.329  22.449  27.336  1.00  0.00     0.163 HD
BRANCH   4   7
ATOM      7  C   UNL A   1      33.274  23.000  25.985  1.00  0.00     0.094 C 
ATOM      8  C   UNL A   1      31.860  22.461  26.201  1.00  0.00     0.094 C 
ATOM      9  C   UNL A   1      31.455  21.872  24.828  1.00  0.00     0.002 C 
ATOM     10  C   UNL A   1      32.243  20.558  24.627  1.00  0.00     0.005 C 
ATOM     11  C   UNL A   1      32.163  22.781  23.835  1.00  0.00     0.009 C 
ATOM     12  C   UNL A   1      33.531  22.593  24.495  1.00  0.00     0.002 C 
ATOM     13  C   UNL A   1      33.673  21.059  24.370  1.00  0.00     0.005 C 
BRANCH   8  14
ATOM     14  C   UNL A   1      30.799  23.374  26.814  1.00  0.00     0.224 C 
ATOM     15  N   UNL A   1      30.541  24.660  26.493  1.00  0.00    -0.349 N 
ATOM     16  H   UNL A   1      29.877  25.066  27.095  1.00  0.00     0.164 HD
ATOM     17  O   UNL A   1      30.081  22.901  27.707  1.00  0.00    -0.275 OA
BRANCH  15  18
ATOM     18  C   UNL A   1      31.005  25.595  25.474  1.00  0.00     0.109 C 
ATOM     19  C   UNL A   1      29.801  26.185  24.734  1.00  0.00     0.036 C 
BRANCH  18  20
ATOM     20  C   UNL A   1      31.880  26.692  26.056  1.00  0.00    -0.026 A 
ATOM     21  C   UNL A   1      34.378  29.972  27.382  1.00  0.00     0.044 C 
ATOM     22  C   UNL A   1      33.513  28.821  26.958  1.00  0.00    -0.051 A 
ATOM     23  C   UNL A   1      34.038  27.828  26.128  1.00  0.00     0.004 A 
ATOM     24  C   UNL A   1      32.176  28.730  27.359  1.00  0.00     0.004 A 
ATOM     25  C   UNL A   1      33.230  26.782  25.677  1.00  0.00     0.006 A 
ATOM     26  C   UNL A   1      31.370  27.673  26.918  1.00  0.00     0.006 A 
ENDBRANCH  18  20
ENDBRANCH  15  18
ENDBRANCH   8  14
ENDBRANCH   4   7
ENDBRANCH   2   3
ENDBRANCH   1   2
BRANCH   1  27
ATOM     27  C   UNL A   1      38.320  22.174  25.573  1.00  0.00     0.023 C 
BRANCH  27  28
ATOM     28  C   UNL A   1      39.181  22.770  26.676  1.00  0.00     0.116 C 
BRANCH  28  29
ATOM     29  N   UNL A   1      40.558  23.057  26.293  1.00  0.00    -0.352 N 
ATOM     30  C   UNL A   1      41.198  24.285  26.231  1.00  0.00     0.251 C 
ATOM     31  H   UNL A   1      41.106  22.276  26.047  1.00  0.00     0.163 HD
ATOM     32  O   UNL A   1      42.347  24.379  25.834  1.00  0.00    -0.269 OA
BRANCH  30  33
ATOM     33  C   UNL A   1      40.496  25.473  26.777  1.00  0.00     0.039 A 
ATOM     34  C   UNL A   1      40.809  26.724  26.237  1.00  0.00     0.014 A 
ATOM     35  C   UNL A   1      39.749  25.374  27.949  1.00  0.00     0.014 A 
ATOM     36  C   UNL A   1      40.592  27.866  27.005  1.00  0.00     0.010 A 
ATOM     37  C   UNL A   1      39.629  26.490  28.754  1.00  0.00     0.010 A 
ATOM     38  C   UNL A   1      40.110  27.724  28.309  1.00  0.00    -0.014 A 
BRANCH  38  39
ATOM     39  C   UNL A   1      40.193  28.795  29.296  1.00  0.00     0.031 A 
ATOM     40  C   UNL A   1      39.126  29.808  29.399  1.00  0.00     0.074 A 
ATOM     41  C   UNL A   1      41.249  28.860  30.140  1.00  0.00     0.049 A 
ATOM     42  N   UNL A   1      39.334  31.040  29.731  1.00  0.00    -0.248 NA
ATOM     43  C   UNL A   1      37.727  29.512  29.105  1.00  0.00     0.031 C 
ATOM     44  C   UNL A   1      41.412  29.757  31.281  1.00  0.00     0.029 A 
ATOM     45  N   UNL A   1      42.505  28.246  29.997  1.00  0.00    -0.354 N 
ATOM     46  C   UNL A   1      38.107  31.613  29.953  1.00  0.00     0.074 A 
ATOM     47  C   UNL A   1      37.136  30.648  29.487  1.00  0.00     0.031 C 
ATOM     48  C   UNL A   1      42.722  29.894  31.535  1.00  0.00     0.029 A 
ATOM     49  C   UNL A   1      43.443  29.178  30.497  1.00  0.00     0.049 A 
ATOM     50  H   UNL A   1      42.693  27.353  29.624  1.00  0.00     0.167 HD
ATOM     51  C   UNL A   1      38.006  32.784  30.637  1.00  0.00     0.037 A 
ATOM     52  C   UNL A   1      44.416  29.707  29.703  1.00  0.00     0.037 A 
ATOM     53  C   UNL A   1      39.303  33.309  31.038  1.00  0.00     0.049 A 
ATOM     54  C   UNL A   1      44.360  31.211  29.578  1.00  0.00     0.074 A 
ATOM     55  C   UNL A   1      40.023  33.220  32.218  1.00  0.00     0.029 A 
ATOM     56  N   UNL A   1      40.201  33.740  30.064  1.00  0.00    -0.354 N 
ATOM     57  N   UNL A   1      43.328  31.930  29.921  1.00  0.00    -0.248 NA
ATOM     58  C   UNL A   1      45.437  32.015  29.005  1.00  0.00     0.031 C 
ATOM     59  C   UNL A   1      41.375  33.527  31.936  1.00  0.00     0.029 A 
ATOM     60  C   UNL A   1      41.476  33.830  30.591  1.00  0.00     0.049 A 
ATOM     61  H   UNL A   1      39.962  33.949  29.132  1.00  0.00     0.167 HD
ATOM     62  C   UNL A   1      43.555  33.239  29.585  1.00  0.00     0.074 A 
ATOM     63  C   UNL A   1      44.900  33.247  29.041  1.00  0.00     0.031 C 
ATOM     64  C   UNL A   1      42.611  34.206  29.765  1.00  0.00     0.037 A 
BRANCH  51  65
ATOM     65  C   UNL A   1      36.679  33.223  31.185  1.00  0.00     0.064 A 
ATOM     66  C   UNL A   1      35.764  33.958  30.407  1.00  0.00     0.173 A 
ATOM     67  C   UNL A   1      36.313  33.015  32.528  1.00  0.00     0.173 A 
ATOM     68  F   UNL A   1      35.977  34.183  29.106  1.00  0.00    -0.203 F 
ATOM     69  C   UNL A   1      34.614  34.525  30.958  1.00  0.00     0.198 A 
ATOM     70  C   UNL A   1      35.187  33.624  33.089  1.00  0.00     0.198 A 
ATOM     71  F   UNL A   1      37.065  32.242  33.326  1.00  0.00    -0.203 F 
ATOM     72  F   UNL A   1      33.786  35.238  30.180  1.00  0.00    -0.200 F 
ATOM     73  C   UNL A   1      34.343  34.388  32.306  1.00  0.00     0.200 A 
ATOM     74  F   UNL A   1      34.943  33.491  34.401  1.00  0.00    -0.200 F 
ATOM     75  F   UNL A   1      33.276  34.991  32.846  1.00  0.00    -0.200 F 
ENDBRANCH  51  65
BRANCH  52  76
ATOM     76  C   UNL A   1      44.876  28.777  28.639  1.00  0.00     0.064 A 
ATOM     77  C   UNL A   1      45.705  27.699  29.009  1.00  0.00     0.173 A 
ATOM     78  C   UNL A   1      44.250  28.712  27.390  1.00  0.00     0.173 A 
ATOM     79  F   UNL A   1      46.332  27.717  30.197  1.00  0.00    -0.203 F 
ATOM     80  C   UNL A   1      45.803  26.556  28.220  1.00  0.00     0.198 A 
ATOM     81  C   UNL A   1      44.366  27.571  26.593  1.00  0.00     0.198 A 
ATOM     82  F   UNL A   1      43.437  29.699  26.987  1.00  0.00    -0.203 F 
ATOM     83  F   UNL A   1      46.508  25.502  28.654  1.00  0.00    -0.200 F 
ATOM     84  C   UNL A   1      45.111  26.482  27.025  1.00  0.00     0.200 A 
ATOM     85  F   UNL A   1      43.681  27.491  25.443  1.00  0.00    -0.200 F 
ATOM     86  F   UNL A   1      45.131  25.352  26.306  1.00  0.00    -0.200 F 
ENDBRANCH  52  76
BRANCH  64  87
ATOM     87  C   UNL A   1      42.718  35.622  29.269  1.00  0.00     0.064 A 
ATOM     88  C   UNL A   1      42.049  36.098  28.130  1.00  0.00     0.173 A 
ATOM     89  C   UNL A   1      43.416  36.590  30.026  1.00  0.00     0.173 A 
ATOM     90  F   UNL A   1      41.268  35.292  27.398  1.00  0.00    -0.203 F 
ATOM     91  C   UNL A   1      42.127  37.437  27.740  1.00  0.00     0.198 A 
ATOM     92  C   UNL A   1      43.450  37.935  29.661  1.00  0.00     0.198 A 
ATOM     93  F   UNL A   1      44.069  36.258  31.150  1.00  0.00    -0.203 F 
ATOM     94  F   UNL A   1      41.507  37.839  26.621  1.00  0.00    -0.200 F 
ATOM     95  C   UNL A   1      42.819  38.355  28.508  1.00  0.00     0.200 A 
ATOM     96  F   UNL A   1      44.086  38.821  30.440  1.00  0.00    -0.200 F 
ATOM     97  F   UNL A   1      42.862  39.644  28.147  1.00  0.00    -0.200 F 
ENDBRANCH  64  87
ENDBRANCH  38  39
ENDBRANCH  30  33
ENDBRANCH  28  29
ENDBRANCH  27  28
ENDBRANCH   1  27
TORSDOF 14
ENDMDL
MODEL 2
REMARK VINA RESULT:     -14.0      3.799      9.944
REMARK SMILES Cc1ccc([C@H](C)NC(=O)[C@H]2[C@@H]3CC[C@@H](C3)[C@@H]2C(=O)NCCCCNC(=O)c2ccc(-c3c4nc(c(-c5c(F)c(F)c(F)c(F)c5F)c5ccc([nH]5)c(-c5c(F)c(F)c(F)c(F)c5F)c5nc(c(-c6c(F)c(F)c(F)c(F)c6F)c6ccc3[nH]6)C=C5)C=C4)cc2)cc1
REMARK SMILES IDX 22 1 21 2 20 3 18 4 19 5 17 7 11 8 12 9 13 10 16 11 15 12
REMARK SMILES IDX 14 13 9 14 8 15 10 17 6 18 7 19 5 20 1 21 2 22 3 23 92 24
REMARK SMILES IDX 4 25 91 26 23 27 24 28 25 29 26 30 27 32 28 33 29 34 90 35
REMARK SMILES IDX 30 36 89 37 31 38 32 39 33 40 83 41 34 42 88 43 82 44 84 45
REMARK SMILES IDX 35 46 87 47 81 48 80 49 36 51 68 52 48 53 67 54 49 55 52 56
REMARK SMILES IDX 66 57 85 58 50 59 51 60 65 62 86 63 53 64 37 65 38 66 46 67
REMARK SMILES IDX 39 68 40 69 44 70 47 71 41 72 42 73 45 74 43 75 69 76 70 77
REMARK SMILES IDX 78 78 71 79 72 80 76 81 79 82 73 83 74 84 77 85 75 86 54 87
REMARK SMILES IDX 55 88 63 89 56 90 57 91 61 92 64 93 58 94 59 95 62 96 60 97
REMARK H PARENT 20 6 8 16 25 31 84 50 52 61
REMARK Flexibility Score: inf
ROOT
ATOM      1  C   UNL A   1      33.100  29.201  27.156  1.00  0.00     0.023 C 
ENDROOT
BRANCH   1   2
ATOM      2  C   UNL A   1      34.247  28.588  26.330  1.00  0.00     0.116 C 
BRANCH   2   3
ATOM      3  N   UNL A   1      34.203  28.979  24.932  1.00  0.00    -0.356 N 
ATOM      4  C   UNL A   1      33.727  28.384  23.810  1.00  0.00     0.224 C 
ATOM      5  O   UNL A   1      33.860  29.034  22.766  1.00  0.00    -0.275 OA
ATOM      6  H   UNL A   1      34.602  29.863  24.764  1.00  0.00     0.163 HD
BRANCH   4   7
ATOM      7  C   UNL A   1      32.934  27.077  23.804  1.00  0.00     0.094 C 
ATOM      8  C   UNL A   1      32.407  26.506  22.488  1.00  0.00     0.094 C 
ATOM      9  C   UNL A   1      30.887  26.331  22.724  1.00  0.00     0.002 C 
ATOM     10  C   UNL A   1      30.243  27.736  22.713  1.00  0.00     0.005 C 
ATOM     11  C   UNL A   1      30.799  25.990  24.203  1.00  0.00     0.009 C 
ATOM     12  C   UNL A   1      31.612  27.214  24.630  1.00  0.00     0.002 C 
ATOM     13  C   UNL A   1      30.723  28.335  24.045  1.00  0.00     0.005 C 
BRANCH   8  14
ATOM     14  C   UNL A   1      33.080  25.273  21.887  1.00  0.00     0.224 C 
ATOM     15  N   UNL A   1      33.580  24.208  22.548  1.00  0.00    -0.349 N 
ATOM     16  H   UNL A   1      34.052  23.587  21.948  1.00  0.00     0.164 HD
ATOM     17  O   UNL A   1      33.188  25.224  20.652  1.00  0.00    -0.275 OA
BRANCH  15  18
ATOM     18  C   UNL A   1      33.592  23.752  23.933  1.00  0.00     0.109 C 
ATOM     19  C   UNL A   1      32.504  22.692  24.134  1.00  0.00     0.036 C 
BRANCH  18  20
ATOM     20  C   UNL A   1      34.953  23.222  24.353  1.00  0.00    -0.026 A 
ATOM     21  C   UNL A   1      38.728  21.764  25.894  1.00  0.00     0.044 C 
ATOM     22  C   UNL A   1      37.433  22.263  25.324  1.00  0.00    -0.051 A 
ATOM     23  C   UNL A   1      37.119  23.622  25.402  1.00  0.00     0.004 A 
ATOM     24  C   UNL A   1      36.515  21.390  24.732  1.00  0.00     0.004 A 
ATOM     25  C   UNL A   1      35.893  24.094  24.929  1.00  0.00     0.006 A 
ATOM     26  C   UNL A   1      35.290  21.865  24.245  1.00  0.00     0.006 A 
ENDBRANCH  18  20
ENDBRANCH  15  18
ENDBRANCH   8  14
ENDBRANCH   4   7
ENDBRANCH   2   3
ENDBRANCH   1   2
BRANCH   1  27
ATOM     27  C   UNL A   1      33.330  30.647  27.612  1.00  0.00     0.023 C 
BRANCH  27  28
ATOM     28  C   UNL A   1      34.790  31.069  27.575  1.00  0.00     0.116 C 
BRANCH  28  29
ATOM     29  N   UNL A   1      35.292  31.656  28.812  1.00  0.00    -0.352 N 
ATOM     30  C   UNL A   1      36.246  31.150  29.681  1.00  0.00     0.251 C 
ATOM     31  H   UNL A   1      34.903  32.525  29.062  1.00  0.00     0.163 HD
ATOM     32  O   UNL A   1      36.526  31.729  30.717  1.00  0.00    -0.269 OA
BRANCH  30  33
ATOM     33  C   UNL A   1      37.011  29.949  29.266  1.00  0.00     0.039 A 
ATOM     34  C   UNL A   1      37.367  29.025  30.253  1.00  0.00     0.014 A 
ATOM     35  C   UNL A   1      37.570  29.875  27.992  1.00  0.00     0.014 A 
ATOM     36  C   UNL A   1      38.464  28.193  30.038  1.00  0.00     0.010 A 
ATOM     37  C   UNL A   1      38.719  29.129  27.815  1.00  0.00     0.010 A 
ATOM     38  C   UNL A   1      39.204  28.338  28.861  1.00  0.00    -0.014 A 
BRANCH  38  39
ATOM     39  C   UNL A   1      40.546  27.789  28.706  1.00  0.00     0.031 A 
ATOM     40  C   UNL A   1      40.742  26.360  28.394  1.00  0.00     0.074 A 
ATOM     41  C   UNL A   1      41.627  28.591  28.835  1.00  0.00     0.049 A 
ATOM     42  N   UNL A   1      41.746  25.663  28.816  1.00  0.00    -0.248 NA
ATOM     43  C   UNL A   1      39.796  25.591  27.591  1.00  0.00     0.031 C 
ATOM     44  C   UNL A   1      43.019  28.247  28.556  1.00  0.00     0.029 A 
ATOM     45  N   UNL A   1      41.697  29.849  29.459  1.00  0.00    -0.354 N 
ATOM     46  C   UNL A   1      41.723  24.469  28.142  1.00  0.00     0.074 A 
ATOM     47  C   UNL A   1      40.458  24.440  27.442  1.00  0.00     0.031 C 
ATOM     48  C   UNL A   1      43.813  29.066  29.263  1.00  0.00     0.029 A 
ATOM     49  C   UNL A   1      42.955  29.885  30.102  1.00  0.00     0.049 A 
ATOM     50  H   UNL A   1      41.012  30.557  29.451  1.00  0.00     0.167 HD
ATOM     51  C   UNL A   1      42.825  23.671  28.114  1.00  0.00     0.037 A 
ATOM     52  C   UNL A   1      43.061  30.012  31.454  1.00  0.00     0.037 A 
ATOM     53  C   UNL A   1      43.933  24.225  28.878  1.00  0.00     0.049 A 
ATOM     54  C   UNL A   1      43.773  28.863  32.128  1.00  0.00     0.074 A 
ATOM     55  C   UNL A   1      45.039  24.974  28.510  1.00  0.00     0.029 A 
ATOM     56  N   UNL A   1      43.824  24.342  30.261  1.00  0.00    -0.354 N 
ATOM     57  N   UNL A   1      43.999  27.713  31.556  1.00  0.00    -0.248 NA
ATOM     58  C   UNL A   1      44.235  28.899  33.514  1.00  0.00     0.031 C 
ATOM     59  C   UNL A   1      45.552  25.603  29.669  1.00  0.00     0.029 A 
ATOM     60  C   UNL A   1      44.777  25.218  30.747  1.00  0.00     0.049 A 
ATOM     61  H   UNL A   1      43.161  23.870  30.815  1.00  0.00     0.167 HD
ATOM     62  C   UNL A   1      44.564  26.858  32.464  1.00  0.00     0.074 A 
ATOM     63  C   UNL A   1      44.718  27.653  33.667  1.00  0.00     0.031 C 
ATOM     64  C   UNL A   1      44.842  25.558  32.158  1.00  0.00     0.037 A 
BRANCH  51  65
ATOM     65  C   UNL A   1      42.925  22.564  27.105  1.00  0.00     0.064 A 
ATOM     66  C   UNL A   1      42.196  21.367  27.245  1.00  0.00     0.173 A 
ATOM     67  C   UNL A   1      43.822  22.611  26.022  1.00  0.00     0.173 A 
ATOM     68  F   UNL A   1      41.281  21.216  28.208  1.00  0.00    -0.203 F 
ATOM     69  C   UNL A   1      42.418  20.265  26.418  1.00  0.00     0.198 A 
ATOM     70  C   UNL A   1      44.078  21.492  25.225  1.00  0.00     0.198 A 
ATOM     71  F   UNL A   1      44.488  23.741  25.739  1.00  0.00    -0.203 F 
ATOM     72  F   UNL A   1      41.715  19.139  26.608  1.00  0.00    -0.200 F 
ATOM     73  C   UNL A   1      43.384  20.315  25.431  1.00  0.00     0.200 A 
ATOM     74  F   UNL A   1      45.025  21.551  24.278  1.00  0.00    -0.200 F 
ATOM     75  F   UNL A   1      43.644  19.233  24.685  1.00  0.00    -0.200 F 
ENDBRANCH  51  65
BRANCH  52  76
ATOM     76  C   UNL A   1      41.962  30.809  32.058  1.00  0.00     0.064 A 
ATOM     77  C   UNL A   1      42.012  32.212  31.938  1.00  0.00     0.173 A 
ATOM     78  C   UNL A   1      40.736  30.233  32.408  1.00  0.00     0.173 A 
ATOM     79  F   UNL A   1      43.168  32.813  31.609  1.00  0.00    -0.203 F 
ATOM     80  C   UNL A   1      40.862  32.990  32.043  1.00  0.00     0.198 A 
ATOM     81  C   UNL A   1      39.588  31.020  32.530  1.00  0.00     0.198 A 
ATOM     82  F   UNL A   1      40.620  28.902  32.522  1.00  0.00    -0.203 F 
ATOM     83  F   UNL A   1      40.923  34.309  31.811  1.00  0.00    -0.200 F 
ATOM     84  C   UNL A   1      39.646  32.389  32.312  1.00  0.00     0.200 A 
ATOM     85  F   UNL A   1      38.405  30.436  32.772  1.00  0.00    -0.200 F 
ATOM     86  F   UNL A   1      38.524  33.121  32.325  1.00  0.00    -0.200 F 
ENDBRANCH  52  76
BRANCH  64  87
ATOM     87  C   UNL A   1      45.301  24.517  33.142  1.00  0.00     0.064 A 
ATOM     88  C   UNL A   1      44.522  23.412  33.522  1.00  0.00     0.173 A 
ATOM     89  C   UNL A   1      46.623  24.543  33.640  1.00  0.00     0.173 A 
ATOM     90  F   UNL A   1      43.292  23.228  33.024  1.00  0.00    -0.203 F 
ATOM     91  C   UNL A   1      45.011  22.435  34.392  1.00  0.00     0.198 A 
ATOM     92  C   UNL A   1      47.124  23.539  34.468  1.00  0.00     0.198 A 
ATOM     93  F   UNL A   1      47.469  25.534  33.321  1.00  0.00    -0.203 F 
ATOM     94  F   UNL A   1      44.217  21.419  34.761  1.00  0.00    -0.200 F 
ATOM     95  C   UNL A   1      46.312  22.493  34.857  1.00  0.00     0.200 A 
ATOM     96  F   UNL A   1      48.401  23.585  34.873  1.00  0.00    -0.200 F 
ATOM     97  F   UNL A   1      46.786  21.536  35.664  1.00  0.00    -0.200 F 
ENDBRANCH  64  87
ENDBRANCH  38  39
ENDBRANCH  30  33
ENDBRANCH  28  29
ENDBRANCH  27  28
ENDBRANCH   1  27
TORSDOF 14
ENDMDL
MODEL 3
REMARK VINA RESULT:     -14.0      3.572      9.719
REMARK SMILES Cc1ccc([C@H](C)NC(=O)[C@H]2[C@@H]3CC[C@@H](C3)[C@@H]2C(=O)NCCCCNC(=O)c2ccc(-c3c4nc(c(-c5c(F)c(F)c(F)c(F)c5F)c5ccc([nH]5)c(-c5c(F)c(F)c(F)c(F)c5F)c5nc(c(-c6c(F)c(F)c(F)c(F)c6F)c6ccc3[nH]6)C=C5)C=C4)cc2)cc1
REMARK SMILES IDX 22 1 21 2 20 3 18 4 19 5 17 7 11 8 12 9 13 10 16 11 15 12
REMARK SMILES IDX 14 13 9 14 8 15 10 17 6 18 7 19 5 20 1 21 2 22 3 23 92 24
REMARK SMILES IDX 4 25 91 26 23 27 24 28 25 29 26 30 27 32 28 33 29 34 90 35
REMARK SMILES IDX 30 36 89 37 31 38 32 39 33 40 83 41 34 42 88 43 82 44 84 45
REMARK SMILES IDX 35 46 87 47 81 48 80 49 36 51 68 52 48 53 67 54 49 55 52 56
REMARK SMILES IDX 66 57 85 58 50 59 51 60 65 62 86 63 53 64 37 65 38 66 46 67
REMARK SMILES IDX 39 68 40 69 44 70 47 71 41 72 42 73 45 74 43 75 69 76 70 77
REMARK SMILES IDX 78 78 71 79 72 80 76 81 79 82 73 83 74 84 77 85 75 86 54 87
REMARK SMILES IDX 55 88 63 89 56 90 57 91 61 92 64 93 58 94 59 95 62 96 60 97
REMARK H PARENT 20 6 8 16 25 31 84 50 52 61
REMARK Flexibility Score: inf
ROOT
ATOM      1  C   UNL A   1      33.190  28.906  27.396  1.00  0.00     0.023 C 
ENDROOT
BRANCH   1   2
ATOM      2  C   UNL A   1      34.217  28.345  26.396  1.00  0.00     0.116 C 
BRANCH   2   3
ATOM      3  N   UNL A   1      34.015  28.843  25.046  1.00  0.00    -0.356 N 
ATOM      4  C   UNL A   1      33.500  28.297  23.917  1.00  0.00     0.224 C 
ATOM      5  O   UNL A   1      33.480  29.040  22.928  1.00  0.00    -0.275 OA
ATOM      6  H   UNL A   1      34.315  29.772  24.927  1.00  0.00     0.163 HD
BRANCH   4   7
ATOM      7  C   UNL A   1      32.833  26.923  23.856  1.00  0.00     0.094 C 
ATOM      8  C   UNL A   1      32.214  26.427  22.549  1.00  0.00     0.094 C 
ATOM      9  C   UNL A   1      30.752  26.078  22.921  1.00  0.00     0.002 C 
ATOM     10  C   UNL A   1      29.987  27.405  23.124  1.00  0.00     0.005 C 
ATOM     11  C   UNL A   1      30.863  25.593  24.358  1.00  0.00     0.009 C 
ATOM     12  C   UNL A   1      31.605  26.848  24.824  1.00  0.00     0.002 C 
ATOM     13  C   UNL A   1      30.558  27.923  24.454  1.00  0.00     0.005 C 
BRANCH   8  14
ATOM     14  C   UNL A   1      32.923  25.331  21.756  1.00  0.00     0.224 C 
ATOM     15  N   UNL A   1      33.298  24.113  22.199  1.00  0.00    -0.349 N 
ATOM     16  H   UNL A   1      33.827  23.622  21.529  1.00  0.00     0.164 HD
ATOM     17  O   UNL A   1      33.193  25.566  20.569  1.00  0.00    -0.275 OA
BRANCH  15  18
ATOM     18  C   UNL A   1      33.113  23.344  23.424  1.00  0.00     0.109 C 
ATOM     19  C   UNL A   1      32.325  22.067  23.115  1.00  0.00     0.036 C 
BRANCH  18  20
ATOM     20  C   UNL A   1      34.432  23.021  24.106  1.00  0.00    -0.026 A 
ATOM     21  C   UNL A   1      38.285  21.918  25.746  1.00  0.00     0.044 C 
ATOM     22  C   UNL A   1      36.942  22.319  25.211  1.00  0.00    -0.051 A 
ATOM     23  C   UNL A   1      35.942  21.356  25.055  1.00  0.00     0.004 A 
ATOM     24  C   UNL A   1      36.671  23.640  24.840  1.00  0.00     0.004 A 
ATOM     25  C   UNL A   1      34.706  21.701  24.503  1.00  0.00     0.006 A 
ATOM     26  C   UNL A   1      35.428  23.989  24.299  1.00  0.00     0.006 A 
ENDBRANCH  18  20
ENDBRANCH  15  18
ENDBRANCH   8  14
ENDBRANCH   4   7
ENDBRANCH   2   3
ENDBRANCH   1   2
BRANCH   1  27
ATOM     27  C   UNL A   1      32.893  30.403  27.251  1.00  0.00     0.023 C 
BRANCH  27  28
ATOM     28  C   UNL A   1      34.137  31.276  27.319  1.00  0.00     0.116 C 
BRANCH  28  29
ATOM     29  N   UNL A   1      34.447  31.803  28.643  1.00  0.00    -0.352 N 
ATOM     30  C   UNL A   1      35.354  31.320  29.572  1.00  0.00     0.251 C 
ATOM     31  H   UNL A   1      33.947  32.608  28.911  1.00  0.00     0.163 HD
ATOM     32  O   UNL A   1      35.465  31.835  30.672  1.00  0.00    -0.269 OA
BRANCH  30  33
ATOM     33  C   UNL A   1      36.278  30.236  29.158  1.00  0.00     0.039 A 
ATOM     34  C   UNL A   1      36.673  29.306  30.125  1.00  0.00     0.014 A 
ATOM     35  C   UNL A   1      36.923  30.293  27.924  1.00  0.00     0.014 A 
ATOM     36  C   UNL A   1      37.870  28.616  29.949  1.00  0.00     0.010 A 
ATOM     37  C   UNL A   1      38.158  29.690  27.795  1.00  0.00     0.010 A 
ATOM     38  C   UNL A   1      38.663  28.904  28.835  1.00  0.00    -0.014 A 
BRANCH  38  39
ATOM     39  C   UNL A   1      40.066  28.517  28.749  1.00  0.00     0.031 A 
ATOM     40  C   UNL A   1      40.447  27.153  28.335  1.00  0.00     0.074 A 
ATOM     41  C   UNL A   1      41.037  29.414  29.038  1.00  0.00     0.049 A 
ATOM     42  N   UNL A   1      41.488  26.530  28.781  1.00  0.00    -0.248 NA
ATOM     43  C   UNL A   1      39.657  26.367  27.392  1.00  0.00     0.031 C 
ATOM     44  C   UNL A   1      42.476  29.248  28.852  1.00  0.00     0.029 A 
ATOM     45  N   UNL A   1      40.915  30.609  29.770  1.00  0.00    -0.354 N 
ATOM     46  C   UNL A   1      41.651  25.409  28.009  1.00  0.00     0.074 A 
ATOM     47  C   UNL A   1      40.454  25.311  27.203  1.00  0.00     0.031 C 
ATOM     48  C   UNL A   1      43.116  30.076  29.691  1.00  0.00     0.029 A 
ATOM     49  C   UNL A   1      42.110  30.717  30.519  1.00  0.00     0.049 A 
ATOM     50  H   UNL A   1      40.157  31.237  29.764  1.00  0.00     0.167 HD
ATOM     51  C   UNL A   1      42.835  24.738  28.008  1.00  0.00     0.037 A 
ATOM     52  C   UNL A   1      42.098  30.728  31.881  1.00  0.00     0.037 A 
ATOM     53  C   UNL A   1      43.812  25.333  28.908  1.00  0.00     0.049 A 
ATOM     54  C   UNL A   1      42.882  29.603  32.514  1.00  0.00     0.074 A 
ATOM     55  C   UNL A   1      44.851  26.226  28.701  1.00  0.00     0.029 A 
ATOM     56  N   UNL A   1      43.586  25.307  30.281  1.00  0.00    -0.354 N 
ATOM     57  N   UNL A   1      43.279  28.542  31.868  1.00  0.00    -0.248 NA
ATOM     58  C   UNL A   1      43.230  29.557  33.932  1.00  0.00     0.031 C 
ATOM     59  C   UNL A   1      45.200  26.795  29.949  1.00  0.00     0.029 A 
ATOM     60  C   UNL A   1      44.394  26.230  30.920  1.00  0.00     0.049 A 
ATOM     61  H   UNL A   1      42.941  24.717  30.734  1.00  0.00     0.167 HD
ATOM     62  C   UNL A   1      43.867  27.670  32.745  1.00  0.00     0.074 A 
ATOM     63  C   UNL A   1      43.839  28.361  34.020  1.00  0.00     0.031 C 
ATOM     64  C   UNL A   1      44.313  26.441  32.355  1.00  0.00     0.037 A 
BRANCH  51  65
ATOM     65  C   UNL A   1      43.137  23.747  26.921  1.00  0.00     0.064 A 
ATOM     66  C   UNL A   1      42.755  22.396  27.026  1.00  0.00     0.173 A 
ATOM     67  C   UNL A   1      43.901  24.082  25.788  1.00  0.00     0.173 A 
ATOM     68  F   UNL A   1      41.990  21.963  28.034  1.00  0.00    -0.203 F 
ATOM     69  C   UNL A   1      43.187  21.433  26.112  1.00  0.00     0.198 A 
ATOM     70  C   UNL A   1      44.372  23.109  24.901  1.00  0.00     0.198 A 
ATOM     71  F   UNL A   1      44.228  25.360  25.541  1.00  0.00    -0.203 F 
ATOM     72  F   UNL A   1      42.816  20.154  26.270  1.00  0.00    -0.200 F 
ATOM     73  C   UNL A   1      44.024  21.783  25.071  1.00  0.00     0.200 A 
ATOM     74  F   UNL A   1      45.193  23.462  23.901  1.00  0.00    -0.200 F 
ATOM     75  F   UNL A   1      44.494  20.846  24.237  1.00  0.00    -0.200 F 
ENDBRANCH  51  65
BRANCH  52  76
ATOM     76  C   UNL A   1      40.873  31.343  32.454  1.00  0.00     0.064 A 
ATOM     77  C   UNL A   1      40.763  32.748  32.440  1.00  0.00     0.173 A 
ATOM     78  C   UNL A   1      39.703  30.605  32.666  1.00  0.00     0.173 A 
ATOM     79  F   UNL A   1      41.859  33.501  32.245  1.00  0.00    -0.203 F 
ATOM     80  C   UNL A   1      39.524  33.379  32.511  1.00  0.00     0.198 A 
ATOM     81  C   UNL A   1      38.464  31.244  32.755  1.00  0.00     0.198 A 
ATOM     82  F   UNL A   1      39.739  29.265  32.675  1.00  0.00    -0.203 F 
ATOM     83  F   UNL A   1      39.443  34.711  32.380  1.00  0.00    -0.200 F 
ATOM     84  C   UNL A   1      38.372  32.624  32.641  1.00  0.00     0.200 A 
ATOM     85  F   UNL A   1      37.345  30.512  32.863  1.00  0.00    -0.200 F 
ATOM     86  F   UNL A   1      37.173  33.221  32.620  1.00  0.00    -0.200 F 
ENDBRANCH  52  76
BRANCH  64  87
ATOM     87  C   UNL A   1      44.811  25.368  33.283  1.00  0.00     0.064 A 
ATOM     88  C   UNL A   1      46.158  24.978  33.367  1.00  0.00     0.173 A 
ATOM     89  C   UNL A   1      43.938  24.779  34.225  1.00  0.00     0.173 A 
ATOM     90  F   UNL A   1      47.094  25.550  32.596  1.00  0.00    -0.203 F 
ATOM     91  C   UNL A   1      46.588  24.019  34.287  1.00  0.00     0.198 A 
ATOM     92  C   UNL A   1      44.380  23.860  35.175  1.00  0.00     0.198 A 
ATOM     93  F   UNL A   1      42.635  25.096  34.260  1.00  0.00    -0.203 F 
ATOM     94  F   UNL A   1      47.876  23.647  34.303  1.00  0.00    -0.200 F 
ATOM     95  C   UNL A   1      45.703  23.468  35.195  1.00  0.00     0.200 A 
ATOM     96  F   UNL A   1      43.520  23.370  36.078  1.00  0.00    -0.200 F 
ATOM     97  F   UNL A   1      46.127  22.574  36.097  1.00  0.00    -0.200 F 
ENDBRANCH  64  87
ENDBRANCH  38  39
ENDBRANCH  30  33
ENDBRANCH  28  29
ENDBRANCH  27  28
ENDBRANCH   1  27
TORSDOF 14
ENDMDL
