MODEL 1
REMARK VINA RESULT:     -12.9      0.000      0.000
REMARK SMILES CC(C)(C(=O)NCCCCNC(=O)c1ccc(-c2c3nc(c(-c4c(F)c(F)c(F)c(F)c4F)c4ccc([nH]4)c(-c4c(F)c(F)c(F)c(F)c4F)c4nc(c(-c5c(F)c(F)c(F)c(F)c5F)c5ccc2[nH]5)C=C4)C=C3)cc1)c1ccc(NS(=O)(=O)c2c(F)cc(F)cc2F)cc1
REMARK SMILES IDX 7 1 6 2 4 3 5 4 2 6 1 7 3 8 77 9 78 10 95 11 79 12 94 13
REMARK SMILES IDX 80 14 81 15 82 17 83 18 84 19 85 20 86 21 92 22 87 23 88 24
REMARK SMILES IDX 91 25 93 26 89 27 90 28 8 29 9 30 10 31 11 32 12 33 13 35
REMARK SMILES IDX 14 36 15 37 76 38 16 39 75 40 17 41 18 42 19 43 69 44 20 45
REMARK SMILES IDX 74 46 68 47 70 48 21 49 73 50 67 51 66 52 22 54 54 55 34 56
REMARK SMILES IDX 53 57 35 58 38 59 52 60 71 61 36 62 37 63 51 65 72 66 39 67
REMARK SMILES IDX 23 68 24 69 32 70 25 71 26 72 30 73 33 74 27 75 28 76 31 77
REMARK SMILES IDX 29 78 55 79 56 80 64 81 57 82 58 83 62 84 65 85 59 86 60 87
REMARK SMILES IDX 63 88 61 89 40 90 41 91 49 92 42 93 43 94 47 95 50 96 44 97
REMARK SMILES IDX 45 98 48 99 46 100
REMARK H PARENT 6 5 81 16 11 34 70 53 38 64
REMARK Flexibility Score: inf
ROOT
ATOM      1  C   UNL A   1      36.806  22.572  25.414  1.00  0.00     0.116 C 
ENDROOT
BRANCH   1   2
ATOM      2  N   UNL A   1      35.904  22.021  26.398  1.00  0.00    -0.355 N 
ATOM      3  C   UNL A   1      34.550  21.994  26.497  1.00  0.00     0.230 C 
ATOM      4  O   UNL A   1      34.128  21.453  27.527  1.00  0.00    -0.274 OA
ATOM      5  H   UNL A   1      36.363  21.577  27.148  1.00  0.00     0.163 HD
BRANCH   3   6
ATOM      6  C   UNL A   1      33.587  22.549  25.396  1.00  0.00     0.068 C 
ATOM      7  C   UNL A   1      34.251  22.553  23.996  1.00  0.00     0.026 C 
ATOM      8  C   UNL A   1      32.326  21.668  25.328  1.00  0.00     0.026 C 
BRANCH   6   9
ATOM      9  C   UNL A   1      33.222  24.010  25.788  1.00  0.00    -0.033 A 
ATOM     10  C   UNL A   1      31.890  24.330  26.067  1.00  0.00     0.007 A 
ATOM     11  C   UNL A   1      34.136  25.081  25.719  1.00  0.00     0.007 A 
ATOM     12  C   UNL A   1      31.490  25.650  26.241  1.00  0.00     0.027 A 
ATOM     13  C   UNL A   1      33.728  26.413  25.929  1.00  0.00     0.027 A 
ATOM     14  C   UNL A   1      32.393  26.703  26.192  1.00  0.00     0.049 A 
BRANCH  14  15
ATOM     15  N   UNL A   1      31.926  28.054  26.246  1.00  0.00    -0.279 N 
ATOM     16  H   UNL A   1      31.503  28.387  27.070  1.00  0.00     0.180 HD
BRANCH  15  17
ATOM     17  S   UNL A   1      32.088  29.092  24.910  1.00  0.00     0.267 S 
ATOM     18  O   UNL A   1      30.872  29.873  24.840  1.00  0.00    -0.201 OA
ATOM     19  O   UNL A   1      33.364  29.760  25.062  1.00  0.00    -0.201 OA
BRANCH  17  20
ATOM     20  C   UNL A   1      32.213  28.044  23.511  1.00  0.00     0.159 A 
ATOM     21  C   UNL A   1      31.138  27.246  23.131  1.00  0.00     0.149 A 
ATOM     22  C   UNL A   1      33.444  27.880  22.880  1.00  0.00     0.149 A 
ATOM     23  F   UNL A   1      29.927  27.377  23.684  1.00  0.00    -0.205 F 
ATOM     24  C   UNL A   1      31.308  26.231  22.194  1.00  0.00     0.080 A 
ATOM     25  C   UNL A   1      33.628  26.862  21.944  1.00  0.00     0.080 A 
ATOM     26  F   UNL A   1      34.511  28.603  23.241  1.00  0.00    -0.205 F 
ATOM     27  C   UNL A   1      32.560  26.032  21.626  1.00  0.00     0.129 A 
ATOM     28  F   UNL A   1      32.747  25.004  20.790  1.00  0.00    -0.207 F 
ENDBRANCH  17  20
ENDBRANCH  15  17
ENDBRANCH  14  15
ENDBRANCH   6   9
ENDBRANCH   3   6
ENDBRANCH   1   2
BRANCH   1  29
ATOM     29  C   UNL A   1      37.249  21.510  24.409  1.00  0.00     0.023 C 
BRANCH  29  30
ATOM     30  C   UNL A   1      37.855  20.250  25.036  1.00  0.00     0.023 C 
BRANCH  30  31
ATOM     31  C   UNL A   1      39.077  20.483  25.920  1.00  0.00     0.116 C 
BRANCH  31  32
ATOM     32  N   UNL A   1      40.051  19.404  25.854  1.00  0.00    -0.352 N 
ATOM     33  C   UNL A   1      41.403  19.451  26.084  1.00  0.00     0.251 C 
ATOM     34  H   UNL A   1      39.691  18.521  25.612  1.00  0.00     0.163 HD
ATOM     35  O   UNL A   1      42.099  18.458  25.900  1.00  0.00    -0.269 OA
BRANCH  33  36
ATOM     36  C   UNL A   1      42.021  20.720  26.514  1.00  0.00     0.039 A 
ATOM     37  C   UNL A   1      42.428  21.630  25.535  1.00  0.00     0.014 A 
ATOM     38  C   UNL A   1      42.164  21.024  27.870  1.00  0.00     0.014 A 
ATOM     39  C   UNL A   1      42.917  22.879  25.919  1.00  0.00     0.010 A 
ATOM     40  C   UNL A   1      42.592  22.292  28.249  1.00  0.00     0.010 A 
ATOM     41  C   UNL A   1      42.967  23.231  27.277  1.00  0.00    -0.014 A 
BRANCH  41  42
ATOM     42  C   UNL A   1      43.404  24.583  27.702  1.00  0.00     0.031 A 
ATOM     43  C   UNL A   1      42.384  25.632  28.038  1.00  0.00     0.074 A 
ATOM     44  C   UNL A   1      44.718  24.884  27.711  1.00  0.00     0.049 A 
ATOM     45  N   UNL A   1      42.563  26.892  28.346  1.00  0.00    -0.248 NA
ATOM     46  C   UNL A   1      40.974  25.218  27.993  1.00  0.00     0.031 C 
ATOM     47  C   UNL A   1      45.798  23.965  27.353  1.00  0.00     0.029 A 
ATOM     48  N   UNL A   1      45.364  26.055  28.020  1.00  0.00    -0.354 N 
ATOM     49  C   UNL A   1      41.291  27.421  28.517  1.00  0.00     0.074 A 
ATOM     50  C   UNL A   1      40.349  26.362  28.230  1.00  0.00     0.031 C 
ATOM     51  C   UNL A   1      46.974  24.600  27.476  1.00  0.00     0.029 A 
ATOM     52  C   UNL A   1      46.729  25.978  27.890  1.00  0.00     0.049 A 
ATOM     53  H   UNL A   1      44.895  26.871  28.306  1.00  0.00     0.167 HD
ATOM     54  C   UNL A   1      40.943  28.671  28.903  1.00  0.00     0.037 A 
ATOM     55  C   UNL A   1      47.675  26.919  28.078  1.00  0.00     0.037 A 
ATOM     56  C   UNL A   1      41.884  29.714  29.214  1.00  0.00     0.049 A 
ATOM     57  C   UNL A   1      47.262  28.295  28.520  1.00  0.00     0.074 A 
ATOM     58  C   UNL A   1      41.634  30.998  29.668  1.00  0.00     0.029 A 
ATOM     59  N   UNL A   1      43.262  29.589  29.107  1.00  0.00    -0.354 N 
ATOM     60  N   UNL A   1      46.058  28.768  28.739  1.00  0.00    -0.248 NA
ATOM     61  C   UNL A   1      48.339  29.269  28.747  1.00  0.00     0.031 C 
ATOM     62  C   UNL A   1      42.859  31.661  29.802  1.00  0.00     0.029 A 
ATOM     63  C   UNL A   1      43.874  30.777  29.473  1.00  0.00     0.049 A 
ATOM     64  H   UNL A   1      43.735  28.777  28.815  1.00  0.00     0.167 HD
ATOM     65  C   UNL A   1      46.234  30.081  29.154  1.00  0.00     0.074 A 
ATOM     66  C   UNL A   1      47.661  30.327  29.168  1.00  0.00     0.031 C 
ATOM     67  C   UNL A   1      45.297  31.000  29.489  1.00  0.00     0.037 A 
BRANCH  54  68
ATOM     68  C   UNL A   1      39.479  28.976  29.016  1.00  0.00     0.064 A 
ATOM     69  C   UNL A   1      38.804  28.883  30.242  1.00  0.00     0.173 A 
ATOM     70  C   UNL A   1      38.747  29.395  27.895  1.00  0.00     0.173 A 
ATOM     71  F   UNL A   1      39.456  28.474  31.341  1.00  0.00    -0.203 F 
ATOM     72  C   UNL A   1      37.446  29.171  30.336  1.00  0.00     0.198 A 
ATOM     73  C   UNL A   1      37.394  29.709  27.998  1.00  0.00     0.198 A 
ATOM     74  F   UNL A   1      39.345  29.504  26.699  1.00  0.00    -0.203 F 
ATOM     75  F   UNL A   1      36.812  29.027  31.509  1.00  0.00    -0.200 F 
ATOM     76  C   UNL A   1      36.743  29.590  29.216  1.00  0.00     0.200 A 
ATOM     77  F   UNL A   1      36.719  30.124  26.918  1.00  0.00    -0.200 F 
ATOM     78  F   UNL A   1      35.436  29.870  29.310  1.00  0.00    -0.200 F 
ENDBRANCH  54  68
BRANCH  55  79
ATOM     79  C   UNL A   1      49.106  26.579  27.877  1.00  0.00     0.064 A 
ATOM     80  C   UNL A   1      49.648  26.487  26.587  1.00  0.00     0.173 A 
ATOM     81  C   UNL A   1      49.960  26.340  28.963  1.00  0.00     0.173 A 
ATOM     82  F   UNL A   1      48.865  26.690  25.517  1.00  0.00    -0.203 F 
ATOM     83  C   UNL A   1      50.985  26.151  26.391  1.00  0.00     0.198 A 
ATOM     84  C   UNL A   1      51.304  26.028  28.766  1.00  0.00     0.198 A 
ATOM     85  F   UNL A   1      49.491  26.422  30.216  1.00  0.00    -0.203 F 
ATOM     86  F   UNL A   1      51.467  26.029  25.146  1.00  0.00    -0.200 F 
ATOM     87  C   UNL A   1      51.814  25.926  27.479  1.00  0.00     0.200 A 
ATOM     88  F   UNL A   1      52.104  25.825  29.821  1.00  0.00    -0.200 F 
ATOM     89  F   UNL A   1      53.101  25.606  27.290  1.00  0.00    -0.200 F 
ENDBRANCH  55  79
BRANCH  67  90
ATOM     90  C   UNL A   1      45.786  32.347  29.933  1.00  0.00     0.064 A 
ATOM     91  C   UNL A   1      45.953  33.402  29.024  1.00  0.00     0.173 A 
ATOM     92  C   UNL A   1      46.049  32.596  31.288  1.00  0.00     0.173 A 
ATOM     93  F   UNL A   1      45.729  33.208  27.716  1.00  0.00    -0.203 F 
ATOM     94  C   UNL A   1      46.388  34.653  29.455  1.00  0.00     0.198 A 
ATOM     95  C   UNL A   1      46.457  33.854  31.718  1.00  0.00     0.198 A 
ATOM     96  F   UNL A   1      45.897  31.620  32.196  1.00  0.00    -0.203 F 
ATOM     97  F   UNL A   1      46.582  35.635  28.564  1.00  0.00    -0.200 F 
ATOM     98  C   UNL A   1      46.632  34.879  30.801  1.00  0.00     0.200 A 
ATOM     99  F   UNL A   1      46.683  34.075  33.020  1.00  0.00    -0.200 F 
ATOM    100  F   UNL A   1      47.044  36.086  31.214  1.00  0.00    -0.200 F 
ENDBRANCH  67  90
ENDBRANCH  41  42
ENDBRANCH  33  36
ENDBRANCH  31  32
ENDBRANCH  30  31
ENDBRANCH  29  30
ENDBRANCH   1  29
TORSDOF 15
ENDMDL
MODEL 2
REMARK VINA RESULT:     -12.9      5.263     10.480
REMARK SMILES CC(C)(C(=O)NCCCCNC(=O)c1ccc(-c2c3nc(c(-c4c(F)c(F)c(F)c(F)c4F)c4ccc([nH]4)c(-c4c(F)c(F)c(F)c(F)c4F)c4nc(c(-c5c(F)c(F)c(F)c(F)c5F)c5ccc2[nH]5)C=C4)C=C3)cc1)c1ccc(NS(=O)(=O)c2c(F)cc(F)cc2F)cc1
REMARK SMILES IDX 7 1 6 2 4 3 5 4 2 6 1 7 3 8 77 9 78 10 95 11 79 12 94 13
REMARK SMILES IDX 80 14 81 15 82 17 83 18 84 19 85 20 86 21 92 22 87 23 88 24
REMARK SMILES IDX 91 25 93 26 89 27 90 28 8 29 9 30 10 31 11 32 12 33 13 35
REMARK SMILES IDX 14 36 15 37 76 38 16 39 75 40 17 41 18 42 19 43 69 44 20 45
REMARK SMILES IDX 74 46 68 47 70 48 21 49 73 50 67 51 66 52 22 54 54 55 34 56
REMARK SMILES IDX 53 57 35 58 38 59 52 60 71 61 36 62 37 63 51 65 72 66 39 67
REMARK SMILES IDX 23 68 24 69 32 70 25 71 26 72 30 73 33 74 27 75 28 76 31 77
REMARK SMILES IDX 29 78 55 79 56 80 64 81 57 82 58 83 62 84 65 85 59 86 60 87
REMARK SMILES IDX 63 88 61 89 40 90 41 91 49 92 42 93 43 94 47 95 50 96 44 97
REMARK SMILES IDX 45 98 48 99 46 100
REMARK H PARENT 6 5 81 16 11 34 70 53 38 64
REMARK Flexibility Score: inf
ROOT
ATOM      1  C   UNL A   1      31.355  30.106  24.936  1.00  0.00     0.116 C 
ENDROOT
BRANCH   1   2
ATOM      2  N   UNL A   1      30.150  30.855  24.663  1.00  0.00    -0.355 N 
ATOM      3  C   UNL A   1      29.247  30.812  23.650  1.00  0.00     0.230 C 
ATOM      4  O   UNL A   1      28.344  31.654  23.741  1.00  0.00    -0.274 OA
ATOM      5  H   UNL A   1      29.943  31.532  25.348  1.00  0.00     0.163 HD
BRANCH   3   6
ATOM      6  C   UNL A   1      29.295  29.768  22.486  1.00  0.00     0.068 C 
ATOM      7  C   UNL A   1      27.965  29.727  21.691  1.00  0.00     0.026 C 
ATOM      8  C   UNL A   1      30.426  30.142  21.511  1.00  0.00     0.026 C 
BRANCH   6   9
ATOM      9  C   UNL A   1      29.549  28.371  23.123  1.00  0.00    -0.033 A 
ATOM     10  C   UNL A   1      30.790  27.754  22.942  1.00  0.00     0.007 A 
ATOM     11  C   UNL A   1      28.539  27.607  23.740  1.00  0.00     0.007 A 
ATOM     12  C   UNL A   1      31.002  26.437  23.332  1.00  0.00     0.027 A 
ATOM     13  C   UNL A   1      28.770  26.282  24.162  1.00  0.00     0.027 A 
ATOM     14  C   UNL A   1      30.012  25.690  23.957  1.00  0.00     0.049 A 
BRANCH  14  15
ATOM     15  N   UNL A   1      30.223  24.301  24.226  1.00  0.00    -0.279 N 
ATOM     16  H   UNL A   1      29.906  23.629  23.581  1.00  0.00     0.180 HD
BRANCH  15  17
ATOM     17  S   UNL A   1      31.011  23.792  25.643  1.00  0.00     0.267 S 
ATOM     18  O   UNL A   1      30.879  24.868  26.601  1.00  0.00    -0.201 OA
ATOM     19  O   UNL A   1      30.485  22.480  25.958  1.00  0.00    -0.201 OA
BRANCH  17  20
ATOM     20  C   UNL A   1      32.694  23.584  25.199  1.00  0.00     0.159 A 
ATOM     21  C   UNL A   1      33.639  24.542  25.552  1.00  0.00     0.149 A 
ATOM     22  C   UNL A   1      33.058  22.546  24.344  1.00  0.00     0.149 A 
ATOM     23  F   UNL A   1      33.352  25.546  26.389  1.00  0.00    -0.205 F 
ATOM     24  C   UNL A   1      34.911  24.521  24.989  1.00  0.00     0.080 A 
ATOM     25  C   UNL A   1      34.329  22.518  23.769  1.00  0.00     0.080 A 
ATOM     26  F   UNL A   1      32.169  21.625  23.952  1.00  0.00    -0.205 F 
ATOM     27  C   UNL A   1      35.237  23.521  24.082  1.00  0.00     0.129 A 
ATOM     28  F   UNL A   1      36.430  23.546  23.474  1.00  0.00    -0.207 F 
ENDBRANCH  17  20
ENDBRANCH  15  17
ENDBRANCH  14  15
ENDBRANCH   6   9
ENDBRANCH   3   6
ENDBRANCH   1   2
BRANCH   1  29
ATOM     29  C   UNL A   1      31.951  30.484  26.291  1.00  0.00     0.023 C 
BRANCH  29  30
ATOM     30  C   UNL A   1      31.604  31.898  26.770  1.00  0.00     0.023 C 
BRANCH  30  31
ATOM     31  C   UNL A   1      32.782  32.721  27.284  1.00  0.00     0.116 C 
BRANCH  31  32
ATOM     32  N   UNL A   1      32.424  34.088  27.628  1.00  0.00    -0.352 N 
ATOM     33  C   UNL A   1      32.991  34.916  28.565  1.00  0.00     0.251 C 
ATOM     34  H   UNL A   1      31.673  34.472  27.121  1.00  0.00     0.163 HD
ATOM     35  O   UNL A   1      32.508  36.020  28.791  1.00  0.00    -0.269 OA
BRANCH  33  36
ATOM     36  C   UNL A   1      34.162  34.448  29.330  1.00  0.00     0.039 A 
ATOM     37  C   UNL A   1      33.948  33.768  30.532  1.00  0.00     0.014 A 
ATOM     38  C   UNL A   1      35.458  34.647  28.848  1.00  0.00     0.014 A 
ATOM     39  C   UNL A   1      35.034  33.224  31.218  1.00  0.00     0.010 A 
ATOM     40  C   UNL A   1      36.533  34.051  29.500  1.00  0.00     0.010 A 
ATOM     41  C   UNL A   1      36.330  33.331  30.687  1.00  0.00    -0.014 A 
BRANCH  41  42
ATOM     42  C   UNL A   1      37.487  32.689  31.357  1.00  0.00     0.031 A 
ATOM     43  C   UNL A   1      38.207  31.554  30.689  1.00  0.00     0.074 A 
ATOM     44  C   UNL A   1      37.838  33.083  32.597  1.00  0.00     0.049 A 
ATOM     45  N   UNL A   1      39.182  30.810  31.146  1.00  0.00    -0.248 NA
ATOM     46  C   UNL A   1      37.750  31.186  29.340  1.00  0.00     0.031 C 
ATOM     47  C   UNL A   1      37.180  34.138  33.367  1.00  0.00     0.029 A 
ATOM     48  N   UNL A   1      38.828  32.628  33.432  1.00  0.00    -0.354 N 
ATOM     49  C   UNL A   1      39.444  29.880  30.149  1.00  0.00     0.074 A 
ATOM     50  C   UNL A   1      38.494  30.120  29.085  1.00  0.00     0.031 C 
ATOM     51  C   UNL A   1      37.792  34.261  34.556  1.00  0.00     0.029 A 
ATOM     52  C   UNL A   1      38.863  33.273  34.643  1.00  0.00     0.049 A 
ATOM     53  H   UNL A   1      39.452  31.908  33.186  1.00  0.00     0.167 HD
ATOM     54  C   UNL A   1      40.407  28.929  30.115  1.00  0.00     0.037 A 
ATOM     55  C   UNL A   1      39.666  33.082  35.708  1.00  0.00     0.037 A 
ATOM     56  C   UNL A   1      41.368  28.712  31.164  1.00  0.00     0.049 A 
ATOM     57  C   UNL A   1      40.736  32.027  35.638  1.00  0.00     0.074 A 
ATOM     58  C   UNL A   1      42.418  27.811  31.202  1.00  0.00     0.029 A 
ATOM     59  N   UNL A   1      41.396  29.410  32.363  1.00  0.00    -0.354 N 
ATOM     60  N   UNL A   1      41.016  31.195  34.664  1.00  0.00    -0.248 NA
ATOM     61  C   UNL A   1      41.607  31.890  36.814  1.00  0.00     0.031 C 
ATOM     62  C   UNL A   1      43.061  27.940  32.438  1.00  0.00     0.029 A 
ATOM     63  C   UNL A   1      42.437  28.950  33.153  1.00  0.00     0.049 A 
ATOM     64  H   UNL A   1      40.769  30.126  32.615  1.00  0.00     0.167 HD
ATOM     65  C   UNL A   1      42.107  30.455  35.097  1.00  0.00     0.074 A 
ATOM     66  C   UNL A   1      42.448  30.946  36.417  1.00  0.00     0.031 C 
ATOM     67  C   UNL A   1      42.766  29.457  34.460  1.00  0.00     0.037 A 
BRANCH  54  68
ATOM     68  C   UNL A   1      40.472  28.055  28.898  1.00  0.00     0.064 A 
ATOM     69  C   UNL A   1      39.766  26.844  28.827  1.00  0.00     0.173 A 
ATOM     70  C   UNL A   1      41.222  28.443  27.778  1.00  0.00     0.173 A 
ATOM     71  F   UNL A   1      39.044  26.422  29.876  1.00  0.00    -0.203 F 
ATOM     72  C   UNL A   1      39.832  26.042  27.691  1.00  0.00     0.198 A 
ATOM     73  C   UNL A   1      41.264  27.652  26.634  1.00  0.00     0.198 A 
ATOM     74  F   UNL A   1      41.913  29.593  27.793  1.00  0.00    -0.203 F 
ATOM     75  F   UNL A   1      39.188  24.867  27.666  1.00  0.00    -0.200 F 
ATOM     76  C   UNL A   1      40.575  26.450  26.593  1.00  0.00     0.200 A 
ATOM     77  F   UNL A   1      41.973  28.051  25.569  1.00  0.00    -0.200 F 
ATOM     78  F   UNL A   1      40.633  25.677  25.499  1.00  0.00    -0.200 F 
ENDBRANCH  54  68
BRANCH  55  79
ATOM     79  C   UNL A   1      39.505  33.928  36.917  1.00  0.00     0.064 A 
ATOM     80  C   UNL A   1      40.115  35.187  36.999  1.00  0.00     0.173 A 
ATOM     81  C   UNL A   1      38.743  33.499  38.013  1.00  0.00     0.173 A 
ATOM     82  F   UNL A   1      40.869  35.633  35.983  1.00  0.00    -0.203 F 
ATOM     83  C   UNL A   1      39.983  35.978  38.138  1.00  0.00     0.198 A 
ATOM     84  C   UNL A   1      38.592  34.300  39.142  1.00  0.00     0.198 A 
ATOM     85  F   UNL A   1      38.135  32.304  37.981  1.00  0.00    -0.203 F 
ATOM     86  F   UNL A   1      40.611  37.160  38.207  1.00  0.00    -0.200 F 
ATOM     87  C   UNL A   1      39.219  35.537  39.207  1.00  0.00     0.200 A 
ATOM     88  F   UNL A   1      37.841  33.876  40.167  1.00  0.00    -0.200 F 
ATOM     89  F   UNL A   1      39.090  36.298  40.302  1.00  0.00    -0.200 F 
ENDBRANCH  55  79
BRANCH  67  90
ATOM     90  C   UNL A   1      43.943  28.852  35.166  1.00  0.00     0.064 A 
ATOM     91  C   UNL A   1      45.237  29.369  35.009  1.00  0.00     0.173 A 
ATOM     92  C   UNL A   1      43.767  27.771  36.042  1.00  0.00     0.173 A 
ATOM     93  F   UNL A   1      45.458  30.392  34.169  1.00  0.00    -0.203 F 
ATOM     94  C   UNL A   1      46.317  28.809  35.687  1.00  0.00     0.198 A 
ATOM     95  C   UNL A   1      44.843  27.232  36.739  1.00  0.00     0.198 A 
ATOM     96  F   UNL A   1      42.546  27.247  36.230  1.00  0.00    -0.203 F 
ATOM     97  F   UNL A   1      47.552  29.291  35.490  1.00  0.00    -0.200 F 
ATOM     98  C   UNL A   1      46.117  27.747  36.556  1.00  0.00     0.200 A 
ATOM     99  F   UNL A   1      44.648  26.213  37.587  1.00  0.00    -0.200 F 
ATOM    100  F   UNL A   1      47.157  27.215  37.215  1.00  0.00    -0.200 F 
ENDBRANCH  67  90
ENDBRANCH  41  42
ENDBRANCH  33  36
ENDBRANCH  31  32
ENDBRANCH  30  31
ENDBRANCH  29  30
ENDBRANCH   1  29
TORSDOF 15
ENDMDL
MODEL 3
REMARK VINA RESULT:     -12.7      5.213     10.473
REMARK SMILES CC(C)(C(=O)NCCCCNC(=O)c1ccc(-c2c3nc(c(-c4c(F)c(F)c(F)c(F)c4F)c4ccc([nH]4)c(-c4c(F)c(F)c(F)c(F)c4F)c4nc(c(-c5c(F)c(F)c(F)c(F)c5F)c5ccc2[nH]5)C=C4)C=C3)cc1)c1ccc(NS(=O)(=O)c2c(F)cc(F)cc2F)cc1
REMARK SMILES IDX 7 1 6 2 4 3 5 4 2 6 1 7 3 8 77 9 78 10 95 11 79 12 94 13
REMARK SMILES IDX 80 14 81 15 82 17 83 18 84 19 85 20 86 21 92 22 87 23 88 24
REMARK SMILES IDX 91 25 93 26 89 27 90 28 8 29 9 30 10 31 11 32 12 33 13 35
REMARK SMILES IDX 14 36 15 37 76 38 16 39 75 40 17 41 18 42 19 43 69 44 20 45
REMARK SMILES IDX 74 46 68 47 70 48 21 49 73 50 67 51 66 52 22 54 54 55 34 56
REMARK SMILES IDX 53 57 35 58 38 59 52 60 71 61 36 62 37 63 51 65 72 66 39 67
REMARK SMILES IDX 23 68 24 69 32 70 25 71 26 72 30 73 33 74 27 75 28 76 31 77
REMARK SMILES IDX 29 78 55 79 56 80 64 81 57 82 58 83 62 84 65 85 59 86 60 87
REMARK SMILES IDX 63 88 61 89 40 90 41 91 49 92 42 93 43 94 47 95 50 96 44 97
REMARK SMILES IDX 45 98 48 99 46 100
REMARK H PARENT 6 5 81 16 11 34 70 53 38 64
REMARK Flexibility Score: inf
ROOT
ATOM      1  C   UNL A   1      31.325  29.946  25.500  1.00  0.00     0.116 C 
ENDROOT
BRANCH   1   2
ATOM      2  N   UNL A   1      31.001  29.701  24.114  1.00  0.00    -0.355 N 
ATOM      3  C   UNL A   1      31.579  28.936  23.152  1.00  0.00     0.230 C 
ATOM      4  O   UNL A   1      31.028  29.010  22.047  1.00  0.00    -0.274 OA
ATOM      5  H   UNL A   1      30.202  30.186  23.804  1.00  0.00     0.163 HD
BRANCH   3   6
ATOM      6  C   UNL A   1      32.805  27.998  23.407  1.00  0.00     0.068 C 
ATOM      7  C   UNL A   1      33.656  27.797  22.128  1.00  0.00     0.026 C 
ATOM      8  C   UNL A   1      33.706  28.618  24.491  1.00  0.00     0.026 C 
BRANCH   6   9
ATOM      9  C   UNL A   1      32.250  26.620  23.870  1.00  0.00    -0.033 A 
ATOM     10  C   UNL A   1      32.614  26.123  25.124  1.00  0.00     0.007 A 
ATOM     11  C   UNL A   1      31.525  25.755  23.025  1.00  0.00     0.007 A 
ATOM     12  C   UNL A   1      32.294  24.824  25.503  1.00  0.00     0.027 A 
ATOM     13  C   UNL A   1      31.177  24.450  23.428  1.00  0.00     0.027 A 
ATOM     14  C   UNL A   1      31.564  23.979  24.679  1.00  0.00     0.049 A 
BRANCH  14  15
ATOM     15  N   UNL A   1      31.367  22.611  25.047  1.00  0.00    -0.279 N 
ATOM     16  H   UNL A   1      30.644  22.377  25.673  1.00  0.00     0.180 HD
BRANCH  15  17
ATOM     17  S   UNL A   1      32.361  21.382  24.423  1.00  0.00     0.267 S 
ATOM     18  O   UNL A   1      32.164  20.220  25.261  1.00  0.00    -0.201 OA
ATOM     19  O   UNL A   1      32.075  21.303  23.005  1.00  0.00    -0.201 OA
BRANCH  17  20
ATOM     20  C   UNL A   1      34.003  21.974  24.589  1.00  0.00     0.159 A 
ATOM     21  C   UNL A   1      34.670  21.866  25.805  1.00  0.00     0.149 A 
ATOM     22  C   UNL A   1      34.580  22.706  23.553  1.00  0.00     0.149 A 
ATOM     23  F   UNL A   1      34.175  21.155  26.824  1.00  0.00    -0.205 F 
ATOM     24  C   UNL A   1      35.859  22.557  26.022  1.00  0.00     0.080 A 
ATOM     25  C   UNL A   1      35.768  23.407  23.762  1.00  0.00     0.080 A 
ATOM     26  F   UNL A   1      33.954  22.863  22.381  1.00  0.00    -0.205 F 
ATOM     27  C   UNL A   1      36.385  23.342  25.005  1.00  0.00     0.129 A 
ATOM     28  F   UNL A   1      37.482  24.073  25.239  1.00  0.00    -0.207 F 
ENDBRANCH  17  20
ENDBRANCH  15  17
ENDBRANCH  14  15
ENDBRANCH   6   9
ENDBRANCH   3   6
ENDBRANCH   1   2
BRANCH   1  29
ATOM     29  C   UNL A   1      31.197  31.428  25.849  1.00  0.00     0.023 C 
BRANCH  29  30
ATOM     30  C   UNL A   1      31.774  31.815  27.215  1.00  0.00     0.023 C 
BRANCH  30  31
ATOM     31  C   UNL A   1      32.905  32.837  27.180  1.00  0.00     0.116 C 
BRANCH  31  32
ATOM     32  N   UNL A   1      32.495  34.166  27.610  1.00  0.00    -0.352 N 
ATOM     33  C   UNL A   1      33.010  34.941  28.619  1.00  0.00     0.251 C 
ATOM     34  H   UNL A   1      31.747  34.563  27.108  1.00  0.00     0.163 HD
ATOM     35  O   UNL A   1      32.487  36.012  28.908  1.00  0.00    -0.269 OA
BRANCH  33  36
ATOM     36  C   UNL A   1      34.174  34.454  29.383  1.00  0.00     0.039 A 
ATOM     37  C   UNL A   1      33.948  33.731  30.558  1.00  0.00     0.014 A 
ATOM     38  C   UNL A   1      35.476  34.678  28.927  1.00  0.00     0.014 A 
ATOM     39  C   UNL A   1      35.028  33.170  31.240  1.00  0.00     0.010 A 
ATOM     40  C   UNL A   1      36.545  34.066  29.573  1.00  0.00     0.010 A 
ATOM     41  C   UNL A   1      36.330  33.304  30.731  1.00  0.00    -0.014 A 
BRANCH  41  42
ATOM     42  C   UNL A   1      37.482  32.646  31.394  1.00  0.00     0.031 A 
ATOM     43  C   UNL A   1      38.166  31.484  30.735  1.00  0.00     0.074 A 
ATOM     44  C   UNL A   1      37.860  33.051  32.623  1.00  0.00     0.049 A 
ATOM     45  N   UNL A   1      39.131  30.725  31.190  1.00  0.00    -0.248 NA
ATOM     46  C   UNL A   1      37.682  31.106  29.399  1.00  0.00     0.031 C 
ATOM     47  C   UNL A   1      37.238  34.133  33.385  1.00  0.00     0.029 A 
ATOM     48  N   UNL A   1      38.852  32.586  33.450  1.00  0.00    -0.354 N 
ATOM     49  C   UNL A   1      39.357  29.774  30.203  1.00  0.00     0.074 A 
ATOM     50  C   UNL A   1      38.397  30.019  29.150  1.00  0.00     0.031 C 
ATOM     51  C   UNL A   1      37.870  34.260  34.563  1.00  0.00     0.029 A 
ATOM     52  C   UNL A   1      38.919  33.249  34.651  1.00  0.00     0.049 A 
ATOM     53  H   UNL A   1      39.456  31.849  33.207  1.00  0.00     0.167 HD
ATOM     54  C   UNL A   1      40.297  28.801  30.171  1.00  0.00     0.037 A 
ATOM     55  C   UNL A   1      39.734  33.057  35.707  1.00  0.00     0.037 A 
ATOM     56  C   UNL A   1      41.268  28.579  31.209  1.00  0.00     0.049 A 
ATOM     57  C   UNL A   1      40.778  31.977  35.639  1.00  0.00     0.074 A 
ATOM     58  C   UNL A   1      42.298  27.654  31.247  1.00  0.00     0.029 A 
ATOM     59  N   UNL A   1      41.331  29.294  32.396  1.00  0.00    -0.354 N 
ATOM     60  N   UNL A   1      41.025  31.124  34.674  1.00  0.00    -0.248 NA
ATOM     61  C   UNL A   1      41.664  31.839  36.804  1.00  0.00     0.031 C 
ATOM     62  C   UNL A   1      42.962  27.788  32.471  1.00  0.00     0.029 A 
ATOM     63  C   UNL A   1      42.372  28.823  33.178  1.00  0.00     0.049 A 
ATOM     64  H   UNL A   1      40.724  30.028  32.646  1.00  0.00     0.167 HD
ATOM     65  C   UNL A   1      42.106  30.366  35.103  1.00  0.00     0.074 A 
ATOM     66  C   UNL A   1      42.477  30.870  36.409  1.00  0.00     0.031 C 
ATOM     67  C   UNL A   1      42.732  29.343  34.472  1.00  0.00     0.037 A 
BRANCH  54  68
ATOM     68  C   UNL A   1      40.324  27.906  28.967  1.00  0.00     0.064 A 
ATOM     69  C   UNL A   1      41.084  28.229  27.832  1.00  0.00     0.173 A 
ATOM     70  C   UNL A   1      39.608  26.700  28.957  1.00  0.00     0.173 A 
ATOM     71  F   UNL A   1      41.775  29.377  27.788  1.00  0.00    -0.203 F 
ATOM     72  C   UNL A   1      41.103  27.390  26.722  1.00  0.00     0.198 A 
ATOM     73  C   UNL A   1      39.652  25.850  27.855  1.00  0.00     0.198 A 
ATOM     74  F   UNL A   1      38.869  26.343  30.018  1.00  0.00    -0.203 F 
ATOM     75  F   UNL A   1      41.797  27.743  25.630  1.00  0.00    -0.200 F 
ATOM     76  C   UNL A   1      40.393  26.199  26.736  1.00  0.00     0.200 A 
ATOM     77  F   UNL A   1      38.975  24.695  27.874  1.00  0.00    -0.200 F 
ATOM     78  F   UNL A   1      40.417  25.391  25.667  1.00  0.00    -0.200 F 
ENDBRANCH  54  68
BRANCH  55  79
ATOM     79  C   UNL A   1      39.610  33.925  36.905  1.00  0.00     0.064 A 
ATOM     80  C   UNL A   1      38.826  33.533  37.998  1.00  0.00     0.173 A 
ATOM     81  C   UNL A   1      40.270  35.160  36.983  1.00  0.00     0.173 A 
ATOM     82  F   UNL A   1      38.161  32.368  37.961  1.00  0.00    -0.203 F 
ATOM     83  C   UNL A   1      38.691  34.351  39.117  1.00  0.00     0.198 A 
ATOM     84  C   UNL A   1      40.154  35.967  38.113  1.00  0.00     0.198 A 
ATOM     85  F   UNL A   1      41.037  35.577  35.965  1.00  0.00    -0.203 F 
ATOM     86  F   UNL A   1      37.901  33.971  40.131  1.00  0.00    -0.200 F 
ATOM     87  C   UNL A   1      39.358  35.565  39.176  1.00  0.00     0.200 A 
ATOM     88  F   UNL A   1      40.812  37.133  38.172  1.00  0.00    -0.200 F 
ATOM     89  F   UNL A   1      39.231  36.351  40.254  1.00  0.00    -0.200 F 
ENDBRANCH  55  79
BRANCH  67  90
ATOM     90  C   UNL A   1      43.906  28.722  35.171  1.00  0.00     0.064 A 
ATOM     91  C   UNL A   1      45.208  29.211  34.992  1.00  0.00     0.173 A 
ATOM     92  C   UNL A   1      43.718  27.655  36.061  1.00  0.00     0.173 A 
ATOM     93  F   UNL A   1      45.439  30.220  34.138  1.00  0.00    -0.203 F 
ATOM     94  C   UNL A   1      46.284  28.638  35.664  1.00  0.00     0.198 A 
ATOM     95  C   UNL A   1      44.792  27.102  36.751  1.00  0.00     0.198 A 
ATOM     96  F   UNL A   1      42.490  27.157  36.270  1.00  0.00    -0.203 F 
ATOM     97  F   UNL A   1      47.526  29.092  35.446  1.00  0.00    -0.200 F 
ATOM     98  C   UNL A   1      46.074  27.589  36.547  1.00  0.00     0.200 A 
ATOM     99  F   UNL A   1      44.587  26.097  37.613  1.00  0.00    -0.200 F 
ATOM    100  F   UNL A   1      47.111  27.043  37.199  1.00  0.00    -0.200 F 
ENDBRANCH  67  90
ENDBRANCH  41  42
ENDBRANCH  33  36
ENDBRANCH  31  32
ENDBRANCH  30  31
ENDBRANCH  29  30
ENDBRANCH   1  29
TORSDOF 15
ENDMDL
