MODEL 1
REMARK VINA RESULT:     -13.4      0.000      0.000
REMARK SMILES CC1(C(=O)N[C@@H](C(=O)NCCCCNC(=O)c2ccc(-c3c4nc(c(-c5c(F)c(F)c(F)c(F)c5F)c5ccc([nH]5)c(-c5c(F)c(F)c(F)c(F)c5F)c5nc(c(-c6c(F)c(F)c(F)c(F)c6F)c6ccc3[nH]6)C=C5)C=C4)cc2)c2ccccc2)CCCC1
REMARK SMILES IDX 11 1 10 2 9 3 7 4 8 5 6 7 5 8 3 9 4 10 2 12 1 13 86 14 89 15
REMARK SMILES IDX 87 16 88 17 80 18 81 19 85 20 82 21 84 22 83 23 12 24 13 25
REMARK SMILES IDX 14 26 15 27 16 29 17 30 18 31 79 32 19 33 78 34 20 35 21 36
REMARK SMILES IDX 22 37 72 38 23 39 77 40 71 41 73 42 24 43 76 44 70 45 69 46
REMARK SMILES IDX 25 48 57 49 37 50 56 51 38 52 41 53 55 54 74 55 39 56 40 57
REMARK SMILES IDX 54 59 75 60 42 61 26 62 27 63 35 64 28 65 29 66 33 67 36 68
REMARK SMILES IDX 30 69 31 70 34 71 32 72 58 73 59 74 67 75 60 76 61 77 65 78
REMARK SMILES IDX 68 79 62 80 63 81 66 82 64 83 43 84 44 85 52 86 45 87 46 88
REMARK SMILES IDX 50 89 53 90 47 91 48 92 51 93 49 94
REMARK H PARENT 9 6 5 11 14 28 73 47 41 58
REMARK Flexibility Score: inf
ROOT
ATOM      1  C   UNL A   1      31.833  30.425  26.754  1.00  0.00     0.023 C 
ENDROOT
BRANCH   1   2
ATOM      2  C   UNL A   1      31.500  29.723  25.448  1.00  0.00     0.116 C 
BRANCH   2   3
ATOM      3  N   UNL A   1      32.613  29.635  24.533  1.00  0.00    -0.354 N 
ATOM      4  C   UNL A   1      32.748  28.932  23.367  1.00  0.00     0.247 C 
ATOM      5  O   UNL A   1      33.675  29.310  22.639  1.00  0.00    -0.272 OA
ATOM      6  H   UNL A   1      33.402  30.165  24.789  1.00  0.00     0.163 HD
BRANCH   4   7
ATOM      7  C   UNL A   1      31.703  27.849  22.896  1.00  0.00     0.202 C 
BRANCH   7   8
ATOM      8  N   UNL A   1      32.144  27.090  21.726  1.00  0.00    -0.340 N 
ATOM      9  C   UNL A   1      32.652  25.844  21.551  1.00  0.00     0.226 C 
ATOM     10  O   UNL A   1      33.098  25.615  20.422  1.00  0.00    -0.274 OA
ATOM     11  H   UNL A   1      32.052  27.591  20.883  1.00  0.00     0.164 HD
BRANCH   9  12
ATOM     12  C   UNL A   1      32.741  24.787  22.672  1.00  0.00     0.046 C 
ATOM     13  C   UNL A   1      33.696  25.168  23.818  1.00  0.00     0.022 C 
ATOM     14  C   UNL A   1      33.228  23.448  22.066  1.00  0.00     0.016 C 
ATOM     15  C   UNL A   1      31.357  24.381  23.188  1.00  0.00     0.016 C 
ATOM     16  C   UNL A   1      32.758  22.373  23.035  1.00  0.00     0.001 C 
ATOM     17  C   UNL A   1      31.515  22.949  23.709  1.00  0.00     0.001 C 
ENDBRANCH   9  12
ENDBRANCH   7   8
BRANCH   7  18
ATOM     18  C   UNL A   1      30.350  28.509  22.630  1.00  0.00    -0.016 A 
ATOM     19  C   UNL A   1      30.236  29.721  21.927  1.00  0.00     0.006 A 
ATOM     20  C   UNL A   1      29.186  27.952  23.191  1.00  0.00     0.006 A 
ATOM     21  C   UNL A   1      28.996  30.349  21.780  1.00  0.00     0.000 A 
ATOM     22  C   UNL A   1      27.949  28.586  23.047  1.00  0.00     0.000 A 
ATOM     23  C   UNL A   1      27.855  29.783  22.342  1.00  0.00     0.000 A 
ENDBRANCH   7  18
ENDBRANCH   4   7
ENDBRANCH   2   3
ENDBRANCH   1   2
BRANCH   1  24
ATOM     24  C   UNL A   1      31.613  31.931  26.737  1.00  0.00     0.023 C 
BRANCH  24  25
ATOM     25  C   UNL A   1      32.786  32.766  27.242  1.00  0.00     0.116 C 
BRANCH  25  26
ATOM     26  N   UNL A   1      32.422  34.127  27.615  1.00  0.00    -0.352 N 
ATOM     27  C   UNL A   1      32.982  34.932  28.581  1.00  0.00     0.251 C 
ATOM     28  H   UNL A   1      31.678  34.523  27.108  1.00  0.00     0.163 HD
ATOM     29  O   UNL A   1      32.508  36.033  28.835  1.00  0.00    -0.269 OA
BRANCH  27  30
ATOM     30  C   UNL A   1      34.142  34.430  29.344  1.00  0.00     0.039 A 
ATOM     31  C   UNL A   1      33.919  33.758  30.547  1.00  0.00     0.014 A 
ATOM     32  C   UNL A   1      35.434  34.555  28.826  1.00  0.00     0.014 A 
ATOM     33  C   UNL A   1      34.987  33.128  31.188  1.00  0.00     0.010 A 
ATOM     34  C   UNL A   1      36.480  33.861  29.424  1.00  0.00     0.010 A 
ATOM     35  C   UNL A   1      36.265  33.134  30.606  1.00  0.00    -0.014 A 
BRANCH  35  36
ATOM     36  C   UNL A   1      37.391  32.376  31.206  1.00  0.00     0.031 A 
ATOM     37  C   UNL A   1      37.893  32.738  32.575  1.00  0.00     0.074 A 
ATOM     38  C   UNL A   1      38.014  31.423  30.486  1.00  0.00     0.049 A 
ATOM     39  N   UNL A   1      38.921  32.264  33.233  1.00  0.00    -0.248 NA
ATOM     40  C   UNL A   1      37.161  33.797  33.287  1.00  0.00     0.031 C 
ATOM     41  C   UNL A   1      37.659  31.021  29.124  1.00  0.00     0.029 A 
ATOM     42  N   UNL A   1      39.090  30.628  30.796  1.00  0.00    -0.354 N 
ATOM     43  C   UNL A   1      38.970  32.981  34.420  1.00  0.00     0.074 A 
ATOM     44  C   UNL A   1      37.902  33.954  34.374  1.00  0.00     0.031 C 
ATOM     45  C   UNL A   1      38.487  30.041  28.725  1.00  0.00     0.029 A 
ATOM     46  C   UNL A   1      39.452  29.770  29.787  1.00  0.00     0.049 A 
ATOM     47  H   UNL A   1      39.558  30.668  31.661  1.00  0.00     0.167 HD
ATOM     48  C   UNL A   1      39.815  32.823  35.467  1.00  0.00     0.037 A 
ATOM     49  C   UNL A   1      40.453  28.871  29.722  1.00  0.00     0.037 A 
ATOM     50  C   UNL A   1      40.851  31.827  35.527  1.00  0.00     0.049 A 
ATOM     51  C   UNL A   1      41.365  28.704  30.907  1.00  0.00     0.074 A 
ATOM     52  C   UNL A   1      41.714  31.541  36.572  1.00  0.00     0.029 A 
ATOM     53  N   UNL A   1      41.163  30.952  34.499  1.00  0.00    -0.354 N 
ATOM     54  N   UNL A   1      41.359  29.338  32.054  1.00  0.00    -0.248 NA
ATOM     55  C   UNL A   1      42.421  27.687  30.791  1.00  0.00     0.031 C 
ATOM     56  C   UNL A   1      42.572  30.515  36.161  1.00  0.00     0.029 A 
ATOM     57  C   UNL A   1      42.216  30.133  34.878  1.00  0.00     0.049 A 
ATOM     58  H   UNL A   1      40.705  30.916  33.628  1.00  0.00     0.167 HD
ATOM     59  C   UNL A   1      42.385  28.784  32.804  1.00  0.00     0.074 A 
ATOM     60  C   UNL A   1      42.988  27.750  31.988  1.00  0.00     0.031 C 
ATOM     61  C   UNL A   1      42.794  29.102  34.056  1.00  0.00     0.037 A 
BRANCH  48  62
ATOM     62  C   UNL A   1      39.644  33.743  36.639  1.00  0.00     0.064 A 
ATOM     63  C   UNL A   1      38.845  33.391  37.737  1.00  0.00     0.173 A 
ATOM     64  C   UNL A   1      40.309  34.977  36.679  1.00  0.00     0.173 A 
ATOM     65  F   UNL A   1      38.177  32.228  37.741  1.00  0.00    -0.203 F 
ATOM     66  C   UNL A   1      38.697  34.253  38.820  1.00  0.00     0.198 A 
ATOM     67  C   UNL A   1      40.182  35.824  37.776  1.00  0.00     0.198 A 
ATOM     68  F   UNL A   1      41.087  35.360  35.656  1.00  0.00    -0.203 F 
ATOM     69  F   UNL A   1      37.890  33.916  39.837  1.00  0.00    -0.200 F 
ATOM     70  C   UNL A   1      39.371  35.465  38.843  1.00  0.00     0.200 A 
ATOM     71  F   UNL A   1      40.842  36.989  37.802  1.00  0.00    -0.200 F 
ATOM     72  F   UNL A   1      39.232  36.291  39.889  1.00  0.00    -0.200 F 
ENDBRANCH  48  62
BRANCH  49  73
ATOM     73  C   UNL A   1      40.628  28.038  28.505  1.00  0.00     0.064 A 
ATOM     74  C   UNL A   1      40.012  26.783  28.401  1.00  0.00     0.173 A 
ATOM     75  C   UNL A   1      41.416  28.470  27.429  1.00  0.00     0.173 A 
ATOM     76  F   UNL A   1      39.266  26.317  29.414  1.00  0.00    -0.203 F 
ATOM     77  C   UNL A   1      40.195  25.983  27.276  1.00  0.00     0.198 A 
ATOM     78  C   UNL A   1      41.577  27.680  26.293  1.00  0.00     0.198 A 
ATOM     79  F   UNL A   1      42.022  29.666  27.478  1.00  0.00    -0.203 F 
ATOM     80  F   UNL A   1      39.631  24.768  27.222  1.00  0.00    -0.200 F 
ATOM     81  C   UNL A   1      40.973  26.434  26.220  1.00  0.00     0.200 A 
ATOM     82  F   UNL A   1      42.319  28.125  25.270  1.00  0.00    -0.200 F 
ATOM     83  F   UNL A   1      41.147  25.664  25.137  1.00  0.00    -0.200 F 
ENDBRANCH  49  73
BRANCH  61  84
ATOM     84  C   UNL A   1      43.922  28.302  34.635  1.00  0.00     0.064 A 
ATOM     85  C   UNL A   1      45.256  28.721  34.521  1.00  0.00     0.173 A 
ATOM     86  C   UNL A   1      43.661  27.123  35.350  1.00  0.00     0.173 A 
ATOM     87  F   UNL A   1      45.556  29.833  33.832  1.00  0.00    -0.203 F 
ATOM     88  C   UNL A   1      46.289  27.977  35.084  1.00  0.00     0.198 A 
ATOM     89  C   UNL A   1      44.694  26.397  35.935  1.00  0.00     0.198 A 
ATOM     90  F   UNL A   1      42.402  26.683  35.493  1.00  0.00    -0.203 F 
ATOM     91  F   UNL A   1      47.560  28.374  34.926  1.00  0.00    -0.200 F 
ATOM     92  C   UNL A   1      46.007  26.821  35.795  1.00  0.00     0.200 A 
ATOM     93  F   UNL A   1      44.420  25.286  36.633  1.00  0.00    -0.200 F 
ATOM     94  F   UNL A   1      47.003  26.110  36.343  1.00  0.00    -0.200 F 
ENDBRANCH  61  84
ENDBRANCH  35  36
ENDBRANCH  27  30
ENDBRANCH  25  26
ENDBRANCH  24  25
ENDBRANCH   1  24
TORSDOF 14
ENDMDL
MODEL 2
REMARK VINA RESULT:     -13.4      0.053      1.593
REMARK SMILES CC1(C(=O)N[C@@H](C(=O)NCCCCNC(=O)c2ccc(-c3c4nc(c(-c5c(F)c(F)c(F)c(F)c5F)c5ccc([nH]5)c(-c5c(F)c(F)c(F)c(F)c5F)c5nc(c(-c6c(F)c(F)c(F)c(F)c6F)c6ccc3[nH]6)C=C5)C=C4)cc2)c2ccccc2)CCCC1
REMARK SMILES IDX 11 1 10 2 9 3 7 4 8 5 6 7 5 8 3 9 4 10 2 12 1 13 86 14 89 15
REMARK SMILES IDX 87 16 88 17 80 18 81 19 85 20 82 21 84 22 83 23 12 24 13 25
REMARK SMILES IDX 14 26 15 27 16 29 17 30 18 31 79 32 19 33 78 34 20 35 21 36
REMARK SMILES IDX 22 37 72 38 23 39 77 40 71 41 73 42 24 43 76 44 70 45 69 46
REMARK SMILES IDX 25 48 57 49 37 50 56 51 38 52 41 53 55 54 74 55 39 56 40 57
REMARK SMILES IDX 54 59 75 60 42 61 26 62 27 63 35 64 28 65 29 66 33 67 36 68
REMARK SMILES IDX 30 69 31 70 34 71 32 72 58 73 59 74 67 75 60 76 61 77 65 78
REMARK SMILES IDX 68 79 62 80 63 81 66 82 64 83 43 84 44 85 52 86 45 87 46 88
REMARK SMILES IDX 50 89 53 90 47 91 48 92 51 93 49 94
REMARK H PARENT 9 6 5 11 14 28 73 47 41 58
REMARK Flexibility Score: inf
ROOT
ATOM      1  C   UNL A   1      31.896  30.411  26.761  1.00  0.00     0.023 C 
ENDROOT
BRANCH   1   2
ATOM      2  C   UNL A   1      31.549  29.747  25.439  1.00  0.00     0.116 C 
BRANCH   2   3
ATOM      3  N   UNL A   1      32.668  29.628  24.535  1.00  0.00    -0.354 N 
ATOM      4  C   UNL A   1      32.799  28.911  23.377  1.00  0.00     0.247 C 
ATOM      5  O   UNL A   1      33.739  29.264  22.654  1.00  0.00    -0.272 OA
ATOM      6  H   UNL A   1      33.464  30.147  24.792  1.00  0.00     0.163 HD
BRANCH   4   7
ATOM      7  C   UNL A   1      31.738  27.843  22.909  1.00  0.00     0.202 C 
BRANCH   7   8
ATOM      8  N   UNL A   1      32.171  27.068  21.746  1.00  0.00    -0.340 N 
ATOM      9  C   UNL A   1      32.644  25.808  21.580  1.00  0.00     0.226 C 
ATOM     10  O   UNL A   1      33.097  25.563  20.456  1.00  0.00    -0.274 OA
ATOM     11  H   UNL A   1      32.105  27.570  20.901  1.00  0.00     0.164 HD
BRANCH   9  12
ATOM     12  C   UNL A   1      32.686  24.751  22.703  1.00  0.00     0.046 C 
ATOM     13  C   UNL A   1      33.613  25.120  23.875  1.00  0.00     0.022 C 
ATOM     14  C   UNL A   1      33.172  23.404  22.111  1.00  0.00     0.016 C 
ATOM     15  C   UNL A   1      31.282  24.363  23.179  1.00  0.00     0.016 C 
ATOM     16  C   UNL A   1      32.660  22.337  23.067  1.00  0.00     0.001 C 
ATOM     17  C   UNL A   1      31.406  22.930  23.705  1.00  0.00     0.001 C 
ENDBRANCH   9  12
ENDBRANCH   7   8
BRANCH   7  18
ATOM     18  C   UNL A   1      30.397  28.523  22.633  1.00  0.00    -0.016 A 
ATOM     19  C   UNL A   1      30.308  29.740  21.935  1.00  0.00     0.006 A 
ATOM     20  C   UNL A   1      29.220  27.981  23.179  1.00  0.00     0.006 A 
ATOM     21  C   UNL A   1      29.079  30.387  21.779  1.00  0.00     0.000 A 
ATOM     22  C   UNL A   1      27.993  28.633  23.026  1.00  0.00     0.000 A 
ATOM     23  C   UNL A   1      27.924  29.835  22.326  1.00  0.00     0.000 A 
ENDBRANCH   7  18
ENDBRANCH   4   7
ENDBRANCH   2   3
ENDBRANCH   1   2
BRANCH   1  24
ATOM     24  C   UNL A   1      31.629  31.910  26.806  1.00  0.00     0.023 C 
BRANCH  24  25
ATOM     25  C   UNL A   1      32.806  32.767  27.257  1.00  0.00     0.116 C 
BRANCH  25  26
ATOM     26  N   UNL A   1      32.435  34.125  27.636  1.00  0.00    -0.352 N 
ATOM     27  C   UNL A   1      32.991  34.928  28.605  1.00  0.00     0.251 C 
ATOM     28  H   UNL A   1      31.688  34.519  27.132  1.00  0.00     0.163 HD
ATOM     29  O   UNL A   1      32.511  36.026  28.865  1.00  0.00    -0.269 OA
BRANCH  27  30
ATOM     30  C   UNL A   1      34.155  34.430  29.365  1.00  0.00     0.039 A 
ATOM     31  C   UNL A   1      33.938  33.768  30.575  1.00  0.00     0.014 A 
ATOM     32  C   UNL A   1      35.443  34.548  28.839  1.00  0.00     0.014 A 
ATOM     33  C   UNL A   1      35.008  33.142  31.215  1.00  0.00     0.010 A 
ATOM     34  C   UNL A   1      36.491  33.856  29.436  1.00  0.00     0.010 A 
ATOM     35  C   UNL A   1      36.282  33.139  30.625  1.00  0.00    -0.014 A 
BRANCH  35  36
ATOM     36  C   UNL A   1      37.410  32.384  31.224  1.00  0.00     0.031 A 
ATOM     37  C   UNL A   1      37.916  32.750  32.591  1.00  0.00     0.074 A 
ATOM     38  C   UNL A   1      38.032  31.429  30.506  1.00  0.00     0.049 A 
ATOM     39  N   UNL A   1      38.946  32.279  33.247  1.00  0.00    -0.248 NA
ATOM     40  C   UNL A   1      37.186  33.811  33.302  1.00  0.00     0.031 C 
ATOM     41  C   UNL A   1      37.673  31.022  29.145  1.00  0.00     0.029 A 
ATOM     42  N   UNL A   1      39.109  30.635  30.815  1.00  0.00    -0.354 N 
ATOM     43  C   UNL A   1      38.998  32.999  34.432  1.00  0.00     0.074 A 
ATOM     44  C   UNL A   1      37.930  33.972  34.386  1.00  0.00     0.031 C 
ATOM     45  C   UNL A   1      38.500  30.042  28.747  1.00  0.00     0.029 A 
ATOM     46  C   UNL A   1      39.468  29.774  29.807  1.00  0.00     0.049 A 
ATOM     47  H   UNL A   1      39.579  30.678  31.679  1.00  0.00     0.167 HD
ATOM     48  C   UNL A   1      39.846  32.845  35.476  1.00  0.00     0.037 A 
ATOM     49  C   UNL A   1      40.469  28.876  29.743  1.00  0.00     0.037 A 
ATOM     50  C   UNL A   1      40.883  31.850  35.537  1.00  0.00     0.049 A 
ATOM     51  C   UNL A   1      41.384  28.712  30.925  1.00  0.00     0.074 A 
ATOM     52  C   UNL A   1      41.748  31.567  36.580  1.00  0.00     0.029 A 
ATOM     53  N   UNL A   1      41.192  30.971  34.511  1.00  0.00    -0.354 N 
ATOM     54  N   UNL A   1      41.381  29.350  32.070  1.00  0.00    -0.248 NA
ATOM     55  C   UNL A   1      42.441  27.696  30.810  1.00  0.00     0.031 C 
ATOM     56  C   UNL A   1      42.605  30.540  36.170  1.00  0.00     0.029 A 
ATOM     57  C   UNL A   1      42.246  30.155  34.889  1.00  0.00     0.049 A 
ATOM     58  H   UNL A   1      40.732  30.932  33.641  1.00  0.00     0.167 HD
ATOM     59  C   UNL A   1      42.410  28.798  32.819  1.00  0.00     0.074 A 
ATOM     60  C   UNL A   1      43.011  27.762  32.005  1.00  0.00     0.031 C 
ATOM     61  C   UNL A   1      42.822  29.121  34.069  1.00  0.00     0.037 A 
BRANCH  48  62
ATOM     62  C   UNL A   1      39.678  33.769  36.646  1.00  0.00     0.064 A 
ATOM     63  C   UNL A   1      40.298  35.027  36.682  1.00  0.00     0.173 A 
ATOM     64  C   UNL A   1      38.862  33.408  37.728  1.00  0.00     0.173 A 
ATOM     65  F   UNL A   1      41.100  35.414  35.678  1.00  0.00    -0.203 F 
ATOM     66  C   UNL A   1      40.131  35.877  37.772  1.00  0.00     0.198 A 
ATOM     67  C   UNL A   1      38.674  34.272  38.803  1.00  0.00     0.198 A 
ATOM     68  F   UNL A   1      38.243  32.218  37.741  1.00  0.00    -0.203 F 
ATOM     69  F   UNL A   1      40.774  37.053  37.806  1.00  0.00    -0.200 F 
ATOM     70  C   UNL A   1      39.313  35.502  38.827  1.00  0.00     0.200 A 
ATOM     71  F   UNL A   1      37.874  33.914  39.817  1.00  0.00    -0.200 F 
ATOM     72  F   UNL A   1      39.149  36.325  39.873  1.00  0.00    -0.200 F 
ENDBRANCH  48  62
BRANCH  49  73
ATOM     73  C   UNL A   1      40.641  28.038  28.528  1.00  0.00     0.064 A 
ATOM     74  C   UNL A   1      41.417  28.488  27.451  1.00  0.00     0.173 A 
ATOM     75  C   UNL A   1      40.030  26.781  28.413  1.00  0.00     0.173 A 
ATOM     76  F   UNL A   1      42.003  29.693  27.506  1.00  0.00    -0.203 F 
ATOM     77  C   UNL A   1      41.559  27.722  26.296  1.00  0.00     0.198 A 
ATOM     78  C   UNL A   1      40.195  26.004  27.268  1.00  0.00     0.198 A 
ATOM     79  F   UNL A   1      39.282  26.304  29.418  1.00  0.00    -0.203 F 
ATOM     80  F   UNL A   1      42.269  28.196  25.264  1.00  0.00    -0.200 F 
ATOM     81  C   UNL A   1      40.952  26.478  26.208  1.00  0.00     0.200 A 
ATOM     82  F   UNL A   1      39.618  24.798  27.192  1.00  0.00    -0.200 F 
ATOM     83  F   UNL A   1      41.090  25.741  25.098  1.00  0.00    -0.200 F 
ENDBRANCH  49  73
BRANCH  61  84
ATOM     84  C   UNL A   1      43.952  28.323  34.647  1.00  0.00     0.064 A 
ATOM     85  C   UNL A   1      45.285  28.741  34.527  1.00  0.00     0.173 A 
ATOM     86  C   UNL A   1      43.694  27.147  35.367  1.00  0.00     0.173 A 
ATOM     87  F   UNL A   1      45.584  29.851  33.834  1.00  0.00    -0.203 F 
ATOM     88  C   UNL A   1      46.321  28.000  35.090  1.00  0.00     0.198 A 
ATOM     89  C   UNL A   1      44.729  26.423  35.952  1.00  0.00     0.198 A 
ATOM     90  F   UNL A   1      42.435  26.707  35.516  1.00  0.00    -0.203 F 
ATOM     91  F   UNL A   1      47.591  28.396  34.927  1.00  0.00    -0.200 F 
ATOM     92  C   UNL A   1      46.042  26.846  35.807  1.00  0.00     0.200 A 
ATOM     93  F   UNL A   1      44.457  25.315  36.655  1.00  0.00    -0.200 F 
ATOM     94  F   UNL A   1      47.039  26.138  36.354  1.00  0.00    -0.200 F 
ENDBRANCH  61  84
ENDBRANCH  35  36
ENDBRANCH  27  30
ENDBRANCH  25  26
ENDBRANCH  24  25
ENDBRANCH   1  24
TORSDOF 14
ENDMDL
MODEL 3
REMARK VINA RESULT:     -13.4      0.539      7.410
REMARK SMILES CC1(C(=O)N[C@@H](C(=O)NCCCCNC(=O)c2ccc(-c3c4nc(c(-c5c(F)c(F)c(F)c(F)c5F)c5ccc([nH]5)c(-c5c(F)c(F)c(F)c(F)c5F)c5nc(c(-c6c(F)c(F)c(F)c(F)c6F)c6ccc3[nH]6)C=C5)C=C4)cc2)c2ccccc2)CCCC1
REMARK SMILES IDX 11 1 10 2 9 3 7 4 8 5 6 7 5 8 3 9 4 10 2 12 1 13 86 14 89 15
REMARK SMILES IDX 87 16 88 17 80 18 81 19 85 20 82 21 84 22 83 23 12 24 13 25
REMARK SMILES IDX 14 26 15 27 16 29 17 30 18 31 79 32 19 33 78 34 20 35 21 36
REMARK SMILES IDX 22 37 72 38 23 39 77 40 71 41 73 42 24 43 76 44 70 45 69 46
REMARK SMILES IDX 25 48 57 49 37 50 56 51 38 52 41 53 55 54 74 55 39 56 40 57
REMARK SMILES IDX 54 59 75 60 42 61 26 62 27 63 35 64 28 65 29 66 33 67 36 68
REMARK SMILES IDX 30 69 31 70 34 71 32 72 58 73 59 74 67 75 60 76 61 77 65 78
REMARK SMILES IDX 68 79 62 80 63 81 66 82 64 83 43 84 44 85 52 86 45 87 46 88
REMARK SMILES IDX 50 89 53 90 47 91 48 92 51 93 49 94
REMARK H PARENT 9 6 5 11 14 28 73 47 41 58
REMARK Flexibility Score: inf
ROOT
ATOM      1  C   UNL A   1      32.095  30.322  26.810  1.00  0.00     0.023 C 
ENDROOT
BRANCH   1   2
ATOM      2  C   UNL A   1      31.708  29.627  25.515  1.00  0.00     0.116 C 
BRANCH   2   3
ATOM      3  N   UNL A   1      32.768  29.585  24.536  1.00  0.00    -0.354 N 
ATOM      4  C   UNL A   1      32.850  28.912  23.347  1.00  0.00     0.247 C 
ATOM      5  O   UNL A   1      33.726  29.327  22.578  1.00  0.00    -0.272 OA
ATOM      6  H   UNL A   1      33.559  30.127  24.759  1.00  0.00     0.163 HD
BRANCH   4   7
ATOM      7  C   UNL A   1      31.803  27.817  22.911  1.00  0.00     0.202 C 
BRANCH   7   8
ATOM      8  N   UNL A   1      32.223  27.049  21.739  1.00  0.00    -0.340 N 
ATOM      9  C   UNL A   1      32.695  25.790  21.561  1.00  0.00     0.226 C 
ATOM     10  O   UNL A   1      33.136  25.551  20.431  1.00  0.00    -0.274 OA
ATOM     11  H   UNL A   1      32.147  27.555  20.898  1.00  0.00     0.164 HD
BRANCH   9  12
ATOM     12  C   UNL A   1      32.751  24.727  22.679  1.00  0.00     0.046 C 
ATOM     13  C   UNL A   1      33.717  25.075  23.826  1.00  0.00     0.022 C 
ATOM     14  C   UNL A   1      33.197  23.376  22.068  1.00  0.00     0.016 C 
ATOM     15  C   UNL A   1      31.355  24.361  23.192  1.00  0.00     0.016 C 
ATOM     16  C   UNL A   1      32.695  22.313  23.033  1.00  0.00     0.001 C 
ATOM     17  C   UNL A   1      31.470  22.924  23.708  1.00  0.00     0.001 C 
ENDBRANCH   9  12
ENDBRANCH   7   8
BRANCH   7  18
ATOM     18  C   UNL A   1      30.439  28.465  22.669  1.00  0.00    -0.016 A 
ATOM     19  C   UNL A   1      30.304  29.685  21.985  1.00  0.00     0.006 A 
ATOM     20  C   UNL A   1      29.288  27.886  23.233  1.00  0.00     0.006 A 
ATOM     21  C   UNL A   1      29.055  30.300  21.860  1.00  0.00     0.000 A 
ATOM     22  C   UNL A   1      28.042  28.507  23.112  1.00  0.00     0.000 A 
ATOM     23  C   UNL A   1      27.927  29.713  22.426  1.00  0.00     0.000 A 
ENDBRANCH   7  18
ENDBRANCH   4   7
ENDBRANCH   2   3
ENDBRANCH   1   2
BRANCH   1  24
ATOM     24  C   UNL A   1      31.766  31.808  26.854  1.00  0.00     0.023 C 
BRANCH  24  25
ATOM     25  C   UNL A   1      32.879  32.706  27.384  1.00  0.00     0.116 C 
BRANCH  25  26
ATOM     26  N   UNL A   1      32.454  34.073  27.654  1.00  0.00    -0.352 N 
ATOM     27  C   UNL A   1      32.973  34.972  28.558  1.00  0.00     0.251 C 
ATOM     28  H   UNL A   1      31.695  34.397  27.118  1.00  0.00     0.163 HD
ATOM     29  O   UNL A   1      32.449  36.067  28.728  1.00  0.00    -0.269 OA
BRANCH  27  30
ATOM     30  C   UNL A   1      34.151  34.581  29.357  1.00  0.00     0.039 A 
ATOM     31  C   UNL A   1      33.957  34.089  30.650  1.00  0.00     0.014 A 
ATOM     32  C   UNL A   1      35.430  34.625  28.797  1.00  0.00     0.014 A 
ATOM     33  C   UNL A   1      35.039  33.554  31.349  1.00  0.00     0.010 A 
ATOM     34  C   UNL A   1      36.489  34.020  29.464  1.00  0.00     0.010 A 
ATOM     35  C   UNL A   1      36.303  33.471  30.743  1.00  0.00    -0.014 A 
BRANCH  35  36
ATOM     36  C   UNL A   1      37.442  32.803  31.418  1.00  0.00     0.031 A 
ATOM     37  C   UNL A   1      38.126  31.638  30.761  1.00  0.00     0.074 A 
ATOM     38  C   UNL A   1      37.806  33.190  32.657  1.00  0.00     0.049 A 
ATOM     39  N   UNL A   1      39.072  30.863  31.225  1.00  0.00    -0.248 NA
ATOM     40  C   UNL A   1      37.660  31.276  29.413  1.00  0.00     0.031 C 
ATOM     41  C   UNL A   1      37.182  34.269  33.425  1.00  0.00     0.029 A 
ATOM     42  N   UNL A   1      38.781  32.708  33.494  1.00  0.00    -0.354 N 
ATOM     43  C   UNL A   1      39.298  29.912  30.239  1.00  0.00     0.074 A 
ATOM     44  C   UNL A   1      38.357  30.175  29.173  1.00  0.00     0.031 C 
ATOM     45  C   UNL A   1      37.803  34.380  34.611  1.00  0.00     0.029 A 
ATOM     46  C   UNL A   1      38.844  33.361  34.702  1.00  0.00     0.049 A 
ATOM     47  H   UNL A   1      39.379  31.965  33.253  1.00  0.00     0.167 HD
ATOM     48  C   UNL A   1      40.223  28.924  30.215  1.00  0.00     0.037 A 
ATOM     49  C   UNL A   1      39.646  33.155  35.763  1.00  0.00     0.037 A 
ATOM     50  C   UNL A   1      41.184  28.690  31.259  1.00  0.00     0.049 A 
ATOM     51  C   UNL A   1      40.679  32.063  35.701  1.00  0.00     0.074 A 
ATOM     52  C   UNL A   1      42.208  27.759  31.297  1.00  0.00     0.029 A 
ATOM     53  N   UNL A   1      41.240  29.396  32.451  1.00  0.00    -0.354 N 
ATOM     54  N   UNL A   1      40.930  31.214  34.734  1.00  0.00    -0.248 NA
ATOM     55  C   UNL A   1      41.546  31.903  36.878  1.00  0.00     0.031 C 
ATOM     56  C   UNL A   1      42.862  27.879  32.528  1.00  0.00     0.029 A 
ATOM     57  C   UNL A   1      42.273  28.912  33.238  1.00  0.00     0.049 A 
ATOM     58  H   UNL A   1      40.636  30.133  32.701  1.00  0.00     0.167 HD
ATOM     59  C   UNL A   1      41.997  30.442  35.171  1.00  0.00     0.074 A 
ATOM     60  C   UNL A   1      42.356  30.930  36.486  1.00  0.00     0.031 C 
ATOM     61  C   UNL A   1      42.623  29.418  34.540  1.00  0.00     0.037 A 
BRANCH  48  62
ATOM     62  C   UNL A   1      40.248  28.030  29.011  1.00  0.00     0.064 A 
ATOM     63  C   UNL A   1      40.983  28.364  27.864  1.00  0.00     0.173 A 
ATOM     64  C   UNL A   1      39.557  26.810  29.016  1.00  0.00     0.173 A 
ATOM     65  F   UNL A   1      41.650  29.527  27.804  1.00  0.00    -0.203 F 
ATOM     66  C   UNL A   1      41.000  27.523  26.754  1.00  0.00     0.198 A 
ATOM     67  C   UNL A   1      39.600  25.957  27.916  1.00  0.00     0.198 A 
ATOM     68  F   UNL A   1      38.843  26.441  30.089  1.00  0.00    -0.203 F 
ATOM     69  F   UNL A   1      41.669  27.887  25.650  1.00  0.00    -0.200 F 
ATOM     70  C   UNL A   1      40.315  26.318  26.784  1.00  0.00     0.200 A 
ATOM     71  F   UNL A   1      38.948  24.788  27.950  1.00  0.00    -0.200 F 
ATOM     72  F   UNL A   1      40.338  25.506  25.717  1.00  0.00    -0.200 F 
ENDBRANCH  48  62
BRANCH  49  73
ATOM     73  C   UNL A   1      39.528  34.021  36.964  1.00  0.00     0.064 A 
ATOM     74  C   UNL A   1      38.770  33.613  38.071  1.00  0.00     0.173 A 
ATOM     75  C   UNL A   1      40.159  35.272  37.030  1.00  0.00     0.173 A 
ATOM     76  F   UNL A   1      38.131  32.434  38.046  1.00  0.00    -0.203 F 
ATOM     77  C   UNL A   1      38.630  34.431  39.189  1.00  0.00     0.198 A 
ATOM     78  C   UNL A   1      40.039  36.078  38.160  1.00  0.00     0.198 A 
ATOM     79  F   UNL A   1      40.899  35.705  36.000  1.00  0.00    -0.203 F 
ATOM     80  F   UNL A   1      37.862  34.036  40.214  1.00  0.00    -0.200 F 
ATOM     81  C   UNL A   1      39.269  35.661  39.235  1.00  0.00     0.200 A 
ATOM     82  F   UNL A   1      40.669  37.260  38.206  1.00  0.00    -0.200 F 
ATOM     83  F   UNL A   1      39.135  36.448  40.311  1.00  0.00    -0.200 F 
ENDBRANCH  49  73
BRANCH  61  84
ATOM     84  C   UNL A   1      43.782  28.782  35.247  1.00  0.00     0.064 A 
ATOM     85  C   UNL A   1      43.601  27.730  36.157  1.00  0.00     0.173 A 
ATOM     86  C   UNL A   1      45.093  29.201  34.977  1.00  0.00     0.173 A 
ATOM     87  F   UNL A   1      42.363  27.306  36.459  1.00  0.00    -0.203 F 
ATOM     88  C   UNL A   1      44.690  27.135  36.787  1.00  0.00     0.198 A 
ATOM     89  C   UNL A   1      46.182  28.585  35.588  1.00  0.00     0.198 A 
ATOM     90  F   UNL A   1      45.320  30.198  34.109  1.00  0.00    -0.203 F 
ATOM     91  F   UNL A   1      44.491  26.160  37.685  1.00  0.00    -0.200 F 
ATOM     92  C   UNL A   1      45.978  27.557  36.497  1.00  0.00     0.200 A 
ATOM     93  F   UNL A   1      47.427  28.986  35.298  1.00  0.00    -0.200 F 
ATOM     94  F   UNL A   1      47.026  26.979  37.099  1.00  0.00    -0.200 F 
ENDBRANCH  61  84
ENDBRANCH  35  36
ENDBRANCH  27  30
ENDBRANCH  25  26
ENDBRANCH  24  25
ENDBRANCH   1  24
TORSDOF 14
ENDMDL
