MODEL 1
REMARK VINA RESULT:     -11.2      0.000      0.000
REMARK SMILES C=CC[C@H](CNC(=O)OC(C)(C)C)C(=O)NCCCCNC(=O)c1ccc(-c2c3nc(c(-c4c(F)c(F)c(F)c(F)c4F)c4ccc([nH]4)c(-c4c(F)c(F)c(F)c(F)c4F)c4nc(c(-c5c(F)c(F)c(F)c(F)c5F)c5ccc2[nH]5)C=C4)C=C3)cc1
REMARK SMILES IDX 17 1 16 2 14 3 15 4 4 6 3 7 2 8 1 9 5 10 6 11 7 12 8 14 9 15
REMARK SMILES IDX 10 16 11 17 12 18 13 19 18 20 19 21 20 22 21 23 22 24 23 26
REMARK SMILES IDX 24 27 25 28 86 29 26 30 85 31 27 32 28 33 29 34 79 35 30 36
REMARK SMILES IDX 84 37 78 38 80 39 31 40 83 41 77 42 76 43 32 45 64 46 44 47
REMARK SMILES IDX 63 48 45 49 48 50 62 51 81 52 46 53 47 54 61 56 82 57 49 58
REMARK SMILES IDX 33 59 34 60 42 61 35 62 36 63 40 64 43 65 37 66 38 67 41 68
REMARK SMILES IDX 39 69 65 70 66 71 74 72 67 73 68 74 72 75 75 76 69 77 70 78
REMARK SMILES IDX 73 79 71 80 50 81 51 82 59 83 52 84 53 85 57 86 60 87 54 88
REMARK SMILES IDX 55 89 58 90 56 91
REMARK H PARENT 16 5 6 13 21 25 80 44 48 55
REMARK Flexibility Score: inf
ROOT
ATOM      1  C   UNL A   1      31.916  29.790  25.335  1.00  0.00     0.116 C 
ENDROOT
BRANCH   1   2
ATOM      2  N   UNL A   1      30.813  30.254  24.528  1.00  0.00    -0.356 N 
ATOM      3  C   UNL A   1      30.119  29.626  23.544  1.00  0.00     0.225 C 
ATOM      4  O   UNL A   1      29.270  30.292  22.944  1.00  0.00    -0.275 OA
ATOM      5  H   UNL A   1      30.517  31.173  24.721  1.00  0.00     0.163 HD
BRANCH   3   6
ATOM      6  C   UNL A   1      30.368  28.168  23.166  1.00  0.00     0.101 C 
BRANCH   6   7
ATOM      7  C   UNL A   1      29.694  27.124  24.080  1.00  0.00     0.042 C 
BRANCH   7   8
ATOM      8  C   UNL A   1      30.556  26.613  25.206  1.00  0.00    -0.034 C 
ATOM      9  C   UNL A   1      30.231  25.595  26.012  1.00  0.00     0.004 C 
ENDBRANCH   7   8
ENDBRANCH   6   7
BRANCH   6  10
ATOM     10  C   UNL A   1      31.864  27.933  22.855  1.00  0.00     0.133 C 
BRANCH  10  11
ATOM     11  N   UNL A   1      32.131  27.013  21.763  1.00  0.00    -0.321 N 
ATOM     12  C   UNL A   1      33.048  26.011  21.712  1.00  0.00     0.407 C 
ATOM     13  H   UNL A   1      31.576  27.127  20.957  1.00  0.00     0.167 HD
ATOM     14  O   UNL A   1      33.212  25.386  20.673  1.00  0.00    -0.225 OA
BRANCH  12  15
ATOM     15  O   UNL A   1      33.682  25.804  22.884  1.00  0.00    -0.444 OA
BRANCH  15  16
ATOM     16  C   UNL A   1      33.512  24.550  23.591  1.00  0.00     0.106 C 
ATOM     17  C   UNL A   1      33.730  24.701  25.103  1.00  0.00     0.056 C 
ATOM     18  C   UNL A   1      32.145  23.939  23.267  1.00  0.00     0.056 C 
ATOM     19  C   UNL A   1      34.614  23.637  23.036  1.00  0.00     0.056 C 
ENDBRANCH  15  16
ENDBRANCH  12  15
ENDBRANCH  10  11
ENDBRANCH   6  10
ENDBRANCH   3   6
ENDBRANCH   1   2
BRANCH   1  20
ATOM     20  C   UNL A   1      31.856  30.380  26.740  1.00  0.00     0.023 C 
BRANCH  20  21
ATOM     21  C   UNL A   1      31.649  31.893  26.756  1.00  0.00     0.023 C 
BRANCH  21  22
ATOM     22  C   UNL A   1      32.787  32.677  27.398  1.00  0.00     0.116 C 
BRANCH  22  23
ATOM     23  N   UNL A   1      32.453  34.073  27.638  1.00  0.00    -0.352 N 
ATOM     24  C   UNL A   1      33.002  34.932  28.559  1.00  0.00     0.251 C 
ATOM     25  H   UNL A   1      31.745  34.450  27.067  1.00  0.00     0.163 HD
ATOM     26  O   UNL A   1      32.519  36.043  28.746  1.00  0.00    -0.269 OA
BRANCH  24  27
ATOM     27  C   UNL A   1      34.161  34.479  29.349  1.00  0.00     0.039 A 
ATOM     28  C   UNL A   1      33.939  33.849  30.574  1.00  0.00     0.014 A 
ATOM     29  C   UNL A   1      35.457  34.621  28.845  1.00  0.00     0.014 A 
ATOM     30  C   UNL A   1      35.019  33.298  31.264  1.00  0.00     0.010 A 
ATOM     31  C   UNL A   1      36.517  33.995  29.489  1.00  0.00     0.010 A 
ATOM     32  C   UNL A   1      36.310  33.330  30.707  1.00  0.00    -0.014 A 
BRANCH  32  33
ATOM     33  C   UNL A   1      37.455  32.671  31.384  1.00  0.00     0.031 A 
ATOM     34  C   UNL A   1      38.167  31.530  30.713  1.00  0.00     0.074 A 
ATOM     35  C   UNL A   1      37.813  33.063  32.621  1.00  0.00     0.049 A 
ATOM     36  N   UNL A   1      39.150  30.790  31.163  1.00  0.00    -0.248 NA
ATOM     37  C   UNL A   1      37.696  31.150  29.372  1.00  0.00     0.031 C 
ATOM     38  C   UNL A   1      37.166  34.125  33.394  1.00  0.00     0.029 A 
ATOM     39  N   UNL A   1      38.805  32.606  33.454  1.00  0.00    -0.354 N 
ATOM     40  C   UNL A   1      39.404  29.856  30.168  1.00  0.00     0.074 A 
ATOM     41  C   UNL A   1      38.433  30.080  29.118  1.00  0.00     0.031 C 
ATOM     42  C   UNL A   1      37.796  34.259  34.573  1.00  0.00     0.029 A 
ATOM     43  C   UNL A   1      38.859  33.263  34.659  1.00  0.00     0.049 A 
ATOM     44  H   UNL A   1      39.418  31.877  33.209  1.00  0.00     0.167 HD
ATOM     45  C   UNL A   1      40.376  28.915  30.121  1.00  0.00     0.037 A 
ATOM     46  C   UNL A   1      39.670  33.076  35.718  1.00  0.00     0.037 A 
ATOM     47  C   UNL A   1      41.350  28.711  31.161  1.00  0.00     0.049 A 
ATOM     48  C   UNL A   1      40.727  32.005  35.649  1.00  0.00     0.074 A 
ATOM     49  C   UNL A   1      42.411  27.822  31.184  1.00  0.00     0.029 A 
ATOM     50  N   UNL A   1      41.377  29.399  32.365  1.00  0.00    -0.354 N 
ATOM     51  N   UNL A   1      41.007  31.178  34.671  1.00  0.00    -0.248 NA
ATOM     52  C   UNL A   1      41.585  31.846  36.831  1.00  0.00     0.031 C 
ATOM     53  C   UNL A   1      43.041  27.929  32.427  1.00  0.00     0.029 A 
ATOM     54  C   UNL A   1      42.419  28.933  33.151  1.00  0.00     0.049 A 
ATOM     55  H   UNL A   1      40.750  30.113  32.622  1.00  0.00     0.167 HD
ATOM     56  C   UNL A   1      42.093  30.427  35.103  1.00  0.00     0.074 A 
ATOM     57  C   UNL A   1      42.430  30.908  36.427  1.00  0.00     0.031 C 
ATOM     58  C   UNL A   1      42.750  29.429  34.463  1.00  0.00     0.037 A 
BRANCH  45  59
ATOM     59  C   UNL A   1      40.434  28.031  28.907  1.00  0.00     0.064 A 
ATOM     60  C   UNL A   1      39.735  26.815  28.845  1.00  0.00     0.173 A 
ATOM     61  C   UNL A   1      41.164  28.425  27.776  1.00  0.00     0.173 A 
ATOM     62  F   UNL A   1      39.032  26.386  29.904  1.00  0.00    -0.203 F 
ATOM     63  C   UNL A   1      39.789  26.014  27.707  1.00  0.00     0.198 A 
ATOM     64  C   UNL A   1      41.186  27.638  26.627  1.00  0.00     0.198 A 
ATOM     65  F   UNL A   1      41.846  29.580  27.778  1.00  0.00    -0.203 F 
ATOM     66  F   UNL A   1      39.157  24.832  27.692  1.00  0.00    -0.200 F 
ATOM     67  C   UNL A   1      40.507  26.431  26.597  1.00  0.00     0.200 A 
ATOM     68  F   UNL A   1      41.867  28.050  25.548  1.00  0.00    -0.200 F 
ATOM     69  F   UNL A   1      40.548  25.663  25.498  1.00  0.00    -0.200 F 
ENDBRANCH  45  59
BRANCH  46  70
ATOM     70  C   UNL A   1      39.529  33.928  36.929  1.00  0.00     0.064 A 
ATOM     71  C   UNL A   1      38.768  33.500  38.027  1.00  0.00     0.173 A 
ATOM     72  C   UNL A   1      40.129  35.193  37.008  1.00  0.00     0.173 A 
ATOM     73  F   UNL A   1      38.157  32.307  37.995  1.00  0.00    -0.203 F 
ATOM     74  C   UNL A   1      38.590  34.317  39.143  1.00  0.00     0.198 A 
ATOM     75  C   UNL A   1      39.979  35.994  38.137  1.00  0.00     0.198 A 
ATOM     76  F   UNL A   1      40.872  35.649  35.988  1.00  0.00    -0.203 F 
ATOM     77  F   UNL A   1      37.810  33.906  40.153  1.00  0.00    -0.200 F 
ATOM     78  C   UNL A   1      39.199  35.560  39.199  1.00  0.00     0.200 A 
ATOM     79  F   UNL A   1      40.585  37.188  38.195  1.00  0.00    -0.200 F 
ATOM     80  F   UNL A   1      39.029  36.345  40.272  1.00  0.00    -0.200 F 
ENDBRANCH  46  70
BRANCH  58  81
ATOM     81  C   UNL A   1      43.931  28.819  35.163  1.00  0.00     0.064 A 
ATOM     82  C   UNL A   1      45.229  29.327  35.007  1.00  0.00     0.173 A 
ATOM     83  C   UNL A   1      43.753  27.733  36.034  1.00  0.00     0.173 A 
ATOM     84  F   UNL A   1      45.457  30.355  34.176  1.00  0.00    -0.203 F 
ATOM     85  C   UNL A   1      46.309  28.751  35.674  1.00  0.00     0.198 A 
ATOM     86  C   UNL A   1      44.827  27.184  36.728  1.00  0.00     0.198 A 
ATOM     87  F   UNL A   1      42.531  27.213  36.227  1.00  0.00    -0.203 F 
ATOM     88  F   UNL A   1      47.547  29.218  35.467  1.00  0.00    -0.200 F 
ATOM     89  C   UNL A   1      46.105  27.687  36.540  1.00  0.00     0.200 A 
ATOM     90  F   UNL A   1      44.625  26.168  37.578  1.00  0.00    -0.200 F 
ATOM     91  F   UNL A   1      47.143  27.141  37.189  1.00  0.00    -0.200 F 
ENDBRANCH  58  81
ENDBRANCH  32  33
ENDBRANCH  24  27
ENDBRANCH  22  23
ENDBRANCH  21  22
ENDBRANCH  20  21
ENDBRANCH   1  20
TORSDOF 17
ENDMDL
MODEL 2
REMARK VINA RESULT:     -11.2      1.087      7.688
REMARK SMILES C=CC[C@H](CNC(=O)OC(C)(C)C)C(=O)NCCCCNC(=O)c1ccc(-c2c3nc(c(-c4c(F)c(F)c(F)c(F)c4F)c4ccc([nH]4)c(-c4c(F)c(F)c(F)c(F)c4F)c4nc(c(-c5c(F)c(F)c(F)c(F)c5F)c5ccc2[nH]5)C=C4)C=C3)cc1
REMARK SMILES IDX 17 1 16 2 14 3 15 4 4 6 3 7 2 8 1 9 5 10 6 11 7 12 8 14 9 15
REMARK SMILES IDX 10 16 11 17 12 18 13 19 18 20 19 21 20 22 21 23 22 24 23 26
REMARK SMILES IDX 24 27 25 28 86 29 26 30 85 31 27 32 28 33 29 34 79 35 30 36
REMARK SMILES IDX 84 37 78 38 80 39 31 40 83 41 77 42 76 43 32 45 64 46 44 47
REMARK SMILES IDX 63 48 45 49 48 50 62 51 81 52 46 53 47 54 61 56 82 57 49 58
REMARK SMILES IDX 33 59 34 60 42 61 35 62 36 63 40 64 43 65 37 66 38 67 41 68
REMARK SMILES IDX 39 69 65 70 66 71 74 72 67 73 68 74 72 75 75 76 69 77 70 78
REMARK SMILES IDX 73 79 71 80 50 81 51 82 59 83 52 84 53 85 57 86 60 87 54 88
REMARK SMILES IDX 55 89 58 90 56 91
REMARK H PARENT 16 5 6 13 21 25 80 44 48 55
REMARK Flexibility Score: inf
ROOT
ATOM      1  C   UNL A   1      31.055  30.183  24.962  1.00  0.00     0.116 C 
ENDROOT
BRANCH   1   2
ATOM      2  N   UNL A   1      32.065  29.703  24.050  1.00  0.00    -0.356 N 
ATOM      3  C   UNL A   1      32.803  28.563  24.077  1.00  0.00     0.225 C 
ATOM      4  O   UNL A   1      33.674  28.438  23.211  1.00  0.00    -0.275 OA
ATOM      5  H   UNL A   1      32.250  30.297  23.287  1.00  0.00     0.163 HD
BRANCH   3   6
ATOM      6  C   UNL A   1      32.594  27.475  25.128  1.00  0.00     0.101 C 
BRANCH   6   7
ATOM      7  C   UNL A   1      33.776  27.250  26.092  1.00  0.00     0.042 C 
BRANCH   7   8
ATOM      8  C   UNL A   1      33.982  28.342  27.111  1.00  0.00    -0.034 C 
ATOM      9  C   UNL A   1      34.972  29.242  27.072  1.00  0.00     0.004 C 
ENDBRANCH   7   8
ENDBRANCH   6   7
BRANCH   6  10
ATOM     10  C   UNL A   1      31.990  26.205  24.486  1.00  0.00     0.133 C 
BRANCH  10  11
ATOM     11  N   UNL A   1      32.735  25.668  23.360  1.00  0.00    -0.321 N 
ATOM     12  C   UNL A   1      33.687  24.698  23.369  1.00  0.00     0.407 C 
ATOM     13  H   UNL A   1      32.523  26.054  22.480  1.00  0.00     0.167 HD
ATOM     14  O   UNL A   1      34.292  24.428  22.339  1.00  0.00    -0.225 OA
BRANCH  12  15
ATOM     15  O   UNL A   1      33.839  24.105  24.570  1.00  0.00    -0.444 OA
BRANCH  15  16
ATOM     16  C   UNL A   1      33.373  22.748  24.776  1.00  0.00     0.106 C 
ATOM     17  C   UNL A   1      32.162  22.411  23.895  1.00  0.00     0.056 C 
ATOM     18  C   UNL A   1      34.522  21.755  24.576  1.00  0.00     0.056 C 
ATOM     19  C   UNL A   1      32.925  22.707  26.243  1.00  0.00     0.056 C 
ENDBRANCH  15  16
ENDBRANCH  12  15
ENDBRANCH  10  11
ENDBRANCH   6  10
ENDBRANCH   3   6
ENDBRANCH   1   2
BRANCH   1  20
ATOM     20  C   UNL A   1      31.675  30.650  26.275  1.00  0.00     0.023 C 
BRANCH  20  21
ATOM     21  C   UNL A   1      31.476  32.140  26.547  1.00  0.00     0.023 C 
BRANCH  21  22
ATOM     22  C   UNL A   1      32.611  32.795  27.325  1.00  0.00     0.116 C 
BRANCH  22  23
ATOM     23  N   UNL A   1      32.350  34.190  27.645  1.00  0.00    -0.352 N 
ATOM     24  C   UNL A   1      32.965  34.974  28.592  1.00  0.00     0.251 C 
ATOM     25  H   UNL A   1      31.645  34.628  27.116  1.00  0.00     0.163 HD
ATOM     26  O   UNL A   1      32.541  36.094  28.850  1.00  0.00    -0.269 OA
BRANCH  24  27
ATOM     27  C   UNL A   1      34.123  34.427  29.322  1.00  0.00     0.039 A 
ATOM     28  C   UNL A   1      33.902  33.696  30.490  1.00  0.00     0.014 A 
ATOM     29  C   UNL A   1      35.415  34.585  28.813  1.00  0.00     0.014 A 
ATOM     30  C   UNL A   1      34.977  33.063  31.113  1.00  0.00     0.010 A 
ATOM     31  C   UNL A   1      36.468  33.881  29.385  1.00  0.00     0.010 A 
ATOM     32  C   UNL A   1      36.261  33.116  30.542  1.00  0.00    -0.014 A 
BRANCH  32  33
ATOM     33  C   UNL A   1      37.399  32.375  31.141  1.00  0.00     0.031 A 
ATOM     34  C   UNL A   1      37.907  32.755  32.504  1.00  0.00     0.074 A 
ATOM     35  C   UNL A   1      38.008  31.404  30.435  1.00  0.00     0.049 A 
ATOM     36  N   UNL A   1      38.923  32.269  33.173  1.00  0.00    -0.248 NA
ATOM     37  C   UNL A   1      37.200  33.843  33.196  1.00  0.00     0.031 C 
ATOM     38  C   UNL A   1      37.638  30.980  29.084  1.00  0.00     0.029 A 
ATOM     39  N   UNL A   1      39.077  30.602  30.752  1.00  0.00    -0.354 N 
ATOM     40  C   UNL A   1      38.980  32.997  34.353  1.00  0.00     0.074 A 
ATOM     41  C   UNL A   1      37.939  34.000  34.284  1.00  0.00     0.031 C 
ATOM     42  C   UNL A   1      38.444  29.976  28.700  1.00  0.00     0.029 A 
ATOM     43  C   UNL A   1      39.417  29.717  29.757  1.00  0.00     0.049 A 
ATOM     44  H   UNL A   1      39.554  30.655  31.611  1.00  0.00     0.167 HD
ATOM     45  C   UNL A   1      39.807  32.829  35.411  1.00  0.00     0.037 A 
ATOM     46  C   UNL A   1      40.409  28.808  29.700  1.00  0.00     0.037 A 
ATOM     47  C   UNL A   1      40.828  31.817  35.481  1.00  0.00     0.049 A 
ATOM     48  C   UNL A   1      41.331  28.657  30.882  1.00  0.00     0.074 A 
ATOM     49  C   UNL A   1      41.682  31.525  36.531  1.00  0.00     0.029 A 
ATOM     50  N   UNL A   1      41.140  30.935  34.456  1.00  0.00    -0.354 N 
ATOM     51  N   UNL A   1      41.327  29.301  32.024  1.00  0.00    -0.248 NA
ATOM     52  C   UNL A   1      42.393  27.649  30.767  1.00  0.00     0.031 C 
ATOM     53  C   UNL A   1      42.550  30.511  36.119  1.00  0.00     0.029 A 
ATOM     54  C   UNL A   1      42.194  30.120  34.839  1.00  0.00     0.049 A 
ATOM     55  H   UNL A   1      40.681  30.895  33.586  1.00  0.00     0.167 HD
ATOM     56  C   UNL A   1      42.358  28.753  32.776  1.00  0.00     0.074 A 
ATOM     57  C   UNL A   1      42.956  27.713  31.965  1.00  0.00     0.031 C 
ATOM     58  C   UNL A   1      42.772  29.081  34.024  1.00  0.00     0.037 A 
BRANCH  45  59
ATOM     59  C   UNL A   1      39.646  33.759  36.579  1.00  0.00     0.064 A 
ATOM     60  C   UNL A   1      40.268  35.018  36.612  1.00  0.00     0.173 A 
ATOM     61  C   UNL A   1      38.827  33.406  37.662  1.00  0.00     0.173 A 
ATOM     62  F   UNL A   1      41.072  35.400  35.609  1.00  0.00    -0.203 F 
ATOM     63  C   UNL A   1      40.097  35.874  37.697  1.00  0.00     0.198 A 
ATOM     64  C   UNL A   1      38.630  34.280  38.728  1.00  0.00     0.198 A 
ATOM     65  F   UNL A   1      38.204  32.218  37.681  1.00  0.00    -0.203 F 
ATOM     66  F   UNL A   1      40.743  37.047  37.729  1.00  0.00    -0.200 F 
ATOM     67  C   UNL A   1      39.271  35.508  38.749  1.00  0.00     0.200 A 
ATOM     68  F   UNL A   1      37.818  33.931  39.737  1.00  0.00    -0.200 F 
ATOM     69  F   UNL A   1      39.099  36.339  39.787  1.00  0.00    -0.200 F 
ENDBRANCH  45  59
BRANCH  46  70
ATOM     70  C   UNL A   1      40.576  27.957  28.492  1.00  0.00     0.064 A 
ATOM     71  C   UNL A   1      41.330  28.400  27.396  1.00  0.00     0.173 A 
ATOM     72  C   UNL A   1      39.971  26.695  28.397  1.00  0.00     0.173 A 
ATOM     73  F   UNL A   1      41.912  29.608  27.428  1.00  0.00    -0.203 F 
ATOM     74  C   UNL A   1      41.446  27.628  26.241  1.00  0.00     0.198 A 
ATOM     75  C   UNL A   1      40.116  25.909  27.256  1.00  0.00     0.198 A 
ATOM     76  F   UNL A   1      39.243  26.220  29.418  1.00  0.00    -0.203 F 
ATOM     77  F   UNL A   1      42.123  28.103  25.186  1.00  0.00    -0.200 F 
ATOM     78  C   UNL A   1      40.843  26.382  26.174  1.00  0.00     0.200 A 
ATOM     79  F   UNL A   1      39.547  24.697  27.202  1.00  0.00    -0.200 F 
ATOM     80  F   UNL A   1      40.956  25.639  25.064  1.00  0.00    -0.200 F 
ENDBRANCH  46  70
BRANCH  58  81
ATOM     81  C   UNL A   1      43.898  28.279  34.612  1.00  0.00     0.064 A 
ATOM     82  C   UNL A   1      45.240  28.644  34.436  1.00  0.00     0.173 A 
ATOM     83  C   UNL A   1      43.624  27.148  35.398  1.00  0.00     0.173 A 
ATOM     84  F   UNL A   1      45.557  29.708  33.683  1.00  0.00    -0.203 F 
ATOM     85  C   UNL A   1      46.268  27.890  34.998  1.00  0.00     0.198 A 
ATOM     86  C   UNL A   1      44.652  26.418  35.990  1.00  0.00     0.198 A 
ATOM     87  F   UNL A   1      42.357  26.758  35.607  1.00  0.00    -0.203 F 
ATOM     88  F   UNL A   1      47.545  28.226  34.770  1.00  0.00    -0.200 F 
ATOM     89  C   UNL A   1      45.973  26.784  35.782  1.00  0.00     0.200 A 
ATOM     90  F   UNL A   1      44.363  25.362  36.762  1.00  0.00    -0.200 F 
ATOM     91  F   UNL A   1      46.962  26.066  36.331  1.00  0.00    -0.200 F 
ENDBRANCH  58  81
ENDBRANCH  32  33
ENDBRANCH  24  27
ENDBRANCH  22  23
ENDBRANCH  21  22
ENDBRANCH  20  21
ENDBRANCH   1  20
TORSDOF 17
ENDMDL
MODEL 3
REMARK VINA RESULT:     -11.1      5.811     11.324
REMARK SMILES C=CC[C@H](CNC(=O)OC(C)(C)C)C(=O)NCCCCNC(=O)c1ccc(-c2c3nc(c(-c4c(F)c(F)c(F)c(F)c4F)c4ccc([nH]4)c(-c4c(F)c(F)c(F)c(F)c4F)c4nc(c(-c5c(F)c(F)c(F)c(F)c5F)c5ccc2[nH]5)C=C4)C=C3)cc1
REMARK SMILES IDX 17 1 16 2 14 3 15 4 4 6 3 7 2 8 1 9 5 10 6 11 7 12 8 14 9 15
REMARK SMILES IDX 10 16 11 17 12 18 13 19 18 20 19 21 20 22 21 23 22 24 23 26
REMARK SMILES IDX 24 27 25 28 86 29 26 30 85 31 27 32 28 33 29 34 79 35 30 36
REMARK SMILES IDX 84 37 78 38 80 39 31 40 83 41 77 42 76 43 32 45 64 46 44 47
REMARK SMILES IDX 63 48 45 49 48 50 62 51 81 52 46 53 47 54 61 56 82 57 49 58
REMARK SMILES IDX 33 59 34 60 42 61 35 62 36 63 40 64 43 65 37 66 38 67 41 68
REMARK SMILES IDX 39 69 65 70 66 71 74 72 67 73 68 74 72 75 75 76 69 77 70 78
REMARK SMILES IDX 73 79 71 80 50 81 51 82 59 83 52 84 53 85 57 86 60 87 54 88
REMARK SMILES IDX 55 89 58 90 56 91
REMARK H PARENT 16 5 6 13 21 25 80 44 48 55
REMARK Flexibility Score: inf
ROOT
ATOM      1  C   UNL A   1      36.017  21.432  25.345  1.00  0.00     0.116 C 
ENDROOT
BRANCH   1   2
ATOM      2  N   UNL A   1      34.942  21.634  24.403  1.00  0.00    -0.356 N 
ATOM      3  C   UNL A   1      33.984  22.595  24.355  1.00  0.00     0.225 C 
ATOM      4  O   UNL A   1      33.118  22.482  23.482  1.00  0.00    -0.275 OA
ATOM      5  H   UNL A   1      34.895  20.967  23.680  1.00  0.00     0.163 HD
BRANCH   3   6
ATOM      6  C   UNL A   1      33.950  23.768  25.333  1.00  0.00     0.101 C 
BRANCH   6   7
ATOM      7  C   UNL A   1      32.687  23.857  26.214  1.00  0.00     0.042 C 
BRANCH   7   8
ATOM      8  C   UNL A   1      32.463  22.677  27.125  1.00  0.00    -0.034 C 
ATOM      9  C   UNL A   1      33.366  22.204  27.992  1.00  0.00     0.004 C 
ENDBRANCH   7   8
ENDBRANCH   6   7
BRANCH   6  10
ATOM     10  C   UNL A   1      34.383  25.076  24.631  1.00  0.00     0.133 C 
BRANCH  10  11
ATOM     11  N   UNL A   1      34.218  25.086  23.187  1.00  0.00    -0.321 N 
ATOM     12  C   UNL A   1      33.388  25.860  22.441  1.00  0.00     0.407 C 
ATOM     13  H   UNL A   1      34.782  24.453  22.686  1.00  0.00     0.167 HD
ATOM     14  O   UNL A   1      33.300  25.674  21.235  1.00  0.00    -0.225 OA
BRANCH  12  15
ATOM     15  O   UNL A   1      32.745  26.804  23.158  1.00  0.00    -0.444 OA
BRANCH  15  16
ATOM     16  C   UNL A   1      31.335  26.652  23.462  1.00  0.00     0.106 C 
ATOM     17  C   UNL A   1      30.841  25.220  23.222  1.00  0.00     0.056 C 
ATOM     18  C   UNL A   1      31.045  27.129  24.888  1.00  0.00     0.056 C 
ATOM     19  C   UNL A   1      30.620  27.579  22.469  1.00  0.00     0.056 C 
ENDBRANCH  15  16
ENDBRANCH  12  15
ENDBRANCH  10  11
ENDBRANCH   6  10
ENDBRANCH   3   6
ENDBRANCH   1   2
BRANCH   1  20
ATOM     20  C   UNL A   1      37.361  21.324  24.631  1.00  0.00     0.023 C 
BRANCH  20  21
ATOM     21  C   UNL A   1      38.144  20.065  24.999  1.00  0.00     0.023 C 
BRANCH  21  22
ATOM     22  C   UNL A   1      39.327  20.309  25.928  1.00  0.00     0.116 C 
BRANCH  22  23
ATOM     23  N   UNL A   1      40.251  19.186  25.982  1.00  0.00    -0.352 N 
ATOM     24  C   UNL A   1      41.617  19.216  26.130  1.00  0.00     0.251 C 
ATOM     25  H   UNL A   1      39.846  18.293  25.902  1.00  0.00     0.163 HD
ATOM     26  O   UNL A   1      42.283  18.194  26.012  1.00  0.00    -0.269 OA
BRANCH  24  27
ATOM     27  C   UNL A   1      42.274  20.508  26.397  1.00  0.00     0.039 A 
ATOM     28  C   UNL A   1      42.738  21.265  25.321  1.00  0.00     0.014 A 
ATOM     29  C   UNL A   1      42.367  20.995  27.704  1.00  0.00     0.014 A 
ATOM     30  C   UNL A   1      43.238  22.546  25.552  1.00  0.00     0.010 A 
ATOM     31  C   UNL A   1      42.783  22.303  27.921  1.00  0.00     0.010 A 
ATOM     32  C   UNL A   1      43.226  23.091  26.848  1.00  0.00    -0.014 A 
BRANCH  32  33
ATOM     33  C   UNL A   1      43.671  24.484  27.100  1.00  0.00     0.031 A 
ATOM     34  C   UNL A   1      42.690  25.506  27.602  1.00  0.00     0.074 A 
ATOM     35  C   UNL A   1      44.939  24.840  26.821  1.00  0.00     0.049 A 
ATOM     36  N   UNL A   1      42.869  26.783  27.829  1.00  0.00    -0.248 NA
ATOM     37  C   UNL A   1      41.318  25.039  27.858  1.00  0.00     0.031 C 
ATOM     38  C   UNL A   1      45.970  23.949  26.283  1.00  0.00     0.029 A 
ATOM     39  N   UNL A   1      45.578  26.049  26.942  1.00  0.00    -0.354 N 
ATOM     40  C   UNL A   1      41.636  27.270  28.241  1.00  0.00     0.074 A 
ATOM     41  C   UNL A   1      40.701  26.168  28.173  1.00  0.00     0.031 C 
ATOM     42  C   UNL A   1      47.118  24.634  26.149  1.00  0.00     0.029 A 
ATOM     43  C   UNL A   1      46.894  26.020  26.547  1.00  0.00     0.049 A 
ATOM     44  H   UNL A   1      45.135  26.860  27.281  1.00  0.00     0.167 HD
ATOM     45  C   UNL A   1      41.318  28.516  28.664  1.00  0.00     0.037 A 
ATOM     46  C   UNL A   1      47.813  27.003  26.502  1.00  0.00     0.037 A 
ATOM     47  C   UNL A   1      42.258  29.603  28.746  1.00  0.00     0.049 A 
ATOM     48  C   UNL A   1      47.425  28.387  26.956  1.00  0.00     0.074 A 
ATOM     49  C   UNL A   1      42.049  30.888  29.215  1.00  0.00     0.029 A 
ATOM     50  N   UNL A   1      43.584  29.534  28.343  1.00  0.00    -0.354 N 
ATOM     51  N   UNL A   1      46.275  28.817  27.416  1.00  0.00    -0.248 NA
ATOM     52  C   UNL A   1      48.467  29.420  26.888  1.00  0.00     0.031 C 
ATOM     53  C   UNL A   1      43.230  31.614  29.038  1.00  0.00     0.029 A 
ATOM     54  C   UNL A   1      44.196  30.764  28.525  1.00  0.00     0.049 A 
ATOM     55  H   UNL A   1      44.023  28.731  27.981  1.00  0.00     0.167 HD
ATOM     56  C   UNL A   1      46.464  30.158  27.725  1.00  0.00     0.074 A 
ATOM     57  C   UNL A   1      47.845  30.465  27.415  1.00  0.00     0.031 C 
ATOM     58  C   UNL A   1      45.575  31.053  28.221  1.00  0.00     0.037 A 
BRANCH  45  59
ATOM     59  C   UNL A   1      39.894  28.774  29.067  1.00  0.00     0.064 A 
ATOM     60  C   UNL A   1      38.931  29.208  28.142  1.00  0.00     0.173 A 
ATOM     61  C   UNL A   1      39.477  28.545  30.387  1.00  0.00     0.173 A 
ATOM     62  F   UNL A   1      39.280  29.454  26.870  1.00  0.00    -0.203 F 
ATOM     63  C   UNL A   1      37.612  29.429  28.530  1.00  0.00     0.198 A 
ATOM     64  C   UNL A   1      38.149  28.733  30.763  1.00  0.00     0.198 A 
ATOM     65  F   UNL A   1      40.353  28.124  31.312  1.00  0.00    -0.203 F 
ATOM     66  F   UNL A   1      36.724  29.895  27.642  1.00  0.00    -0.200 F 
ATOM     67  C   UNL A   1      37.221  29.183  29.837  1.00  0.00     0.200 A 
ATOM     68  F   UNL A   1      37.769  28.479  32.023  1.00  0.00    -0.200 F 
ATOM     69  F   UNL A   1      35.948  29.386  30.206  1.00  0.00    -0.200 F 
ENDBRANCH  45  59
BRANCH  46  70
ATOM     70  C   UNL A   1      49.192  26.718  26.026  1.00  0.00     0.064 A 
ATOM     71  C   UNL A   1      49.564  26.971  24.698  1.00  0.00     0.173 A 
ATOM     72  C   UNL A   1      50.161  26.168  26.878  1.00  0.00     0.173 A 
ATOM     73  F   UNL A   1      48.670  27.479  23.837  1.00  0.00    -0.203 F 
ATOM     74  C   UNL A   1      50.841  26.657  24.234  1.00  0.00     0.198 A 
ATOM     75  C   UNL A   1      51.447  25.886  26.423  1.00  0.00     0.198 A 
ATOM     76  F   UNL A   1      49.861  25.910  28.160  1.00  0.00    -0.203 F 
ATOM     77  F   UNL A   1      51.149  26.855  22.945  1.00  0.00    -0.200 F 
ATOM     78  C   UNL A   1      51.782  26.120  25.097  1.00  0.00     0.200 A 
ATOM     79  F   UNL A   1      52.360  25.383  27.265  1.00  0.00    -0.200 F 
ATOM     80  F   UNL A   1      53.009  25.818  24.651  1.00  0.00    -0.200 F 
ENDBRANCH  46  70
BRANCH  58  81
ATOM     81  C   UNL A   1      46.076  32.441  28.504  1.00  0.00     0.064 A 
ATOM     82  C   UNL A   1      46.003  33.465  27.549  1.00  0.00     0.173 A 
ATOM     83  C   UNL A   1      46.603  32.758  29.766  1.00  0.00     0.173 A 
ATOM     84  F   UNL A   1      45.522  33.212  26.322  1.00  0.00    -0.203 F 
ATOM     85  C   UNL A   1      46.465  34.747  27.836  1.00  0.00     0.198 A 
ATOM     86  C   UNL A   1      47.029  34.050  30.063  1.00  0.00     0.198 A 
ATOM     87  F   UNL A   1      46.688  31.819  30.720  1.00  0.00    -0.203 F 
ATOM     88  F   UNL A   1      46.436  35.695  26.890  1.00  0.00    -0.200 F 
ATOM     89  C   UNL A   1      46.969  35.041  29.094  1.00  0.00     0.200 A 
ATOM     90  F   UNL A   1      47.497  34.335  31.285  1.00  0.00    -0.200 F 
ATOM     91  F   UNL A   1      47.403  36.277  29.373  1.00  0.00    -0.200 F 
ENDBRANCH  58  81
ENDBRANCH  32  33
ENDBRANCH  24  27
ENDBRANCH  22  23
ENDBRANCH  21  22
ENDBRANCH  20  21
ENDBRANCH   1  20
TORSDOF 17
ENDMDL
