MODEL 1
REMARK VINA RESULT:     -12.4      0.000      0.000
REMARK SMILES CN(CC(=O)NCCCCNC(=O)c1ccc(-c2c3nc(c(-c4c(F)c(F)c(F)c(F)c4F)c4ccc([nH]4)c(-c4c(F)c(F)c(F)c(F)c4F)c4nc(c(-c5c(F)c(F)c(F)c(F)c5F)c5ccc2[nH]5)C=C4)C=C3)cc1)c1nc2cc(N)ccc2[nH]1
REMARK SMILES IDX 8 1 7 2 6 3 4 4 5 5 3 7 2 8 1 9 77 10 78 11 86 12 79 13
REMARK SMILES IDX 85 14 80 16 84 17 81 18 83 19 82 20 9 23 10 24 11 25 12 26
REMARK SMILES IDX 13 28 14 29 15 30 76 31 16 32 75 33 17 34 18 35 19 36 69 37
REMARK SMILES IDX 20 38 74 39 68 40 70 41 21 42 73 43 67 44 66 45 22 47 54 48
REMARK SMILES IDX 34 49 53 50 35 51 38 52 52 53 71 54 36 55 37 56 51 58 72 59
REMARK SMILES IDX 39 60 23 61 24 62 32 63 25 64 26 65 30 66 33 67 27 68 28 69
REMARK SMILES IDX 31 70 29 71 55 72 56 73 64 74 57 75 58 76 62 77 65 78 59 79
REMARK SMILES IDX 60 80 63 81 61 82 40 83 41 84 49 85 42 86 43 87 47 88 50 89
REMARK SMILES IDX 44 90 45 91 48 92 46 93
REMARK H PARENT 6 6 86 15 82 21 82 22 11 27 70 46 38 57
REMARK Flexibility Score: inf
ROOT
ATOM      1  C   UNL A   1      31.874  30.470  26.836  1.00  0.00     0.023 C 
ENDROOT
BRANCH   1   2
ATOM      2  C   UNL A   1      32.593  29.969  25.587  1.00  0.00     0.116 C 
BRANCH   2   3
ATOM      3  N   UNL A   1      33.101  28.625  25.726  1.00  0.00    -0.355 N 
ATOM      4  C   UNL A   1      32.495  27.453  25.356  1.00  0.00     0.239 C 
ATOM      5  O   UNL A   1      33.177  26.423  25.369  1.00  0.00    -0.273 OA
ATOM      6  H   UNL A   1      33.992  28.540  26.135  1.00  0.00     0.163 HD
BRANCH   4   7
ATOM      7  C   UNL A   1      31.054  27.471  24.817  1.00  0.00     0.219 C 
BRANCH   7   8
ATOM      8  N   UNL A   1      30.942  27.745  23.368  1.00  0.00    -0.336 N 
ATOM      9  C   UNL A   1      31.444  26.768  22.426  1.00  0.00     0.147 C 
BRANCH   8  10
ATOM     10  C   UNL A   1      30.181  28.806  23.003  1.00  0.00     0.204 A 
ATOM     11  N   UNL A   1      29.703  29.042  21.805  1.00  0.00    -0.213 NA
ATOM     12  N   UNL A   1      29.860  29.834  23.857  1.00  0.00    -0.324 N 
ATOM     13  C   UNL A   1      29.127  30.280  21.859  1.00  0.00     0.093 A 
ATOM     14  C   UNL A   1      29.237  30.820  23.131  1.00  0.00     0.067 A 
ATOM     15  H   UNL A   1      30.045  29.859  24.823  1.00  0.00     0.170 HD
ATOM     16  C   UNL A   1      28.512  31.017  20.839  1.00  0.00     0.056 A 
ATOM     17  C   UNL A   1      28.778  32.098  23.451  1.00  0.00     0.030 A 
ATOM     18  C   UNL A   1      28.081  32.320  21.105  1.00  0.00     0.034 A 
ATOM     19  C   UNL A   1      28.195  32.832  22.404  1.00  0.00     0.028 A 
BRANCH  18  20
ATOM     20  N   UNL A   1      27.437  33.051  20.114  1.00  0.00    -0.399 N 
ATOM     21  H   UNL A   1      26.676  32.658  19.628  1.00  0.00     0.156 HD
ATOM     22  H   UNL A   1      27.743  33.961  19.897  1.00  0.00     0.156 HD
ENDBRANCH  18  20
ENDBRANCH   8  10
ENDBRANCH   7   8
ENDBRANCH   4   7
ENDBRANCH   2   3
ENDBRANCH   1   2
BRANCH   1  23
ATOM     23  C   UNL A   1      31.619  31.977  26.875  1.00  0.00     0.023 C 
BRANCH  23  24
ATOM     24  C   UNL A   1      32.826  32.840  27.231  1.00  0.00     0.116 C 
BRANCH  24  25
ATOM     25  N   UNL A   1      32.468  34.190  27.640  1.00  0.00    -0.352 N 
ATOM     26  C   UNL A   1      33.013  34.974  28.631  1.00  0.00     0.251 C 
ATOM     27  H   UNL A   1      31.731  34.602  27.134  1.00  0.00     0.163 HD
ATOM     28  O   UNL A   1      32.507  36.050  28.912  1.00  0.00    -0.269 OA
BRANCH  26  29
ATOM     29  C   UNL A   1      34.190  34.491  29.385  1.00  0.00     0.039 A 
ATOM     30  C   UNL A   1      33.992  33.921  30.646  1.00  0.00     0.014 A 
ATOM     31  C   UNL A   1      35.479  34.584  28.854  1.00  0.00     0.014 A 
ATOM     32  C   UNL A   1      35.076  33.379  31.340  1.00  0.00     0.010 A 
ATOM     33  C   UNL A   1      36.545  33.978  29.512  1.00  0.00     0.010 A 
ATOM     34  C   UNL A   1      36.355  33.365  30.760  1.00  0.00    -0.014 A 
BRANCH  34  35
ATOM     35  C   UNL A   1      37.500  32.704  31.439  1.00  0.00     0.031 A 
ATOM     36  C   UNL A   1      38.205  31.547  30.788  1.00  0.00     0.074 A 
ATOM     37  C   UNL A   1      37.864  33.108  32.673  1.00  0.00     0.049 A 
ATOM     38  N   UNL A   1      39.180  30.804  31.251  1.00  0.00    -0.248 NA
ATOM     39  C   UNL A   1      37.738  31.155  29.450  1.00  0.00     0.031 C 
ATOM     40  C   UNL A   1      37.228  34.185  33.433  1.00  0.00     0.029 A 
ATOM     41  N   UNL A   1      38.851  32.650  33.512  1.00  0.00    -0.354 N 
ATOM     42  C   UNL A   1      39.430  29.854  30.270  1.00  0.00     0.074 A 
ATOM     43  C   UNL A   1      38.472  30.079  29.209  1.00  0.00     0.031 C 
ATOM     44  C   UNL A   1      37.852  34.319  34.614  1.00  0.00     0.029 A 
ATOM     45  C   UNL A   1      38.904  33.313  34.714  1.00  0.00     0.049 A 
ATOM     46  H   UNL A   1      39.463  31.916  33.274  1.00  0.00     0.167 HD
ATOM     47  C   UNL A   1      40.387  28.895  30.246  1.00  0.00     0.037 A 
ATOM     48  C   UNL A   1      39.703  33.123  35.781  1.00  0.00     0.037 A 
ATOM     49  C   UNL A   1      41.353  28.689  31.293  1.00  0.00     0.049 A 
ATOM     50  C   UNL A   1      40.752  32.043  35.731  1.00  0.00     0.074 A 
ATOM     51  C   UNL A   1      42.400  27.785  31.333  1.00  0.00     0.029 A 
ATOM     52  N   UNL A   1      41.387  29.392  32.488  1.00  0.00    -0.354 N 
ATOM     53  N   UNL A   1      41.029  31.202  34.764  1.00  0.00    -0.248 NA
ATOM     54  C   UNL A   1      41.605  31.892  36.919  1.00  0.00     0.031 C 
ATOM     55  C   UNL A   1      43.035  27.904  32.573  1.00  0.00     0.029 A 
ATOM     56  C   UNL A   1      42.422  28.923  33.282  1.00  0.00     0.049 A 
ATOM     57  H   UNL A   1      40.768  30.116  32.736  1.00  0.00     0.167 HD
ATOM     58  C   UNL A   1      42.104  30.446  35.213  1.00  0.00     0.074 A 
ATOM     59  C   UNL A   1      42.441  30.939  36.532  1.00  0.00     0.031 C 
ATOM     60  C   UNL A   1      42.753  29.432  34.590  1.00  0.00     0.037 A 
BRANCH  47  61
ATOM     61  C   UNL A   1      40.444  27.995  29.046  1.00  0.00     0.064 A 
ATOM     62  C   UNL A   1      39.691  26.812  28.976  1.00  0.00     0.173 A 
ATOM     63  C   UNL A   1      41.216  28.345  27.929  1.00  0.00     0.173 A 
ATOM     64  F   UNL A   1      38.942  26.425  30.020  1.00  0.00    -0.203 F 
ATOM     65  C   UNL A   1      39.729  26.004  27.843  1.00  0.00     0.198 A 
ATOM     66  C   UNL A   1      41.227  27.551  26.785  1.00  0.00     0.198 A 
ATOM     67  F   UNL A   1      41.950  29.469  27.939  1.00  0.00    -0.203 F 
ATOM     68  F   UNL A   1      39.036  24.857  27.817  1.00  0.00    -0.200 F 
ATOM     69  C   UNL A   1      40.489  26.378  26.746  1.00  0.00     0.200 A 
ATOM     70  F   UNL A   1      41.950  27.922  25.720  1.00  0.00    -0.200 F 
ATOM     71  F   UNL A   1      40.513  25.606  25.651  1.00  0.00    -0.200 F 
ENDBRANCH  47  61
BRANCH  48  72
ATOM     72  C   UNL A   1      39.558  33.982  36.987  1.00  0.00     0.064 A 
ATOM     73  C   UNL A   1      38.808  33.554  38.091  1.00  0.00     0.173 A 
ATOM     74  C   UNL A   1      40.143  35.254  37.052  1.00  0.00     0.173 A 
ATOM     75  F   UNL A   1      38.209  32.354  38.069  1.00  0.00    -0.203 F 
ATOM     76  C   UNL A   1      38.624  34.377  39.201  1.00  0.00     0.198 A 
ATOM     77  C   UNL A   1      39.987  36.064  38.176  1.00  0.00     0.198 A 
ATOM     78  F   UNL A   1      40.875  35.712  36.025  1.00  0.00    -0.203 F 
ATOM     79  F   UNL A   1      37.854  33.965  40.218  1.00  0.00    -0.200 F 
ATOM     80  C   UNL A   1      39.218  35.628  39.244  1.00  0.00     0.200 A 
ATOM     81  F   UNL A   1      40.575  37.267  38.220  1.00  0.00    -0.200 F 
ATOM     82  F   UNL A   1      39.041  36.420  40.312  1.00  0.00    -0.200 F 
ENDBRANCH  48  72
BRANCH  60  83
ATOM     83  C   UNL A   1      43.922  28.817  35.305  1.00  0.00     0.064 A 
ATOM     84  C   UNL A   1      45.234  29.272  35.104  1.00  0.00     0.173 A 
ATOM     85  C   UNL A   1      43.720  27.784  36.232  1.00  0.00     0.173 A 
ATOM     86  F   UNL A   1      45.482  30.248  34.217  1.00  0.00    -0.203 F 
ATOM     87  C   UNL A   1      46.304  28.694  35.783  1.00  0.00     0.198 A 
ATOM     88  C   UNL A   1      44.788  27.232  36.935  1.00  0.00     0.198 A 
ATOM     89  F   UNL A   1      42.485  27.318  36.468  1.00  0.00    -0.203 F 
ATOM     90  F   UNL A   1      47.554  29.108  35.534  1.00  0.00    -0.200 F 
ATOM     91  C   UNL A   1      46.079  27.681  36.703  1.00  0.00     0.200 A 
ATOM     92  F   UNL A   1      44.568  26.263  37.836  1.00  0.00    -0.200 F 
ATOM     93  F   UNL A   1      47.109  27.132  37.362  1.00  0.00    -0.200 F 
ENDBRANCH  60  83
ENDBRANCH  34  35
ENDBRANCH  26  29
ENDBRANCH  24  25
ENDBRANCH  23  24
ENDBRANCH   1  23
TORSDOF 14
ENDMDL
MODEL 2
REMARK VINA RESULT:     -12.3      6.961     12.024
REMARK SMILES CN(CC(=O)NCCCCNC(=O)c1ccc(-c2c3nc(c(-c4c(F)c(F)c(F)c(F)c4F)c4ccc([nH]4)c(-c4c(F)c(F)c(F)c(F)c4F)c4nc(c(-c5c(F)c(F)c(F)c(F)c5F)c5ccc2[nH]5)C=C4)C=C3)cc1)c1nc2cc(N)ccc2[nH]1
REMARK SMILES IDX 8 1 7 2 6 3 4 4 5 5 3 7 2 8 1 9 77 10 78 11 86 12 79 13
REMARK SMILES IDX 85 14 80 16 84 17 81 18 83 19 82 20 9 23 10 24 11 25 12 26
REMARK SMILES IDX 13 28 14 29 15 30 76 31 16 32 75 33 17 34 18 35 19 36 69 37
REMARK SMILES IDX 20 38 74 39 68 40 70 41 21 42 73 43 67 44 66 45 22 47 54 48
REMARK SMILES IDX 34 49 53 50 35 51 38 52 52 53 71 54 36 55 37 56 51 58 72 59
REMARK SMILES IDX 39 60 23 61 24 62 32 63 25 64 26 65 30 66 33 67 27 68 28 69
REMARK SMILES IDX 31 70 29 71 55 72 56 73 64 74 57 75 58 76 62 77 65 78 59 79
REMARK SMILES IDX 60 80 63 81 61 82 40 83 41 84 49 85 42 86 43 87 47 88 50 89
REMARK SMILES IDX 44 90 45 91 48 92 46 93
REMARK H PARENT 6 6 86 15 82 21 82 22 11 27 70 46 38 57
REMARK Flexibility Score: inf
ROOT
ATOM      1  C   UNL A   1      37.296  20.995  24.483  1.00  0.00     0.023 C 
ENDROOT
BRANCH   1   2
ATOM      2  C   UNL A   1      37.392  22.255  25.339  1.00  0.00     0.116 C 
BRANCH   2   3
ATOM      3  N   UNL A   1      36.501  23.305  24.906  1.00  0.00    -0.355 N 
ATOM      4  C   UNL A   1      35.390  23.785  25.548  1.00  0.00     0.239 C 
ATOM      5  O   UNL A   1      34.879  24.822  25.117  1.00  0.00    -0.273 OA
ATOM      6  H   UNL A   1      36.718  23.727  24.045  1.00  0.00     0.163 HD
BRANCH   4   7
ATOM      7  C   UNL A   1      34.900  23.110  26.842  1.00  0.00     0.219 C 
BRANCH   7   8
ATOM      8  N   UNL A   1      33.599  22.419  26.722  1.00  0.00    -0.336 N 
ATOM      9  C   UNL A   1      32.449  22.957  27.416  1.00  0.00     0.147 C 
BRANCH   8  10
ATOM     10  C   UNL A   1      33.511  21.434  25.795  1.00  0.00     0.204 A 
ATOM     11  N   UNL A   1      32.670  21.385  24.790  1.00  0.00    -0.213 NA
ATOM     12  N   UNL A   1      34.277  20.293  25.832  1.00  0.00    -0.324 N 
ATOM     13  C   UNL A   1      32.837  20.161  24.208  1.00  0.00     0.093 A 
ATOM     14  C   UNL A   1      33.821  19.434  24.861  1.00  0.00     0.067 A 
ATOM     15  H   UNL A   1      35.025  20.120  26.448  1.00  0.00     0.170 HD
ATOM     16  C   UNL A   1      32.153  19.593  23.126  1.00  0.00     0.056 A 
ATOM     17  C   UNL A   1      34.157  18.128  24.504  1.00  0.00     0.030 A 
ATOM     18  C   UNL A   1      32.426  18.269  22.766  1.00  0.00     0.034 A 
ATOM     19  C   UNL A   1      33.435  17.567  23.438  1.00  0.00     0.028 A 
BRANCH  18  20
ATOM     20  N   UNL A   1      31.781  17.703  21.674  1.00  0.00    -0.399 N 
ATOM     21  H   UNL A   1      31.703  18.209  20.832  1.00  0.00     0.156 HD
ATOM     22  H   UNL A   1      31.400  16.798  21.741  1.00  0.00     0.156 HD
ENDBRANCH  18  20
ENDBRANCH   8  10
ENDBRANCH   7   8
ENDBRANCH   4   7
ENDBRANCH   2   3
ENDBRANCH   1   2
BRANCH   1  23
ATOM     23  C   UNL A   1      38.094  19.798  25.001  1.00  0.00     0.023 C 
BRANCH  23  24
ATOM     24  C   UNL A   1      39.285  20.137  25.891  1.00  0.00     0.116 C 
BRANCH  24  25
ATOM     25  N   UNL A   1      40.292  19.087  25.931  1.00  0.00    -0.352 N 
ATOM     26  C   UNL A   1      41.650  19.188  26.126  1.00  0.00     0.251 C 
ATOM     27  H   UNL A   1      39.951  18.173  25.802  1.00  0.00     0.163 HD
ATOM     28  O   UNL A   1      42.363  18.202  26.015  1.00  0.00    -0.269 OA
BRANCH  26  29
ATOM     29  C   UNL A   1      42.252  20.505  26.431  1.00  0.00     0.039 A 
ATOM     30  C   UNL A   1      42.757  21.272  25.376  1.00  0.00     0.014 A 
ATOM     31  C   UNL A   1      42.308  20.991  27.739  1.00  0.00     0.014 A 
ATOM     32  C   UNL A   1      43.251  22.554  25.626  1.00  0.00     0.010 A 
ATOM     33  C   UNL A   1      42.731  22.296  27.976  1.00  0.00     0.010 A 
ATOM     34  C   UNL A   1      43.203  23.093  26.922  1.00  0.00    -0.014 A 
BRANCH  34  35
ATOM     35  C   UNL A   1      43.631  24.491  27.189  1.00  0.00     0.031 A 
ATOM     36  C   UNL A   1      42.642  25.506  27.691  1.00  0.00     0.074 A 
ATOM     37  C   UNL A   1      44.899  24.862  26.919  1.00  0.00     0.049 A 
ATOM     38  N   UNL A   1      42.811  26.785  27.921  1.00  0.00    -0.248 NA
ATOM     39  C   UNL A   1      41.274  25.028  27.945  1.00  0.00     0.031 C 
ATOM     40  C   UNL A   1      45.940  23.985  26.382  1.00  0.00     0.029 A 
ATOM     41  N   UNL A   1      45.524  26.078  27.047  1.00  0.00    -0.354 N 
ATOM     42  C   UNL A   1      41.574  27.262  28.331  1.00  0.00     0.074 A 
ATOM     43  C   UNL A   1      40.649  26.150  28.269  1.00  0.00     0.031 C 
ATOM     44  C   UNL A   1      47.078  24.684  26.245  1.00  0.00     0.029 A 
ATOM     45  C   UNL A   1      46.838  26.067  26.645  1.00  0.00     0.049 A 
ATOM     46  H   UNL A   1      45.074  26.882  27.393  1.00  0.00     0.167 HD
ATOM     47  C   UNL A   1      41.243  28.510  28.744  1.00  0.00     0.037 A 
ATOM     48  C   UNL A   1      47.744  27.062  26.596  1.00  0.00     0.037 A 
ATOM     49  C   UNL A   1      42.170  29.608  28.826  1.00  0.00     0.049 A 
ATOM     50  C   UNL A   1      47.347  28.441  27.052  1.00  0.00     0.074 A 
ATOM     51  C   UNL A   1      41.946  30.892  29.291  1.00  0.00     0.029 A 
ATOM     52  N   UNL A   1      43.498  29.554  28.429  1.00  0.00    -0.354 N 
ATOM     53  N   UNL A   1      46.193  28.861  27.512  1.00  0.00    -0.248 NA
ATOM     54  C   UNL A   1      48.382  29.484  26.988  1.00  0.00     0.031 C 
ATOM     55  C   UNL A   1      43.122  31.630  29.125  1.00  0.00     0.029 A 
ATOM     56  C   UNL A   1      44.097  30.790  28.614  1.00  0.00     0.049 A 
ATOM     57  H   UNL A   1      43.948  28.756  28.068  1.00  0.00     0.167 HD
ATOM     58  C   UNL A   1      46.372  30.203  27.821  1.00  0.00     0.074 A 
ATOM     59  C   UNL A   1      47.750  30.523  27.513  1.00  0.00     0.031 C 
ATOM     60  C   UNL A   1      45.475  31.092  28.314  1.00  0.00     0.037 A 
BRANCH  47  61
ATOM     61  C   UNL A   1      39.818  28.758  29.145  1.00  0.00     0.064 A 
ATOM     62  C   UNL A   1      39.387  28.594  30.471  1.00  0.00     0.173 A 
ATOM     63  C   UNL A   1      38.884  29.221  28.206  1.00  0.00     0.173 A 
ATOM     64  F   UNL A   1      40.237  28.145  31.407  1.00  0.00    -0.203 F 
ATOM     65  C   UNL A   1      38.069  28.860  30.834  1.00  0.00     0.198 A 
ATOM     66  C   UNL A   1      37.575  29.516  28.580  1.00  0.00     0.198 A 
ATOM     67  F   UNL A   1      39.244  29.402  26.926  1.00  0.00    -0.203 F 
ATOM     68  F   UNL A   1      37.670  28.653  32.097  1.00  0.00    -0.200 F 
ATOM     69  C   UNL A   1      37.167  29.328  29.892  1.00  0.00     0.200 A 
ATOM     70  F   UNL A   1      36.709  29.984  27.671  1.00  0.00    -0.200 F 
ATOM     71  F   UNL A   1      35.903  29.597  30.247  1.00  0.00    -0.200 F 
ENDBRANCH  47  61
BRANCH  48  72
ATOM     72  C   UNL A   1      49.125  26.793  26.109  1.00  0.00     0.064 A 
ATOM     73  C   UNL A   1      49.470  27.004  24.767  1.00  0.00     0.173 A 
ATOM     74  C   UNL A   1      50.118  26.299  26.967  1.00  0.00     0.173 A 
ATOM     75  F   UNL A   1      48.549  27.454  23.902  1.00  0.00    -0.203 F 
ATOM     76  C   UNL A   1      50.746  26.703  24.295  1.00  0.00     0.198 A 
ATOM     77  C   UNL A   1      51.403  26.030  26.502  1.00  0.00     0.198 A 
ATOM     78  F   UNL A   1      49.842  26.084  28.262  1.00  0.00    -0.203 F 
ATOM     79  F   UNL A   1      51.031  26.859  22.995  1.00  0.00    -0.200 F 
ATOM     80  C   UNL A   1      51.713  26.222  25.164  1.00  0.00     0.200 A 
ATOM     81  F   UNL A   1      52.339  25.578  27.348  1.00  0.00    -0.200 F 
ATOM     82  F   UNL A   1      52.940  25.931  24.710  1.00  0.00    -0.200 F 
ENDBRANCH  48  72
BRANCH  60  83
ATOM     83  C   UNL A   1      45.963  32.484  28.595  1.00  0.00     0.064 A 
ATOM     84  C   UNL A   1      46.536  32.831  29.828  1.00  0.00     0.173 A 
ATOM     85  C   UNL A   1      45.891  33.473  27.603  1.00  0.00     0.173 A 
ATOM     86  F   UNL A   1      46.616  31.925  30.815  1.00  0.00    -0.203 F 
ATOM     87  C   UNL A   1      46.991  34.126  30.066  1.00  0.00     0.198 A 
ATOM     88  C   UNL A   1      46.379  34.757  27.833  1.00  0.00     0.198 A 
ATOM     89  F   UNL A   1      45.360  33.191  26.404  1.00  0.00    -0.203 F 
ATOM     90  F   UNL A   1      47.485  34.448  31.269  1.00  0.00    -0.200 F 
ATOM     91  C   UNL A   1      46.919  35.084  29.066  1.00  0.00     0.200 A 
ATOM     92  F   UNL A   1      46.323  35.678  26.860  1.00  0.00    -0.200 F 
ATOM     93  F   UNL A   1      47.366  36.327  29.295  1.00  0.00    -0.200 F 
ENDBRANCH  60  83
ENDBRANCH  34  35
ENDBRANCH  26  29
ENDBRANCH  24  25
ENDBRANCH  23  24
ENDBRANCH   1  23
TORSDOF 14
ENDMDL
MODEL 3
REMARK VINA RESULT:     -12.2      0.998      7.700
REMARK SMILES CN(CC(=O)NCCCCNC(=O)c1ccc(-c2c3nc(c(-c4c(F)c(F)c(F)c(F)c4F)c4ccc([nH]4)c(-c4c(F)c(F)c(F)c(F)c4F)c4nc(c(-c5c(F)c(F)c(F)c(F)c5F)c5ccc2[nH]5)C=C4)C=C3)cc1)c1nc2cc(N)ccc2[nH]1
REMARK SMILES IDX 8 1 7 2 6 3 4 4 5 5 3 7 2 8 1 9 77 10 78 11 86 12 79 13
REMARK SMILES IDX 85 14 80 16 84 17 81 18 83 19 82 20 9 23 10 24 11 25 12 26
REMARK SMILES IDX 13 28 14 29 15 30 76 31 16 32 75 33 17 34 18 35 19 36 69 37
REMARK SMILES IDX 20 38 74 39 68 40 70 41 21 42 73 43 67 44 66 45 22 47 54 48
REMARK SMILES IDX 34 49 53 50 35 51 38 52 52 53 71 54 36 55 37 56 51 58 72 59
REMARK SMILES IDX 39 60 23 61 24 62 32 63 25 64 26 65 30 66 33 67 27 68 28 69
REMARK SMILES IDX 31 70 29 71 55 72 56 73 64 74 57 75 58 76 62 77 65 78 59 79
REMARK SMILES IDX 60 80 63 81 61 82 40 83 41 84 49 85 42 86 43 87 47 88 50 89
REMARK SMILES IDX 44 90 45 91 48 92 46 93
REMARK H PARENT 6 6 86 15 82 21 82 22 11 27 70 46 38 57
REMARK Flexibility Score: inf
ROOT
ATOM      1  C   UNL A   1      31.585  30.678  26.095  1.00  0.00     0.023 C 
ENDROOT
BRANCH   1   2
ATOM      2  C   UNL A   1      32.266  29.765  27.110  1.00  0.00     0.116 C 
BRANCH   2   3
ATOM      3  N   UNL A   1      31.595  28.498  27.275  1.00  0.00    -0.355 N 
ATOM      4  C   UNL A   1      31.830  27.327  26.605  1.00  0.00     0.239 C 
ATOM      5  O   UNL A   1      31.291  26.301  27.032  1.00  0.00    -0.273 OA
ATOM      6  H   UNL A   1      30.881  28.472  27.952  1.00  0.00     0.163 HD
BRANCH   4   7
ATOM      7  C   UNL A   1      32.843  27.296  25.447  1.00  0.00     0.219 C 
BRANCH   7   8
ATOM      8  N   UNL A   1      32.315  26.741  24.182  1.00  0.00    -0.336 N 
ATOM      9  C   UNL A   1      32.706  25.407  23.780  1.00  0.00     0.147 C 
BRANCH   8  10
ATOM     10  C   UNL A   1      31.326  27.439  23.572  1.00  0.00     0.204 A 
ATOM     11  N   UNL A   1      31.479  28.471  22.777  1.00  0.00    -0.213 NA
ATOM     12  N   UNL A   1      29.990  27.184  23.771  1.00  0.00    -0.324 N 
ATOM     13  C   UNL A   1      30.225  28.942  22.514  1.00  0.00     0.093 A 
ATOM     14  C   UNL A   1      29.264  28.173  23.151  1.00  0.00     0.067 A 
ATOM     15  H   UNL A   1      29.617  26.423  24.271  1.00  0.00     0.170 HD
ATOM     16  C   UNL A   1      29.836  30.052  21.753  1.00  0.00     0.056 A 
ATOM     17  C   UNL A   1      27.901  28.465  23.094  1.00  0.00     0.030 A 
ATOM     18  C   UNL A   1      28.485  30.409  21.707  1.00  0.00     0.034 A 
ATOM     19  C   UNL A   1      27.538  29.602  22.352  1.00  0.00     0.028 A 
BRANCH  18  20
ATOM     20  N   UNL A   1      28.080  31.486  20.929  1.00  0.00    -0.399 N 
ATOM     21  H   UNL A   1      27.764  31.336  20.008  1.00  0.00     0.156 HD
ATOM     22  H   UNL A   1      28.110  32.398  21.297  1.00  0.00     0.156 HD
ENDBRANCH  18  20
ENDBRANCH   8  10
ENDBRANCH   7   8
ENDBRANCH   4   7
ENDBRANCH   2   3
ENDBRANCH   1   2
BRANCH   1  23
ATOM     23  C   UNL A   1      31.392  32.124  26.553  1.00  0.00     0.023 C 
BRANCH  23  24
ATOM     24  C   UNL A   1      32.601  32.770  27.222  1.00  0.00     0.116 C 
BRANCH  24  25
ATOM     25  N   UNL A   1      32.367  34.147  27.630  1.00  0.00    -0.352 N 
ATOM     26  C   UNL A   1      33.014  34.894  28.587  1.00  0.00     0.251 C 
ATOM     27  H   UNL A   1      31.643  34.610  27.151  1.00  0.00     0.163 HD
ATOM     28  O   UNL A   1      32.605  36.009  28.877  1.00  0.00    -0.269 OA
BRANCH  26  29
ATOM     29  C   UNL A   1      34.183  34.328  29.295  1.00  0.00     0.039 A 
ATOM     30  C   UNL A   1      33.966  33.580  30.457  1.00  0.00     0.014 A 
ATOM     31  C   UNL A   1      35.482  34.516  28.816  1.00  0.00     0.014 A 
ATOM     32  C   UNL A   1      35.044  32.962  31.094  1.00  0.00     0.010 A 
ATOM     33  C   UNL A   1      36.544  33.840  29.409  1.00  0.00     0.010 A 
ATOM     34  C   UNL A   1      36.337  33.052  30.552  1.00  0.00    -0.014 A 
BRANCH  34  35
ATOM     35  C   UNL A   1      37.478  32.319  31.160  1.00  0.00     0.031 A 
ATOM     36  C   UNL A   1      37.984  32.699  32.523  1.00  0.00     0.074 A 
ATOM     37  C   UNL A   1      38.098  31.352  30.455  1.00  0.00     0.049 A 
ATOM     38  N   UNL A   1      39.006  32.220  33.191  1.00  0.00    -0.248 NA
ATOM     39  C   UNL A   1      37.266  33.776  33.221  1.00  0.00     0.031 C 
ATOM     40  C   UNL A   1      37.735  30.925  29.103  1.00  0.00     0.029 A 
ATOM     41  N   UNL A   1      39.175  30.561  30.773  1.00  0.00    -0.354 N 
ATOM     42  C   UNL A   1      39.058  32.945  34.373  1.00  0.00     0.074 A 
ATOM     43  C   UNL A   1      38.000  33.931  34.313  1.00  0.00     0.031 C 
ATOM     44  C   UNL A   1      38.559  29.938  28.716  1.00  0.00     0.029 A 
ATOM     45  C   UNL A   1      39.533  29.689  29.773  1.00  0.00     0.049 A 
ATOM     46  H   UNL A   1      39.646  30.613  31.636  1.00  0.00     0.167 HD
ATOM     47  C   UNL A   1      39.897  32.788  35.425  1.00  0.00     0.037 A 
ATOM     48  C   UNL A   1      40.541  28.798  29.712  1.00  0.00     0.037 A 
ATOM     49  C   UNL A   1      40.934  31.791  35.492  1.00  0.00     0.049 A 
ATOM     50  C   UNL A   1      41.465  28.651  30.892  1.00  0.00     0.074 A 
ATOM     51  C   UNL A   1      41.794  31.512  36.540  1.00  0.00     0.029 A 
ATOM     52  N   UNL A   1      41.255  30.913  34.467  1.00  0.00    -0.354 N 
ATOM     53  N   UNL A   1      41.455  29.289  32.037  1.00  0.00    -0.248 NA
ATOM     54  C   UNL A   1      42.538  27.653  30.773  1.00  0.00     0.031 C 
ATOM     55  C   UNL A   1      42.671  30.502  36.129  1.00  0.00     0.029 A 
ATOM     56  C   UNL A   1      42.318  30.110  34.849  1.00  0.00     0.049 A 
ATOM     57  H   UNL A   1      40.796  30.869  33.597  1.00  0.00     0.167 HD
ATOM     58  C   UNL A   1      42.494  28.750  32.783  1.00  0.00     0.074 A 
ATOM     59  C   UNL A   1      43.103  27.720  31.969  1.00  0.00     0.031 C 
ATOM     60  C   UNL A   1      42.908  29.079  34.032  1.00  0.00     0.037 A 
BRANCH  47  61
ATOM     61  C   UNL A   1      39.730  33.711  36.597  1.00  0.00     0.064 A 
ATOM     62  C   UNL A   1      40.353  34.968  36.641  1.00  0.00     0.173 A 
ATOM     63  C   UNL A   1      38.890  33.360  37.665  1.00  0.00     0.173 A 
ATOM     64  F   UNL A   1      41.174  35.349  35.650  1.00  0.00    -0.203 F 
ATOM     65  C   UNL A   1      40.162  35.826  37.720  1.00  0.00     0.198 A 
ATOM     66  C   UNL A   1      38.676  34.234  38.728  1.00  0.00     0.198 A 
ATOM     67  F   UNL A   1      38.264  32.173  37.672  1.00  0.00    -0.203 F 
ATOM     68  F   UNL A   1      40.803  37.002  37.759  1.00  0.00    -0.200 F 
ATOM     69  C   UNL A   1      39.317  35.463  38.757  1.00  0.00     0.200 A 
ATOM     70  F   UNL A   1      37.847  33.888  39.722  1.00  0.00    -0.200 F 
ATOM     71  F   UNL A   1      39.123  36.297  39.789  1.00  0.00    -0.200 F 
ENDBRANCH  47  61
BRANCH  48  72
ATOM     72  C   UNL A   1      40.726  27.961  28.495  1.00  0.00     0.064 A 
ATOM     73  C   UNL A   1      41.494  28.418  27.415  1.00  0.00     0.173 A 
ATOM     74  C   UNL A   1      40.122  26.701  28.378  1.00  0.00     0.173 A 
ATOM     75  F   UNL A   1      42.075  29.626  27.470  1.00  0.00    -0.203 F 
ATOM     76  C   UNL A   1      41.626  27.661  26.253  1.00  0.00     0.198 A 
ATOM     77  C   UNL A   1      40.281  25.930  27.228  1.00  0.00     0.198 A 
ATOM     78  F   UNL A   1      39.380  26.214  29.383  1.00  0.00    -0.203 F 
ATOM     79  F   UNL A   1      42.318  28.148  25.214  1.00  0.00    -0.200 F 
ATOM     80  C   UNL A   1      41.024  26.415  26.163  1.00  0.00     0.200 A 
ATOM     81  F   UNL A   1      39.710  24.721  27.150  1.00  0.00    -0.200 F 
ATOM     82  F   UNL A   1      41.151  25.687  25.044  1.00  0.00    -0.200 F 
ENDBRANCH  48  72
BRANCH  60  83
ATOM     83  C   UNL A   1      44.045  28.290  34.613  1.00  0.00     0.064 A 
ATOM     84  C   UNL A   1      43.833  27.092  35.311  1.00  0.00     0.173 A 
ATOM     85  C   UNL A   1      45.369  28.721  34.437  1.00  0.00     0.173 A 
ATOM     86  F   UNL A   1      42.585  26.643  35.519  1.00  0.00    -0.203 F 
ATOM     87  C   UNL A   1      44.902  26.370  35.836  1.00  0.00     0.198 A 
ATOM     88  C   UNL A   1      46.437  27.978  34.933  1.00  0.00     0.198 A 
ATOM     89  F   UNL A   1      45.628  29.856  33.770  1.00  0.00    -0.203 F 
ATOM     90  F   UNL A   1      44.671  25.256  36.544  1.00  0.00    -0.200 F 
ATOM     91  C   UNL A   1      46.202  26.809  35.639  1.00  0.00     0.200 A 
ATOM     92  F   UNL A   1      47.695  28.396  34.729  1.00  0.00    -0.200 F 
ATOM     93  F   UNL A   1      47.230  26.108  36.138  1.00  0.00    -0.200 F 
ENDBRANCH  60  83
ENDBRANCH  34  35
ENDBRANCH  26  29
ENDBRANCH  24  25
ENDBRANCH  23  24
ENDBRANCH   1  23
TORSDOF 14
ENDMDL
