MODEL 1
REMARK VINA RESULT:     -12.2      0.000      0.000
REMARK SMILES NC(=O)C[C@@H](NC(=O)c1ccc(CO)cc1)C(=O)NCCCCNC(=O)c1ccc(-c2c3nc(c(-c4c(F)c(F)c(F)c(F)c4F)c4ccc([nH]4)c(-c4c(F)c(F)c(F)c(F)c4F)c4nc(c(-c5c(F)c(F)c(F)c(F)c5F)c5ccc2[nH]5)C=C4)C=C3)cc1
REMARK SMILES IDX 20 1 19 2 17 3 18 4 5 6 4 7 2 8 1 9 3 12 6 13 7 14 8 16 9 17
REMARK SMILES IDX 10 18 16 19 11 20 15 21 12 22 13 23 14 24 21 26 22 27 23 28
REMARK SMILES IDX 24 29 25 30 26 32 27 33 28 34 89 35 29 36 88 37 30 38 31 39
REMARK SMILES IDX 32 40 82 41 33 42 87 43 81 44 83 45 34 46 86 47 80 48 79 49
REMARK SMILES IDX 35 51 67 52 47 53 66 54 48 55 51 56 65 57 84 58 49 59 50 60
REMARK SMILES IDX 64 62 85 63 52 64 36 65 37 66 45 67 38 68 39 69 43 70 46 71
REMARK SMILES IDX 40 72 41 73 44 74 42 75 68 76 69 77 77 78 70 79 71 80 75 81
REMARK SMILES IDX 78 82 72 83 73 84 76 85 74 86 53 87 54 88 62 89 55 90 56 91
REMARK SMILES IDX 60 92 63 93 57 94 58 95 61 96 59 97
REMARK H PARENT 19 5 1 10 1 11 6 15 14 25 24 31 83 50 51 61
REMARK Flexibility Score: inf
ROOT
ATOM      1  C   UNL A   1      32.400  30.011  25.406  1.00  0.00     0.116 C 
ENDROOT
BRANCH   1   2
ATOM      2  N   UNL A   1      33.046  28.797  25.864  1.00  0.00    -0.354 N 
ATOM      3  C   UNL A   1      32.951  27.523  25.392  1.00  0.00     0.243 C 
ATOM      4  O   UNL A   1      33.481  26.627  26.055  1.00  0.00    -0.273 OA
ATOM      5  H   UNL A   1      33.646  28.911  26.636  1.00  0.00     0.163 HD
BRANCH   3   6
ATOM      6  C   UNL A   1      32.093  27.184  24.161  1.00  0.00     0.180 C 
BRANCH   6   7
ATOM      7  C   UNL A   1      32.959  26.210  23.340  1.00  0.00     0.134 C 
BRANCH   7   8
ATOM      8  C   UNL A   1      33.351  26.736  21.988  1.00  0.00     0.220 C 
ATOM      9  N   UNL A   1      33.705  28.053  21.958  1.00  0.00    -0.370 N 
ATOM     10  H   UNL A   1      33.974  28.471  21.108  1.00  0.00     0.159 HD
ATOM     11  H   UNL A   1      33.690  28.586  22.786  1.00  0.00     0.159 HD
ATOM     12  O   UNL A   1      33.350  26.053  20.973  1.00  0.00    -0.275 OA
ENDBRANCH   7   8
ENDBRANCH   6   7
BRANCH   6  13
ATOM     13  N   UNL A   1      30.739  26.661  24.437  1.00  0.00    -0.340 N 
ATOM     14  C   UNL A   1      29.532  26.890  23.813  1.00  0.00     0.251 C 
ATOM     15  H   UNL A   1      30.690  26.041  25.201  1.00  0.00     0.164 HD
ATOM     16  O   UNL A   1      28.603  26.111  24.008  1.00  0.00    -0.269 OA
BRANCH  14  17
ATOM     17  C   UNL A   1      29.275  28.145  23.077  1.00  0.00     0.039 A 
ATOM     18  C   UNL A   1      27.973  28.657  23.122  1.00  0.00     0.014 A 
ATOM     19  C   UNL A   1      30.281  28.855  22.423  1.00  0.00     0.014 A 
ATOM     20  C   UNL A   1      27.710  29.941  22.645  1.00  0.00     0.007 A 
ATOM     21  C   UNL A   1      30.015  30.147  21.953  1.00  0.00     0.007 A 
ATOM     22  C   UNL A   1      28.742  30.717  22.101  1.00  0.00    -0.023 A 
BRANCH  22  23
ATOM     23  C   UNL A   1      28.486  32.153  21.731  1.00  0.00     0.191 C 
BRANCH  23  24
ATOM     24  O   UNL A   1      29.219  33.025  22.576  1.00  0.00    -0.392 OA
ATOM     25  H   UNL A   1      29.411  33.849  22.101  1.00  0.00     0.211 HD
ENDBRANCH  23  24
ENDBRANCH  22  23
ENDBRANCH  14  17
ENDBRANCH   6  13
ENDBRANCH   3   6
ENDBRANCH   1   2
BRANCH   1  26
ATOM     26  C   UNL A   1      31.507  30.588  26.497  1.00  0.00     0.023 C 
BRANCH  26  27
ATOM     27  C   UNL A   1      31.466  32.117  26.522  1.00  0.00     0.023 C 
BRANCH  27  28
ATOM     28  C   UNL A   1      32.595  32.775  27.310  1.00  0.00     0.116 C 
BRANCH  28  29
ATOM     29  N   UNL A   1      32.332  34.177  27.597  1.00  0.00    -0.352 N 
ATOM     30  C   UNL A   1      32.920  34.989  28.534  1.00  0.00     0.251 C 
ATOM     31  H   UNL A   1      31.638  34.600  27.043  1.00  0.00     0.163 HD
ATOM     32  O   UNL A   1      32.461  36.103  28.765  1.00  0.00    -0.269 OA
BRANCH  30  33
ATOM     33  C   UNL A   1      34.091  34.498  29.285  1.00  0.00     0.039 A 
ATOM     34  C   UNL A   1      33.895  33.942  30.550  1.00  0.00     0.014 A 
ATOM     35  C   UNL A   1      35.371  34.560  28.727  1.00  0.00     0.014 A 
ATOM     36  C   UNL A   1      34.978  33.383  31.230  1.00  0.00     0.010 A 
ATOM     37  C   UNL A   1      36.436  33.941  29.375  1.00  0.00     0.010 A 
ATOM     38  C   UNL A   1      36.248  33.344  30.631  1.00  0.00    -0.014 A 
BRANCH  38  39
ATOM     39  C   UNL A   1      37.384  32.664  31.302  1.00  0.00     0.031 A 
ATOM     40  C   UNL A   1      38.076  31.509  30.640  1.00  0.00     0.074 A 
ATOM     41  C   UNL A   1      37.751  33.056  32.538  1.00  0.00     0.049 A 
ATOM     42  N   UNL A   1      39.062  30.770  31.084  1.00  0.00    -0.248 NA
ATOM     43  C   UNL A   1      37.581  31.112  29.312  1.00  0.00     0.031 C 
ATOM     44  C   UNL A   1      37.119  34.128  33.308  1.00  0.00     0.029 A 
ATOM     45  N   UNL A   1      38.742  32.593  33.367  1.00  0.00    -0.354 N 
ATOM     46  C   UNL A   1      39.296  29.821  30.098  1.00  0.00     0.074 A 
ATOM     47  C   UNL A   1      38.317  30.041  29.057  1.00  0.00     0.031 C 
ATOM     48  C   UNL A   1      37.750  34.256  34.486  1.00  0.00     0.029 A 
ATOM     49  C   UNL A   1      38.809  33.254  34.569  1.00  0.00     0.049 A 
ATOM     50  H   UNL A   1      39.349  31.857  33.123  1.00  0.00     0.167 HD
ATOM     51  C   UNL A   1      40.258  28.867  30.058  1.00  0.00     0.037 A 
ATOM     52  C   UNL A   1      39.628  33.069  35.621  1.00  0.00     0.037 A 
ATOM     53  C   UNL A   1      41.243  28.664  31.087  1.00  0.00     0.049 A 
ATOM     54  C   UNL A   1      40.686  32.003  35.548  1.00  0.00     0.074 A 
ATOM     55  C   UNL A   1      42.300  27.771  31.106  1.00  0.00     0.029 A 
ATOM     56  N   UNL A   1      41.289  29.363  32.284  1.00  0.00    -0.354 N 
ATOM     57  N   UNL A   1      40.953  31.166  34.575  1.00  0.00    -0.248 NA
ATOM     58  C   UNL A   1      41.564  31.861  36.717  1.00  0.00     0.031 C 
ATOM     59  C   UNL A   1      42.955  27.894  32.336  1.00  0.00     0.029 A 
ATOM     60  C   UNL A   1      42.339  28.902  33.061  1.00  0.00     0.049 A 
ATOM     61  H   UNL A   1      40.667  30.081  32.544  1.00  0.00     0.167 HD
ATOM     62  C   UNL A   1      42.039  30.417  35.002  1.00  0.00     0.074 A 
ATOM     63  C   UNL A   1      42.398  30.913  36.315  1.00  0.00     0.031 C 
ATOM     64  C   UNL A   1      42.683  29.407  34.366  1.00  0.00     0.037 A 
BRANCH  51  65
ATOM     65  C   UNL A   1      40.294  27.968  28.855  1.00  0.00     0.064 A 
ATOM     66  C   UNL A   1      41.021  28.309  27.704  1.00  0.00     0.173 A 
ATOM     67  C   UNL A   1      39.631  26.732  28.869  1.00  0.00     0.173 A 
ATOM     68  F   UNL A   1      41.665  29.484  27.635  1.00  0.00    -0.203 F 
ATOM     69  C   UNL A   1      41.061  27.458  26.603  1.00  0.00     0.198 A 
ATOM     70  C   UNL A   1      39.698  25.869  27.778  1.00  0.00     0.198 A 
ATOM     71  F   UNL A   1      38.925  26.355  29.947  1.00  0.00    -0.203 F 
ATOM     72  F   UNL A   1      41.725  27.825  25.499  1.00  0.00    -0.200 F 
ATOM     73  C   UNL A   1      40.407  26.235  26.644  1.00  0.00     0.200 A 
ATOM     74  F   UNL A   1      39.077  24.683  27.824  1.00  0.00    -0.200 F 
ATOM     75  F   UNL A   1      40.457  25.412  25.587  1.00  0.00    -0.200 F 
ENDBRANCH  51  65
BRANCH  52  76
ATOM     76  C   UNL A   1      39.495  33.928  36.827  1.00  0.00     0.064 A 
ATOM     77  C   UNL A   1      40.124  35.179  36.894  1.00  0.00     0.173 A 
ATOM     78  C   UNL A   1      38.745  33.515  37.938  1.00  0.00     0.173 A 
ATOM     79  F   UNL A   1      40.868  35.610  35.864  1.00  0.00    -0.203 F 
ATOM     80  C   UNL A   1      40.029  35.973  38.035  1.00  0.00     0.198 A 
ATOM     81  C   UNL A   1      38.627  34.322  39.067  1.00  0.00     0.198 A 
ATOM     82  F   UNL A   1      38.118  32.329  37.923  1.00  0.00    -0.203 F 
ATOM     83  F   UNL A   1      40.682  37.142  38.091  1.00  0.00    -0.200 F 
ATOM     84  C   UNL A   1      39.276  35.547  39.118  1.00  0.00     0.200 A 
ATOM     85  F   UNL A   1      37.885  33.914  40.105  1.00  0.00    -0.200 F 
ATOM     86  F   UNL A   1      39.183  36.311  40.215  1.00  0.00    -0.200 F 
ENDBRANCH  52  76
BRANCH  64  87
ATOM     87  C   UNL A   1      43.856  28.789  35.072  1.00  0.00     0.064 A 
ATOM     88  C   UNL A   1      45.159  29.281  34.903  1.00  0.00     0.173 A 
ATOM     89  C   UNL A   1      43.670  27.711  35.950  1.00  0.00     0.173 A 
ATOM     90  F   UNL A   1      45.392  30.300  34.062  1.00  0.00    -0.203 F 
ATOM     91  C   UNL A   1      46.236  28.696  35.564  1.00  0.00     0.198 A 
ATOM     92  C   UNL A   1      44.744  27.150  36.635  1.00  0.00     0.198 A 
ATOM     93  F   UNL A   1      42.443  27.208  36.154  1.00  0.00    -0.203 F 
ATOM     94  F   UNL A   1      47.479  29.149  35.345  1.00  0.00    -0.200 F 
ATOM     95  C   UNL A   1      46.027  27.637  36.433  1.00  0.00     0.200 A 
ATOM     96  F   UNL A   1      44.539  26.136  37.486  1.00  0.00    -0.200 F 
ATOM     97  F   UNL A   1      47.064  27.079  37.073  1.00  0.00    -0.200 F 
ENDBRANCH  64  87
ENDBRANCH  38  39
ENDBRANCH  30  33
ENDBRANCH  28  29
ENDBRANCH  27  28
ENDBRANCH  26  27
ENDBRANCH   1  26
TORSDOF 17
ENDMDL
MODEL 2
REMARK VINA RESULT:     -12.1      5.652     10.460
REMARK SMILES NC(=O)C[C@@H](NC(=O)c1ccc(CO)cc1)C(=O)NCCCCNC(=O)c1ccc(-c2c3nc(c(-c4c(F)c(F)c(F)c(F)c4F)c4ccc([nH]4)c(-c4c(F)c(F)c(F)c(F)c4F)c4nc(c(-c5c(F)c(F)c(F)c(F)c5F)c5ccc2[nH]5)C=C4)C=C3)cc1
REMARK SMILES IDX 20 1 19 2 17 3 18 4 5 6 4 7 2 8 1 9 3 12 6 13 7 14 8 16 9 17
REMARK SMILES IDX 10 18 16 19 11 20 15 21 12 22 13 23 14 24 21 26 22 27 23 28
REMARK SMILES IDX 24 29 25 30 26 32 27 33 28 34 89 35 29 36 88 37 30 38 31 39
REMARK SMILES IDX 32 40 82 41 33 42 87 43 81 44 83 45 34 46 86 47 80 48 79 49
REMARK SMILES IDX 35 51 67 52 47 53 66 54 48 55 51 56 65 57 84 58 49 59 50 60
REMARK SMILES IDX 64 62 85 63 52 64 36 65 37 66 45 67 38 68 39 69 43 70 46 71
REMARK SMILES IDX 40 72 41 73 44 74 42 75 68 76 69 77 77 78 70 79 71 80 75 81
REMARK SMILES IDX 78 82 72 83 73 84 76 85 74 86 53 87 54 88 62 89 55 90 56 91
REMARK SMILES IDX 60 92 63 93 57 94 58 95 61 96 59 97
REMARK H PARENT 19 5 1 10 1 11 6 15 14 25 24 31 83 50 51 61
REMARK Flexibility Score: inf
ROOT
ATOM      1  C   UNL A   1      44.054  23.352  29.078  1.00  0.00     0.116 C 
ENDROOT
BRANCH   1   2
ATOM      2  N   UNL A   1      44.957  22.975  28.009  1.00  0.00    -0.354 N 
ATOM      3  C   UNL A   1      45.640  23.754  27.125  1.00  0.00     0.243 C 
ATOM      4  O   UNL A   1      46.228  23.188  26.199  1.00  0.00    -0.273 OA
ATOM      5  H   UNL A   1      45.099  22.007  27.906  1.00  0.00     0.163 HD
BRANCH   3   6
ATOM      6  C   UNL A   1      45.566  25.290  27.183  1.00  0.00     0.180 C 
BRANCH   6   7
ATOM      7  C   UNL A   1      46.739  25.702  28.092  1.00  0.00     0.134 C 
BRANCH   7   8
ATOM      8  C   UNL A   1      48.055  25.811  27.377  1.00  0.00     0.220 C 
ATOM      9  N   UNL A   1      48.844  24.699  27.439  1.00  0.00    -0.370 N 
ATOM     10  H   UNL A   1      49.723  24.693  26.995  1.00  0.00     0.159 HD
ATOM     11  H   UNL A   1      48.534  23.902  27.929  1.00  0.00     0.159 HD
ATOM     12  O   UNL A   1      48.420  26.818  26.785  1.00  0.00    -0.275 OA
ENDBRANCH   7   8
ENDBRANCH   6   7
BRANCH   6  13
ATOM     13  N   UNL A   1      45.570  25.989  25.881  1.00  0.00    -0.340 N 
ATOM     14  C   UNL A   1      45.523  27.331  25.572  1.00  0.00     0.251 C 
ATOM     15  H   UNL A   1      45.615  25.393  25.099  1.00  0.00     0.164 HD
ATOM     16  O   UNL A   1      45.856  27.696  24.447  1.00  0.00    -0.269 OA
BRANCH  14  17
ATOM     17  C   UNL A   1      44.899  28.308  26.488  1.00  0.00     0.039 A 
ATOM     18  C   UNL A   1      45.746  28.979  27.378  1.00  0.00     0.014 A 
ATOM     19  C   UNL A   1      43.543  28.628  26.440  1.00  0.00     0.014 A 
ATOM     20  C   UNL A   1      45.269  30.067  28.110  1.00  0.00     0.007 A 
ATOM     21  C   UNL A   1      43.070  29.726  27.170  1.00  0.00     0.007 A 
ATOM     22  C   UNL A   1      43.937  30.480  27.974  1.00  0.00    -0.023 A 
BRANCH  22  23
ATOM     23  C   UNL A   1      43.471  31.744  28.646  1.00  0.00     0.191 C 
BRANCH  23  24
ATOM     24  O   UNL A   1      42.369  31.478  29.498  1.00  0.00    -0.392 OA
ATOM     25  H   UNL A   1      41.691  30.988  29.007  1.00  0.00     0.211 HD
ENDBRANCH  23  24
ENDBRANCH  22  23
ENDBRANCH  14  17
ENDBRANCH   6  13
ENDBRANCH   3   6
ENDBRANCH   1   2
BRANCH   1  26
ATOM     26  C   UNL A   1      42.612  23.346  28.588  1.00  0.00     0.023 C 
BRANCH  26  27
ATOM     27  C   UNL A   1      42.296  22.220  27.601  1.00  0.00     0.023 C 
BRANCH  27  28
ATOM     28  C   UNL A   1      41.977  22.683  26.183  1.00  0.00     0.116 C 
BRANCH  28  29
ATOM     29  N   UNL A   1      40.579  22.484  25.832  1.00  0.00    -0.352 N 
ATOM     30  C   UNL A   1      39.481  23.213  26.217  1.00  0.00     0.251 C 
ATOM     31  H   UNL A   1      40.395  21.722  25.238  1.00  0.00     0.163 HD
ATOM     32  O   UNL A   1      38.350  22.808  25.972  1.00  0.00    -0.269 OA
BRANCH  30  33
ATOM     33  C   UNL A   1      39.675  24.475  26.957  1.00  0.00     0.039 A 
ATOM     34  C   UNL A   1      39.211  24.563  28.270  1.00  0.00     0.014 A 
ATOM     35  C   UNL A   1      40.337  25.553  26.364  1.00  0.00     0.014 A 
ATOM     36  C   UNL A   1      39.473  25.713  29.015  1.00  0.00     0.010 A 
ATOM     37  C   UNL A   1      40.659  26.670  27.130  1.00  0.00     0.010 A 
ATOM     38  C   UNL A   1      40.232  26.759  28.463  1.00  0.00    -0.014 A 
BRANCH  38  39
ATOM     39  C   UNL A   1      40.602  27.942  29.279  1.00  0.00     0.031 A 
ATOM     40  C   UNL A   1      41.946  28.017  29.943  1.00  0.00     0.074 A 
ATOM     41  C   UNL A   1      39.698  28.923  29.467  1.00  0.00     0.049 A 
ATOM     42  N   UNL A   1      42.435  28.952  30.719  1.00  0.00    -0.248 NA
ATOM     43  C   UNL A   1      42.856  26.881  29.728  1.00  0.00     0.031 C 
ATOM     44  C   UNL A   1      38.339  28.938  28.921  1.00  0.00     0.029 A 
ATOM     45  N   UNL A   1      39.783  30.096  30.175  1.00  0.00    -0.354 N 
ATOM     46  C   UNL A   1      43.698  28.513  31.090  1.00  0.00     0.074 A 
ATOM     47  C   UNL A   1      43.883  27.205  30.499  1.00  0.00     0.031 C 
ATOM     48  C   UNL A   1      37.727  30.072  29.295  1.00  0.00     0.029 A 
ATOM     49  C   UNL A   1      38.635  30.849  30.133  1.00  0.00     0.049 A 
ATOM     50  H   UNL A   1      40.591  30.373  30.665  1.00  0.00     0.167 HD
ATOM     51  C   UNL A   1      44.629  29.154  31.837  1.00  0.00     0.037 A 
ATOM     52  C   UNL A   1      38.346  32.031  30.711  1.00  0.00     0.037 A 
ATOM     53  C   UNL A   1      44.449  30.464  32.406  1.00  0.00     0.049 A 
ATOM     54  C   UNL A   1      39.399  32.721  31.535  1.00  0.00     0.074 A 
ATOM     55  C   UNL A   1      45.357  31.227  33.119  1.00  0.00     0.029 A 
ATOM     56  N   UNL A   1      43.278  31.204  32.331  1.00  0.00    -0.354 N 
ATOM     57  N   UNL A   1      40.621  32.334  31.809  1.00  0.00    -0.248 NA
ATOM     58  C   UNL A   1      39.033  34.016  32.123  1.00  0.00     0.031 C 
ATOM     59  C   UNL A   1      44.719  32.407  33.519  1.00  0.00     0.029 A 
ATOM     60  C   UNL A   1      43.431  32.402  33.008  1.00  0.00     0.049 A 
ATOM     61  H   UNL A   1      42.458  30.919  31.865  1.00  0.00     0.167 HD
ATOM     62  C   UNL A   1      41.177  33.346  32.579  1.00  0.00     0.074 A 
ATOM     63  C   UNL A   1      40.167  34.374  32.710  1.00  0.00     0.031 C 
ATOM     64  C   UNL A   1      42.414  33.417  33.129  1.00  0.00     0.037 A 
BRANCH  51  65
ATOM     65  C   UNL A   1      45.932  28.449  32.080  1.00  0.00     0.064 A 
ATOM     66  C   UNL A   1      47.084  28.756  31.340  1.00  0.00     0.173 A 
ATOM     67  C   UNL A   1      46.042  27.485  33.094  1.00  0.00     0.173 A 
ATOM     68  F   UNL A   1      47.030  29.663  30.352  1.00  0.00    -0.203 F 
ATOM     69  C   UNL A   1      48.290  28.107  31.589  1.00  0.00     0.198 A 
ATOM     70  C   UNL A   1      47.257  26.860  33.360  1.00  0.00     0.198 A 
ATOM     71  F   UNL A   1      44.972  27.157  33.835  1.00  0.00    -0.203 F 
ATOM     72  F   UNL A   1      49.365  28.386  30.839  1.00  0.00    -0.200 F 
ATOM     73  C   UNL A   1      48.378  27.166  32.603  1.00  0.00     0.200 A 
ATOM     74  F   UNL A   1      47.344  25.961  34.350  1.00  0.00    -0.200 F 
ATOM     75  F   UNL A   1      49.543  26.551  32.848  1.00  0.00    -0.200 F 
ENDBRANCH  51  65
BRANCH  52  76
ATOM     76  C   UNL A   1      37.009  32.648  30.512  1.00  0.00     0.064 A 
ATOM     77  C   UNL A   1      36.729  33.411  29.370  1.00  0.00     0.173 A 
ATOM     78  C   UNL A   1      35.987  32.496  31.461  1.00  0.00     0.173 A 
ATOM     79  F   UNL A   1      37.680  33.601  28.444  1.00  0.00    -0.203 F 
ATOM     80  C   UNL A   1      35.487  34.019  29.196  1.00  0.00     0.198 A 
ATOM     81  C   UNL A   1      34.736  33.080  31.272  1.00  0.00     0.198 A 
ATOM     82  F   UNL A   1      36.200  31.771  32.569  1.00  0.00    -0.203 F 
ATOM     83  F   UNL A   1      35.265  34.784  28.118  1.00  0.00    -0.200 F 
ATOM     84  C   UNL A   1      34.491  33.848  30.144  1.00  0.00     0.200 A 
ATOM     85  F   UNL A   1      33.770  32.899  32.183  1.00  0.00    -0.200 F 
ATOM     86  F   UNL A   1      33.296  34.431  29.975  1.00  0.00    -0.200 F 
ENDBRANCH  52  76
BRANCH  64  87
ATOM     87  C   UNL A   1      42.750  34.659  33.903  1.00  0.00     0.064 A 
ATOM     88  C   UNL A   1      43.224  35.816  33.266  1.00  0.00     0.173 A 
ATOM     89  C   UNL A   1      42.569  34.702  35.294  1.00  0.00     0.173 A 
ATOM     90  F   UNL A   1      43.429  35.822  31.941  1.00  0.00    -0.203 F 
ATOM     91  C   UNL A   1      43.532  36.960  33.999  1.00  0.00     0.198 A 
ATOM     92  C   UNL A   1      42.847  35.857  36.018  1.00  0.00     0.198 A 
ATOM     93  F   UNL A   1      42.111  33.625  35.950  1.00  0.00    -0.203 F 
ATOM     94  F   UNL A   1      44.033  38.036  33.376  1.00  0.00    -0.200 F 
ATOM     95  C   UNL A   1      43.337  36.982  35.371  1.00  0.00     0.200 A 
ATOM     96  F   UNL A   1      42.644  35.882  37.342  1.00  0.00    -0.200 F 
ATOM     97  F   UNL A   1      43.629  38.086  36.073  1.00  0.00    -0.200 F 
ENDBRANCH  64  87
ENDBRANCH  38  39
ENDBRANCH  30  33
ENDBRANCH  28  29
ENDBRANCH  27  28
ENDBRANCH  26  27
ENDBRANCH   1  26
TORSDOF 17
ENDMDL
MODEL 3
REMARK VINA RESULT:     -12.0      1.313      8.025
REMARK SMILES NC(=O)C[C@@H](NC(=O)c1ccc(CO)cc1)C(=O)NCCCCNC(=O)c1ccc(-c2c3nc(c(-c4c(F)c(F)c(F)c(F)c4F)c4ccc([nH]4)c(-c4c(F)c(F)c(F)c(F)c4F)c4nc(c(-c5c(F)c(F)c(F)c(F)c5F)c5ccc2[nH]5)C=C4)C=C3)cc1
REMARK SMILES IDX 20 1 19 2 17 3 18 4 5 6 4 7 2 8 1 9 3 12 6 13 7 14 8 16 9 17
REMARK SMILES IDX 10 18 16 19 11 20 15 21 12 22 13 23 14 24 21 26 22 27 23 28
REMARK SMILES IDX 24 29 25 30 26 32 27 33 28 34 89 35 29 36 88 37 30 38 31 39
REMARK SMILES IDX 32 40 82 41 33 42 87 43 81 44 83 45 34 46 86 47 80 48 79 49
REMARK SMILES IDX 35 51 67 52 47 53 66 54 48 55 51 56 65 57 84 58 49 59 50 60
REMARK SMILES IDX 64 62 85 63 52 64 36 65 37 66 45 67 38 68 39 69 43 70 46 71
REMARK SMILES IDX 40 72 41 73 44 74 42 75 68 76 69 77 77 78 70 79 71 80 75 81
REMARK SMILES IDX 78 82 72 83 73 84 76 85 74 86 53 87 54 88 62 89 55 90 56 91
REMARK SMILES IDX 60 92 63 93 57 94 58 95 61 96 59 97
REMARK H PARENT 19 5 1 10 1 11 6 15 14 25 24 31 83 50 51 61
REMARK Flexibility Score: inf
ROOT
ATOM      1  C   UNL A   1      31.995  29.646  25.460  1.00  0.00     0.116 C 
ENDROOT
BRANCH   1   2
ATOM      2  N   UNL A   1      31.133  29.808  24.306  1.00  0.00    -0.354 N 
ATOM      3  C   UNL A   1      30.854  28.941  23.294  1.00  0.00     0.243 C 
ATOM      4  O   UNL A   1      30.207  29.371  22.334  1.00  0.00    -0.273 OA
ATOM      5  H   UNL A   1      30.680  30.679  24.243  1.00  0.00     0.163 HD
BRANCH   3   6
ATOM      6  C   UNL A   1      31.443  27.520  23.267  1.00  0.00     0.180 C 
BRANCH   6   7
ATOM      7  C   UNL A   1      30.233  26.592  23.490  1.00  0.00     0.134 C 
BRANCH   7   8
ATOM      8  C   UNL A   1      30.377  25.676  24.671  1.00  0.00     0.220 C 
ATOM      9  N   UNL A   1      30.321  24.343  24.382  1.00  0.00    -0.370 N 
ATOM     10  H   UNL A   1      30.408  23.679  25.104  1.00  0.00     0.159 HD
ATOM     11  H   UNL A   1      30.195  24.046  23.452  1.00  0.00     0.159 HD
ATOM     12  O   UNL A   1      30.524  26.073  25.819  1.00  0.00    -0.275 OA
ENDBRANCH   7   8
ENDBRANCH   6   7
BRANCH   6  13
ATOM     13  N   UNL A   1      32.229  27.165  22.068  1.00  0.00    -0.340 N 
ATOM     14  C   UNL A   1      32.969  26.042  21.766  1.00  0.00     0.251 C 
ATOM     15  H   UNL A   1      32.224  27.850  21.360  1.00  0.00     0.164 HD
ATOM     16  O   UNL A   1      33.274  25.825  20.597  1.00  0.00    -0.269 OA
BRANCH  14  17
ATOM     17  C   UNL A   1      33.564  25.207  22.830  1.00  0.00     0.039 A 
ATOM     18  C   UNL A   1      34.015  25.865  23.981  1.00  0.00     0.014 A 
ATOM     19  C   UNL A   1      33.617  23.816  22.756  1.00  0.00     0.014 A 
ATOM     20  C   UNL A   1      34.378  25.129  25.109  1.00  0.00     0.007 A 
ATOM     21  C   UNL A   1      33.974  23.080  23.893  1.00  0.00     0.007 A 
ATOM     22  C   UNL A   1      34.313  23.729  25.090  1.00  0.00    -0.023 A 
BRANCH  22  23
ATOM     23  C   UNL A   1      34.557  22.949  26.354  1.00  0.00     0.191 C 
BRANCH  23  24
ATOM     24  O   UNL A   1      35.880  23.155  26.820  1.00  0.00    -0.392 OA
ATOM     25  H   UNL A   1      36.394  22.340  26.704  1.00  0.00     0.211 HD
ENDBRANCH  23  24
ENDBRANCH  22  23
ENDBRANCH  14  17
ENDBRANCH   6  13
ENDBRANCH   3   6
ENDBRANCH   1   2
BRANCH   1  26
ATOM     26  C   UNL A   1      31.421  30.381  26.664  1.00  0.00     0.023 C 
BRANCH  26  27
ATOM     27  C   UNL A   1      31.424  31.905  26.520  1.00  0.00     0.023 C 
BRANCH  27  28
ATOM     28  C   UNL A   1      32.661  32.598  27.083  1.00  0.00     0.116 C 
BRANCH  28  29
ATOM     29  N   UNL A   1      32.405  33.981  27.455  1.00  0.00    -0.352 N 
ATOM     30  C   UNL A   1      32.986  34.729  28.449  1.00  0.00     0.251 C 
ATOM     31  H   UNL A   1      31.720  34.444  26.921  1.00  0.00     0.163 HD
ATOM     32  O   UNL A   1      32.533  35.829  28.745  1.00  0.00    -0.269 OA
BRANCH  30  33
ATOM     33  C   UNL A   1      34.146  34.182  29.180  1.00  0.00     0.039 A 
ATOM     34  C   UNL A   1      33.918  33.383  30.302  1.00  0.00     0.014 A 
ATOM     35  C   UNL A   1      35.448  34.433  28.740  1.00  0.00     0.014 A 
ATOM     36  C   UNL A   1      34.998  32.778  30.945  1.00  0.00     0.010 A 
ATOM     37  C   UNL A   1      36.517  33.773  29.339  1.00  0.00     0.010 A 
ATOM     38  C   UNL A   1      36.302  32.938  30.445  1.00  0.00    -0.014 A 
BRANCH  38  39
ATOM     39  C   UNL A   1      37.445  32.218  31.061  1.00  0.00     0.031 A 
ATOM     40  C   UNL A   1      37.920  32.585  32.437  1.00  0.00     0.074 A 
ATOM     41  C   UNL A   1      38.089  31.272  30.350  1.00  0.00     0.049 A 
ATOM     42  N   UNL A   1      38.921  32.093  33.125  1.00  0.00    -0.248 NA
ATOM     43  C   UNL A   1      37.193  33.663  33.124  1.00  0.00     0.031 C 
ATOM     44  C   UNL A   1      37.758  30.868  28.983  1.00  0.00     0.029 A 
ATOM     45  N   UNL A   1      39.164  30.483  30.678  1.00  0.00    -0.354 N 
ATOM     46  C   UNL A   1      38.946  32.806  34.315  1.00  0.00     0.074 A 
ATOM     47  C   UNL A   1      37.898  33.800  34.237  1.00  0.00     0.031 C 
ATOM     48  C   UNL A   1      38.595  29.892  28.597  1.00  0.00     0.029 A 
ATOM     49  C   UNL A   1      39.543  29.625  29.675  1.00  0.00     0.049 A 
ATOM     50  H   UNL A   1      39.619  30.527  31.550  1.00  0.00     0.167 HD
ATOM     51  C   UNL A   1      39.758  32.632  35.386  1.00  0.00     0.037 A 
ATOM     52  C   UNL A   1      40.546  28.727  29.628  1.00  0.00     0.037 A 
ATOM     53  C   UNL A   1      40.787  31.628  35.467  1.00  0.00     0.049 A 
ATOM     54  C   UNL A   1      41.431  28.554  30.832  1.00  0.00     0.074 A 
ATOM     55  C   UNL A   1      41.615  31.326  36.534  1.00  0.00     0.029 A 
ATOM     56  N   UNL A   1      41.133  30.767  34.437  1.00  0.00    -0.354 N 
ATOM     57  N   UNL A   1      41.393  29.176  31.985  1.00  0.00    -0.248 NA
ATOM     58  C   UNL A   1      42.495  27.547  30.729  1.00  0.00     0.031 C 
ATOM     59  C   UNL A   1      42.496  30.316  36.133  1.00  0.00     0.029 A 
ATOM     60  C   UNL A   1      42.180  29.951  34.834  1.00  0.00     0.049 A 
ATOM     61  H   UNL A   1      40.699  30.738  33.553  1.00  0.00     0.167 HD
ATOM     62  C   UNL A   1      42.407  28.622  32.752  1.00  0.00     0.074 A 
ATOM     63  C   UNL A   1      43.030  27.597  31.941  1.00  0.00     0.031 C 
ATOM     64  C   UNL A   1      42.790  28.934  34.014  1.00  0.00     0.037 A 
BRANCH  51  65
ATOM     65  C   UNL A   1      39.563  33.544  36.562  1.00  0.00     0.064 A 
ATOM     66  C   UNL A   1      38.760  33.177  37.653  1.00  0.00     0.173 A 
ATOM     67  C   UNL A   1      40.221  34.782  36.620  1.00  0.00     0.173 A 
ATOM     68  F   UNL A   1      38.101  32.009  37.643  1.00  0.00    -0.203 F 
ATOM     69  C   UNL A   1      38.604  34.026  38.745  1.00  0.00     0.198 A 
ATOM     70  C   UNL A   1      40.087  35.615  37.728  1.00  0.00     0.198 A 
ATOM     71  F   UNL A   1      41.006  35.179  35.606  1.00  0.00    -0.203 F 
ATOM     72  F   UNL A   1      37.797  33.672  39.755  1.00  0.00    -0.200 F 
ATOM     73  C   UNL A   1      39.273  35.240  38.786  1.00  0.00     0.200 A 
ATOM     74  F   UNL A   1      40.745  36.781  37.772  1.00  0.00    -0.200 F 
ATOM     75  F   UNL A   1      39.130  36.050  39.844  1.00  0.00    -0.200 F 
ENDBRANCH  51  65
BRANCH  52  76
ATOM     76  C   UNL A   1      40.753  27.908  28.405  1.00  0.00     0.064 A 
ATOM     77  C   UNL A   1      40.163  26.643  28.277  1.00  0.00     0.173 A 
ATOM     78  C   UNL A   1      41.551  28.366  27.346  1.00  0.00     0.173 A 
ATOM     79  F   UNL A   1      39.407  26.154  29.271  1.00  0.00    -0.203 F 
ATOM     80  C   UNL A   1      40.381  25.858  27.147  1.00  0.00     0.198 A 
ATOM     81  C   UNL A   1      41.746  27.592  26.204  1.00  0.00     0.198 A 
ATOM     82  F   UNL A   1      42.134  29.572  27.417  1.00  0.00    -0.203 F 
ATOM     83  F   UNL A   1      39.845  24.632  27.072  1.00  0.00    -0.200 F 
ATOM     84  C   UNL A   1      41.168  26.335  26.110  1.00  0.00     0.200 A 
ATOM     85  F   UNL A   1      42.492  28.064  25.197  1.00  0.00    -0.200 F 
ATOM     86  F   UNL A   1      41.376  25.580  25.022  1.00  0.00    -0.200 F 
ENDBRANCH  52  76
BRANCH  64  87
ATOM     87  C   UNL A   1      43.920  28.140  34.604  1.00  0.00     0.064 A 
ATOM     88  C   UNL A   1      45.249  28.577  34.519  1.00  0.00     0.173 A 
ATOM     89  C   UNL A   1      43.665  26.942  35.289  1.00  0.00     0.173 A 
ATOM     90  F   UNL A   1      45.548  29.708  33.861  1.00  0.00    -0.203 F 
ATOM     91  C   UNL A   1      46.286  27.828  35.071  1.00  0.00     0.198 A 
ATOM     92  C   UNL A   1      44.699  26.213  35.868  1.00  0.00     0.198 A 
ATOM     93  F   UNL A   1      42.410  26.484  35.407  1.00  0.00    -0.203 F 
ATOM     94  F   UNL A   1      47.554  28.238  34.930  1.00  0.00    -0.200 F 
ATOM     95  C   UNL A   1      46.009  26.652  35.750  1.00  0.00     0.200 A 
ATOM     96  F   UNL A   1      44.429  25.084  36.537  1.00  0.00    -0.200 F 
ATOM     97  F   UNL A   1      47.008  25.935  36.285  1.00  0.00    -0.200 F 
ENDBRANCH  64  87
ENDBRANCH  38  39
ENDBRANCH  30  33
ENDBRANCH  28  29
ENDBRANCH  27  28
ENDBRANCH  26  27
ENDBRANCH   1  26
TORSDOF 17
ENDMDL
