MODEL 1
REMARK VINA RESULT:     -10.9      0.000      0.000
REMARK SMILES C[C@@H](CC(=O)NCCCCNC(=O)c1ccc(-c2c3nc(c(-c4c(F)c(F)c(F)c(F)c4F)c4ccc([nH]4)c(-c4c(F)c(F)c(F)c(F)c4F)c4nc(c(-c5c(F)c(F)c(F)c(F)c5F)c5ccc2[nH]5)C=C4)C=C3)cc1)CC(=O)N(C)C[C@H]1CCC[N@H+]1C
REMARK SMILES IDX 4 1 5 2 6 3 3 5 2 6 1 7 77 8 78 9 79 10 80 11 81 12 82 13
REMARK SMILES IDX 83 14 84 15 87 16 85 17 86 18 88 19 7 21 8 22 9 23 10 24
REMARK SMILES IDX 11 25 12 26 13 28 14 29 15 30 76 31 16 32 75 33 17 34 18 35
REMARK SMILES IDX 19 36 69 37 20 38 74 39 68 40 70 41 21 42 73 43 67 44 66 45
REMARK SMILES IDX 22 47 54 48 34 49 53 50 35 51 38 52 52 53 71 54 36 55 37 56
REMARK SMILES IDX 51 58 72 59 39 60 23 61 24 62 32 63 25 64 26 65 30 66 33 67
REMARK SMILES IDX 27 68 28 69 31 70 29 71 55 72 56 73 64 74 57 75 58 76 62 77
REMARK SMILES IDX 65 78 59 79 60 80 63 81 61 82 40 83 41 84 49 85 42 86 43 87
REMARK SMILES IDX 47 88 50 89 44 90 45 91 48 92 46 93
REMARK H PARENT 6 4 87 20 11 27 70 46 38 57
REMARK Flexibility Score: inf
ROOT
ATOM      1  C   UNL A   1      33.375  28.522  24.238  1.00  0.00     0.220 C 
ATOM      2  O   UNL A   1      33.995  28.478  23.173  1.00  0.00    -0.275 OA
ATOM      3  N   UNL A   1      33.349  29.707  24.907  1.00  0.00    -0.356 N 
ATOM      4  H   UNL A   1      33.798  30.453  24.447  1.00  0.00     0.163 HD
ENDROOT
BRANCH   1   5
ATOM      5  C   UNL A   1      32.664  27.289  24.776  1.00  0.00     0.103 C 
BRANCH   5   6
ATOM      6  C   UNL A   1      31.130  27.218  24.592  1.00  0.00     0.004 C 
ATOM      7  C   UNL A   1      30.558  26.087  25.447  1.00  0.00     0.009 C 
BRANCH   6   8
ATOM      8  C   UNL A   1      30.683  27.236  23.116  1.00  0.00     0.104 C 
BRANCH   8   9
ATOM      9  C   UNL A   1      30.013  28.534  22.663  1.00  0.00     0.222 C 
ATOM     10  O   UNL A   1      30.730  29.448  22.248  1.00  0.00    -0.275 OA
BRANCH   9  11
ATOM     11  N   UNL A   1      28.629  28.663  22.742  1.00  0.00    -0.340 N 
ATOM     12  C   UNL A   1      27.778  27.743  23.488  1.00  0.00     0.147 C 
BRANCH  11  13
ATOM     13  C   UNL A   1      27.952  29.588  21.820  1.00  0.00     0.184 C 
BRANCH  13  14
ATOM     14  C   UNL A   1      27.529  31.003  22.327  1.00  0.00     0.203 C 
ATOM     15  C   UNL A   1      27.922  31.307  23.774  1.00  0.00     0.073 C 
ATOM     16  N   UNL A   1      27.857  32.245  21.623  1.00  0.00    -0.333 N 
ATOM     17  C   UNL A   1      28.908  32.467  23.719  1.00  0.00     0.068 C 
ATOM     18  C   UNL A   1      29.008  32.864  22.258  1.00  0.00     0.262 C 
ATOM     19  C   UNL A   1      27.972  32.185  20.179  1.00  0.00     0.333 C 
ATOM     20  H   UNL A   1      27.031  32.835  21.724  1.00  0.00     0.348 HD
ENDBRANCH  13  14
ENDBRANCH  11  13
ENDBRANCH   9  11
ENDBRANCH   8   9
ENDBRANCH   6   8
ENDBRANCH   5   6
ENDBRANCH   1   5
BRANCH   3  21
ATOM     21  C   UNL A   1      32.768  30.040  26.191  1.00  0.00     0.116 C 
BRANCH  21  22
ATOM     22  C   UNL A   1      31.396  30.688  26.024  1.00  0.00     0.023 C 
BRANCH  22  23
ATOM     23  C   UNL A   1      31.263  32.103  26.566  1.00  0.00     0.023 C 
BRANCH  23  24
ATOM     24  C   UNL A   1      32.598  32.778  26.818  1.00  0.00     0.116 C 
BRANCH  24  25
ATOM     25  N   UNL A   1      32.492  34.017  27.581  1.00  0.00    -0.352 N 
ATOM     26  C   UNL A   1      33.314  34.477  28.581  1.00  0.00     0.251 C 
ATOM     27  H   UNL A   1      31.732  34.599  27.348  1.00  0.00     0.163 HD
ATOM     28  O   UNL A   1      33.048  35.508  29.189  1.00  0.00    -0.269 OA
BRANCH  26  29
ATOM     29  C   UNL A   1      34.496  33.674  28.949  1.00  0.00     0.039 A 
ATOM     30  C   UNL A   1      35.763  34.251  28.859  1.00  0.00     0.014 A 
ATOM     31  C   UNL A   1      34.332  32.393  29.479  1.00  0.00     0.014 A 
ATOM     32  C   UNL A   1      36.860  33.572  29.388  1.00  0.00     0.010 A 
ATOM     33  C   UNL A   1      35.402  31.772  30.103  1.00  0.00     0.010 A 
ATOM     34  C   UNL A   1      36.679  32.351  30.058  1.00  0.00    -0.014 A 
BRANCH  34  35
ATOM     35  C   UNL A   1      37.808  31.641  30.704  1.00  0.00     0.031 A 
ATOM     36  C   UNL A   1      38.193  31.993  32.114  1.00  0.00     0.074 A 
ATOM     37  C   UNL A   1      38.538  30.755  29.999  1.00  0.00     0.049 A 
ATOM     38  N   UNL A   1      39.212  31.582  32.823  1.00  0.00    -0.248 NA
ATOM     39  C   UNL A   1      37.344  32.980  32.802  1.00  0.00     0.031 C 
ATOM     40  C   UNL A   1      38.307  30.383  28.602  1.00  0.00     0.029 A 
ATOM     41  N   UNL A   1      39.633  30.012  30.361  1.00  0.00    -0.354 N 
ATOM     42  C   UNL A   1      39.141  32.281  34.020  1.00  0.00     0.074 A 
ATOM     43  C   UNL A   1      38.023  33.190  33.919  1.00  0.00     0.031 C 
ATOM     44  C   UNL A   1      39.210  29.459  28.237  1.00  0.00     0.029 A 
ATOM     45  C   UNL A   1      40.104  29.199  29.360  1.00  0.00     0.049 A 
ATOM     46  H   UNL A   1      40.043  30.059  31.256  1.00  0.00     0.167 HD
ATOM     47  C   UNL A   1      39.919  32.152  35.121  1.00  0.00     0.037 A 
ATOM     48  C   UNL A   1      41.141  28.340  29.354  1.00  0.00     0.037 A 
ATOM     49  C   UNL A   1      40.993  31.204  35.237  1.00  0.00     0.049 A 
ATOM     50  C   UNL A   1      41.963  28.183  30.605  1.00  0.00     0.074 A 
ATOM     51  C   UNL A   1      41.793  30.935  36.332  1.00  0.00     0.029 A 
ATOM     52  N   UNL A   1      41.408  30.360  34.217  1.00  0.00    -0.354 N 
ATOM     53  N   UNL A   1      41.845  28.798  31.756  1.00  0.00    -0.248 NA
ATOM     54  C   UNL A   1      43.059  27.205  30.557  1.00  0.00     0.031 C 
ATOM     55  C   UNL A   1      42.714  29.948  35.966  1.00  0.00     0.029 A 
ATOM     56  C   UNL A   1      42.460  29.574  34.656  1.00  0.00     0.049 A 
ATOM     57  H   UNL A   1      41.013  30.324  33.316  1.00  0.00     0.167 HD
ATOM     58  C   UNL A   1      42.828  28.264  32.577  1.00  0.00     0.074 A 
ATOM     59  C   UNL A   1      43.526  27.265  31.796  1.00  0.00     0.031 C 
ATOM     60  C   UNL A   1      43.128  28.575  33.862  1.00  0.00     0.037 A 
BRANCH  47  61
ATOM     61  C   UNL A   1      39.617  33.045  36.288  1.00  0.00     0.064 A 
ATOM     62  C   UNL A   1      38.665  32.691  37.257  1.00  0.00     0.173 A 
ATOM     63  C   UNL A   1      40.292  34.265  36.446  1.00  0.00     0.173 A 
ATOM     64  F   UNL A   1      37.979  31.544  37.143  1.00  0.00    -0.203 F 
ATOM     65  C   UNL A   1      38.374  33.542  38.321  1.00  0.00     0.198 A 
ATOM     66  C   UNL A   1      40.022  35.098  37.529  1.00  0.00     0.198 A 
ATOM     67  F   UNL A   1      41.211  34.650  35.549  1.00  0.00    -0.203 F 
ATOM     68  F   UNL A   1      37.418  33.210  39.199  1.00  0.00    -0.200 F 
ATOM     69  C   UNL A   1      39.057  34.741  38.460  1.00  0.00     0.200 A 
ATOM     70  F   UNL A   1      40.689  36.252  37.667  1.00  0.00    -0.200 F 
ATOM     71  F   UNL A   1      38.777  35.557  39.484  1.00  0.00    -0.200 F 
ENDBRANCH  47  61
BRANCH  48  72
ATOM     72  C   UNL A   1      41.431  27.530  28.143  1.00  0.00     0.064 A 
ATOM     73  C   UNL A   1      40.898  26.242  28.002  1.00  0.00     0.173 A 
ATOM     74  C   UNL A   1      42.238  28.020  27.108  1.00  0.00     0.173 A 
ATOM     75  F   UNL A   1      40.134  25.724  28.975  1.00  0.00    -0.203 F 
ATOM     76  C   UNL A   1      41.178  25.464  26.880  1.00  0.00     0.198 A 
ATOM     77  C   UNL A   1      42.498  27.252  25.974  1.00  0.00     0.198 A 
ATOM     78  F   UNL A   1      42.766  29.250  27.191  1.00  0.00    -0.203 F 
ATOM     79  F   UNL A   1      40.690  24.221  26.790  1.00  0.00    -0.200 F 
ATOM     80  C   UNL A   1      41.974  25.972  25.865  1.00  0.00     0.200 A 
ATOM     81  F   UNL A   1      43.256  27.750  24.989  1.00  0.00    -0.200 F 
ATOM     82  F   UNL A   1      42.241  25.226  24.785  1.00  0.00    -0.200 F 
ENDBRANCH  48  72
BRANCH  60  83
ATOM     83  C   UNL A   1      44.235  27.801  34.514  1.00  0.00     0.064 A 
ATOM     84  C   UNL A   1      45.559  28.259  34.499  1.00  0.00     0.173 A 
ATOM     85  C   UNL A   1      43.955  26.611  35.202  1.00  0.00     0.173 A 
ATOM     86  F   UNL A   1      45.877  29.385  33.840  1.00  0.00    -0.203 F 
ATOM     87  C   UNL A   1      46.570  27.542  35.132  1.00  0.00     0.198 A 
ATOM     88  C   UNL A   1      44.963  25.910  35.858  1.00  0.00     0.198 A 
ATOM     89  F   UNL A   1      42.702  26.136  35.251  1.00  0.00    -0.203 F 
ATOM     90  F   UNL A   1      47.836  27.976  35.069  1.00  0.00    -0.200 F 
ATOM     91  C   UNL A   1      46.270  26.373  35.817  1.00  0.00     0.200 A 
ATOM     92  F   UNL A   1      44.670  24.789  36.530  1.00  0.00    -0.200 F 
ATOM     93  F   UNL A   1      47.243  25.688  36.433  1.00  0.00    -0.200 F 
ENDBRANCH  60  83
ENDBRANCH  34  35
ENDBRANCH  26  29
ENDBRANCH  24  25
ENDBRANCH  23  24
ENDBRANCH  22  23
ENDBRANCH  21  22
ENDBRANCH   3  21
TORSDOF 17
ENDMDL
MODEL 2
REMARK VINA RESULT:     -10.8      2.114      3.684
REMARK SMILES C[C@@H](CC(=O)NCCCCNC(=O)c1ccc(-c2c3nc(c(-c4c(F)c(F)c(F)c(F)c4F)c4ccc([nH]4)c(-c4c(F)c(F)c(F)c(F)c4F)c4nc(c(-c5c(F)c(F)c(F)c(F)c5F)c5ccc2[nH]5)C=C4)C=C3)cc1)CC(=O)N(C)C[C@H]1CCC[N@H+]1C
REMARK SMILES IDX 4 1 5 2 6 3 3 5 2 6 1 7 77 8 78 9 79 10 80 11 81 12 82 13
REMARK SMILES IDX 83 14 84 15 87 16 85 17 86 18 88 19 7 21 8 22 9 23 10 24
REMARK SMILES IDX 11 25 12 26 13 28 14 29 15 30 76 31 16 32 75 33 17 34 18 35
REMARK SMILES IDX 19 36 69 37 20 38 74 39 68 40 70 41 21 42 73 43 67 44 66 45
REMARK SMILES IDX 22 47 54 48 34 49 53 50 35 51 38 52 52 53 71 54 36 55 37 56
REMARK SMILES IDX 51 58 72 59 39 60 23 61 24 62 32 63 25 64 26 65 30 66 33 67
REMARK SMILES IDX 27 68 28 69 31 70 29 71 55 72 56 73 64 74 57 75 58 76 62 77
REMARK SMILES IDX 65 78 59 79 60 80 63 81 61 82 40 83 41 84 49 85 42 86 43 87
REMARK SMILES IDX 47 88 50 89 44 90 45 91 48 92 46 93
REMARK H PARENT 6 4 87 20 11 27 70 46 38 57
REMARK Flexibility Score: inf
ROOT
ATOM      1  C   UNL A   1      31.452  27.677  26.606  1.00  0.00     0.220 C 
ATOM      2  O   UNL A   1      30.903  26.695  27.109  1.00  0.00    -0.275 OA
ATOM      3  N   UNL A   1      32.055  28.565  27.444  1.00  0.00    -0.356 N 
ATOM      4  H   UNL A   1      32.040  28.312  28.396  1.00  0.00     0.163 HD
ENDROOT
BRANCH   1   5
ATOM      5  C   UNL A   1      31.453  27.881  25.099  1.00  0.00     0.103 C 
BRANCH   5   6
ATOM      6  C   UNL A   1      32.467  27.056  24.272  1.00  0.00     0.004 C 
ATOM      7  C   UNL A   1      33.879  27.598  24.495  1.00  0.00     0.009 C 
BRANCH   6   8
ATOM      8  C   UNL A   1      32.049  26.857  22.800  1.00  0.00     0.104 C 
BRANCH   8   9
ATOM      9  C   UNL A   1      32.722  25.680  22.095  1.00  0.00     0.222 C 
ATOM     10  O   UNL A   1      33.530  25.922  21.194  1.00  0.00    -0.275 OA
BRANCH   9  11
ATOM     11  N   UNL A   1      32.403  24.376  22.466  1.00  0.00    -0.340 N 
ATOM     12  C   UNL A   1      31.254  24.036  23.296  1.00  0.00     0.147 C 
BRANCH  11  13
ATOM     13  C   UNL A   1      33.403  23.318  22.259  1.00  0.00     0.184 C 
BRANCH  13  14
ATOM     14  C   UNL A   1      34.371  22.939  23.423  1.00  0.00     0.203 C 
ATOM     15  C   UNL A   1      34.934  24.131  24.200  1.00  0.00     0.073 C 
ATOM     16  N   UNL A   1      34.029  21.983  24.480  1.00  0.00    -0.333 N 
ATOM     17  C   UNL A   1      34.406  24.007  25.624  1.00  0.00     0.068 C 
ATOM     18  C   UNL A   1      33.618  22.711  25.668  1.00  0.00     0.262 C 
ATOM     19  C   UNL A   1      33.124  20.903  24.137  1.00  0.00     0.333 C 
ATOM     20  H   UNL A   1      34.888  21.462  24.658  1.00  0.00     0.348 HD
ENDBRANCH  13  14
ENDBRANCH  11  13
ENDBRANCH   9  11
ENDBRANCH   8   9
ENDBRANCH   6   8
ENDBRANCH   5   6
ENDBRANCH   1   5
BRANCH   3  21
ATOM     21  C   UNL A   1      32.711  29.822  27.154  1.00  0.00     0.116 C 
BRANCH  21  22
ATOM     22  C   UNL A   1      31.831  30.716  26.285  1.00  0.00     0.023 C 
BRANCH  22  23
ATOM     23  C   UNL A   1      31.465  32.067  26.883  1.00  0.00     0.023 C 
BRANCH  23  24
ATOM     24  C   UNL A   1      32.662  32.833  27.413  1.00  0.00     0.116 C 
BRANCH  24  25
ATOM     25  N   UNL A   1      32.375  34.232  27.712  1.00  0.00    -0.352 N 
ATOM     26  C   UNL A   1      33.005  35.060  28.609  1.00  0.00     0.251 C 
ATOM     27  H   UNL A   1      31.632  34.634  27.205  1.00  0.00     0.163 HD
ATOM     28  O   UNL A   1      32.595  36.198  28.810  1.00  0.00    -0.269 OA
BRANCH  26  29
ATOM     29  C   UNL A   1      34.154  34.532  29.370  1.00  0.00     0.039 A 
ATOM     30  C   UNL A   1      33.920  33.842  30.560  1.00  0.00     0.014 A 
ATOM     31  C   UNL A   1      35.444  34.632  28.846  1.00  0.00     0.014 A 
ATOM     32  C   UNL A   1      34.975  33.173  31.179  1.00  0.00     0.010 A 
ATOM     33  C   UNL A   1      36.464  33.875  29.399  1.00  0.00     0.010 A 
ATOM     34  C   UNL A   1      36.243  33.144  30.576  1.00  0.00    -0.014 A 
BRANCH  34  35
ATOM     35  C   UNL A   1      37.368  32.376  31.161  1.00  0.00     0.031 A 
ATOM     36  C   UNL A   1      37.848  32.710  32.547  1.00  0.00     0.074 A 
ATOM     37  C   UNL A   1      38.010  31.452  30.421  1.00  0.00     0.049 A 
ATOM     38  N   UNL A   1      38.882  32.246  33.200  1.00  0.00    -0.248 NA
ATOM     39  C   UNL A   1      37.091  33.740  33.276  1.00  0.00     0.031 C 
ATOM     40  C   UNL A   1      37.682  31.092  29.040  1.00  0.00     0.029 A 
ATOM     41  N   UNL A   1      39.084  30.654  30.725  1.00  0.00    -0.354 N 
ATOM     42  C   UNL A   1      38.915  32.950  34.396  1.00  0.00     0.074 A 
ATOM     43  C   UNL A   1      37.842  33.916  34.353  1.00  0.00     0.031 C 
ATOM     44  C   UNL A   1      38.514  30.121  28.630  1.00  0.00     0.029 A 
ATOM     45  C   UNL A   1      39.455  29.816  29.702  1.00  0.00     0.049 A 
ATOM     46  H   UNL A   1      39.544  30.680  31.595  1.00  0.00     0.167 HD
ATOM     47  C   UNL A   1      39.745  32.781  35.453  1.00  0.00     0.037 A 
ATOM     48  C   UNL A   1      40.444  28.904  29.643  1.00  0.00     0.037 A 
ATOM     49  C   UNL A   1      40.772  31.778  35.513  1.00  0.00     0.049 A 
ATOM     50  C   UNL A   1      41.325  28.705  30.847  1.00  0.00     0.074 A 
ATOM     51  C   UNL A   1      41.617  31.469  36.562  1.00  0.00     0.029 A 
ATOM     52  N   UNL A   1      41.085  30.913  34.475  1.00  0.00    -0.354 N 
ATOM     53  N   UNL A   1      41.303  29.327  32.000  1.00  0.00    -0.248 NA
ATOM     54  C   UNL A   1      42.363  27.671  30.742  1.00  0.00     0.031 C 
ATOM     55  C   UNL A   1      42.463  30.435  36.151  1.00  0.00     0.029 A 
ATOM     56  C   UNL A   1      42.118  30.073  34.858  1.00  0.00     0.049 A 
ATOM     57  H   UNL A   1      40.639  30.896  33.598  1.00  0.00     0.167 HD
ATOM     58  C   UNL A   1      42.300  28.744  32.768  1.00  0.00     0.074 A 
ATOM     59  C   UNL A   1      42.901  27.708  31.953  1.00  0.00     0.031 C 
ATOM     60  C   UNL A   1      42.687  29.040  34.033  1.00  0.00     0.037 A 
BRANCH  47  61
ATOM     61  C   UNL A   1      39.555  33.691  36.631  1.00  0.00     0.064 A 
ATOM     62  C   UNL A   1      38.781  33.308  37.737  1.00  0.00     0.173 A 
ATOM     63  C   UNL A   1      40.161  34.956  36.660  1.00  0.00     0.173 A 
ATOM     64  F   UNL A   1      38.165  32.116  37.752  1.00  0.00    -0.203 F 
ATOM     65  C   UNL A   1      38.590  34.172  38.813  1.00  0.00     0.198 A 
ATOM     66  C   UNL A   1      39.994  35.805  37.752  1.00  0.00     0.198 A 
ATOM     67  F   UNL A   1      40.911  35.370  35.629  1.00  0.00    -0.203 F 
ATOM     68  F   UNL A   1      37.797  33.808  39.829  1.00  0.00    -0.200 F 
ATOM     69  C   UNL A   1      39.202  35.416  38.822  1.00  0.00     0.200 A 
ATOM     70  F   UNL A   1      40.594  37.003  37.764  1.00  0.00    -0.200 F 
ATOM     71  F   UNL A   1      39.019  36.246  39.858  1.00  0.00    -0.200 F 
ENDBRANCH  47  61
BRANCH  48  72
ATOM     72  C   UNL A   1      40.622  28.078  28.420  1.00  0.00     0.064 A 
ATOM     73  C   UNL A   1      40.013  26.821  28.313  1.00  0.00     0.173 A 
ATOM     74  C   UNL A   1      41.399  28.522  27.342  1.00  0.00     0.173 A 
ATOM     75  F   UNL A   1      39.274  26.347  29.328  1.00  0.00    -0.203 F 
ATOM     76  C   UNL A   1      40.189  26.028  27.180  1.00  0.00     0.198 A 
ATOM     77  C   UNL A   1      41.555  27.740  26.199  1.00  0.00     0.198 A 
ATOM     78  F   UNL A   1      41.997  29.721  27.392  1.00  0.00    -0.203 F 
ATOM     79  F   UNL A   1      39.629  24.814  27.122  1.00  0.00    -0.200 F 
ATOM     80  C   UNL A   1      40.956  26.491  26.122  1.00  0.00     0.200 A 
ATOM     81  F   UNL A   1      42.286  28.194  25.172  1.00  0.00    -0.200 F 
ATOM     82  F   UNL A   1      41.124  25.730  25.032  1.00  0.00    -0.200 F 
ENDBRANCH  48  72
BRANCH  60  83
ATOM     83  C   UNL A   1      43.787  28.209  34.625  1.00  0.00     0.064 A 
ATOM     84  C   UNL A   1      43.526  26.977  35.241  1.00  0.00     0.173 A 
ATOM     85  C   UNL A   1      45.121  28.632  34.532  1.00  0.00     0.173 A 
ATOM     86  F   UNL A   1      42.263  26.539  35.367  1.00  0.00    -0.203 F 
ATOM     87  C   UNL A   1      44.560  26.206  35.761  1.00  0.00     0.198 A 
ATOM     88  C   UNL A   1      46.156  27.846  35.029  1.00  0.00     0.198 A 
ATOM     89  F   UNL A   1      45.421  29.800  33.945  1.00  0.00    -0.203 F 
ATOM     90  F   UNL A   1      44.285  25.052  36.384  1.00  0.00    -0.200 F 
ATOM     91  C   UNL A   1      45.875  26.637  35.648  1.00  0.00     0.200 A 
ATOM     92  F   UNL A   1      47.426  28.257  34.907  1.00  0.00    -0.200 F 
ATOM     93  F   UNL A   1      46.871  25.889  36.143  1.00  0.00    -0.200 F 
ENDBRANCH  60  83
ENDBRANCH  34  35
ENDBRANCH  26  29
ENDBRANCH  24  25
ENDBRANCH  23  24
ENDBRANCH  22  23
ENDBRANCH  21  22
ENDBRANCH   3  21
TORSDOF 17
ENDMDL
MODEL 3
REMARK VINA RESULT:     -10.6      1.937      3.737
REMARK SMILES C[C@@H](CC(=O)NCCCCNC(=O)c1ccc(-c2c3nc(c(-c4c(F)c(F)c(F)c(F)c4F)c4ccc([nH]4)c(-c4c(F)c(F)c(F)c(F)c4F)c4nc(c(-c5c(F)c(F)c(F)c(F)c5F)c5ccc2[nH]5)C=C4)C=C3)cc1)CC(=O)N(C)C[C@H]1CCC[N@H+]1C
REMARK SMILES IDX 4 1 5 2 6 3 3 5 2 6 1 7 77 8 78 9 79 10 80 11 81 12 82 13
REMARK SMILES IDX 83 14 84 15 87 16 85 17 86 18 88 19 7 21 8 22 9 23 10 24
REMARK SMILES IDX 11 25 12 26 13 28 14 29 15 30 76 31 16 32 75 33 17 34 18 35
REMARK SMILES IDX 19 36 69 37 20 38 74 39 68 40 70 41 21 42 73 43 67 44 66 45
REMARK SMILES IDX 22 47 54 48 34 49 53 50 35 51 38 52 52 53 71 54 36 55 37 56
REMARK SMILES IDX 51 58 72 59 39 60 23 61 24 62 32 63 25 64 26 65 30 66 33 67
REMARK SMILES IDX 27 68 28 69 31 70 29 71 55 72 56 73 64 74 57 75 58 76 62 77
REMARK SMILES IDX 65 78 59 79 60 80 63 81 61 82 40 83 41 84 49 85 42 86 43 87
REMARK SMILES IDX 47 88 50 89 44 90 45 91 48 92 46 93
REMARK H PARENT 6 4 87 20 11 27 70 46 38 57
REMARK Flexibility Score: inf
ROOT
ATOM      1  C   UNL A   1      31.898  28.434  23.286  1.00  0.00     0.220 C 
ATOM      2  O   UNL A   1      32.874  27.966  22.696  1.00  0.00    -0.275 OA
ATOM      3  N   UNL A   1      32.119  29.440  24.176  1.00  0.00    -0.356 N 
ATOM      4  H   UNL A   1      33.053  29.746  24.234  1.00  0.00     0.163 HD
ENDROOT
BRANCH   1   5
ATOM      5  C   UNL A   1      30.499  27.899  23.022  1.00  0.00     0.103 C 
BRANCH   5   6
ATOM      6  C   UNL A   1      30.057  26.647  23.816  1.00  0.00     0.004 C 
ATOM      7  C   UNL A   1      28.533  26.616  23.927  1.00  0.00     0.009 C 
BRANCH   6   8
ATOM      8  C   UNL A   1      30.831  26.447  25.135  1.00  0.00     0.104 C 
BRANCH   8   9
ATOM      9  C   UNL A   1      30.721  25.046  25.738  1.00  0.00     0.222 C 
ATOM     10  O   UNL A   1      30.048  24.900  26.761  1.00  0.00    -0.275 OA
BRANCH   9  11
ATOM     11  N   UNL A   1      31.385  23.980  25.137  1.00  0.00    -0.340 N 
ATOM     12  C   UNL A   1      30.998  22.586  25.320  1.00  0.00     0.147 C 
BRANCH  11  13
ATOM     13  C   UNL A   1      32.697  24.224  24.518  1.00  0.00     0.184 C 
BRANCH  13  14
ATOM     14  C   UNL A   1      33.731  23.057  24.426  1.00  0.00     0.203 C 
ATOM     15  C   UNL A   1      34.534  23.018  23.124  1.00  0.00     0.073 C 
ATOM     16  N   UNL A   1      34.743  22.791  25.451  1.00  0.00    -0.333 N 
ATOM     17  C   UNL A   1      35.990  23.253  23.507  1.00  0.00     0.068 C 
ATOM     18  C   UNL A   1      36.016  23.345  25.022  1.00  0.00     0.262 C 
ATOM     19  C   UNL A   1      34.412  23.131  26.821  1.00  0.00     0.333 C 
ATOM     20  H   UNL A   1      34.797  21.775  25.515  1.00  0.00     0.348 HD
ENDBRANCH  13  14
ENDBRANCH  11  13
ENDBRANCH   9  11
ENDBRANCH   8   9
ENDBRANCH   6   8
ENDBRANCH   5   6
ENDBRANCH   1   5
BRANCH   3  21
ATOM     21  C   UNL A   1      31.194  30.130  25.051  1.00  0.00     0.116 C 
BRANCH  21  22
ATOM     22  C   UNL A   1      31.886  30.593  26.331  1.00  0.00     0.023 C 
BRANCH  22  23
ATOM     23  C   UNL A   1      31.523  31.991  26.809  1.00  0.00     0.023 C 
BRANCH  23  24
ATOM     24  C   UNL A   1      32.715  32.782  27.312  1.00  0.00     0.116 C 
BRANCH  24  25
ATOM     25  N   UNL A   1      32.403  34.172  27.629  1.00  0.00    -0.352 N 
ATOM     26  C   UNL A   1      33.009  34.994  28.547  1.00  0.00     0.251 C 
ATOM     27  H   UNL A   1      31.661  34.571  27.119  1.00  0.00     0.163 HD
ATOM     28  O   UNL A   1      32.579  36.123  28.761  1.00  0.00    -0.269 OA
BRANCH  26  29
ATOM     29  C   UNL A   1      34.156  34.472  29.315  1.00  0.00     0.039 A 
ATOM     30  C   UNL A   1      33.917  33.758  30.490  1.00  0.00     0.014 A 
ATOM     31  C   UNL A   1      35.451  34.600  28.811  1.00  0.00     0.014 A 
ATOM     32  C   UNL A   1      34.973  33.095  31.113  1.00  0.00     0.010 A 
ATOM     33  C   UNL A   1      36.475  33.850  29.366  1.00  0.00     0.010 A 
ATOM     34  C   UNL A   1      36.250  33.096  30.527  1.00  0.00    -0.014 A 
BRANCH  34  35
ATOM     35  C   UNL A   1      37.378  32.336  31.115  1.00  0.00     0.031 A 
ATOM     36  C   UNL A   1      37.860  32.679  32.498  1.00  0.00     0.074 A 
ATOM     37  C   UNL A   1      38.022  31.410  30.379  1.00  0.00     0.049 A 
ATOM     38  N   UNL A   1      38.897  32.223  33.152  1.00  0.00    -0.248 NA
ATOM     39  C   UNL A   1      37.100  33.711  33.222  1.00  0.00     0.031 C 
ATOM     40  C   UNL A   1      37.694  31.040  29.001  1.00  0.00     0.029 A 
ATOM     41  N   UNL A   1      39.099  30.617  30.686  1.00  0.00    -0.354 N 
ATOM     42  C   UNL A   1      38.929  32.934  34.343  1.00  0.00     0.074 A 
ATOM     43  C   UNL A   1      37.852  33.897  34.296  1.00  0.00     0.031 C 
ATOM     44  C   UNL A   1      38.528  30.069  28.595  1.00  0.00     0.029 A 
ATOM     45  C   UNL A   1      39.472  29.774  29.668  1.00  0.00     0.049 A 
ATOM     46  H   UNL A   1      39.561  30.650  31.555  1.00  0.00     0.167 HD
ATOM     47  C   UNL A   1      39.761  32.776  35.400  1.00  0.00     0.037 A 
ATOM     48  C   UNL A   1      40.464  28.865  29.612  1.00  0.00     0.037 A 
ATOM     49  C   UNL A   1      40.792  31.777  35.464  1.00  0.00     0.049 A 
ATOM     50  C   UNL A   1      41.348  28.677  30.816  1.00  0.00     0.074 A 
ATOM     51  C   UNL A   1      41.640  31.477  36.514  1.00  0.00     0.029 A 
ATOM     52  N   UNL A   1      41.107  30.906  34.431  1.00  0.00    -0.354 N 
ATOM     53  N   UNL A   1      41.326  29.306  31.966  1.00  0.00    -0.248 NA
ATOM     54  C   UNL A   1      42.390  27.646  30.716  1.00  0.00     0.031 C 
ATOM     55  C   UNL A   1      42.489  30.443  36.107  1.00  0.00     0.029 A 
ATOM     56  C   UNL A   1      42.143  30.073  34.817  1.00  0.00     0.049 A 
ATOM     57  H   UNL A   1      40.659  30.882  33.554  1.00  0.00     0.167 HD
ATOM     58  C   UNL A   1      42.327  28.731  32.735  1.00  0.00     0.074 A 
ATOM     59  C   UNL A   1      42.929  27.692  31.926  1.00  0.00     0.031 C 
ATOM     60  C   UNL A   1      42.715  29.036  33.997  1.00  0.00     0.037 A 
BRANCH  47  61
ATOM     61  C   UNL A   1      39.570  33.691  36.572  1.00  0.00     0.064 A 
ATOM     62  C   UNL A   1      40.176  34.957  36.622  1.00  0.00     0.173 A 
ATOM     63  C   UNL A   1      38.767  33.306  37.656  1.00  0.00     0.173 A 
ATOM     64  F   UNL A   1      40.969  35.367  35.620  1.00  0.00    -0.203 F 
ATOM     65  C   UNL A   1      40.014  35.787  37.729  1.00  0.00     0.198 A 
ATOM     66  C   UNL A   1      38.580  34.152  38.746  1.00  0.00     0.198 A 
ATOM     67  F   UNL A   1      38.165  32.108  37.658  1.00  0.00    -0.203 F 
ATOM     68  F   UNL A   1      40.652  36.964  37.780  1.00  0.00    -0.200 F 
ATOM     69  C   UNL A   1      39.212  35.387  38.786  1.00  0.00     0.200 A 
ATOM     70  F   UNL A   1      37.797  33.768  39.763  1.00  0.00    -0.200 F 
ATOM     71  F   UNL A   1      39.055  36.186  39.849  1.00  0.00    -0.200 F 
ENDBRANCH  47  61
BRANCH  48  72
ATOM     72  C   UNL A   1      40.644  28.033  28.395  1.00  0.00     0.064 A 
ATOM     73  C   UNL A   1      40.039  26.772  28.297  1.00  0.00     0.173 A 
ATOM     74  C   UNL A   1      41.415  28.473  27.311  1.00  0.00     0.173 A 
ATOM     75  F   UNL A   1      39.306  26.300  29.316  1.00  0.00    -0.203 F 
ATOM     76  C   UNL A   1      40.217  25.973  27.168  1.00  0.00     0.198 A 
ATOM     77  C   UNL A   1      41.572  27.685  26.173  1.00  0.00     0.198 A 
ATOM     78  F   UNL A   1      42.008  29.676  27.353  1.00  0.00    -0.203 F 
ATOM     79  F   UNL A   1      39.662  24.755  27.119  1.00  0.00    -0.200 F 
ATOM     80  C   UNL A   1      40.979  26.433  26.106  1.00  0.00     0.200 A 
ATOM     81  F   UNL A   1      42.298  28.137  25.141  1.00  0.00    -0.200 F 
ATOM     82  F   UNL A   1      41.148  25.666  25.020  1.00  0.00    -0.200 F 
ENDBRANCH  48  72
BRANCH  60  83
ATOM     83  C   UNL A   1      43.818  28.213  34.593  1.00  0.00     0.064 A 
ATOM     84  C   UNL A   1      45.158  28.617  34.518  1.00  0.00     0.173 A 
ATOM     85  C   UNL A   1      43.522  27.031  35.288  1.00  0.00     0.173 A 
ATOM     86  F   UNL A   1      45.490  29.733  33.851  1.00  0.00    -0.203 F 
ATOM     87  C   UNL A   1      46.167  27.856  35.100  1.00  0.00     0.198 A 
ATOM     88  C   UNL A   1      44.530  26.286  35.892  1.00  0.00     0.198 A 
ATOM     89  F   UNL A   1      42.254  26.607  35.392  1.00  0.00    -0.203 F 
ATOM     90  F   UNL A   1      47.446  28.238  34.981  1.00  0.00    -0.200 F 
ATOM     91  C   UNL A   1      45.851  26.695  35.793  1.00  0.00     0.200 A 
ATOM     92  F   UNL A   1      44.223  25.172  36.572  1.00  0.00    -0.200 F 
ATOM     93  F   UNL A   1      46.823  25.968  36.360  1.00  0.00    -0.200 F 
ENDBRANCH  60  83
ENDBRANCH  34  35
ENDBRANCH  26  29
ENDBRANCH  24  25
ENDBRANCH  23  24
ENDBRANCH  22  23
ENDBRANCH  21  22
ENDBRANCH   3  21
TORSDOF 17
ENDMDL
