MODEL 1
REMARK VINA RESULT:     -12.4      0.000      0.000
REMARK SMILES COc1cc([C@H]2[NH2+][C@@H](C(=O)NCCCCNC(=O)c3ccc(-c4c5nc(c(-c6c(F)c(F)c(F)c(F)c6F)c6ccc([nH]6)c(-c6c(F)c(F)c(F)c(F)c6F)c6nc(c(-c7c(F)c(F)c(F)c(F)c7F)c7ccc4[nH]7)C=C6)C=C5)cc3)CS2)cc([N+](=O)[O-])c1OC
REMARK SMILES IDX 13 1 12 2 11 3 9 4 10 5 8 7 6 8 7 9 83 10 82 13 5 14 3 15
REMARK SMILES IDX 4 16 89 17 85 18 84 19 2 20 1 21 90 22 91 23 86 24 87 25
REMARK SMILES IDX 88 26 14 27 15 28 16 29 17 30 18 32 19 33 20 34 81 35 21 36
REMARK SMILES IDX 80 37 22 38 23 39 24 40 74 41 25 42 79 43 73 44 75 45 26 46
REMARK SMILES IDX 78 47 72 48 71 49 27 51 59 52 39 53 58 54 40 55 43 56 57 57
REMARK SMILES IDX 76 58 41 59 42 60 56 62 77 63 44 64 28 65 29 66 37 67 30 68
REMARK SMILES IDX 31 69 35 70 38 71 32 72 33 73 36 74 34 75 60 76 61 77 69 78
REMARK SMILES IDX 62 79 63 80 67 81 70 82 64 83 65 84 68 85 66 86 45 87 46 88
REMARK SMILES IDX 54 89 47 90 48 91 52 92 55 93 49 94 50 95 53 96 51 97
REMARK H PARENT 11 6 7 11 7 12 16 31 75 50 43 61
REMARK Flexibility Score: inf
ROOT
ATOM      1  C   UNL A   1      31.878  30.367  26.825  1.00  0.00     0.023 C 
ENDROOT
BRANCH   1   2
ATOM      2  C   UNL A   1      32.065  29.715  25.458  1.00  0.00     0.116 C 
BRANCH   2   3
ATOM      3  N   UNL A   1      30.952  29.953  24.559  1.00  0.00    -0.351 N 
ATOM      4  C   UNL A   1      30.484  29.332  23.446  1.00  0.00     0.279 C 
ATOM      5  O   UNL A   1      29.402  29.773  23.032  1.00  0.00    -0.268 OA
ATOM      6  H   UNL A   1      30.419  30.741  24.810  1.00  0.00     0.163 HD
BRANCH   4   7
ATOM      7  C   UNL A   1      31.214  28.207  22.666  1.00  0.00     0.283 C 
ATOM      8  C   UNL A   1      31.581  25.849  22.535  1.00  0.00     0.274 C 
ATOM      9  N   UNL A   1      30.811  26.878  23.230  1.00  0.00    -0.321 N 
ATOM     10  S   UNL A   1      33.162  26.576  22.008  1.00  0.00    -0.088 SA
ATOM     11  H   UNL A   1      31.015  26.850  24.229  1.00  0.00     0.348 HD
ATOM     12  H   UNL A   1      29.811  26.723  23.102  1.00  0.00     0.348 HD
ATOM     13  C   UNL A   1      32.729  28.205  22.635  1.00  0.00     0.151 C 
BRANCH   8  14
ATOM     14  C   UNL A   1      31.816  24.598  23.362  1.00  0.00     0.031 A 
ATOM     15  C   UNL A   1      33.316  22.784  24.035  1.00  0.00     0.168 A 
ATOM     16  C   UNL A   1      32.962  23.820  23.151  1.00  0.00     0.061 A 
ATOM     17  C   UNL A   1      32.544  22.510  25.175  1.00  0.00     0.239 A 
ATOM     18  C   UNL A   1      31.349  23.233  25.332  1.00  0.00     0.315 A 
ATOM     19  C   UNL A   1      30.975  24.248  24.430  1.00  0.00     0.101 A 
BRANCH  15  20
ATOM     20  O   UNL A   1      34.521  22.162  23.828  1.00  0.00    -0.493 OA
ATOM     21  C   UNL A   1      35.532  23.084  23.415  1.00  0.00     0.278 C 
ENDBRANCH  15  20
BRANCH  17  22
ATOM     22  O   UNL A   1      32.899  21.676  26.200  1.00  0.00    -0.488 OA
ATOM     23  C   UNL A   1      33.792  22.146  27.197  1.00  0.00     0.279 C 
ENDBRANCH  17  22
BRANCH  18  24
ATOM     24  N   UNL A   1      30.460  22.988  26.472  1.00  0.00     0.066 N 
ATOM     25  O   UNL A   1      30.463  23.834  27.380  1.00  0.00    -0.258 OA
ATOM     26  O   UNL A   1      29.707  22.006  26.437  1.00  0.00    -0.258 OA
ENDBRANCH  18  24
ENDBRANCH   8  14
ENDBRANCH   4   7
ENDBRANCH   2   3
ENDBRANCH   1   2
BRANCH   1  27
ATOM     27  C   UNL A   1      31.661  31.877  26.810  1.00  0.00     0.023 C 
BRANCH  27  28
ATOM     28  C   UNL A   1      32.840  32.716  27.288  1.00  0.00     0.116 C 
BRANCH  28  29
ATOM     29  N   UNL A   1      32.481  34.088  27.614  1.00  0.00    -0.352 N 
ATOM     30  C   UNL A   1      33.004  34.929  28.568  1.00  0.00     0.251 C 
ATOM     31  H   UNL A   1      31.754  34.472  27.071  1.00  0.00     0.163 HD
ATOM     32  O   UNL A   1      32.494  36.026  28.774  1.00  0.00    -0.269 OA
BRANCH  30  33
ATOM     33  C   UNL A   1      34.161  34.490  29.375  1.00  0.00     0.039 A 
ATOM     34  C   UNL A   1      33.930  33.867  30.604  1.00  0.00     0.014 A 
ATOM     35  C   UNL A   1      35.464  34.657  28.903  1.00  0.00     0.014 A 
ATOM     36  C   UNL A   1      35.003  33.331  31.317  1.00  0.00     0.010 A 
ATOM     37  C   UNL A   1      36.520  34.045  29.569  1.00  0.00     0.010 A 
ATOM     38  C   UNL A   1      36.300  33.373  30.781  1.00  0.00    -0.014 A 
BRANCH  38  39
ATOM     39  C   UNL A   1      37.442  32.715  31.465  1.00  0.00     0.031 A 
ATOM     40  C   UNL A   1      38.149  31.562  30.812  1.00  0.00     0.074 A 
ATOM     41  C   UNL A   1      37.786  33.101  32.708  1.00  0.00     0.049 A 
ATOM     42  N   UNL A   1      39.114  30.810  31.277  1.00  0.00    -0.248 NA
ATOM     43  C   UNL A   1      37.686  31.181  29.468  1.00  0.00     0.031 C 
ATOM     44  C   UNL A   1      37.142  34.170  33.472  1.00  0.00     0.029 A 
ATOM     45  N   UNL A   1      38.760  32.631  33.554  1.00  0.00    -0.354 N 
ATOM     46  C   UNL A   1      39.357  29.858  30.295  1.00  0.00     0.074 A 
ATOM     47  C   UNL A   1      38.398  30.090  29.236  1.00  0.00     0.031 C 
ATOM     48  C   UNL A   1      37.758  34.298  34.657  1.00  0.00     0.029 A 
ATOM     49  C   UNL A   1      38.814  33.294  34.755  1.00  0.00     0.049 A 
ATOM     50  H   UNL A   1      39.364  31.889  33.321  1.00  0.00     0.167 HD
ATOM     51  C   UNL A   1      40.309  28.895  30.268  1.00  0.00     0.037 A 
ATOM     52  C   UNL A   1      39.623  33.112  35.816  1.00  0.00     0.037 A 
ATOM     53  C   UNL A   1      41.276  28.686  31.311  1.00  0.00     0.049 A 
ATOM     54  C   UNL A   1      40.668  32.033  35.765  1.00  0.00     0.074 A 
ATOM     55  C   UNL A   1      42.329  27.790  31.347  1.00  0.00     0.029 A 
ATOM     56  N   UNL A   1      41.305  29.384  32.511  1.00  0.00    -0.354 N 
ATOM     57  N   UNL A   1      40.942  31.189  34.799  1.00  0.00    -0.248 NA
ATOM     58  C   UNL A   1      41.523  31.883  36.952  1.00  0.00     0.031 C 
ATOM     59  C   UNL A   1      42.963  27.908  32.589  1.00  0.00     0.029 A 
ATOM     60  C   UNL A   1      42.340  28.918  33.306  1.00  0.00     0.049 A 
ATOM     61  H   UNL A   1      40.683  30.105  32.760  1.00  0.00     0.167 HD
ATOM     62  C   UNL A   1      42.015  30.430  35.247  1.00  0.00     0.074 A 
ATOM     63  C   UNL A   1      42.349  30.921  36.568  1.00  0.00     0.031 C 
ATOM     64  C   UNL A   1      42.664  29.419  34.618  1.00  0.00     0.037 A 
BRANCH  51  65
ATOM     65  C   UNL A   1      40.339  27.993  29.066  1.00  0.00     0.064 A 
ATOM     66  C   UNL A   1      41.082  28.313  27.919  1.00  0.00     0.173 A 
ATOM     67  C   UNL A   1      39.616  26.790  29.062  1.00  0.00     0.173 A 
ATOM     68  F   UNL A   1      41.782  29.457  27.867  1.00  0.00    -0.203 F 
ATOM     69  C   UNL A   1      41.065  27.487  26.799  1.00  0.00     0.198 A 
ATOM     70  C   UNL A   1      39.628  25.950  27.952  1.00  0.00     0.198 A 
ATOM     71  F   UNL A   1      38.892  26.430  30.133  1.00  0.00    -0.203 F 
ATOM     72  F   UNL A   1      41.727  27.849  25.692  1.00  0.00    -0.200 F 
ATOM     73  C   UNL A   1      40.341  26.305  26.817  1.00  0.00     0.200 A 
ATOM     74  F   UNL A   1      38.939  24.800  27.977  1.00  0.00    -0.200 F 
ATOM     75  F   UNL A   1      40.323  25.511  25.737  1.00  0.00    -0.200 F 
ENDBRANCH  51  65
BRANCH  52  76
ATOM     76  C   UNL A   1      39.501  34.004  36.997  1.00  0.00     0.064 A 
ATOM     77  C   UNL A   1      38.739  33.616  38.109  1.00  0.00     0.173 A 
ATOM     78  C   UNL A   1      40.152  35.245  37.053  1.00  0.00     0.173 A 
ATOM     79  F   UNL A   1      38.082  32.447  38.094  1.00  0.00    -0.203 F 
ATOM     80  C   UNL A   1      38.624  34.440  39.226  1.00  0.00     0.198 A 
ATOM     81  C   UNL A   1      40.057  36.057  38.181  1.00  0.00     0.198 A 
ATOM     82  F   UNL A   1      40.897  35.659  36.018  1.00  0.00    -0.203 F 
ATOM     83  F   UNL A   1      37.862  34.060  40.260  1.00  0.00    -0.200 F 
ATOM     84  C   UNL A   1      39.288  35.656  39.264  1.00  0.00     0.200 A 
ATOM     85  F   UNL A   1      40.712  37.225  38.220  1.00  0.00    -0.200 F 
ATOM     86  F   UNL A   1      39.187  36.445  40.343  1.00  0.00    -0.200 F 
ENDBRANCH  52  76
BRANCH  64  87
ATOM     87  C   UNL A   1      43.825  28.797  35.336  1.00  0.00     0.064 A 
ATOM     88  C   UNL A   1      45.135  29.275  35.177  1.00  0.00     0.173 A 
ATOM     89  C   UNL A   1      43.619  27.734  36.230  1.00  0.00     0.173 A 
ATOM     90  F   UNL A   1      45.386  30.278  34.322  1.00  0.00    -0.203 F 
ATOM     91  C   UNL A   1      46.197  28.695  35.865  1.00  0.00     0.198 A 
ATOM     92  C   UNL A   1      44.679  27.178  36.939  1.00  0.00     0.198 A 
ATOM     93  F   UNL A   1      42.386  27.244  36.424  1.00  0.00    -0.203 F 
ATOM     94  F   UNL A   1      47.446  29.136  35.660  1.00  0.00    -0.200 F 
ATOM     95  C   UNL A   1      45.968  27.653  36.751  1.00  0.00     0.200 A 
ATOM     96  F   UNL A   1      44.454  26.181  37.806  1.00  0.00    -0.200 F 
ATOM     97  F   UNL A   1      46.991  27.103  37.419  1.00  0.00    -0.200 F 
ENDBRANCH  64  87
ENDBRANCH  38  39
ENDBRANCH  30  33
ENDBRANCH  28  29
ENDBRANCH  27  28
ENDBRANCH   1  27
TORSDOF 15
ENDMDL
MODEL 2
REMARK VINA RESULT:     -11.9      1.151      7.519
REMARK SMILES COc1cc([C@H]2[NH2+][C@@H](C(=O)NCCCCNC(=O)c3ccc(-c4c5nc(c(-c6c(F)c(F)c(F)c(F)c6F)c6ccc([nH]6)c(-c6c(F)c(F)c(F)c(F)c6F)c6nc(c(-c7c(F)c(F)c(F)c(F)c7F)c7ccc4[nH]7)C=C6)C=C5)cc3)CS2)cc([N+](=O)[O-])c1OC
REMARK SMILES IDX 13 1 12 2 11 3 9 4 10 5 8 7 6 8 7 9 83 10 82 13 5 14 3 15
REMARK SMILES IDX 4 16 89 17 85 18 84 19 2 20 1 21 90 22 91 23 86 24 87 25
REMARK SMILES IDX 88 26 14 27 15 28 16 29 17 30 18 32 19 33 20 34 81 35 21 36
REMARK SMILES IDX 80 37 22 38 23 39 24 40 74 41 25 42 79 43 73 44 75 45 26 46
REMARK SMILES IDX 78 47 72 48 71 49 27 51 59 52 39 53 58 54 40 55 43 56 57 57
REMARK SMILES IDX 76 58 41 59 42 60 56 62 77 63 44 64 28 65 29 66 37 67 30 68
REMARK SMILES IDX 31 69 35 70 38 71 32 72 33 73 36 74 34 75 60 76 61 77 69 78
REMARK SMILES IDX 62 79 63 80 67 81 70 82 64 83 65 84 68 85 66 86 45 87 46 88
REMARK SMILES IDX 54 89 47 90 48 91 52 92 55 93 49 94 50 95 53 96 51 97
REMARK H PARENT 11 6 7 11 7 12 16 31 75 50 43 61
REMARK Flexibility Score: inf
ROOT
ATOM      1  C   UNL A   1      31.860  30.538  26.854  1.00  0.00     0.023 C 
ENDROOT
BRANCH   1   2
ATOM      2  C   UNL A   1      32.107  29.931  25.477  1.00  0.00     0.116 C 
BRANCH   2   3
ATOM      3  N   UNL A   1      30.956  30.025  24.600  1.00  0.00    -0.351 N 
ATOM      4  C   UNL A   1      30.497  29.288  23.556  1.00  0.00     0.279 C 
ATOM      5  O   UNL A   1      29.377  29.626  23.145  1.00  0.00    -0.268 OA
ATOM      6  H   UNL A   1      30.379  30.795  24.807  1.00  0.00     0.163 HD
BRANCH   4   7
ATOM      7  C   UNL A   1      31.277  28.153  22.841  1.00  0.00     0.283 C 
ATOM      8  C   UNL A   1      32.147  25.939  23.078  1.00  0.00     0.274 C 
ATOM      9  N   UNL A   1      31.332  26.955  23.741  1.00  0.00    -0.321 N 
ATOM     10  S   UNL A   1      33.355  26.781  22.013  1.00  0.00    -0.088 SA
ATOM     11  H   UNL A   1      31.754  27.211  24.633  1.00  0.00     0.348 HD
ATOM     12  H   UNL A   1      30.393  26.599  23.921  1.00  0.00     0.348 HD
ATOM     13  C   UNL A   1      32.705  28.412  22.403  1.00  0.00     0.151 C 
BRANCH   8  14
ATOM     14  C   UNL A   1      32.845  24.993  24.038  1.00  0.00     0.031 A 
ATOM     15  C   UNL A   1      32.708  23.095  25.577  1.00  0.00     0.168 A 
ATOM     16  C   UNL A   1      32.094  24.125  24.840  1.00  0.00     0.061 A 
ATOM     17  C   UNL A   1      34.095  22.888  25.514  1.00  0.00     0.239 A 
ATOM     18  C   UNL A   1      34.852  23.817  24.780  1.00  0.00     0.315 A 
ATOM     19  C   UNL A   1      34.243  24.869  24.069  1.00  0.00     0.101 A 
BRANCH  15  20
ATOM     20  O   UNL A   1      31.887  22.210  26.229  1.00  0.00    -0.493 OA
ATOM     21  C   UNL A   1      30.517  22.612  26.170  1.00  0.00     0.278 C 
ENDBRANCH  15  20
BRANCH  17  22
ATOM     22  O   UNL A   1      34.766  21.807  26.018  1.00  0.00    -0.488 OA
ATOM     23  C   UNL A   1      34.770  20.592  25.285  1.00  0.00     0.279 C 
ENDBRANCH  17  22
BRANCH  18  24
ATOM     24  N   UNL A   1      36.311  23.703  24.690  1.00  0.00     0.066 N 
ATOM     25  O   UNL A   1      36.777  23.287  23.617  1.00  0.00    -0.258 OA
ATOM     26  O   UNL A   1      36.997  24.093  25.644  1.00  0.00    -0.258 OA
ENDBRANCH  18  24
ENDBRANCH   8  14
ENDBRANCH   4   7
ENDBRANCH   2   3
ENDBRANCH   1   2
BRANCH   1  27
ATOM     27  C   UNL A   1      31.606  32.043  26.876  1.00  0.00     0.023 C 
BRANCH  27  28
ATOM     28  C   UNL A   1      32.828  32.911  27.151  1.00  0.00     0.116 C 
BRANCH  28  29
ATOM     29  N   UNL A   1      32.495  34.242  27.639  1.00  0.00    -0.352 N 
ATOM     30  C   UNL A   1      33.042  34.958  28.677  1.00  0.00     0.251 C 
ATOM     31  H   UNL A   1      31.769  34.697  27.153  1.00  0.00     0.163 HD
ATOM     32  O   UNL A   1      32.552  36.031  29.016  1.00  0.00    -0.269 OA
BRANCH  30  33
ATOM     33  C   UNL A   1      34.200  34.411  29.413  1.00  0.00     0.039 A 
ATOM     34  C   UNL A   1      33.971  33.641  30.556  1.00  0.00     0.014 A 
ATOM     35  C   UNL A   1      35.501  34.623  28.954  1.00  0.00     0.014 A 
ATOM     36  C   UNL A   1      35.043  33.009  31.187  1.00  0.00     0.010 A 
ATOM     37  C   UNL A   1      36.555  33.922  29.530  1.00  0.00     0.010 A 
ATOM     38  C   UNL A   1      36.337  33.106  30.650  1.00  0.00    -0.014 A 
BRANCH  38  39
ATOM     39  C   UNL A   1      37.477  32.356  31.237  1.00  0.00     0.031 A 
ATOM     40  C   UNL A   1      38.000  32.723  32.597  1.00  0.00     0.074 A 
ATOM     41  C   UNL A   1      38.091  31.402  30.513  1.00  0.00     0.049 A 
ATOM     42  N   UNL A   1      39.028  32.241  33.247  1.00  0.00    -0.248 NA
ATOM     43  C   UNL A   1      37.293  33.801  33.306  1.00  0.00     0.031 C 
ATOM     44  C   UNL A   1      37.712  30.992  29.160  1.00  0.00     0.029 A 
ATOM     45  N   UNL A   1      39.171  30.609  30.810  1.00  0.00    -0.354 N 
ATOM     46  C   UNL A   1      39.103  32.969  34.428  1.00  0.00     0.074 A 
ATOM     47  C   UNL A   1      38.055  33.965  34.376  1.00  0.00     0.031 C 
ATOM     48  C   UNL A   1      38.524  30.002  28.757  1.00  0.00     0.029 A 
ATOM     49  C   UNL A   1      39.505  29.734  29.805  1.00  0.00     0.049 A 
ATOM     50  H   UNL A   1      39.660  30.662  31.662  1.00  0.00     0.167 HD
ATOM     51  C   UNL A   1      39.952  32.805  35.470  1.00  0.00     0.037 A 
ATOM     52  C   UNL A   1      40.492  28.821  29.737  1.00  0.00     0.037 A 
ATOM     53  C   UNL A   1      40.975  31.796  35.527  1.00  0.00     0.049 A 
ATOM     54  C   UNL A   1      41.426  28.661  30.904  1.00  0.00     0.074 A 
ATOM     55  C   UNL A   1      41.836  31.496  36.567  1.00  0.00     0.029 A 
ATOM     56  N   UNL A   1      41.278  30.920  34.493  1.00  0.00    -0.354 N 
ATOM     57  N   UNL A   1      41.439  29.301  32.048  1.00  0.00    -0.248 NA
ATOM     58  C   UNL A   1      42.481  27.646  30.773  1.00  0.00     0.031 C 
ATOM     59  C   UNL A   1      42.695  30.476  36.144  1.00  0.00     0.029 A 
ATOM     60  C   UNL A   1      42.333  30.100  34.860  1.00  0.00     0.049 A 
ATOM     61  H   UNL A   1      40.812  30.887  33.627  1.00  0.00     0.167 HD
ATOM     62  C   UNL A   1      42.479  28.749  32.783  1.00  0.00     0.074 A 
ATOM     63  C   UNL A   1      43.069  27.714  31.958  1.00  0.00     0.031 C 
ATOM     64  C   UNL A   1      42.906  29.071  34.029  1.00  0.00     0.037 A 
BRANCH  51  65
ATOM     65  C   UNL A   1      39.806  33.750  36.630  1.00  0.00     0.064 A 
ATOM     66  C   UNL A   1      40.536  34.946  36.706  1.00  0.00     0.173 A 
ATOM     67  C   UNL A   1      38.921  33.456  37.678  1.00  0.00     0.173 A 
ATOM     68  F   UNL A   1      41.405  35.270  35.736  1.00  0.00    -0.203 F 
ATOM     69  C   UNL A   1      40.420  35.789  37.808  1.00  0.00     0.198 A 
ATOM     70  C   UNL A   1      38.782  34.318  38.763  1.00  0.00     0.198 A 
ATOM     71  F   UNL A   1      38.192  32.329  37.655  1.00  0.00    -0.203 F 
ATOM     72  F   UNL A   1      41.179  36.890  37.890  1.00  0.00    -0.200 F 
ATOM     73  C   UNL A   1      39.541  35.476  38.834  1.00  0.00     0.200 A 
ATOM     74  F   UNL A   1      37.921  34.022  39.746  1.00  0.00    -0.200 F 
ATOM     75  F   UNL A   1      39.432  36.287  39.896  1.00  0.00    -0.200 F 
ENDBRANCH  51  65
BRANCH  52  76
ATOM     76  C   UNL A   1      40.615  27.957  28.534  1.00  0.00     0.064 A 
ATOM     77  C   UNL A   1      41.376  28.373  27.433  1.00  0.00     0.173 A 
ATOM     78  C   UNL A   1      39.998  26.700  28.465  1.00  0.00     0.173 A 
ATOM     79  F   UNL A   1      41.968  29.577  27.444  1.00  0.00    -0.203 F 
ATOM     80  C   UNL A   1      41.506  27.570  26.302  1.00  0.00     0.198 A 
ATOM     81  C   UNL A   1      40.150  25.886  27.344  1.00  0.00     0.198 A 
ATOM     82  F   UNL A   1      39.265  26.254  29.495  1.00  0.00    -0.203 F 
ATOM     83  F   UNL A   1      42.210  28.007  25.250  1.00  0.00    -0.200 F 
ATOM     84  C   UNL A   1      40.899  26.324  26.262  1.00  0.00     0.200 A 
ATOM     85  F   UNL A   1      39.575  24.676  27.315  1.00  0.00    -0.200 F 
ATOM     86  F   UNL A   1      41.033  25.545  25.179  1.00  0.00    -0.200 F 
ENDBRANCH  52  76
BRANCH  64  87
ATOM     87  C   UNL A   1      44.046  28.273  34.593  1.00  0.00     0.064 A 
ATOM     88  C   UNL A   1      43.835  27.069  35.280  1.00  0.00     0.173 A 
ATOM     89  C   UNL A   1      45.370  28.699  34.406  1.00  0.00     0.173 A 
ATOM     90  F   UNL A   1      42.587  26.627  35.500  1.00  0.00    -0.203 F 
ATOM     91  C   UNL A   1      44.906  26.333  35.781  1.00  0.00     0.198 A 
ATOM     92  C   UNL A   1      46.440  27.945  34.880  1.00  0.00     0.198 A 
ATOM     93  F   UNL A   1      45.627  29.840  33.749  1.00  0.00    -0.203 F 
ATOM     94  F   UNL A   1      44.678  25.211  36.477  1.00  0.00    -0.200 F 
ATOM     95  C   UNL A   1      46.207  26.768  35.574  1.00  0.00     0.200 A 
ATOM     96  F   UNL A   1      47.696  28.359  34.666  1.00  0.00    -0.200 F 
ATOM     97  F   UNL A   1      47.237  26.054  36.049  1.00  0.00    -0.200 F 
ENDBRANCH  64  87
ENDBRANCH  38  39
ENDBRANCH  30  33
ENDBRANCH  28  29
ENDBRANCH  27  28
ENDBRANCH   1  27
TORSDOF 15
ENDMDL
MODEL 3
REMARK VINA RESULT:     -11.9      2.124      7.938
REMARK SMILES COc1cc([C@H]2[NH2+][C@@H](C(=O)NCCCCNC(=O)c3ccc(-c4c5nc(c(-c6c(F)c(F)c(F)c(F)c6F)c6ccc([nH]6)c(-c6c(F)c(F)c(F)c(F)c6F)c6nc(c(-c7c(F)c(F)c(F)c(F)c7F)c7ccc4[nH]7)C=C6)C=C5)cc3)CS2)cc([N+](=O)[O-])c1OC
REMARK SMILES IDX 13 1 12 2 11 3 9 4 10 5 8 7 6 8 7 9 83 10 82 13 5 14 3 15
REMARK SMILES IDX 4 16 89 17 85 18 84 19 2 20 1 21 90 22 91 23 86 24 87 25
REMARK SMILES IDX 88 26 14 27 15 28 16 29 17 30 18 32 19 33 20 34 81 35 21 36
REMARK SMILES IDX 80 37 22 38 23 39 24 40 74 41 25 42 79 43 73 44 75 45 26 46
REMARK SMILES IDX 78 47 72 48 71 49 27 51 59 52 39 53 58 54 40 55 43 56 57 57
REMARK SMILES IDX 76 58 41 59 42 60 56 62 77 63 44 64 28 65 29 66 37 67 30 68
REMARK SMILES IDX 31 69 35 70 38 71 32 72 33 73 36 74 34 75 60 76 61 77 69 78
REMARK SMILES IDX 62 79 63 80 67 81 70 82 64 83 65 84 68 85 66 86 45 87 46 88
REMARK SMILES IDX 54 89 47 90 48 91 52 92 55 93 49 94 50 95 53 96 51 97
REMARK H PARENT 11 6 7 11 7 12 16 31 75 50 43 61
REMARK Flexibility Score: inf
ROOT
ATOM      1  C   UNL A   1      34.394  33.716  28.728  1.00  0.00     0.023 C 
ENDROOT
BRANCH   1   2
ATOM      2  C   UNL A   1      34.172  32.549  27.770  1.00  0.00     0.116 C 
BRANCH   2   3
ATOM      3  N   UNL A   1      35.151  31.490  27.930  1.00  0.00    -0.351 N 
ATOM      4  C   UNL A   1      35.169  30.165  27.634  1.00  0.00     0.279 C 
ATOM      5  O   UNL A   1      36.269  29.619  27.807  1.00  0.00    -0.268 OA
ATOM      6  H   UNL A   1      35.986  31.801  28.347  1.00  0.00     0.163 HD
BRANCH   4   7
ATOM      7  C   UNL A   1      33.947  29.325  27.181  1.00  0.00     0.283 C 
ATOM      8  C   UNL A   1      33.265  27.311  26.088  1.00  0.00     0.274 C 
ATOM      9  N   UNL A   1      34.431  28.037  26.585  1.00  0.00    -0.321 N 
ATOM     10  S   UNL A   1      31.993  28.523  25.624  1.00  0.00    -0.088 SA
ATOM     11  H   UNL A   1      35.074  28.231  25.817  1.00  0.00     0.348 HD
ATOM     12  H   UNL A   1      34.926  27.483  27.284  1.00  0.00     0.348 HD
ATOM     13  C   UNL A   1      32.988  29.918  26.168  1.00  0.00     0.151 C 
BRANCH   8  14
ATOM     14  C   UNL A   1      33.571  26.383  24.927  1.00  0.00     0.031 A 
ATOM     15  C   UNL A   1      34.405  24.221  24.138  1.00  0.00     0.168 A 
ATOM     16  C   UNL A   1      34.290  25.200  25.143  1.00  0.00     0.061 A 
ATOM     17  C   UNL A   1      33.783  24.386  22.891  1.00  0.00     0.239 A 
ATOM     18  C   UNL A   1      33.140  25.613  22.650  1.00  0.00     0.315 A 
ATOM     19  C   UNL A   1      33.052  26.609  23.642  1.00  0.00     0.101 A 
BRANCH  15  20
ATOM     20  O   UNL A   1      35.012  23.039  24.477  1.00  0.00    -0.493 OA
ATOM     21  C   UNL A   1      36.429  23.098  24.307  1.00  0.00     0.278 C 
ENDBRANCH  15  20
BRANCH  17  22
ATOM     22  O   UNL A   1      33.656  23.424  21.927  1.00  0.00    -0.488 OA
ATOM     23  C   UNL A   1      32.713  22.380  22.110  1.00  0.00     0.279 C 
ENDBRANCH  17  22
BRANCH  18  24
ATOM     24  N   UNL A   1      32.495  25.890  21.363  1.00  0.00     0.066 N 
ATOM     25  O   UNL A   1      31.343  26.350  21.399  1.00  0.00    -0.258 OA
ATOM     26  O   UNL A   1      33.148  25.726  20.324  1.00  0.00    -0.258 OA
ENDBRANCH  18  24
ENDBRANCH   8  14
ENDBRANCH   4   7
ENDBRANCH   2   3
ENDBRANCH   1   2
BRANCH   1  27
ATOM     27  C   UNL A   1      33.319  34.799  28.707  1.00  0.00     0.023 C 
BRANCH  27  28
ATOM     28  C   UNL A   1      33.564  35.985  29.632  1.00  0.00     0.116 C 
BRANCH  28  29
ATOM     29  N   UNL A   1      32.537  36.145  30.652  1.00  0.00    -0.352 N 
ATOM     30  C   UNL A   1      32.522  35.712  31.956  1.00  0.00     0.251 C 
ATOM     31  H   UNL A   1      31.734  36.637  30.365  1.00  0.00     0.163 HD
ATOM     32  O   UNL A   1      31.513  35.844  32.641  1.00  0.00    -0.269 OA
BRANCH  30  33
ATOM     33  C   UNL A   1      33.715  35.047  32.520  1.00  0.00     0.039 A 
ATOM     34  C   UNL A   1      33.598  33.737  32.992  1.00  0.00     0.014 A 
ATOM     35  C   UNL A   1      34.949  35.698  32.546  1.00  0.00     0.014 A 
ATOM     36  C   UNL A   1      34.739  33.049  33.406  1.00  0.00     0.010 A 
ATOM     37  C   UNL A   1      36.096  34.983  32.874  1.00  0.00     0.010 A 
ATOM     38  C   UNL A   1      36.004  33.651  33.305  1.00  0.00    -0.014 A 
BRANCH  38  39
ATOM     39  C   UNL A   1      37.244  32.905  33.635  1.00  0.00     0.031 A 
ATOM     40  C   UNL A   1      37.986  33.200  34.908  1.00  0.00     0.074 A 
ATOM     41  C   UNL A   1      37.746  32.022  32.751  1.00  0.00     0.049 A 
ATOM     42  N   UNL A   1      39.122  32.713  35.338  1.00  0.00    -0.248 NA
ATOM     43  C   UNL A   1      37.387  34.205  35.801  1.00  0.00     0.031 C 
ATOM     44  C   UNL A   1      37.150  31.688  31.456  1.00  0.00     0.029 A 
ATOM     45  N   UNL A   1      38.880  31.250  32.802  1.00  0.00    -0.354 N 
ATOM     46  C   UNL A   1      39.382  33.364  36.536  1.00  0.00     0.074 A 
ATOM     47  C   UNL A   1      38.318  34.324  36.734  1.00  0.00     0.031 C 
ATOM     48  C   UNL A   1      37.903  30.756  30.852  1.00  0.00     0.029 A 
ATOM     49  C   UNL A   1      39.056  30.455  31.696  1.00  0.00     0.049 A 
ATOM     50  H   UNL A   1      39.508  31.265  33.561  1.00  0.00     0.167 HD
ATOM     51  C   UNL A   1      40.402  33.163  37.404  1.00  0.00     0.037 A 
ATOM     52  C   UNL A   1      40.037  29.583  31.397  1.00  0.00     0.037 A 
ATOM     53  C   UNL A   1      41.442  32.188  37.215  1.00  0.00     0.049 A 
ATOM     54  C   UNL A   1      41.162  29.380  32.374  1.00  0.00     0.074 A 
ATOM     55  C   UNL A   1      42.477  31.852  38.069  1.00  0.00     0.029 A 
ATOM     56  N   UNL A   1      41.583  31.394  36.085  1.00  0.00    -0.354 N 
ATOM     57  N   UNL A   1      41.357  29.944  33.541  1.00  0.00    -0.248 NA
ATOM     58  C   UNL A   1      42.202  28.414  31.993  1.00  0.00     0.031 C 
ATOM     59  C   UNL A   1      43.274  30.892  37.435  1.00  0.00     0.029 A 
ATOM     60  C   UNL A   1      42.704  30.589  36.208  1.00  0.00     0.049 A 
ATOM     61  H   UNL A   1      40.975  31.401  35.311  1.00  0.00     0.167 HD
ATOM     62  C   UNL A   1      42.522  29.383  34.047  1.00  0.00     0.074 A 
ATOM     63  C   UNL A   1      42.984  28.425  33.062  1.00  0.00     0.031 C 
ATOM     64  C   UNL A   1      43.150  29.637  35.221  1.00  0.00     0.037 A 
BRANCH  51  65
ATOM     65  C   UNL A   1      40.436  34.024  38.635  1.00  0.00     0.064 A 
ATOM     66  C   UNL A   1      39.764  33.658  39.813  1.00  0.00     0.173 A 
ATOM     67  C   UNL A   1      41.152  35.230  38.640  1.00  0.00     0.173 A 
ATOM     68  F   UNL A   1      39.054  32.520  39.858  1.00  0.00    -0.203 F 
ATOM     69  C   UNL A   1      39.770  34.488  40.930  1.00  0.00     0.198 A 
ATOM     70  C   UNL A   1      41.185  36.041  39.772  1.00  0.00     0.198 A 
ATOM     71  F   UNL A   1      41.819  35.627  37.545  1.00  0.00    -0.203 F 
ATOM     72  F   UNL A   1      39.064  34.149  42.018  1.00  0.00    -0.200 F 
ATOM     73  C   UNL A   1      40.483  35.677  40.910  1.00  0.00     0.200 A 
ATOM     74  F   UNL A   1      41.887  37.183  39.755  1.00  0.00    -0.200 F 
ATOM     75  F   UNL A   1      40.487  36.476  41.986  1.00  0.00    -0.200 F 
ENDBRANCH  51  65
BRANCH  52  76
ATOM     76  C   UNL A   1      39.971  28.805  30.133  1.00  0.00     0.064 A 
ATOM     77  C   UNL A   1      40.487  29.335  28.942  1.00  0.00     0.173 A 
ATOM     78  C   UNL A   1      39.415  27.519  30.089  1.00  0.00     0.173 A 
ATOM     79  F   UNL A   1      41.011  30.569  28.930  1.00  0.00    -0.203 F 
ATOM     80  C   UNL A   1      40.438  28.612  27.752  1.00  0.00     0.198 A 
ATOM     81  C   UNL A   1      39.390  26.787  28.904  1.00  0.00     0.198 A 
ATOM     82  F   UNL A   1      38.913  26.966  31.203  1.00  0.00    -0.203 F 
ATOM     83  F   UNL A   1      40.907  29.156  26.621  1.00  0.00    -0.200 F 
ATOM     84  C   UNL A   1      39.897  27.336  27.735  1.00  0.00     0.200 A 
ATOM     85  F   UNL A   1      38.879  25.548  28.895  1.00  0.00    -0.200 F 
ATOM     86  F   UNL A   1      39.860  26.636  26.593  1.00  0.00    -0.200 F 
ENDBRANCH  52  76
BRANCH  64  87
ATOM     87  C   UNL A   1      44.387  28.844  35.524  1.00  0.00     0.064 A 
ATOM     88  C   UNL A   1      44.331  27.616  36.199  1.00  0.00     0.173 A 
ATOM     89  C   UNL A   1      45.644  29.301  35.097  1.00  0.00     0.173 A 
ATOM     90  F   UNL A   1      43.156  27.144  36.643  1.00  0.00    -0.203 F 
ATOM     91  C   UNL A   1      45.489  26.886  36.456  1.00  0.00     0.198 A 
ATOM     92  C   UNL A   1      46.796  28.554  35.328  1.00  0.00     0.198 A 
ATOM     93  F   UNL A   1      45.753  30.467  34.442  1.00  0.00    -0.203 F 
ATOM     94  F   UNL A   1      45.416  25.739  37.145  1.00  0.00    -0.200 F 
ATOM     95  C   UNL A   1      46.718  27.352  36.015  1.00  0.00     0.200 A 
ATOM     96  F   UNL A   1      47.981  28.998  34.887  1.00  0.00    -0.200 F 
ATOM     97  F   UNL A   1      47.830  26.644  36.256  1.00  0.00    -0.200 F 
ENDBRANCH  64  87
ENDBRANCH  38  39
ENDBRANCH  30  33
ENDBRANCH  28  29
ENDBRANCH  27  28
ENDBRANCH   1  27
TORSDOF 15
ENDMDL
