MODEL 1
REMARK VINA RESULT:     -13.6      0.000      0.000
REMARK SMILES Cc1nn(C)c(C)c1C[C@@H](C)C(=O)N[C@@H](C(=O)NCCCCNC(=O)c1ccc(-c2c3nc(c(-c4c(F)c(F)c(F)c(F)c4F)c4ccc([nH]4)c(-c4c(F)c(F)c(F)c(F)c4F)c4nc(c(-c5c(F)c(F)c(F)c(F)c5F)c5ccc2[nH]5)C=C4)C=C3)cc1)c1ccccc1Cl
REMARK SMILES IDX 19 1 18 2 16 3 17 4 15 6 14 7 12 8 13 9 10 11 11 12 9 13
REMARK SMILES IDX 8 14 1 15 2 16 3 17 4 18 6 19 5 20 7 21 89 22 90 23 94 24
REMARK SMILES IDX 91 25 93 26 95 27 92 28 20 29 21 30 22 31 23 32 24 33 25 35
REMARK SMILES IDX 26 36 27 37 88 38 28 39 87 40 29 41 30 42 31 43 81 44 32 45
REMARK SMILES IDX 86 46 80 47 82 48 33 49 85 50 79 51 78 52 34 54 66 55 46 56
REMARK SMILES IDX 65 57 47 58 50 59 64 60 83 61 48 62 49 63 63 65 84 66 51 67
REMARK SMILES IDX 35 68 36 69 44 70 37 71 38 72 42 73 45 74 39 75 40 76 43 77
REMARK SMILES IDX 41 78 67 79 68 80 76 81 69 82 70 83 74 84 77 85 71 86 72 87
REMARK SMILES IDX 75 88 73 89 52 90 53 91 61 92 54 93 55 94 59 95 62 96 56 97
REMARK SMILES IDX 57 98 60 99 58 100
REMARK H PARENT 18 5 14 10 23 34 82 53 50 64
REMARK Flexibility Score: inf
ROOT
ATOM      1  C   UNL A   1      31.665  29.734  25.612  1.00  0.00     0.116 C 
ENDROOT
BRANCH   1   2
ATOM      2  N   UNL A   1      32.761  29.611  24.680  1.00  0.00    -0.354 N 
ATOM      3  C   UNL A   1      32.841  28.912  23.504  1.00  0.00     0.247 C 
ATOM      4  O   UNL A   1      33.728  29.287  22.726  1.00  0.00    -0.272 OA
ATOM      5  H   UNL A   1      33.575  30.106  24.927  1.00  0.00     0.163 HD
BRANCH   3   6
ATOM      6  C   UNL A   1      31.772  27.837  23.074  1.00  0.00     0.203 C 
BRANCH   6   7
ATOM      7  N   UNL A   1      32.161  26.980  21.950  1.00  0.00    -0.340 N 
ATOM      8  C   UNL A   1      32.704  25.736  21.863  1.00  0.00     0.224 C 
ATOM      9  O   UNL A   1      33.058  25.366  20.738  1.00  0.00    -0.275 OA
ATOM     10  H   UNL A   1      31.996  27.393  21.072  1.00  0.00     0.164 HD
BRANCH   8  11
ATOM     11  C   UNL A   1      32.897  24.801  23.063  1.00  0.00     0.080 C 
ATOM     12  C   UNL A   1      34.265  24.146  22.957  1.00  0.00     0.018 C 
BRANCH  11  13
ATOM     13  C   UNL A   1      31.681  23.892  23.310  1.00  0.00     0.052 C 
BRANCH  13  14
ATOM     14  C   UNL A   1      31.909  22.524  23.867  1.00  0.00    -0.003 A 
ATOM     15  C   UNL A   1      31.454  22.921  26.439  1.00  0.00     0.069 C 
ATOM     16  C   UNL A   1      31.819  22.125  25.235  1.00  0.00     0.063 A 
ATOM     17  N   UNL A   1      32.035  20.815  25.381  1.00  0.00    -0.178 NA
ATOM     18  N   UNL A   1      32.214  20.362  24.134  1.00  0.00    -0.272 N 
ATOM     19  C   UNL A   1      32.041  21.326  23.176  1.00  0.00     0.038 A 
ATOM     20  C   UNL A   1      32.484  18.956  23.949  1.00  0.00     0.174 C 
ATOM     21  C   UNL A   1      31.983  21.014  21.724  1.00  0.00     0.066 C 
ENDBRANCH  13  14
ENDBRANCH  11  13
ENDBRANCH   8  11
ENDBRANCH   6   7
BRANCH   6  22
ATOM     22  C   UNL A   1      30.417  28.479  22.791  1.00  0.00     0.002 A 
ATOM     23  C   UNL A   1      30.373  29.678  22.051  1.00  0.00     0.008 A 
ATOM     24  C   UNL A   1      29.197  27.922  23.215  1.00  0.00     0.046 A 
ATOM     25  C   UNL A   1      29.162  30.304  21.755  1.00  0.00     0.000 A 
ATOM     26  C   UNL A   1      27.984  28.547  22.907  1.00  0.00     0.021 A 
ATOM     27  Cl  UNL A   1      29.128  26.462  24.140  1.00  0.00    -0.084 Cl
ATOM     28  C   UNL A   1      27.966  29.737  22.182  1.00  0.00     0.002 A 
ENDBRANCH   6  22
ENDBRANCH   3   6
ENDBRANCH   1   2
BRANCH   1  29
ATOM     29  C   UNL A   1      32.000  30.477  26.895  1.00  0.00     0.023 C 
BRANCH  29  30
ATOM     30  C   UNL A   1      31.716  31.973  26.862  1.00  0.00     0.023 C 
BRANCH  30  31
ATOM     31  C   UNL A   1      32.871  32.873  27.290  1.00  0.00     0.116 C 
BRANCH  31  32
ATOM     32  N   UNL A   1      32.470  34.223  27.662  1.00  0.00    -0.352 N 
ATOM     33  C   UNL A   1      33.006  35.043  28.629  1.00  0.00     0.251 C 
ATOM     34  H   UNL A   1      31.714  34.598  27.155  1.00  0.00     0.163 HD
ATOM     35  O   UNL A   1      32.512  36.141  28.867  1.00  0.00    -0.269 OA
BRANCH  33  36
ATOM     36  C   UNL A   1      34.158  34.561  29.418  1.00  0.00     0.039 A 
ATOM     37  C   UNL A   1      33.924  33.954  30.654  1.00  0.00     0.014 A 
ATOM     38  C   UNL A   1      35.451  34.627  28.893  1.00  0.00     0.014 A 
ATOM     39  C   UNL A   1      34.975  33.319  31.318  1.00  0.00     0.010 A 
ATOM     40  C   UNL A   1      36.479  33.928  29.517  1.00  0.00     0.010 A 
ATOM     41  C   UNL A   1      36.248  33.254  30.727  1.00  0.00    -0.014 A 
BRANCH  41  42
ATOM     42  C   UNL A   1      37.350  32.474  31.343  1.00  0.00     0.031 A 
ATOM     43  C   UNL A   1      37.862  32.845  32.706  1.00  0.00     0.074 A 
ATOM     44  C   UNL A   1      37.947  31.489  30.642  1.00  0.00     0.049 A 
ATOM     45  N   UNL A   1      38.889  32.370  33.364  1.00  0.00    -0.248 NA
ATOM     46  C   UNL A   1      37.138  33.914  33.411  1.00  0.00     0.031 C 
ATOM     47  C   UNL A   1      37.579  31.065  29.290  1.00  0.00     0.029 A 
ATOM     48  N   UNL A   1      39.007  30.676  30.965  1.00  0.00    -0.354 N 
ATOM     49  C   UNL A   1      38.941  33.090  34.549  1.00  0.00     0.074 A 
ATOM     50  C   UNL A   1      37.879  34.070  34.498  1.00  0.00     0.031 C 
ATOM     51  C   UNL A   1      38.387  30.063  28.907  1.00  0.00     0.029 A 
ATOM     52  C   UNL A   1      39.354  29.798  29.967  1.00  0.00     0.049 A 
ATOM     53  H   UNL A   1      39.474  30.719  31.831  1.00  0.00     0.167 HD
ATOM     54  C   UNL A   1      39.782  32.929  35.598  1.00  0.00     0.037 A 
ATOM     55  C   UNL A   1      40.348  28.890  29.911  1.00  0.00     0.037 A 
ATOM     56  C   UNL A   1      40.822  31.938  35.661  1.00  0.00     0.049 A 
ATOM     57  C   UNL A   1      41.269  28.736  31.090  1.00  0.00     0.074 A 
ATOM     58  C   UNL A   1      41.701  31.673  36.696  1.00  0.00     0.029 A 
ATOM     59  N   UNL A   1      41.117  31.042  34.644  1.00  0.00    -0.354 N 
ATOM     60  N   UNL A   1      41.276  29.389  32.226  1.00  0.00    -0.248 NA
ATOM     61  C   UNL A   1      42.321  27.714  30.980  1.00  0.00     0.031 C 
ATOM     62  C   UNL A   1      42.548  30.634  36.295  1.00  0.00     0.029 A 
ATOM     63  C   UNL A   1      42.172  30.228  35.025  1.00  0.00     0.049 A 
ATOM     64  H   UNL A   1      40.649  30.992  33.780  1.00  0.00     0.167 HD
ATOM     65  C   UNL A   1      42.309  28.840  32.974  1.00  0.00     0.074 A 
ATOM     66  C   UNL A   1      42.899  27.791  32.169  1.00  0.00     0.031 C 
ATOM     67  C   UNL A   1      42.733  29.178  34.216  1.00  0.00     0.037 A 
BRANCH  54  68
ATOM     68  C   UNL A   1      39.596  33.840  36.775  1.00  0.00     0.064 A 
ATOM     69  C   UNL A   1      38.810  33.460  37.874  1.00  0.00     0.173 A 
ATOM     70  C   UNL A   1      40.235  35.089  36.823  1.00  0.00     0.173 A 
ATOM     71  F   UNL A   1      38.168  32.283  37.869  1.00  0.00    -0.203 F 
ATOM     72  C   UNL A   1      38.649  34.308  38.966  1.00  0.00     0.198 A 
ATOM     73  C   UNL A   1      40.094  35.922  37.931  1.00  0.00     0.198 A 
ATOM     74  F   UNL A   1      41.000  35.497  35.801  1.00  0.00    -0.203 F 
ATOM     75  F   UNL A   1      37.857  33.943  39.984  1.00  0.00    -0.200 F 
ATOM     76  C   UNL A   1      39.296  35.534  38.997  1.00  0.00     0.200 A 
ATOM     77  F   UNL A   1      40.728  37.101  37.964  1.00  0.00    -0.200 F 
ATOM     78  F   UNL A   1      39.146  36.345  40.052  1.00  0.00    -0.200 F 
ENDBRANCH  54  68
BRANCH  55  79
ATOM     79  C   UNL A   1      40.518  28.042  28.702  1.00  0.00     0.064 A 
ATOM     80  C   UNL A   1      41.306  28.474  27.626  1.00  0.00     0.173 A 
ATOM     81  C   UNL A   1      39.879  26.798  28.585  1.00  0.00     0.173 A 
ATOM     82  F   UNL A   1      41.918  29.666  27.683  1.00  0.00    -0.203 F 
ATOM     83  C   UNL A   1      41.431  27.707  26.471  1.00  0.00     0.198 A 
ATOM     84  C   UNL A   1      40.026  26.019  27.439  1.00  0.00     0.198 A 
ATOM     85  F   UNL A   1      39.117  26.338  29.588  1.00  0.00    -0.203 F 
ATOM     86  F   UNL A   1      42.149  28.167  25.437  1.00  0.00    -0.200 F 
ATOM     87  C   UNL A   1      40.793  26.479  26.379  1.00  0.00     0.200 A 
ATOM     88  F   UNL A   1      39.417  24.828  27.358  1.00  0.00    -0.200 F 
ATOM     89  F   UNL A   1      40.909  25.743  25.264  1.00  0.00    -0.200 F 
ENDBRANCH  55  79
BRANCH  67  90
ATOM     90  C   UNL A   1      43.864  28.382  34.796  1.00  0.00     0.064 A 
ATOM     91  C   UNL A   1      45.197  28.792  34.657  1.00  0.00     0.173 A 
ATOM     92  C   UNL A   1      43.604  27.219  35.537  1.00  0.00     0.173 A 
ATOM     93  F   UNL A   1      45.495  29.888  33.945  1.00  0.00    -0.203 F 
ATOM     94  C   UNL A   1      46.233  28.055  35.224  1.00  0.00     0.198 A 
ATOM     95  C   UNL A   1      44.641  26.499  36.124  1.00  0.00     0.198 A 
ATOM     96  F   UNL A   1      42.344  26.789  35.702  1.00  0.00    -0.203 F 
ATOM     97  F   UNL A   1      47.504  28.443  35.046  1.00  0.00    -0.200 F 
ATOM     98  C   UNL A   1      45.954  26.914  35.962  1.00  0.00     0.200 A 
ATOM     99  F   UNL A   1      44.369  25.403  36.846  1.00  0.00    -0.200 F 
ATOM    100  F   UNL A   1      46.952  26.210  36.514  1.00  0.00    -0.200 F 
ENDBRANCH  67  90
ENDBRANCH  41  42
ENDBRANCH  33  36
ENDBRANCH  31  32
ENDBRANCH  30  31
ENDBRANCH  29  30
ENDBRANCH   1  29
TORSDOF 16
ENDMDL
MODEL 2
REMARK VINA RESULT:     -13.5      1.047      7.298
REMARK SMILES Cc1nn(C)c(C)c1C[C@@H](C)C(=O)N[C@@H](C(=O)NCCCCNC(=O)c1ccc(-c2c3nc(c(-c4c(F)c(F)c(F)c(F)c4F)c4ccc([nH]4)c(-c4c(F)c(F)c(F)c(F)c4F)c4nc(c(-c5c(F)c(F)c(F)c(F)c5F)c5ccc2[nH]5)C=C4)C=C3)cc1)c1ccccc1Cl
REMARK SMILES IDX 19 1 18 2 16 3 17 4 15 6 14 7 12 8 13 9 10 11 11 12 9 13
REMARK SMILES IDX 8 14 1 15 2 16 3 17 4 18 6 19 5 20 7 21 89 22 90 23 94 24
REMARK SMILES IDX 91 25 93 26 95 27 92 28 20 29 21 30 22 31 23 32 24 33 25 35
REMARK SMILES IDX 26 36 27 37 88 38 28 39 87 40 29 41 30 42 31 43 81 44 32 45
REMARK SMILES IDX 86 46 80 47 82 48 33 49 85 50 79 51 78 52 34 54 66 55 46 56
REMARK SMILES IDX 65 57 47 58 50 59 64 60 83 61 48 62 49 63 63 65 84 66 51 67
REMARK SMILES IDX 35 68 36 69 44 70 37 71 38 72 42 73 45 74 39 75 40 76 43 77
REMARK SMILES IDX 41 78 67 79 68 80 76 81 69 82 70 83 74 84 77 85 71 86 72 87
REMARK SMILES IDX 75 88 73 89 52 90 53 91 61 92 54 93 55 94 59 95 62 96 56 97
REMARK SMILES IDX 57 98 60 99 58 100
REMARK H PARENT 18 5 14 10 23 34 82 53 50 64
REMARK Flexibility Score: inf
ROOT
ATOM      1  C   UNL A   1      31.881  28.866  25.805  1.00  0.00     0.116 C 
ENDROOT
BRANCH   1   2
ATOM      2  N   UNL A   1      32.895  29.005  24.787  1.00  0.00    -0.354 N 
ATOM      3  C   UNL A   1      32.878  28.622  23.471  1.00  0.00     0.247 C 
ATOM      4  O   UNL A   1      33.695  29.200  22.742  1.00  0.00    -0.272 OA
ATOM      5  H   UNL A   1      33.726  29.443  25.083  1.00  0.00     0.163 HD
BRANCH   3   6
ATOM      6  C   UNL A   1      31.780  27.662  22.874  1.00  0.00     0.203 C 
BRANCH   6   7
ATOM      7  N   UNL A   1      32.139  27.004  21.614  1.00  0.00    -0.340 N 
ATOM      8  C   UNL A   1      32.686  25.797  21.309  1.00  0.00     0.224 C 
ATOM      9  O   UNL A   1      33.007  25.620  20.129  1.00  0.00    -0.275 OA
ATOM     10  H   UNL A   1      31.944  27.553  20.821  1.00  0.00     0.164 HD
BRANCH   8  11
ATOM     11  C   UNL A   1      32.920  24.681  22.334  1.00  0.00     0.080 C 
ATOM     12  C   UNL A   1      31.572  24.191  22.839  1.00  0.00     0.018 C 
BRANCH  11  13
ATOM     13  C   UNL A   1      33.990  25.045  23.376  1.00  0.00     0.052 C 
BRANCH  13  14
ATOM     14  C   UNL A   1      34.309  24.058  24.453  1.00  0.00    -0.003 A 
ATOM     15  C   UNL A   1      36.542  22.983  23.537  1.00  0.00     0.069 C 
ATOM     16  C   UNL A   1      35.418  23.159  24.497  1.00  0.00     0.063 A 
ATOM     17  N   UNL A   1      35.431  22.448  25.628  1.00  0.00    -0.178 NA
ATOM     18  N   UNL A   1      34.384  22.907  26.326  1.00  0.00    -0.272 N 
ATOM     19  C   UNL A   1      33.739  23.950  25.715  1.00  0.00     0.038 A 
ATOM     20  C   UNL A   1      34.114  22.322  27.618  1.00  0.00     0.174 C 
ATOM     21  C   UNL A   1      32.687  24.751  26.394  1.00  0.00     0.066 C 
ENDBRANCH  13  14
ENDBRANCH  11  13
ENDBRANCH   8  11
ENDBRANCH   6   7
BRANCH   6  22
ATOM     22  C   UNL A   1      30.439  28.374  22.723  1.00  0.00     0.002 A 
ATOM     23  C   UNL A   1      30.388  29.583  21.998  1.00  0.00     0.008 A 
ATOM     24  C   UNL A   1      29.237  27.874  23.255  1.00  0.00     0.046 A 
ATOM     25  C   UNL A   1      29.187  30.272  21.821  1.00  0.00     0.000 A 
ATOM     26  C   UNL A   1      28.033  28.561  23.065  1.00  0.00     0.021 A 
ATOM     27  Cl  UNL A   1      29.179  26.408  24.171  1.00  0.00    -0.084 Cl
ATOM     28  C   UNL A   1      28.009  29.759  22.353  1.00  0.00     0.002 A 
ENDBRANCH   6  22
ENDBRANCH   3   6
ENDBRANCH   1   2
BRANCH   1  29
ATOM     29  C   UNL A   1      32.052  29.787  27.003  1.00  0.00     0.023 C 
BRANCH  29  30
ATOM     30  C   UNL A   1      31.923  31.272  26.694  1.00  0.00     0.023 C 
BRANCH  30  31
ATOM     31  C   UNL A   1      32.937  32.180  27.383  1.00  0.00     0.116 C 
BRANCH  31  32
ATOM     32  N   UNL A   1      32.487  33.555  27.557  1.00  0.00    -0.352 N 
ATOM     33  C   UNL A   1      33.002  34.530  28.381  1.00  0.00     0.251 C 
ATOM     34  H   UNL A   1      31.711  33.821  27.012  1.00  0.00     0.163 HD
ATOM     35  O   UNL A   1      32.467  35.632  28.460  1.00  0.00    -0.269 OA
BRANCH  33  36
ATOM     36  C   UNL A   1      34.181  34.215  29.212  1.00  0.00     0.039 A 
ATOM     37  C   UNL A   1      33.992  33.570  30.436  1.00  0.00     0.014 A 
ATOM     38  C   UNL A   1      35.469  34.473  28.738  1.00  0.00     0.014 A 
ATOM     39  C   UNL A   1      35.099  33.090  31.139  1.00  0.00     0.010 A 
ATOM     40  C   UNL A   1      36.564  33.928  29.399  1.00  0.00     0.010 A 
ATOM     41  C   UNL A   1      36.389  33.217  30.598  1.00  0.00    -0.014 A 
BRANCH  41  42
ATOM     42  C   UNL A   1      37.569  32.601  31.253  1.00  0.00     0.031 A 
ATOM     43  C   UNL A   1      38.291  31.465  30.585  1.00  0.00     0.074 A 
ATOM     44  C   UNL A   1      37.940  33.005  32.485  1.00  0.00     0.049 A 
ATOM     45  N   UNL A   1      39.262  30.716  31.042  1.00  0.00    -0.248 NA
ATOM     46  C   UNL A   1      37.838  31.104  29.233  1.00  0.00     0.031 C 
ATOM     47  C   UNL A   1      37.291  34.063  33.262  1.00  0.00     0.029 A 
ATOM     48  N   UNL A   1      38.944  32.559  33.309  1.00  0.00    -0.354 N 
ATOM     49  C   UNL A   1      39.526  29.791  30.041  1.00  0.00     0.074 A 
ATOM     50  C   UNL A   1      38.578  30.035  28.976  1.00  0.00     0.031 C 
ATOM     51  C   UNL A   1      37.922  34.194  34.440  1.00  0.00     0.029 A 
ATOM     52  C   UNL A   1      38.993  33.206  34.520  1.00  0.00     0.049 A 
ATOM     53  H   UNL A   1      39.569  31.841  33.056  1.00  0.00     0.167 HD
ATOM     54  C   UNL A   1      40.491  28.842  30.003  1.00  0.00     0.037 A 
ATOM     55  C   UNL A   1      39.805  33.016  35.578  1.00  0.00     0.037 A 
ATOM     56  C   UNL A   1      41.450  28.615  31.050  1.00  0.00     0.049 A 
ATOM     57  C   UNL A   1      40.866  31.951  35.508  1.00  0.00     0.074 A 
ATOM     58  C   UNL A   1      42.489  27.703  31.086  1.00  0.00     0.029 A 
ATOM     59  N   UNL A   1      41.491  29.318  32.244  1.00  0.00    -0.354 N 
ATOM     60  N   UNL A   1      41.137  31.117  34.536  1.00  0.00    -0.248 NA
ATOM     61  C   UNL A   1      41.736  31.805  36.684  1.00  0.00     0.031 C 
ATOM     62  C   UNL A   1      43.142  27.833  32.317  1.00  0.00     0.029 A 
ATOM     63  C   UNL A   1      42.533  28.852  33.030  1.00  0.00     0.049 A 
ATOM     64  H   UNL A   1      40.871  30.040  32.498  1.00  0.00     0.167 HD
ATOM     65  C   UNL A   1      42.223  30.367  34.969  1.00  0.00     0.074 A 
ATOM     66  C   UNL A   1      42.570  30.855  36.287  1.00  0.00     0.031 C 
ATOM     67  C   UNL A   1      42.872  29.363  34.332  1.00  0.00     0.037 A 
BRANCH  54  68
ATOM     68  C   UNL A   1      40.564  27.986  28.773  1.00  0.00     0.064 A 
ATOM     69  C   UNL A   1      39.848  26.783  28.678  1.00  0.00     0.173 A 
ATOM     70  C   UNL A   1      41.328  28.387  27.666  1.00  0.00     0.173 A 
ATOM     71  F   UNL A   1      39.116  26.351  29.714  1.00  0.00    -0.203 F 
ATOM     72  C   UNL A   1      39.915  25.999  27.530  1.00  0.00     0.198 A 
ATOM     73  C   UNL A   1      41.369  27.613  26.508  1.00  0.00     0.198 A 
ATOM     74  F   UNL A   1      42.027  29.530  27.704  1.00  0.00    -0.203 F 
ATOM     75  F   UNL A   1      39.259  24.831  27.480  1.00  0.00    -0.200 F 
ATOM     76  C   UNL A   1      40.669  26.417  26.444  1.00  0.00     0.200 A 
ATOM     77  F   UNL A   1      42.089  28.023  25.456  1.00  0.00    -0.200 F 
ATOM     78  F   UNL A   1      40.726  25.665  25.337  1.00  0.00    -0.200 F 
ENDBRANCH  54  68
BRANCH  55  79
ATOM     79  C   UNL A   1      39.662  33.862  36.792  1.00  0.00     0.064 A 
ATOM     80  C   UNL A   1      38.870  33.442  37.870  1.00  0.00     0.173 A 
ATOM     81  C   UNL A   1      40.289  35.112  36.891  1.00  0.00     0.173 A 
ATOM     82  F   UNL A   1      38.231  32.264  37.812  1.00  0.00    -0.203 F 
ATOM     83  C   UNL A   1      38.690  34.250  38.990  1.00  0.00     0.198 A 
ATOM     84  C   UNL A   1      40.130  35.909  38.023  1.00  0.00     0.198 A 
ATOM     85  F   UNL A   1      41.060  35.558  35.888  1.00  0.00    -0.203 F 
ATOM     86  F   UNL A   1      37.887  33.847  39.983  1.00  0.00    -0.200 F 
ATOM     87  C   UNL A   1      39.323  35.481  39.067  1.00  0.00     0.200 A 
ATOM     88  F   UNL A   1      40.753  37.093  38.099  1.00  0.00    -0.200 F 
ATOM     89  F   UNL A   1      39.147  36.261  40.144  1.00  0.00    -0.200 F 
ENDBRANCH  55  79
BRANCH  67  90
ATOM     90  C   UNL A   1      44.047  28.750  35.035  1.00  0.00     0.064 A 
ATOM     91  C   UNL A   1      43.902  27.632  35.868  1.00  0.00     0.173 A 
ATOM     92  C   UNL A   1      45.338  29.262  34.836  1.00  0.00     0.173 A 
ATOM     93  F   UNL A   1      42.686  27.117  36.101  1.00  0.00    -0.203 F 
ATOM     94  C   UNL A   1      45.007  27.060  36.493  1.00  0.00     0.198 A 
ATOM     95  C   UNL A   1      46.443  28.671  35.442  1.00  0.00     0.198 A 
ATOM     96  F   UNL A   1      45.528  30.328  34.043  1.00  0.00    -0.203 F 
ATOM     97  F   UNL A   1      44.841  26.015  37.317  1.00  0.00    -0.200 F 
ATOM     98  C   UNL A   1      46.276  27.575  36.274  1.00  0.00     0.200 A 
ATOM     99  F   UNL A   1      47.670  29.164  35.220  1.00  0.00    -0.200 F 
ATOM    100  F   UNL A   1      47.339  27.017  36.870  1.00  0.00    -0.200 F 
ENDBRANCH  67  90
ENDBRANCH  41  42
ENDBRANCH  33  36
ENDBRANCH  31  32
ENDBRANCH  30  31
ENDBRANCH  29  30
ENDBRANCH   1  29
TORSDOF 16
ENDMDL
MODEL 3
REMARK VINA RESULT:     -13.5      1.055      7.183
REMARK SMILES Cc1nn(C)c(C)c1C[C@@H](C)C(=O)N[C@@H](C(=O)NCCCCNC(=O)c1ccc(-c2c3nc(c(-c4c(F)c(F)c(F)c(F)c4F)c4ccc([nH]4)c(-c4c(F)c(F)c(F)c(F)c4F)c4nc(c(-c5c(F)c(F)c(F)c(F)c5F)c5ccc2[nH]5)C=C4)C=C3)cc1)c1ccccc1Cl
REMARK SMILES IDX 19 1 18 2 16 3 17 4 15 6 14 7 12 8 13 9 10 11 11 12 9 13
REMARK SMILES IDX 8 14 1 15 2 16 3 17 4 18 6 19 5 20 7 21 89 22 90 23 94 24
REMARK SMILES IDX 91 25 93 26 95 27 92 28 20 29 21 30 22 31 23 32 24 33 25 35
REMARK SMILES IDX 26 36 27 37 88 38 28 39 87 40 29 41 30 42 31 43 81 44 32 45
REMARK SMILES IDX 86 46 80 47 82 48 33 49 85 50 79 51 78 52 34 54 66 55 46 56
REMARK SMILES IDX 65 57 47 58 50 59 64 60 83 61 48 62 49 63 63 65 84 66 51 67
REMARK SMILES IDX 35 68 36 69 44 70 37 71 38 72 42 73 45 74 39 75 40 76 43 77
REMARK SMILES IDX 41 78 67 79 68 80 76 81 69 82 70 83 74 84 77 85 71 86 72 87
REMARK SMILES IDX 75 88 73 89 52 90 53 91 61 92 54 93 55 94 59 95 62 96 56 97
REMARK SMILES IDX 57 98 60 99 58 100
REMARK H PARENT 18 5 14 10 23 34 82 53 50 64
REMARK Flexibility Score: inf
ROOT
ATOM      1  C   UNL A   1      31.807  28.912  25.908  1.00  0.00     0.116 C 
ENDROOT
BRANCH   1   2
ATOM      2  N   UNL A   1      32.811  29.085  24.885  1.00  0.00    -0.354 N 
ATOM      3  C   UNL A   1      32.795  28.716  23.566  1.00  0.00     0.247 C 
ATOM      4  O   UNL A   1      33.594  29.320  22.838  1.00  0.00    -0.272 OA
ATOM      5  H   UNL A   1      33.634  29.538  25.181  1.00  0.00     0.163 HD
BRANCH   3   6
ATOM      6  C   UNL A   1      31.716  27.737  22.965  1.00  0.00     0.203 C 
BRANCH   6   7
ATOM      7  N   UNL A   1      32.117  27.035  21.741  1.00  0.00    -0.340 N 
ATOM      8  C   UNL A   1      32.699  25.830  21.499  1.00  0.00     0.224 C 
ATOM      9  O   UNL A   1      33.049  25.611  20.334  1.00  0.00    -0.275 OA
ATOM     10  H   UNL A   1      31.926  27.545  20.921  1.00  0.00     0.164 HD
BRANCH   8  11
ATOM     11  C   UNL A   1      32.938  24.764  22.575  1.00  0.00     0.080 C 
ATOM     12  C   UNL A   1      31.591  24.253  23.064  1.00  0.00     0.018 C 
BRANCH  11  13
ATOM     13  C   UNL A   1      33.966  25.204  23.630  1.00  0.00     0.052 C 
BRANCH  13  14
ATOM     14  C   UNL A   1      34.553  24.170  24.535  1.00  0.00    -0.003 A 
ATOM     15  C   UNL A   1      32.792  24.132  26.504  1.00  0.00     0.069 C 
ATOM     16  C   UNL A   1      34.034  23.727  25.790  1.00  0.00     0.063 A 
ATOM     17  N   UNL A   1      34.780  22.752  26.316  1.00  0.00    -0.178 NA
ATOM     18  N   UNL A   1      35.735  22.531  25.404  1.00  0.00    -0.272 N 
ATOM     19  C   UNL A   1      35.584  23.278  24.266  1.00  0.00     0.038 A 
ATOM     20  C   UNL A   1      36.728  21.521  25.686  1.00  0.00     0.174 C 
ATOM     21  C   UNL A   1      36.398  23.051  23.043  1.00  0.00     0.066 C 
ENDBRANCH  13  14
ENDBRANCH  11  13
ENDBRANCH   8  11
ENDBRANCH   6   7
BRANCH   6  22
ATOM     22  C   UNL A   1      30.383  28.445  22.742  1.00  0.00     0.002 A 
ATOM     23  C   UNL A   1      30.368  29.659  22.025  1.00  0.00     0.008 A 
ATOM     24  C   UNL A   1      29.155  27.935  23.200  1.00  0.00     0.046 A 
ATOM     25  C   UNL A   1      29.177  30.345  21.785  1.00  0.00     0.000 A 
ATOM     26  C   UNL A   1      27.961  28.620  22.947  1.00  0.00     0.021 A 
ATOM     27  Cl  UNL A   1      29.051  26.462  24.101  1.00  0.00    -0.084 Cl
ATOM     28  C   UNL A   1      27.972  29.823  22.245  1.00  0.00     0.002 A 
ENDBRANCH   6  22
ENDBRANCH   3   6
ENDBRANCH   1   2
BRANCH   1  29
ATOM     29  C   UNL A   1      31.881  29.913  27.050  1.00  0.00     0.023 C 
BRANCH  29  30
ATOM     30  C   UNL A   1      31.912  31.374  26.620  1.00  0.00     0.023 C 
BRANCH  30  31
ATOM     31  C   UNL A   1      32.903  32.260  27.368  1.00  0.00     0.116 C 
BRANCH  31  32
ATOM     32  N   UNL A   1      32.456  33.634  27.551  1.00  0.00    -0.352 N 
ATOM     33  C   UNL A   1      32.973  34.603  28.380  1.00  0.00     0.251 C 
ATOM     34  H   UNL A   1      31.678  33.905  27.010  1.00  0.00     0.163 HD
ATOM     35  O   UNL A   1      32.440  35.706  28.468  1.00  0.00    -0.269 OA
BRANCH  33  36
ATOM     36  C   UNL A   1      34.153  34.282  29.207  1.00  0.00     0.039 A 
ATOM     37  C   UNL A   1      33.965  33.641  30.433  1.00  0.00     0.014 A 
ATOM     38  C   UNL A   1      35.441  34.530  28.727  1.00  0.00     0.014 A 
ATOM     39  C   UNL A   1      35.072  33.154  31.132  1.00  0.00     0.010 A 
ATOM     40  C   UNL A   1      36.535  33.978  29.384  1.00  0.00     0.010 A 
ATOM     41  C   UNL A   1      36.360  33.271  30.585  1.00  0.00    -0.014 A 
BRANCH  41  42
ATOM     42  C   UNL A   1      37.539  32.648  31.237  1.00  0.00     0.031 A 
ATOM     43  C   UNL A   1      38.248  31.504  30.569  1.00  0.00     0.074 A 
ATOM     44  C   UNL A   1      37.919  33.053  32.465  1.00  0.00     0.049 A 
ATOM     45  N   UNL A   1      39.216  30.749  31.024  1.00  0.00    -0.248 NA
ATOM     46  C   UNL A   1      37.786  31.142  29.220  1.00  0.00     0.031 C 
ATOM     47  C   UNL A   1      37.282  34.118  33.242  1.00  0.00     0.029 A 
ATOM     48  N   UNL A   1      38.923  32.601  33.286  1.00  0.00    -0.354 N 
ATOM     49  C   UNL A   1      39.467  29.819  30.025  1.00  0.00     0.074 A 
ATOM     50  C   UNL A   1      38.516  30.066  28.964  1.00  0.00     0.031 C 
ATOM     51  C   UNL A   1      37.920  34.249  34.417  1.00  0.00     0.029 A 
ATOM     52  C   UNL A   1      38.984  33.253  34.494  1.00  0.00     0.049 A 
ATOM     53  H   UNL A   1      39.542  31.878  33.033  1.00  0.00     0.167 HD
ATOM     54  C   UNL A   1      40.424  28.861  29.985  1.00  0.00     0.037 A 
ATOM     55  C   UNL A   1      39.800  33.060  35.549  1.00  0.00     0.037 A 
ATOM     56  C   UNL A   1      41.387  28.631  31.028  1.00  0.00     0.049 A 
ATOM     57  C   UNL A   1      40.851  31.986  35.478  1.00  0.00     0.074 A 
ATOM     58  C   UNL A   1      42.419  27.710  31.062  1.00  0.00     0.029 A 
ATOM     59  N   UNL A   1      41.439  29.337  32.220  1.00  0.00    -0.354 N 
ATOM     60  N   UNL A   1      41.111  31.146  34.507  1.00  0.00    -0.248 NA
ATOM     61  C   UNL A   1      41.726  31.837  36.650  1.00  0.00     0.031 C 
ATOM     62  C   UNL A   1      43.079  27.839  32.289  1.00  0.00     0.029 A 
ATOM     63  C   UNL A   1      42.481  28.866  33.002  1.00  0.00     0.049 A 
ATOM     64  H   UNL A   1      40.827  30.065  32.474  1.00  0.00     0.167 HD
ATOM     65  C   UNL A   1      42.194  30.390  34.937  1.00  0.00     0.074 A 
ATOM     66  C   UNL A   1      42.551  30.880  36.252  1.00  0.00     0.031 C 
ATOM     67  C   UNL A   1      42.831  29.378  34.300  1.00  0.00     0.037 A 
BRANCH  54  68
ATOM     68  C   UNL A   1      40.485  28.001  28.758  1.00  0.00     0.064 A 
ATOM     69  C   UNL A   1      41.253  28.374  27.643  1.00  0.00     0.173 A 
ATOM     70  C   UNL A   1      39.800  26.778  28.705  1.00  0.00     0.173 A 
ATOM     71  F   UNL A   1      41.914  29.540  27.640  1.00  0.00    -0.203 F 
ATOM     72  C   UNL A   1      41.311  27.566  26.512  1.00  0.00     0.198 A 
ATOM     73  C   UNL A   1      39.884  25.959  27.582  1.00  0.00     0.198 A 
ATOM     74  F   UNL A   1      39.056  26.374  29.745  1.00  0.00    -0.203 F 
ATOM     75  F   UNL A   1      42.014  27.964  25.442  1.00  0.00    -0.200 F 
ATOM     76  C   UNL A   1      40.633  26.356  26.484  1.00  0.00     0.200 A 
ATOM     77  F   UNL A   1      39.238  24.786  27.560  1.00  0.00    -0.200 F 
ATOM     78  F   UNL A   1      40.697  25.576  25.397  1.00  0.00    -0.200 F 
ENDBRANCH  54  68
BRANCH  55  79
ATOM     79  C   UNL A   1      39.669  33.911  36.761  1.00  0.00     0.064 A 
ATOM     80  C   UNL A   1      40.344  35.136  36.855  1.00  0.00     0.173 A 
ATOM     81  C   UNL A   1      38.889  33.509  37.856  1.00  0.00     0.173 A 
ATOM     82  F   UNL A   1      41.120  35.551  35.843  1.00  0.00    -0.203 F 
ATOM     83  C   UNL A   1      40.266  35.915  38.007  1.00  0.00     0.198 A 
ATOM     84  C   UNL A   1      38.790  34.302  38.998  1.00  0.00     0.198 A 
ATOM     85  F   UNL A   1      38.220  32.348  37.814  1.00  0.00    -0.203 F 
ATOM     86  F   UNL A   1      40.963  37.056  38.090  1.00  0.00    -0.200 F 
ATOM     87  C   UNL A   1      39.487  35.499  39.076  1.00  0.00     0.200 A 
ATOM     88  F   UNL A   1      38.027  33.903  40.024  1.00  0.00    -0.200 F 
ATOM     89  F   UNL A   1      39.414  36.247  40.186  1.00  0.00    -0.200 F 
ENDBRANCH  55  79
BRANCH  67  90
ATOM     90  C   UNL A   1      44.005  28.759  35.000  1.00  0.00     0.064 A 
ATOM     91  C   UNL A   1      45.302  29.267  34.847  1.00  0.00     0.173 A 
ATOM     92  C   UNL A   1      43.820  27.671  35.867  1.00  0.00     0.173 A 
ATOM     93  F   UNL A   1      45.531  30.295  34.016  1.00  0.00    -0.203 F 
ATOM     94  C   UNL A   1      46.377  28.696  35.523  1.00  0.00     0.198 A 
ATOM     95  C   UNL A   1      44.893  27.120  36.561  1.00  0.00     0.198 A 
ATOM     96  F   UNL A   1      42.596  27.153  36.049  1.00  0.00    -0.203 F 
ATOM     97  F   UNL A   1      47.615  29.173  35.332  1.00  0.00    -0.200 F 
ATOM     98  C   UNL A   1      46.170  27.629  36.384  1.00  0.00     0.200 A 
ATOM     99  F   UNL A   1      44.690  26.095  37.401  1.00  0.00    -0.200 F 
ATOM    100  F   UNL A   1      47.205  27.085  37.040  1.00  0.00    -0.200 F 
ENDBRANCH  67  90
ENDBRANCH  41  42
ENDBRANCH  33  36
ENDBRANCH  31  32
ENDBRANCH  30  31
ENDBRANCH  29  30
ENDBRANCH   1  29
TORSDOF 16
ENDMDL
