MODEL 1
REMARK VINA RESULT:     -12.1      0.000      0.000
REMARK SMILES O=C(NCCCCNC(=O)[C@@H]1[NH2+]CC[C@H]1c1cc(F)c(F)c(F)c1)c1ccc(-c2c3nc(c(-c4c(F)c(F)c(F)c(F)c4F)c4ccc([nH]4)c(-c4c(F)c(F)c(F)c(F)c4F)c4nc(c(-c5c(F)c(F)c(F)c(F)c5F)c5ccc2[nH]5)C=C4)C=C3)cc1
REMARK SMILES IDX 5 1 4 2 3 3 1 4 2 5 25 7 26 8 87 9 27 10 86 11 28 12 29 13
REMARK SMILES IDX 30 14 80 15 31 16 85 17 79 18 81 19 32 20 84 21 78 22 77 23
REMARK SMILES IDX 33 25 65 26 45 27 64 28 46 29 49 30 63 31 82 32 47 33 48 34
REMARK SMILES IDX 62 36 83 37 50 38 34 39 35 40 43 41 36 42 37 43 41 44 44 45
REMARK SMILES IDX 38 46 39 47 42 48 40 49 66 50 67 51 75 52 68 53 69 54 73 55
REMARK SMILES IDX 76 56 70 57 71 58 74 59 72 60 51 61 52 62 60 63 53 64 54 65
REMARK SMILES IDX 58 66 61 67 55 68 56 69 59 70 57 71 6 72 7 73 8 74 9 75
REMARK SMILES IDX 10 77 11 78 12 79 15 80 13 81 14 84 16 85 17 86 24 87 18 88
REMARK SMILES IDX 22 89 19 90 20 91 23 92 21 93
REMARK H PARENT 3 6 81 24 49 35 8 76 12 82 12 83
REMARK Flexibility Score: inf
ROOT
ATOM      1  C   UNL A   1      33.018  27.822  25.843  1.00  0.00     0.023 C 
ENDROOT
BRANCH   1   2
ATOM      2  C   UNL A   1      33.992  28.263  26.926  1.00  0.00     0.116 C 
BRANCH   2   3
ATOM      3  N   UNL A   1      33.787  29.636  27.366  1.00  0.00    -0.352 N 
ATOM      4  O   UNL A   1      34.313  31.561  28.431  1.00  0.00    -0.269 OA
ATOM      5  C   UNL A   1      34.660  30.452  28.041  1.00  0.00     0.251 C 
ATOM      6  H   UNL A   1      32.911  30.029  27.149  1.00  0.00     0.163 HD
BRANCH   5   7
ATOM      7  C   UNL A   1      36.016  29.952  28.332  1.00  0.00     0.039 A 
ATOM      8  C   UNL A   1      36.303  29.370  29.570  1.00  0.00     0.014 A 
ATOM      9  C   UNL A   1      37.015  30.116  27.372  1.00  0.00     0.014 A 
ATOM     10  C   UNL A   1      37.618  29.071  29.898  1.00  0.00     0.010 A 
ATOM     11  C   UNL A   1      38.326  29.749  27.677  1.00  0.00     0.010 A 
ATOM     12  C   UNL A   1      38.639  29.254  28.952  1.00  0.00    -0.014 A 
BRANCH  12  13
ATOM     13  C   UNL A   1      40.028  28.876  29.293  1.00  0.00     0.031 A 
ATOM     14  C   UNL A   1      40.873  29.758  30.162  1.00  0.00     0.074 A 
ATOM     15  C   UNL A   1      40.516  27.717  28.812  1.00  0.00     0.049 A 
ATOM     16  N   UNL A   1      42.126  29.613  30.510  1.00  0.00    -0.248 NA
ATOM     17  C   UNL A   1      40.231  30.963  30.711  1.00  0.00     0.031 C 
ATOM     18  C   UNL A   1      39.770  26.779  27.971  1.00  0.00     0.029 A 
ATOM     19  N   UNL A   1      41.742  27.128  28.966  1.00  0.00    -0.354 N 
ATOM     20  C   UNL A   1      42.431  30.717  31.296  1.00  0.00     0.074 A 
ATOM     21  C   UNL A   1      41.236  31.531  31.365  1.00  0.00     0.031 C 
ATOM     22  C   UNL A   1      40.543  25.715  27.713  1.00  0.00     0.029 A 
ATOM     23  C   UNL A   1      41.856  25.927  28.313  1.00  0.00     0.049 A 
ATOM     24  H   UNL A   1      42.471  27.527  29.494  1.00  0.00     0.167 HD
ATOM     25  C   UNL A   1      43.604  31.014  31.901  1.00  0.00     0.037 A 
ATOM     26  C   UNL A   1      42.908  25.099  28.188  1.00  0.00     0.037 A 
ATOM     27  C   UNL A   1      44.778  30.183  31.841  1.00  0.00     0.049 A 
ATOM     28  C   UNL A   1      44.207  25.469  28.839  1.00  0.00     0.074 A 
ATOM     29  C   UNL A   1      46.008  30.382  32.444  1.00  0.00     0.029 A 
ATOM     30  N   UNL A   1      44.867  28.990  31.136  1.00  0.00    -0.354 N 
ATOM     31  N   UNL A   1      44.488  26.518  29.573  1.00  0.00    -0.248 NA
ATOM     32  C   UNL A   1      45.337  24.554  28.636  1.00  0.00     0.031 C 
ATOM     33  C   UNL A   1      46.852  29.331  32.072  1.00  0.00     0.029 A 
ATOM     34  C   UNL A   1      46.136  28.454  31.272  1.00  0.00     0.049 A 
ATOM     35  H   UNL A   1      44.135  28.586  30.615  1.00  0.00     0.167 HD
ATOM     36  C   UNL A   1      45.822  26.388  29.928  1.00  0.00     0.074 A 
ATOM     37  C   UNL A   1      46.293  25.151  29.337  1.00  0.00     0.031 C 
ATOM     38  C   UNL A   1      46.584  27.222  30.675  1.00  0.00     0.037 A 
BRANCH  25  39
ATOM     39  C   UNL A   1      43.691  32.299  32.670  1.00  0.00     0.064 A 
ATOM     40  C   UNL A   1      43.376  32.328  34.037  1.00  0.00     0.173 A 
ATOM     41  C   UNL A   1      44.022  33.510  32.046  1.00  0.00     0.173 A 
ATOM     42  F   UNL A   1      43.049  31.197  34.679  1.00  0.00    -0.203 F 
ATOM     43  C   UNL A   1      43.380  33.525  34.749  1.00  0.00     0.198 A 
ATOM     44  C   UNL A   1      44.047  34.703  32.766  1.00  0.00     0.198 A 
ATOM     45  F   UNL A   1      44.343  33.533  30.744  1.00  0.00    -0.203 F 
ATOM     46  F   UNL A   1      43.051  33.531  36.048  1.00  0.00    -0.200 F 
ATOM     47  C   UNL A   1      43.718  34.710  34.114  1.00  0.00     0.200 A 
ATOM     48  F   UNL A   1      44.395  35.844  32.156  1.00  0.00    -0.200 F 
ATOM     49  F   UNL A   1      43.731  35.860  34.801  1.00  0.00    -0.200 F 
ENDBRANCH  25  39
BRANCH  26  50
ATOM     50  C   UNL A   1      42.747  23.846  27.413  1.00  0.00     0.064 A 
ATOM     51  C   UNL A   1      42.339  22.655  28.034  1.00  0.00     0.173 A 
ATOM     52  C   UNL A   1      43.084  23.794  26.056  1.00  0.00     0.173 A 
ATOM     53  F   UNL A   1      42.015  22.654  29.335  1.00  0.00    -0.203 F 
ATOM     54  C   UNL A   1      42.309  21.453  27.332  1.00  0.00     0.198 A 
ATOM     55  C   UNL A   1      43.032  22.596  25.349  1.00  0.00     0.198 A 
ATOM     56  F   UNL A   1      43.466  24.911  25.419  1.00  0.00    -0.203 F 
ATOM     57  F   UNL A   1      41.965  20.320  27.960  1.00  0.00    -0.200 F 
ATOM     58  C   UNL A   1      42.656  21.424  25.990  1.00  0.00     0.200 A 
ATOM     59  F   UNL A   1      43.355  22.573  24.049  1.00  0.00    -0.200 F 
ATOM     60  F   UNL A   1      42.634  20.266  25.316  1.00  0.00    -0.200 F 
ENDBRANCH  26  50
BRANCH  38  61
ATOM     61  C   UNL A   1      48.009  26.825  30.912  1.00  0.00     0.064 A 
ATOM     62  C   UNL A   1      49.018  27.244  30.033  1.00  0.00     0.173 A 
ATOM     63  C   UNL A   1      48.359  25.959  31.957  1.00  0.00     0.173 A 
ATOM     64  F   UNL A   1      48.728  28.068  29.014  1.00  0.00    -0.203 F 
ATOM     65  C   UNL A   1      50.326  26.796  30.183  1.00  0.00     0.198 A 
ATOM     66  C   UNL A   1      49.672  25.530  32.117  1.00  0.00     0.198 A 
ATOM     67  F   UNL A   1      47.429  25.544  32.829  1.00  0.00    -0.203 F 
ATOM     68  F   UNL A   1      51.270  27.183  29.313  1.00  0.00    -0.200 F 
ATOM     69  C   UNL A   1      50.653  25.939  31.223  1.00  0.00     0.200 A 
ATOM     70  F   UNL A   1      49.992  24.717  33.134  1.00  0.00    -0.200 F 
ATOM     71  F   UNL A   1      51.914  25.510  31.367  1.00  0.00    -0.200 F 
ENDBRANCH  38  61
ENDBRANCH  12  13
ENDBRANCH   5   7
ENDBRANCH   2   3
ENDBRANCH   1   2
BRANCH   1  72
ATOM     72  C   UNL A   1      31.564  27.715  26.298  1.00  0.00     0.023 C 
BRANCH  72  73
ATOM     73  C   UNL A   1      30.797  26.527  25.716  1.00  0.00     0.116 C 
BRANCH  73  74
ATOM     74  N   UNL A   1      30.826  25.387  26.612  1.00  0.00    -0.351 N 
ATOM     75  C   UNL A   1      31.645  24.304  26.672  1.00  0.00     0.278 C 
ATOM     76  H   UNL A   1      30.126  25.401  27.304  1.00  0.00     0.163 HD
ATOM     77  O   UNL A   1      31.376  23.474  27.552  1.00  0.00    -0.268 OA
BRANCH  75  78
ATOM     78  C   UNL A   1      32.874  24.053  25.758  1.00  0.00     0.280 C 
ATOM     79  N   UNL A   1      32.644  24.257  24.307  1.00  0.00    -0.335 N 
ATOM     80  C   UNL A   1      33.346  22.587  25.899  1.00  0.00     0.093 C 
ATOM     81  C   UNL A   1      32.507  22.938  23.680  1.00  0.00     0.262 C 
ATOM     82  H   UNL A   1      33.434  24.755  23.898  1.00  0.00     0.346 HD
ATOM     83  H   UNL A   1      31.800  24.811  24.157  1.00  0.00     0.346 HD
ATOM     84  C   UNL A   1      32.507  21.920  24.808  1.00  0.00     0.076 C 
BRANCH  80  85
ATOM     85  C   UNL A   1      34.860  22.443  25.752  1.00  0.00    -0.032 A 
ATOM     86  C   UNL A   1      35.387  21.200  25.355  1.00  0.00     0.047 A 
ATOM     87  C   UNL A   1      35.765  23.493  25.981  1.00  0.00     0.047 A 
ATOM     88  C   UNL A   1      36.766  21.018  25.233  1.00  0.00     0.162 A 
ATOM     89  C   UNL A   1      37.140  23.294  25.856  1.00  0.00     0.162 A 
ATOM     90  F   UNL A   1      37.236  19.818  24.869  1.00  0.00    -0.204 F 
ATOM     91  C   UNL A   1      37.645  22.059  25.489  1.00  0.00     0.194 A 
ATOM     92  F   UNL A   1      37.968  24.318  26.106  1.00  0.00    -0.204 F 
ATOM     93  F   UNL A   1      38.968  21.875  25.382  1.00  0.00    -0.200 F 
ENDBRANCH  80  85
ENDBRANCH  75  78
ENDBRANCH  73  74
ENDBRANCH  72  73
ENDBRANCH   1  72
TORSDOF 12
ENDMDL
MODEL 2
REMARK VINA RESULT:     -12.0      3.313      7.583
REMARK SMILES O=C(NCCCCNC(=O)[C@@H]1[NH2+]CC[C@H]1c1cc(F)c(F)c(F)c1)c1ccc(-c2c3nc(c(-c4c(F)c(F)c(F)c(F)c4F)c4ccc([nH]4)c(-c4c(F)c(F)c(F)c(F)c4F)c4nc(c(-c5c(F)c(F)c(F)c(F)c5F)c5ccc2[nH]5)C=C4)C=C3)cc1
REMARK SMILES IDX 5 1 4 2 3 3 1 4 2 5 25 7 26 8 87 9 27 10 86 11 28 12 29 13
REMARK SMILES IDX 30 14 80 15 31 16 85 17 79 18 81 19 32 20 84 21 78 22 77 23
REMARK SMILES IDX 33 25 65 26 45 27 64 28 46 29 49 30 63 31 82 32 47 33 48 34
REMARK SMILES IDX 62 36 83 37 50 38 34 39 35 40 43 41 36 42 37 43 41 44 44 45
REMARK SMILES IDX 38 46 39 47 42 48 40 49 66 50 67 51 75 52 68 53 69 54 73 55
REMARK SMILES IDX 76 56 70 57 71 58 74 59 72 60 51 61 52 62 60 63 53 64 54 65
REMARK SMILES IDX 58 66 61 67 55 68 56 69 59 70 57 71 6 72 7 73 8 74 9 75
REMARK SMILES IDX 10 77 11 78 12 79 15 80 13 81 14 84 16 85 17 86 24 87 18 88
REMARK SMILES IDX 22 89 19 90 20 91 23 92 21 93
REMARK H PARENT 3 6 81 24 49 35 8 76 12 82 12 83
REMARK Flexibility Score: inf
ROOT
ATOM      1  C   UNL A   1      38.052  20.377  24.895  1.00  0.00     0.023 C 
ENDROOT
BRANCH   1   2
ATOM      2  C   UNL A   1      39.067  20.380  26.029  1.00  0.00     0.116 C 
BRANCH   2   3
ATOM      3  N   UNL A   1      40.068  19.329  25.914  1.00  0.00    -0.352 N 
ATOM      4  O   UNL A   1      42.160  18.471  25.848  1.00  0.00    -0.269 OA
ATOM      5  C   UNL A   1      41.428  19.429  26.068  1.00  0.00     0.251 C 
ATOM      6  H   UNL A   1      39.725  18.431  25.701  1.00  0.00     0.163 HD
BRANCH   5   7
ATOM      7  C   UNL A   1      42.003  20.729  26.461  1.00  0.00     0.039 A 
ATOM      8  C   UNL A   1      42.181  21.042  27.812  1.00  0.00     0.014 A 
ATOM      9  C   UNL A   1      42.317  21.657  25.466  1.00  0.00     0.014 A 
ATOM     10  C   UNL A   1      42.549  22.330  28.174  1.00  0.00     0.010 A 
ATOM     11  C   UNL A   1      42.755  22.929  25.830  1.00  0.00     0.010 A 
ATOM     12  C   UNL A   1      42.845  23.282  27.185  1.00  0.00    -0.014 A 
BRANCH  12  13
ATOM     13  C   UNL A   1      43.294  24.635  27.583  1.00  0.00     0.031 A 
ATOM     14  C   UNL A   1      42.303  25.690  27.971  1.00  0.00     0.074 A 
ATOM     15  C   UNL A   1      44.614  24.896  27.598  1.00  0.00     0.049 A 
ATOM     16  N   UNL A   1      42.515  26.942  28.286  1.00  0.00    -0.248 NA
ATOM     17  C   UNL A   1      40.886  25.292  28.007  1.00  0.00     0.031 C 
ATOM     18  C   UNL A   1      45.662  23.933  27.254  1.00  0.00     0.029 A 
ATOM     19  N   UNL A   1      45.299  26.036  27.920  1.00  0.00    -0.354 N 
ATOM     20  C   UNL A   1      41.263  27.488  28.533  1.00  0.00     0.074 A 
ATOM     21  C   UNL A   1      40.292  26.436  28.320  1.00  0.00     0.031 C 
ATOM     22  C   UNL A   1      46.859  24.513  27.419  1.00  0.00     0.029 A 
ATOM     23  C   UNL A   1      46.661  25.903  27.814  1.00  0.00     0.049 A 
ATOM     24  H   UNL A   1      44.859  26.870  28.202  1.00  0.00     0.167 HD
ATOM     25  C   UNL A   1      40.961  28.754  28.905  1.00  0.00     0.037 A 
ATOM     26  C   UNL A   1      47.641  26.806  27.989  1.00  0.00     0.037 A 
ATOM     27  C   UNL A   1      41.940  29.784  29.135  1.00  0.00     0.049 A 
ATOM     28  C   UNL A   1      47.277  28.211  28.367  1.00  0.00     0.074 A 
ATOM     29  C   UNL A   1      41.737  31.092  29.542  1.00  0.00     0.029 A 
ATOM     30  N   UNL A   1      43.309  29.622  28.978  1.00  0.00    -0.354 N 
ATOM     31  N   UNL A   1      46.091  28.720  28.591  1.00  0.00    -0.248 NA
ATOM     32  C   UNL A   1      48.380  29.170  28.503  1.00  0.00     0.031 C 
ATOM     33  C   UNL A   1      42.979  31.730  29.594  1.00  0.00     0.029 A 
ATOM     34  C   UNL A   1      43.962  30.811  29.261  1.00  0.00     0.049 A 
ATOM     35  H   UNL A   1      43.752  28.785  28.706  1.00  0.00     0.167 HD
ATOM     36  C   UNL A   1      46.301  30.055  28.902  1.00  0.00     0.074 A 
ATOM     37  C   UNL A   1      47.733  30.275  28.849  1.00  0.00     0.031 C 
ATOM     38  C   UNL A   1      45.387  31.008  29.202  1.00  0.00     0.037 A 
BRANCH  25  39
ATOM     39  C   UNL A   1      39.513  29.110  29.073  1.00  0.00     0.064 A 
ATOM     40  C   UNL A   1      38.908  29.032  30.336  1.00  0.00     0.173 A 
ATOM     41  C   UNL A   1      38.710  29.464  27.980  1.00  0.00     0.173 A 
ATOM     42  F   UNL A   1      39.631  28.694  31.413  1.00  0.00    -0.203 F 
ATOM     43  C   UNL A   1      37.548  29.287  30.497  1.00  0.00     0.198 A 
ATOM     44  C   UNL A   1      37.354  29.740  28.147  1.00  0.00     0.198 A 
ATOM     45  F   UNL A   1      39.244  29.563  26.753  1.00  0.00    -0.203 F 
ATOM     46  F   UNL A   1      36.987  29.183  31.709  1.00  0.00    -0.200 F 
ATOM     47  C   UNL A   1      36.774  29.644  29.403  1.00  0.00     0.200 A 
ATOM     48  F   UNL A   1      36.612  30.105  27.093  1.00  0.00    -0.200 F 
ATOM     49  F   UNL A   1      35.468  29.898  29.560  1.00  0.00    -0.200 F 
ENDBRANCH  25  39
BRANCH  26  50
ATOM     50  C   UNL A   1      49.049  26.382  27.807  1.00  0.00     0.064 A 
ATOM     51  C   UNL A   1      49.895  26.175  28.908  1.00  0.00     0.173 A 
ATOM     52  C   UNL A   1      49.601  26.262  26.526  1.00  0.00     0.173 A 
ATOM     53  F   UNL A   1      49.413  26.289  30.154  1.00  0.00    -0.203 F 
ATOM     54  C   UNL A   1      51.248  25.899  28.732  1.00  0.00     0.198 A 
ATOM     55  C   UNL A   1      50.950  25.963  26.351  1.00  0.00     0.198 A 
ATOM     56  F   UNL A   1      48.826  26.437  25.445  1.00  0.00    -0.203 F 
ATOM     57  F   UNL A   1      52.045  25.757  29.800  1.00  0.00    -0.200 F 
ATOM     58  C   UNL A   1      51.775  25.794  27.455  1.00  0.00     0.200 A 
ATOM     59  F   UNL A   1      51.454  25.848  25.115  1.00  0.00    -0.200 F 
ATOM     60  F   UNL A   1      53.078  25.535  27.285  1.00  0.00    -0.200 F 
ENDBRANCH  26  50
BRANCH  38  61
ATOM     61  C   UNL A   1      45.901  32.381  29.511  1.00  0.00     0.064 A 
ATOM     62  C   UNL A   1      46.201  32.745  30.832  1.00  0.00     0.173 A 
ATOM     63  C   UNL A   1      46.013  33.359  28.513  1.00  0.00     0.173 A 
ATOM     64  F   UNL A   1      46.103  31.843  31.821  1.00  0.00    -0.203 F 
ATOM     65  C   UNL A   1      46.578  34.046  31.145  1.00  0.00     0.198 A 
ATOM     66  C   UNL A   1      46.411  34.654  28.827  1.00  0.00     0.198 A 
ATOM     67  F   UNL A   1      45.749  33.051  27.235  1.00  0.00    -0.203 F 
ATOM     68  F   UNL A   1      46.829  34.382  32.419  1.00  0.00    -0.200 F 
ATOM     69  C   UNL A   1      46.682  35.000  30.144  1.00  0.00     0.200 A 
ATOM     70  F   UNL A   1      46.529  35.571  27.857  1.00  0.00    -0.200 F 
ATOM     71  F   UNL A   1      47.047  36.254  30.447  1.00  0.00    -0.200 F 
ENDBRANCH  38  61
ENDBRANCH  12  13
ENDBRANCH   5   7
ENDBRANCH   2   3
ENDBRANCH   1   2
BRANCH   1  72
ATOM     72  C   UNL A   1      37.421  21.736  24.601  1.00  0.00     0.023 C 
BRANCH  72  73
ATOM     73  C   UNL A   1      36.758  22.407  25.804  1.00  0.00     0.116 C 
BRANCH  73  74
ATOM     74  N   UNL A   1      35.961  23.549  25.401  1.00  0.00    -0.351 N 
ATOM     75  C   UNL A   1      34.935  23.671  24.517  1.00  0.00     0.278 C 
ATOM     76  H   UNL A   1      36.207  24.390  25.851  1.00  0.00     0.163 HD
ATOM     77  O   UNL A   1      34.484  24.816  24.372  1.00  0.00    -0.268 OA
BRANCH  75  78
ATOM     78  C   UNL A   1      34.292  22.506  23.719  1.00  0.00     0.280 C 
ATOM     79  N   UNL A   1      33.359  22.908  22.640  1.00  0.00    -0.335 N 
ATOM     80  C   UNL A   1      33.463  21.611  24.670  1.00  0.00     0.093 C 
ATOM     81  C   UNL A   1      31.990  22.701  23.124  1.00  0.00     0.262 C 
ATOM     82  H   UNL A   1      33.523  22.338  21.810  1.00  0.00     0.346 HD
ATOM     83  H   UNL A   1      33.504  23.888  22.393  1.00  0.00     0.346 HD
ATOM     84  C   UNL A   1      32.103  22.304  24.586  1.00  0.00     0.076 C 
BRANCH  80  85
ATOM     85  C   UNL A   1      33.484  20.140  24.256  1.00  0.00    -0.032 A 
ATOM     86  C   UNL A   1      34.520  19.316  24.735  1.00  0.00     0.047 A 
ATOM     87  C   UNL A   1      32.513  19.553  23.427  1.00  0.00     0.047 A 
ATOM     88  C   UNL A   1      34.591  17.972  24.362  1.00  0.00     0.162 A 
ATOM     89  C   UNL A   1      32.601  18.210  23.062  1.00  0.00     0.162 A 
ATOM     90  F   UNL A   1      35.599  17.220  24.822  1.00  0.00    -0.204 F 
ATOM     91  C   UNL A   1      33.638  17.418  23.522  1.00  0.00     0.194 A 
ATOM     92  F   UNL A   1      31.665  17.697  22.251  1.00  0.00    -0.204 F 
ATOM     93  F   UNL A   1      33.719  16.131  23.156  1.00  0.00    -0.200 F 
ENDBRANCH  80  85
ENDBRANCH  75  78
ENDBRANCH  73  74
ENDBRANCH  72  73
ENDBRANCH   1  72
TORSDOF 12
ENDMDL
MODEL 3
REMARK VINA RESULT:     -12.0      2.864      7.825
REMARK SMILES O=C(NCCCCNC(=O)[C@@H]1[NH2+]CC[C@H]1c1cc(F)c(F)c(F)c1)c1ccc(-c2c3nc(c(-c4c(F)c(F)c(F)c(F)c4F)c4ccc([nH]4)c(-c4c(F)c(F)c(F)c(F)c4F)c4nc(c(-c5c(F)c(F)c(F)c(F)c5F)c5ccc2[nH]5)C=C4)C=C3)cc1
REMARK SMILES IDX 5 1 4 2 3 3 1 4 2 5 25 7 26 8 87 9 27 10 86 11 28 12 29 13
REMARK SMILES IDX 30 14 80 15 31 16 85 17 79 18 81 19 32 20 84 21 78 22 77 23
REMARK SMILES IDX 33 25 65 26 45 27 64 28 46 29 49 30 63 31 82 32 47 33 48 34
REMARK SMILES IDX 62 36 83 37 50 38 34 39 35 40 43 41 36 42 37 43 41 44 44 45
REMARK SMILES IDX 38 46 39 47 42 48 40 49 66 50 67 51 75 52 68 53 69 54 73 55
REMARK SMILES IDX 76 56 70 57 71 58 74 59 72 60 51 61 52 62 60 63 53 64 54 65
REMARK SMILES IDX 58 66 61 67 55 68 56 69 59 70 57 71 6 72 7 73 8 74 9 75
REMARK SMILES IDX 10 77 11 78 12 79 15 80 13 81 14 84 16 85 17 86 24 87 18 88
REMARK SMILES IDX 22 89 19 90 20 91 23 92 21 93
REMARK H PARENT 3 6 81 24 49 35 8 76 12 82 12 83
REMARK Flexibility Score: inf
ROOT
ATOM      1  C   UNL A   1      32.077  28.311  25.012  1.00  0.00     0.023 C 
ENDROOT
BRANCH   1   2
ATOM      2  C   UNL A   1      33.152  29.300  25.440  1.00  0.00     0.116 C 
BRANCH   2   3
ATOM      3  N   UNL A   1      32.617  30.570  25.910  1.00  0.00    -0.352 N 
ATOM      4  O   UNL A   1      32.504  32.394  27.243  1.00  0.00    -0.269 OA
ATOM      5  C   UNL A   1      33.117  31.394  26.887  1.00  0.00     0.251 C 
ATOM      6  H   UNL A   1      31.793  30.878  25.468  1.00  0.00     0.163 HD
BRANCH   5   7
ATOM      7  C   UNL A   1      34.389  31.031  27.538  1.00  0.00     0.039 A 
ATOM      8  C   UNL A   1      34.615  29.717  27.960  1.00  0.00     0.014 A 
ATOM      9  C   UNL A   1      35.337  32.028  27.770  1.00  0.00     0.014 A 
ATOM     10  C   UNL A   1      35.733  29.429  28.730  1.00  0.00     0.010 A 
ATOM     11  C   UNL A   1      36.495  31.720  28.483  1.00  0.00     0.010 A 
ATOM     12  C   UNL A   1      36.684  30.427  28.993  1.00  0.00    -0.014 A 
BRANCH  12  13
ATOM     13  C   UNL A   1      37.902  30.092  29.765  1.00  0.00     0.031 A 
ATOM     14  C   UNL A   1      38.959  29.203  29.184  1.00  0.00     0.074 A 
ATOM     15  C   UNL A   1      38.044  30.611  30.999  1.00  0.00     0.049 A 
ATOM     16  N   UNL A   1      40.056  28.758  29.740  1.00  0.00    -0.248 NA
ATOM     17  C   UNL A   1      38.760  28.750  27.798  1.00  0.00     0.031 C 
ATOM     18  C   UNL A   1      37.081  31.501  31.649  1.00  0.00     0.029 A 
ATOM     19  N   UNL A   1      39.049  30.475  31.918  1.00  0.00    -0.354 N 
ATOM     20  C   UNL A   1      40.666  27.954  28.786  1.00  0.00     0.074 A 
ATOM     21  C   UNL A   1      39.812  27.961  27.618  1.00  0.00     0.031 C 
ATOM     22  C   UNL A   1      37.559  31.860  32.849  1.00  0.00     0.029 A 
ATOM     23  C   UNL A   1      38.826  31.174  33.077  1.00  0.00     0.049 A 
ATOM     24  H   UNL A   1      39.854  29.929  31.763  1.00  0.00     0.167 HD
ATOM     25  C   UNL A   1      41.833  27.276  28.885  1.00  0.00     0.037 A 
ATOM     26  C   UNL A   1      39.548  31.237  34.210  1.00  0.00     0.037 A 
ATOM     27  C   UNL A   1      42.683  27.296  30.047  1.00  0.00     0.049 A 
ATOM     28  C   UNL A   1      40.820  30.449  34.307  1.00  0.00     0.074 A 
ATOM     29  C   UNL A   1      43.901  26.665  30.236  1.00  0.00     0.029 A 
ATOM     30  N   UNL A   1      42.404  27.986  31.219  1.00  0.00    -0.354 N 
ATOM     31  N   UNL A   1      41.384  29.686  33.403  1.00  0.00    -0.248 NA
ATOM     32  C   UNL A   1      41.549  30.516  35.579  1.00  0.00     0.031 C 
ATOM     33  C   UNL A   1      44.339  26.942  31.534  1.00  0.00     0.029 A 
ATOM     34  C   UNL A   1      43.416  27.780  32.141  1.00  0.00     0.049 A 
ATOM     35  H   UNL A   1      41.604  28.540  31.372  1.00  0.00     0.167 HD
ATOM     36  C   UNL A   1      42.537  29.187  33.991  1.00  0.00     0.074 A 
ATOM     37  C   UNL A   1      42.598  29.745  35.327  1.00  0.00     0.031 C 
ATOM     38  C   UNL A   1      43.457  28.343  33.467  1.00  0.00     0.037 A 
BRANCH  25  39
ATOM     39  C   UNL A   1      42.259  26.438  27.717  1.00  0.00     0.064 A 
ATOM     40  C   UNL A   1      41.783  25.126  27.576  1.00  0.00     0.173 A 
ATOM     41  C   UNL A   1      43.185  26.906  26.773  1.00  0.00     0.173 A 
ATOM     42  F   UNL A   1      40.900  24.629  28.453  1.00  0.00    -0.203 F 
ATOM     43  C   UNL A   1      42.226  24.309  26.538  1.00  0.00     0.198 A 
ATOM     44  C   UNL A   1      43.609  26.095  25.723  1.00  0.00     0.198 A 
ATOM     45  F   UNL A   1      43.661  28.158  26.858  1.00  0.00    -0.203 F 
ATOM     46  F   UNL A   1      41.776  23.051  26.437  1.00  0.00    -0.200 F 
ATOM     47  C   UNL A   1      43.136  24.796  25.611  1.00  0.00     0.200 A 
ATOM     48  F   UNL A   1      44.472  26.573  24.816  1.00  0.00    -0.200 F 
ATOM     49  F   UNL A   1      43.554  24.014  24.607  1.00  0.00    -0.200 F 
ENDBRANCH  25  39
BRANCH  26  50
ATOM     50  C   UNL A   1      39.064  32.087  35.323  1.00  0.00     0.064 A 
ATOM     51  C   UNL A   1      39.400  33.448  35.398  1.00  0.00     0.173 A 
ATOM     52  C   UNL A   1      38.332  31.535  36.380  1.00  0.00     0.173 A 
ATOM     53  F   UNL A   1      40.109  34.019  34.413  1.00  0.00    -0.203 F 
ATOM     54  C   UNL A   1      39.050  34.214  36.506  1.00  0.00     0.198 A 
ATOM     55  C   UNL A   1      37.963  32.307  37.479  1.00  0.00     0.198 A 
ATOM     56  F   UNL A   1      37.978  30.241  36.344  1.00  0.00    -0.203 F 
ATOM     57  F   UNL A   1      39.428  35.498  36.577  1.00  0.00    -0.200 F 
ATOM     58  C   UNL A   1      38.333  33.644  37.546  1.00  0.00     0.200 A 
ATOM     59  F   UNL A   1      37.258  31.757  38.476  1.00  0.00    -0.200 F 
ATOM     60  F   UNL A   1      38.002  34.379  38.616  1.00  0.00    -0.200 F 
ENDBRANCH  26  50
BRANCH  38  61
ATOM     61  C   UNL A   1      44.623  27.974  34.331  1.00  0.00     0.064 A 
ATOM     62  C   UNL A   1      45.806  28.727  34.287  1.00  0.00     0.173 A 
ATOM     63  C   UNL A   1      44.599  26.826  35.135  1.00  0.00     0.173 A 
ATOM     64  F   UNL A   1      45.877  29.830  33.526  1.00  0.00    -0.203 F 
ATOM     65  C   UNL A   1      46.930  28.334  35.005  1.00  0.00     0.198 A 
ATOM     66  C   UNL A   1      45.719  26.447  35.869  1.00  0.00     0.198 A 
ATOM     67  F   UNL A   1      43.485  26.084  35.218  1.00  0.00    -0.203 F 
ATOM     68  F   UNL A   1      48.060  29.049  34.924  1.00  0.00    -0.200 F 
ATOM     69  C   UNL A   1      46.886  27.194  35.795  1.00  0.00     0.200 A 
ATOM     70  F   UNL A   1      45.671  25.357  36.647  1.00  0.00    -0.200 F 
ATOM     71  F   UNL A   1      47.970  26.817  36.487  1.00  0.00    -0.200 F 
ENDBRANCH  38  61
ENDBRANCH  12  13
ENDBRANCH   5   7
ENDBRANCH   2   3
ENDBRANCH   1   2
BRANCH   1  72
ATOM     72  C   UNL A   1      31.568  27.400  26.127  1.00  0.00     0.023 C 
BRANCH  72  73
ATOM     73  C   UNL A   1      30.587  26.319  25.672  1.00  0.00     0.116 C 
BRANCH  73  74
ATOM     74  N   UNL A   1      30.590  25.186  26.576  1.00  0.00    -0.351 N 
ATOM     75  C   UNL A   1      31.369  24.073  26.631  1.00  0.00     0.278 C 
ATOM     76  H   UNL A   1      29.903  25.231  27.280  1.00  0.00     0.163 HD
ATOM     77  O   UNL A   1      31.085  23.261  27.524  1.00  0.00    -0.268 OA
BRANCH  75  78
ATOM     78  C   UNL A   1      32.572  23.770  25.699  1.00  0.00     0.280 C 
ATOM     79  N   UNL A   1      32.282  23.819  24.246  1.00  0.00    -0.335 N 
ATOM     80  C   UNL A   1      33.100  22.341  25.967  1.00  0.00     0.093 C 
ATOM     81  C   UNL A   1      32.169  22.440  23.759  1.00  0.00     0.262 C 
ATOM     82  H   UNL A   1      33.039  24.298  23.757  1.00  0.00     0.346 HD
ATOM     83  H   UNL A   1      31.415  24.328  24.074  1.00  0.00     0.346 HD
ATOM     84  C   UNL A   1      32.246  21.542  24.983  1.00  0.00     0.076 C 
BRANCH  80  85
ATOM     85  C   UNL A   1      34.612  22.231  25.775  1.00  0.00    -0.032 A 
ATOM     86  C   UNL A   1      35.157  20.995  25.383  1.00  0.00     0.047 A 
ATOM     87  C   UNL A   1      35.498  23.307  25.958  1.00  0.00     0.047 A 
ATOM     88  C   UNL A   1      36.536  20.844  25.220  1.00  0.00     0.162 A 
ATOM     89  C   UNL A   1      36.873  23.138  25.794  1.00  0.00     0.162 A 
ATOM     90  F   UNL A   1      37.024  19.649  24.862  1.00  0.00    -0.204 F 
ATOM     91  C   UNL A   1      37.396  21.910  25.431  1.00  0.00     0.194 A 
ATOM     92  F   UNL A   1      37.683  24.186  26.000  1.00  0.00    -0.204 F 
ATOM     93  F   UNL A   1      38.719  21.756  25.286  1.00  0.00    -0.200 F 
ENDBRANCH  80  85
ENDBRANCH  75  78
ENDBRANCH  73  74
ENDBRANCH  72  73
ENDBRANCH   1  72
TORSDOF 12
ENDMDL
