MODEL 1
REMARK VINA RESULT:     -11.7      0.000      0.000
REMARK SMILES CC[C@H](C(=O)NCCCCNC(=O)c1ccc(-c2c3nc(c(-c4c(F)c(F)c(F)c(F)c4F)c4ccc([nH]4)c(-c4c(F)c(F)c(F)c(F)c4F)c4nc(c(-c5c(F)c(F)c(F)c(F)c5F)c5ccc2[nH]5)C=C4)C=C3)cc1)[N@H+](C)[C@H]1CC[C@H]([NH3+])CC1
REMARK SMILES IDX 8 1 7 2 6 3 4 4 5 5 3 7 2 8 1 9 77 10 78 11 79 13 80 14
REMARK SMILES IDX 85 15 81 16 84 17 82 18 83 19 9 23 10 24 11 25 12 26 13 28
REMARK SMILES IDX 14 29 15 30 76 31 16 32 75 33 17 34 18 35 19 36 69 37 20 38
REMARK SMILES IDX 74 39 68 40 70 41 21 42 73 43 67 44 66 45 22 47 54 48 34 49
REMARK SMILES IDX 53 50 35 51 38 52 52 53 71 54 36 55 37 56 51 58 72 59 39 60
REMARK SMILES IDX 23 61 24 62 32 63 25 64 26 65 30 66 33 67 27 68 28 69 31 70
REMARK SMILES IDX 29 71 55 72 56 73 64 74 57 75 58 76 62 77 65 78 59 79 60 80
REMARK SMILES IDX 63 81 61 82 40 83 41 84 49 85 42 86 43 87 47 88 50 89 44 90
REMARK SMILES IDX 45 91 48 92 46 93
REMARK H PARENT 6 6 77 12 83 20 83 21 83 22 11 27 70 46 38 57
REMARK Flexibility Score: inf
ROOT
ATOM      1  C   UNL A   1      31.751  30.720  26.177  1.00  0.00     0.023 C 
ENDROOT
BRANCH   1   2
ATOM      2  C   UNL A   1      32.492  29.757  27.098  1.00  0.00     0.116 C 
BRANCH   2   3
ATOM      3  N   UNL A   1      31.723  28.551  27.333  1.00  0.00    -0.351 N 
ATOM      4  C   UNL A   1      31.733  27.372  26.633  1.00  0.00     0.278 C 
ATOM      5  O   UNL A   1      30.975  26.482  27.022  1.00  0.00    -0.268 OA
ATOM      6  H   UNL A   1      31.109  28.582  28.102  1.00  0.00     0.163 HD
BRANCH   4   7
ATOM      7  C   UNL A   1      32.739  27.223  25.462  1.00  0.00     0.273 C 
BRANCH   7   8
ATOM      8  C   UNL A   1      33.870  26.225  25.839  1.00  0.00     0.072 C 
ATOM      9  C   UNL A   1      33.523  24.743  25.814  1.00  0.00     0.011 C 
ENDBRANCH   7   8
BRANCH   7  10
ATOM     10  N   UNL A   1      32.039  26.998  24.166  1.00  0.00    -0.325 N 
ATOM     11  C   UNL A   1      32.927  26.982  23.011  1.00  0.00     0.333 C 
ATOM     12  H   UNL A   1      31.696  26.037  24.203  1.00  0.00     0.348 HD
BRANCH  10  13
ATOM     13  C   UNL A   1      30.792  27.791  24.013  1.00  0.00     0.184 C 
ATOM     14  C   UNL A   1      29.564  26.932  23.629  1.00  0.00     0.071 C 
ATOM     15  C   UNL A   1      30.921  29.011  23.075  1.00  0.00     0.071 C 
ATOM     16  C   UNL A   1      28.285  27.762  23.481  1.00  0.00     0.071 C 
ATOM     17  C   UNL A   1      29.624  29.799  22.925  1.00  0.00     0.071 C 
ATOM     18  C   UNL A   1      28.486  28.892  22.469  1.00  0.00     0.181 C 
BRANCH  18  19
ATOM     19  N   UNL A   1      27.271  29.684  22.304  1.00  0.00    -0.355 N 
ATOM     20  H   UNL A   1      26.825  29.441  21.419  1.00  0.00     0.344 HD
ATOM     21  H   UNL A   1      27.510  30.676  22.303  1.00  0.00     0.344 HD
ATOM     22  H   UNL A   1      26.631  29.489  23.072  1.00  0.00     0.344 HD
ENDBRANCH  18  19
ENDBRANCH  10  13
ENDBRANCH   7  10
ENDBRANCH   4   7
ENDBRANCH   2   3
ENDBRANCH   1   2
BRANCH   1  23
ATOM     23  C   UNL A   1      31.466  32.087  26.795  1.00  0.00     0.023 C 
BRANCH  23  24
ATOM     24  C   UNL A   1      32.700  32.829  27.294  1.00  0.00     0.116 C 
BRANCH  24  25
ATOM     25  N   UNL A   1      32.420  34.222  27.616  1.00  0.00    -0.352 N 
ATOM     26  C   UNL A   1      32.976  35.013  28.590  1.00  0.00     0.251 C 
ATOM     27  H   UNL A   1      31.737  34.656  27.058  1.00  0.00     0.163 HD
ATOM     28  O   UNL A   1      32.496  36.114  28.845  1.00  0.00    -0.269 OA
BRANCH  26  29
ATOM     29  C   UNL A   1      34.141  34.521  29.352  1.00  0.00     0.039 A 
ATOM     30  C   UNL A   1      33.932  33.912  30.592  1.00  0.00     0.014 A 
ATOM     31  C   UNL A   1      35.432  34.638  28.832  1.00  0.00     0.014 A 
ATOM     32  C   UNL A   1      35.014  33.356  31.277  1.00  0.00     0.010 A 
ATOM     33  C   UNL A   1      36.494  34.008  29.473  1.00  0.00     0.010 A 
ATOM     34  C   UNL A   1      36.297  33.363  30.703  1.00  0.00    -0.014 A 
BRANCH  34  35
ATOM     35  C   UNL A   1      37.442  32.698  31.374  1.00  0.00     0.031 A 
ATOM     36  C   UNL A   1      38.147  31.551  30.703  1.00  0.00     0.074 A 
ATOM     37  C   UNL A   1      37.808  33.084  32.612  1.00  0.00     0.049 A 
ATOM     38  N   UNL A   1      39.126  30.805  31.151  1.00  0.00    -0.248 NA
ATOM     39  C   UNL A   1      37.675  31.176  29.362  1.00  0.00     0.031 C 
ATOM     40  C   UNL A   1      37.172  34.151  33.387  1.00  0.00     0.029 A 
ATOM     41  N   UNL A   1      38.799  32.620  33.440  1.00  0.00    -0.354 N 
ATOM     42  C   UNL A   1      39.375  29.871  30.154  1.00  0.00     0.074 A 
ATOM     43  C   UNL A   1      38.406  30.104  29.104  1.00  0.00     0.031 C 
ATOM     44  C   UNL A   1      37.804  34.277  34.564  1.00  0.00     0.029 A 
ATOM     45  C   UNL A   1      38.860  33.273  34.647  1.00  0.00     0.049 A 
ATOM     46  H   UNL A   1      39.408  31.887  33.193  1.00  0.00     0.167 HD
ATOM     47  C   UNL A   1      40.341  28.923  30.105  1.00  0.00     0.037 A 
ATOM     48  C   UNL A   1      39.671  33.077  35.705  1.00  0.00     0.037 A 
ATOM     49  C   UNL A   1      41.313  28.706  31.145  1.00  0.00     0.049 A 
ATOM     50  C   UNL A   1      40.719  31.999  35.635  1.00  0.00     0.074 A 
ATOM     51  C   UNL A   1      42.366  27.808  31.167  1.00  0.00     0.029 A 
ATOM     52  N   UNL A   1      41.347  29.391  32.350  1.00  0.00    -0.354 N 
ATOM     53  N   UNL A   1      40.994  31.172  34.656  1.00  0.00    -0.248 NA
ATOM     54  C   UNL A   1      41.576  31.832  36.817  1.00  0.00     0.031 C 
ATOM     55  C   UNL A   1      43.001  27.910  32.409  1.00  0.00     0.029 A 
ATOM     56  C   UNL A   1      42.385  28.916  33.136  1.00  0.00     0.049 A 
ATOM     57  H   UNL A   1      40.725  30.109  32.610  1.00  0.00     0.167 HD
ATOM     58  C   UNL A   1      42.070  30.410  35.090  1.00  0.00     0.074 A 
ATOM     59  C   UNL A   1      42.411  30.885  36.415  1.00  0.00     0.031 C 
ATOM     60  C   UNL A   1      42.718  29.406  34.450  1.00  0.00     0.037 A 
BRANCH  47  61
ATOM     61  C   UNL A   1      40.396  28.047  28.886  1.00  0.00     0.064 A 
ATOM     62  C   UNL A   1      41.155  28.399  27.759  1.00  0.00     0.173 A 
ATOM     63  C   UNL A   1      39.711  26.823  28.856  1.00  0.00     0.173 A 
ATOM     64  F   UNL A   1      41.820  29.564  27.730  1.00  0.00    -0.203 F 
ATOM     65  C   UNL A   1      41.201  27.575  26.638  1.00  0.00     0.198 A 
ATOM     66  C   UNL A   1      39.787  25.984  27.747  1.00  0.00     0.198 A 
ATOM     67  F   UNL A   1      38.975  26.433  29.908  1.00  0.00    -0.203 F 
ATOM     68  F   UNL A   1      41.890  27.958  25.555  1.00  0.00    -0.200 F 
ATOM     69  C   UNL A   1      40.524  26.365  26.636  1.00  0.00     0.200 A 
ATOM     70  F   UNL A   1      39.145  24.807  27.753  1.00  0.00    -0.200 F 
ATOM     71  F   UNL A   1      40.578  25.567  25.561  1.00  0.00    -0.200 F 
ENDBRANCH  47  61
BRANCH  48  72
ATOM     72  C   UNL A   1      39.537  33.930  36.916  1.00  0.00     0.064 A 
ATOM     73  C   UNL A   1      38.779  33.506  38.017  1.00  0.00     0.173 A 
ATOM     74  C   UNL A   1      40.149  35.190  36.995  1.00  0.00     0.173 A 
ATOM     75  F   UNL A   1      38.157  32.318  37.983  1.00  0.00    -0.203 F 
ATOM     76  C   UNL A   1      38.615  34.319  39.136  1.00  0.00     0.198 A 
ATOM     77  C   UNL A   1      40.013  35.989  38.128  1.00  0.00     0.198 A 
ATOM     78  F   UNL A   1      40.891  35.643  35.972  1.00  0.00    -0.203 F 
ATOM     79  F   UNL A   1      37.839  33.910  40.150  1.00  0.00    -0.200 F 
ATOM     80  C   UNL A   1      39.236  35.558  39.194  1.00  0.00     0.200 A 
ATOM     81  F   UNL A   1      40.628  37.178  38.186  1.00  0.00    -0.200 F 
ATOM     82  F   UNL A   1      39.080  36.338  40.271  1.00  0.00    -0.200 F 
ENDBRANCH  48  72
BRANCH  60  83
ATOM     83  C   UNL A   1      43.886  28.778  35.155  1.00  0.00     0.064 A 
ATOM     84  C   UNL A   1      45.191  29.268  35.007  1.00  0.00     0.173 A 
ATOM     85  C   UNL A   1      43.688  27.691  36.023  1.00  0.00     0.173 A 
ATOM     86  F   UNL A   1      45.436  30.295  34.179  1.00  0.00    -0.203 F 
ATOM     87  C   UNL A   1      46.259  28.678  35.679  1.00  0.00     0.198 A 
ATOM     88  C   UNL A   1      44.753  27.126  36.719  1.00  0.00     0.198 A 
ATOM     89  F   UNL A   1      42.459  27.187  36.207  1.00  0.00    -0.203 F 
ATOM     90  F   UNL A   1      47.504  29.131  35.480  1.00  0.00    -0.200 F 
ATOM     91  C   UNL A   1      46.038  27.615  36.540  1.00  0.00     0.200 A 
ATOM     92  F   UNL A   1      44.534  26.109  37.565  1.00  0.00    -0.200 F 
ATOM     93  F   UNL A   1      47.066  27.054  37.192  1.00  0.00    -0.200 F 
ENDBRANCH  60  83
ENDBRANCH  34  35
ENDBRANCH  26  29
ENDBRANCH  24  25
ENDBRANCH  23  24
ENDBRANCH   1  23
TORSDOF 15
ENDMDL
MODEL 2
REMARK VINA RESULT:     -11.7      0.063      1.631
REMARK SMILES CC[C@H](C(=O)NCCCCNC(=O)c1ccc(-c2c3nc(c(-c4c(F)c(F)c(F)c(F)c4F)c4ccc([nH]4)c(-c4c(F)c(F)c(F)c(F)c4F)c4nc(c(-c5c(F)c(F)c(F)c(F)c5F)c5ccc2[nH]5)C=C4)C=C3)cc1)[N@H+](C)[C@H]1CC[C@H]([NH3+])CC1
REMARK SMILES IDX 8 1 7 2 6 3 4 4 5 5 3 7 2 8 1 9 77 10 78 11 79 13 80 14
REMARK SMILES IDX 85 15 81 16 84 17 82 18 83 19 9 23 10 24 11 25 12 26 13 28
REMARK SMILES IDX 14 29 15 30 76 31 16 32 75 33 17 34 18 35 19 36 69 37 20 38
REMARK SMILES IDX 74 39 68 40 70 41 21 42 73 43 67 44 66 45 22 47 54 48 34 49
REMARK SMILES IDX 53 50 35 51 38 52 52 53 71 54 36 55 37 56 51 58 72 59 39 60
REMARK SMILES IDX 23 61 24 62 32 63 25 64 26 65 30 66 33 67 27 68 28 69 31 70
REMARK SMILES IDX 29 71 55 72 56 73 64 74 57 75 58 76 62 77 65 78 59 79 60 80
REMARK SMILES IDX 63 81 61 82 40 83 41 84 49 85 42 86 43 87 47 88 50 89 44 90
REMARK SMILES IDX 45 91 48 92 46 93
REMARK H PARENT 6 6 77 12 83 20 83 21 83 22 11 27 70 46 38 57
REMARK Flexibility Score: inf
ROOT
ATOM      1  C   UNL A   1      31.746  30.716  26.179  1.00  0.00     0.023 C 
ENDROOT
BRANCH   1   2
ATOM      2  C   UNL A   1      32.497  29.759  27.098  1.00  0.00     0.116 C 
BRANCH   2   3
ATOM      3  N   UNL A   1      31.733  28.552  27.345  1.00  0.00    -0.351 N 
ATOM      4  C   UNL A   1      31.738  27.372  26.649  1.00  0.00     0.278 C 
ATOM      5  O   UNL A   1      30.986  26.481  27.049  1.00  0.00    -0.268 OA
ATOM      6  H   UNL A   1      31.128  28.585  28.121  1.00  0.00     0.163 HD
BRANCH   4   7
ATOM      7  C   UNL A   1      32.730  27.220  25.467  1.00  0.00     0.273 C 
BRANCH   7   8
ATOM      8  C   UNL A   1      33.872  26.234  25.837  1.00  0.00     0.072 C 
ATOM      9  C   UNL A   1      33.544  24.747  25.798  1.00  0.00     0.011 C 
ENDBRANCH   7   8
BRANCH   7  10
ATOM     10  N   UNL A   1      32.016  26.981  24.181  1.00  0.00    -0.325 N 
ATOM     11  C   UNL A   1      32.894  26.934  23.019  1.00  0.00     0.333 C 
ATOM     12  H   UNL A   1      31.662  26.026  24.238  1.00  0.00     0.348 HD
BRANCH  10  13
ATOM     13  C   UNL A   1      30.777  27.787  24.025  1.00  0.00     0.184 C 
ATOM     14  C   UNL A   1      29.545  26.942  23.624  1.00  0.00     0.071 C 
ATOM     15  C   UNL A   1      30.925  29.013  23.098  1.00  0.00     0.071 C 
ATOM     16  C   UNL A   1      28.275  27.784  23.472  1.00  0.00     0.071 C 
ATOM     17  C   UNL A   1      29.636  29.814  22.944  1.00  0.00     0.071 C 
ATOM     18  C   UNL A   1      28.494  28.921  22.471  1.00  0.00     0.181 C 
BRANCH  18  19
ATOM     19  N   UNL A   1      27.287  29.725  22.303  1.00  0.00    -0.355 N 
ATOM     20  H   UNL A   1      26.577  29.175  21.819  1.00  0.00     0.344 HD
ATOM     21  H   UNL A   1      27.507  30.555  21.753  1.00  0.00     0.344 HD
ATOM     22  H   UNL A   1      26.935  30.006  23.217  1.00  0.00     0.344 HD
ENDBRANCH  18  19
ENDBRANCH  10  13
ENDBRANCH   7  10
ENDBRANCH   4   7
ENDBRANCH   2   3
ENDBRANCH   1   2
BRANCH   1  23
ATOM     23  C   UNL A   1      31.455  32.082  26.796  1.00  0.00     0.023 C 
BRANCH  23  24
ATOM     24  C   UNL A   1      32.672  32.790  27.378  1.00  0.00     0.116 C 
BRANCH  24  25
ATOM     25  N   UNL A   1      32.416  34.195  27.664  1.00  0.00    -0.352 N 
ATOM     26  C   UNL A   1      32.992  35.005  28.611  1.00  0.00     0.251 C 
ATOM     27  H   UNL A   1      31.734  34.624  27.100  1.00  0.00     0.163 HD
ATOM     28  O   UNL A   1      32.531  36.119  28.839  1.00  0.00    -0.269 OA
BRANCH  26  29
ATOM     29  C   UNL A   1      34.157  34.515  29.376  1.00  0.00     0.039 A 
ATOM     30  C   UNL A   1      33.948  33.929  30.627  1.00  0.00     0.014 A 
ATOM     31  C   UNL A   1      35.446  34.614  28.848  1.00  0.00     0.014 A 
ATOM     32  C   UNL A   1      35.029  33.376  31.316  1.00  0.00     0.010 A 
ATOM     33  C   UNL A   1      36.506  33.987  29.496  1.00  0.00     0.010 A 
ATOM     34  C   UNL A   1      36.309  33.363  30.737  1.00  0.00    -0.014 A 
BRANCH  34  35
ATOM     35  C   UNL A   1      37.452  32.700  31.414  1.00  0.00     0.031 A 
ATOM     36  C   UNL A   1      38.158  31.550  30.751  1.00  0.00     0.074 A 
ATOM     37  C   UNL A   1      37.816  33.093  32.651  1.00  0.00     0.049 A 
ATOM     38  N   UNL A   1      39.134  30.805  31.205  1.00  0.00    -0.248 NA
ATOM     39  C   UNL A   1      37.688  31.169  29.410  1.00  0.00     0.031 C 
ATOM     40  C   UNL A   1      37.178  34.165  33.419  1.00  0.00     0.029 A 
ATOM     41  N   UNL A   1      38.804  32.632  33.484  1.00  0.00    -0.354 N 
ATOM     42  C   UNL A   1      39.385  29.866  30.213  1.00  0.00     0.074 A 
ATOM     43  C   UNL A   1      38.419  30.094  29.160  1.00  0.00     0.031 C 
ATOM     44  C   UNL A   1      37.808  34.296  34.596  1.00  0.00     0.029 A 
ATOM     45  C   UNL A   1      38.863  33.292  34.687  1.00  0.00     0.049 A 
ATOM     46  H   UNL A   1      39.413  31.897  33.242  1.00  0.00     0.167 HD
ATOM     47  C   UNL A   1      40.350  28.916  30.172  1.00  0.00     0.037 A 
ATOM     48  C   UNL A   1      39.671  33.100  35.748  1.00  0.00     0.037 A 
ATOM     49  C   UNL A   1      41.319  28.704  31.215  1.00  0.00     0.049 A 
ATOM     50  C   UNL A   1      40.718  32.021  35.686  1.00  0.00     0.074 A 
ATOM     51  C   UNL A   1      42.371  27.804  31.244  1.00  0.00     0.029 A 
ATOM     52  N   UNL A   1      41.351  29.395  32.417  1.00  0.00    -0.354 N 
ATOM     53  N   UNL A   1      40.994  31.188  34.712  1.00  0.00    -0.248 NA
ATOM     54  C   UNL A   1      41.573  31.859  36.872  1.00  0.00     0.031 C 
ATOM     55  C   UNL A   1      43.003  27.912  32.487  1.00  0.00     0.029 A 
ATOM     56  C   UNL A   1      42.387  28.922  33.207  1.00  0.00     0.049 A 
ATOM     57  H   UNL A   1      40.729  30.115  32.672  1.00  0.00     0.167 HD
ATOM     58  C   UNL A   1      42.069  30.428  35.153  1.00  0.00     0.074 A 
ATOM     59  C   UNL A   1      42.407  30.909  36.476  1.00  0.00     0.031 C 
ATOM     60  C   UNL A   1      42.717  29.419  34.519  1.00  0.00     0.037 A 
BRANCH  47  61
ATOM     61  C   UNL A   1      40.406  28.034  28.957  1.00  0.00     0.064 A 
ATOM     62  C   UNL A   1      39.704  26.820  28.895  1.00  0.00     0.173 A 
ATOM     63  C   UNL A   1      41.141  28.423  27.827  1.00  0.00     0.173 A 
ATOM     64  F   UNL A   1      38.995  26.395  29.952  1.00  0.00    -0.203 F 
ATOM     65  C   UNL A   1      39.760  26.015  27.761  1.00  0.00     0.198 A 
ATOM     66  C   UNL A   1      41.167  27.632  26.680  1.00  0.00     0.198 A 
ATOM     67  F   UNL A   1      41.826  29.576  27.829  1.00  0.00    -0.203 F 
ATOM     68  F   UNL A   1      39.124  24.836  27.745  1.00  0.00    -0.200 F 
ATOM     69  C   UNL A   1      40.485  26.426  26.652  1.00  0.00     0.200 A 
ATOM     70  F   UNL A   1      41.854  28.038  25.604  1.00  0.00    -0.200 F 
ATOM     71  F   UNL A   1      40.530  25.655  25.556  1.00  0.00    -0.200 F 
ENDBRANCH  47  61
BRANCH  48  72
ATOM     72  C   UNL A   1      39.536  33.960  36.954  1.00  0.00     0.064 A 
ATOM     73  C   UNL A   1      38.775  33.542  38.056  1.00  0.00     0.173 A 
ATOM     74  C   UNL A   1      40.148  35.220  37.028  1.00  0.00     0.173 A 
ATOM     75  F   UNL A   1      38.153  32.354  38.027  1.00  0.00    -0.203 F 
ATOM     76  C   UNL A   1      38.609  34.361  39.171  1.00  0.00     0.198 A 
ATOM     77  C   UNL A   1      40.010  36.024  38.157  1.00  0.00     0.198 A 
ATOM     78  F   UNL A   1      40.892  35.667  36.005  1.00  0.00    -0.203 F 
ATOM     79  F   UNL A   1      37.831  33.958  40.185  1.00  0.00    -0.200 F 
ATOM     80  C   UNL A   1      39.231  35.599  39.223  1.00  0.00     0.200 A 
ATOM     81  F   UNL A   1      40.625  37.213  38.210  1.00  0.00    -0.200 F 
ATOM     82  F   UNL A   1      39.073  36.385  40.296  1.00  0.00    -0.200 F 
ENDBRANCH  48  72
BRANCH  60  83
ATOM     83  C   UNL A   1      43.883  28.794  35.231  1.00  0.00     0.064 A 
ATOM     84  C   UNL A   1      43.720  27.719  36.117  1.00  0.00     0.173 A 
ATOM     85  C   UNL A   1      45.188  29.254  34.990  1.00  0.00     0.173 A 
ATOM     86  F   UNL A   1      42.493  27.252  36.392  1.00  0.00    -0.203 F 
ATOM     87  C   UNL A   1      44.816  27.147  36.758  1.00  0.00     0.198 A 
ATOM     88  C   UNL A   1      46.284  28.656  35.606  1.00  0.00     0.198 A 
ATOM     89  F   UNL A   1      45.402  30.274  34.145  1.00  0.00    -0.203 F 
ATOM     90  F   UNL A   1      44.630  26.157  37.641  1.00  0.00    -0.200 F 
ATOM     91  C   UNL A   1      46.097  27.609  36.496  1.00  0.00     0.200 A 
ATOM     92  F   UNL A   1      47.523  29.093  35.338  1.00  0.00    -0.200 F 
ATOM     93  F   UNL A   1      47.151  27.051  37.107  1.00  0.00    -0.200 F 
ENDBRANCH  60  83
ENDBRANCH  34  35
ENDBRANCH  26  29
ENDBRANCH  24  25
ENDBRANCH  23  24
ENDBRANCH   1  23
TORSDOF 15
ENDMDL
MODEL 3
REMARK VINA RESULT:     -11.6      0.480      7.586
REMARK SMILES CC[C@H](C(=O)NCCCCNC(=O)c1ccc(-c2c3nc(c(-c4c(F)c(F)c(F)c(F)c4F)c4ccc([nH]4)c(-c4c(F)c(F)c(F)c(F)c4F)c4nc(c(-c5c(F)c(F)c(F)c(F)c5F)c5ccc2[nH]5)C=C4)C=C3)cc1)[N@H+](C)[C@H]1CC[C@H]([NH3+])CC1
REMARK SMILES IDX 8 1 7 2 6 3 4 4 5 5 3 7 2 8 1 9 77 10 78 11 79 13 80 14
REMARK SMILES IDX 85 15 81 16 84 17 82 18 83 19 9 23 10 24 11 25 12 26 13 28
REMARK SMILES IDX 14 29 15 30 76 31 16 32 75 33 17 34 18 35 19 36 69 37 20 38
REMARK SMILES IDX 74 39 68 40 70 41 21 42 73 43 67 44 66 45 22 47 54 48 34 49
REMARK SMILES IDX 53 50 35 51 38 52 52 53 71 54 36 55 37 56 51 58 72 59 39 60
REMARK SMILES IDX 23 61 24 62 32 63 25 64 26 65 30 66 33 67 27 68 28 69 31 70
REMARK SMILES IDX 29 71 55 72 56 73 64 74 57 75 58 76 62 77 65 78 59 79 60 80
REMARK SMILES IDX 63 81 61 82 40 83 41 84 49 85 42 86 43 87 47 88 50 89 44 90
REMARK SMILES IDX 45 91 48 92 46 93
REMARK H PARENT 6 6 77 12 83 20 83 21 83 22 11 27 70 46 38 57
REMARK Flexibility Score: inf
ROOT
ATOM      1  C   UNL A   1      31.556  30.801  26.025  1.00  0.00     0.023 C 
ENDROOT
BRANCH   1   2
ATOM      2  C   UNL A   1      32.430  29.945  26.933  1.00  0.00     0.116 C 
BRANCH   2   3
ATOM      3  N   UNL A   1      31.779  28.695  27.271  1.00  0.00    -0.351 N 
ATOM      4  C   UNL A   1      31.848  27.485  26.629  1.00  0.00     0.278 C 
ATOM      5  O   UNL A   1      31.190  26.559  27.105  1.00  0.00    -0.268 OA
ATOM      6  H   UNL A   1      31.208  28.717  28.073  1.00  0.00     0.163 HD
BRANCH   4   7
ATOM      7  C   UNL A   1      32.797  27.355  25.409  1.00  0.00     0.273 C 
BRANCH   7   8
ATOM      8  C   UNL A   1      34.005  26.441  25.754  1.00  0.00     0.072 C 
ATOM      9  C   UNL A   1      33.760  24.938  25.751  1.00  0.00     0.011 C 
ENDBRANCH   7   8
BRANCH   7  10
ATOM     10  N   UNL A   1      32.042  27.044  24.162  1.00  0.00    -0.325 N 
ATOM     11  C   UNL A   1      32.884  26.924  22.978  1.00  0.00     0.333 C 
ATOM     12  H   UNL A   1      31.688  26.096  24.286  1.00  0.00     0.348 HD
BRANCH  10  13
ATOM     13  C   UNL A   1      30.802  27.845  23.996  1.00  0.00     0.184 C 
ATOM     14  C   UNL A   1      29.560  26.986  23.663  1.00  0.00     0.071 C 
ATOM     15  C   UNL A   1      30.931  29.026  23.010  1.00  0.00     0.071 C 
ATOM     16  C   UNL A   1      28.288  27.824  23.500  1.00  0.00     0.071 C 
ATOM     17  C   UNL A   1      29.641  29.823  22.847  1.00  0.00     0.071 C 
ATOM     18  C   UNL A   1      28.486  28.912  22.442  1.00  0.00     0.181 C 
BRANCH  18  19
ATOM     19  N   UNL A   1      27.278  29.711  22.264  1.00  0.00    -0.355 N 
ATOM     20  H   UNL A   1      26.488  29.094  22.074  1.00  0.00     0.344 HD
ATOM     21  H   UNL A   1      27.406  30.350  21.479  1.00  0.00     0.344 HD
ATOM     22  H   UNL A   1      27.095  30.246  23.112  1.00  0.00     0.344 HD
ENDBRANCH  18  19
ENDBRANCH  10  13
ENDBRANCH   7  10
ENDBRANCH   4   7
ENDBRANCH   2   3
ENDBRANCH   1   2
BRANCH   1  23
ATOM     23  C   UNL A   1      31.373  32.240  26.502  1.00  0.00     0.023 C 
BRANCH  23  24
ATOM     24  C   UNL A   1      32.562  32.814  27.263  1.00  0.00     0.116 C 
BRANCH  24  25
ATOM     25  N   UNL A   1      32.370  34.212  27.626  1.00  0.00    -0.352 N 
ATOM     26  C   UNL A   1      32.993  34.945  28.605  1.00  0.00     0.251 C 
ATOM     27  H   UNL A   1      31.700  34.698  27.095  1.00  0.00     0.163 HD
ATOM     28  O   UNL A   1      32.583  36.064  28.898  1.00  0.00    -0.269 OA
BRANCH  26  29
ATOM     29  C   UNL A   1      34.146  34.368  29.326  1.00  0.00     0.039 A 
ATOM     30  C   UNL A   1      33.917  33.635  30.493  1.00  0.00     0.014 A 
ATOM     31  C   UNL A   1      35.444  34.529  28.835  1.00  0.00     0.014 A 
ATOM     32  C   UNL A   1      34.987  33.003  31.129  1.00  0.00     0.010 A 
ATOM     33  C   UNL A   1      36.494  33.828  29.421  1.00  0.00     0.010 A 
ATOM     34  C   UNL A   1      36.277  33.060  30.575  1.00  0.00    -0.014 A 
BRANCH  34  35
ATOM     35  C   UNL A   1      37.410  32.321  31.187  1.00  0.00     0.031 A 
ATOM     36  C   UNL A   1      37.900  32.692  32.559  1.00  0.00     0.074 A 
ATOM     37  C   UNL A   1      38.037  31.357  30.483  1.00  0.00     0.049 A 
ATOM     38  N   UNL A   1      38.911  32.207  33.236  1.00  0.00    -0.248 NA
ATOM     39  C   UNL A   1      37.176  33.768  33.253  1.00  0.00     0.031 C 
ATOM     40  C   UNL A   1      37.686  30.939  29.125  1.00  0.00     0.029 A 
ATOM     41  N   UNL A   1      39.106  30.561  30.809  1.00  0.00    -0.354 N 
ATOM     42  C   UNL A   1      38.947  32.925  34.424  1.00  0.00     0.074 A 
ATOM     43  C   UNL A   1      37.898  33.919  34.351  1.00  0.00     0.031 C 
ATOM     44  C   UNL A   1      38.505  29.947  28.745  1.00  0.00     0.029 A 
ATOM     45  C   UNL A   1      39.466  29.688  29.812  1.00  0.00     0.049 A 
ATOM     46  H   UNL A   1      39.571  30.611  31.675  1.00  0.00     0.167 HD
ATOM     47  C   UNL A   1      39.764  32.753  35.492  1.00  0.00     0.037 A 
ATOM     48  C   UNL A   1      40.467  28.787  29.761  1.00  0.00     0.037 A 
ATOM     49  C   UNL A   1      40.796  31.752  35.566  1.00  0.00     0.049 A 
ATOM     50  C   UNL A   1      41.377  28.634  30.951  1.00  0.00     0.074 A 
ATOM     51  C   UNL A   1      41.640  31.461  36.623  1.00  0.00     0.029 A 
ATOM     52  N   UNL A   1      41.128  30.882  34.538  1.00  0.00    -0.354 N 
ATOM     53  N   UNL A   1      41.354  29.267  32.099  1.00  0.00    -0.248 NA
ATOM     54  C   UNL A   1      42.449  27.635  30.840  1.00  0.00     0.031 C 
ATOM     55  C   UNL A   1      42.521  30.455  36.215  1.00  0.00     0.029 A 
ATOM     56  C   UNL A   1      42.185  30.073  34.926  1.00  0.00     0.049 A 
ATOM     57  H   UNL A   1      40.681  30.844  33.662  1.00  0.00     0.167 HD
ATOM     58  C   UNL A   1      42.383  28.724  32.855  1.00  0.00     0.074 A 
ATOM     59  C   UNL A   1      43.001  27.697  32.043  1.00  0.00     0.031 C 
ATOM     60  C   UNL A   1      42.783  29.048  34.109  1.00  0.00     0.037 A 
BRANCH  47  61
ATOM     61  C   UNL A   1      39.574  33.669  36.667  1.00  0.00     0.064 A 
ATOM     62  C   UNL A   1      38.762  33.312  37.755  1.00  0.00     0.173 A 
ATOM     63  C   UNL A   1      40.241  34.902  36.726  1.00  0.00     0.173 A 
ATOM     64  F   UNL A   1      38.093  32.149  37.746  1.00  0.00    -0.203 F 
ATOM     65  C   UNL A   1      38.600  34.168  38.841  1.00  0.00     0.198 A 
ATOM     66  C   UNL A   1      40.104  35.741  37.830  1.00  0.00     0.198 A 
ATOM     67  F   UNL A   1      41.035  35.291  35.717  1.00  0.00    -0.203 F 
ATOM     68  F   UNL A   1      37.778  33.828  39.843  1.00  0.00    -0.200 F 
ATOM     69  C   UNL A   1      39.278  35.377  38.882  1.00  0.00     0.200 A 
ATOM     70  F   UNL A   1      40.772  36.901  37.874  1.00  0.00    -0.200 F 
ATOM     71  F   UNL A   1      39.129  36.196  39.932  1.00  0.00    -0.200 F 
ENDBRANCH  47  61
BRANCH  48  72
ATOM     72  C   UNL A   1      40.653  27.946  28.549  1.00  0.00     0.064 A 
ATOM     73  C   UNL A   1      41.442  28.389  27.478  1.00  0.00     0.173 A 
ATOM     74  C   UNL A   1      40.038  26.691  28.427  1.00  0.00     0.173 A 
ATOM     75  F   UNL A   1      42.035  29.591  27.536  1.00  0.00    -0.203 F 
ATOM     76  C   UNL A   1      41.585  27.625  26.322  1.00  0.00     0.198 A 
ATOM     77  C   UNL A   1      40.209  25.912  27.285  1.00  0.00     0.198 A 
ATOM     78  F   UNL A   1      39.277  26.215  29.425  1.00  0.00    -0.203 F 
ATOM     79  F   UNL A   1      42.300  28.099  25.292  1.00  0.00    -0.200 F 
ATOM     80  C   UNL A   1      40.973  26.384  26.228  1.00  0.00     0.200 A 
ATOM     81  F   UNL A   1      39.629  24.707  27.205  1.00  0.00    -0.200 F 
ATOM     82  F   UNL A   1      41.113  25.648  25.118  1.00  0.00    -0.200 F 
ENDBRANCH  48  72
BRANCH  60  83
ATOM     83  C   UNL A   1      43.918  28.258  34.698  1.00  0.00     0.064 A 
ATOM     84  C   UNL A   1      45.248  28.688  34.600  1.00  0.00     0.173 A 
ATOM     85  C   UNL A   1      43.662  27.071  35.404  1.00  0.00     0.173 A 
ATOM     86  F   UNL A   1      45.548  29.807  33.923  1.00  0.00    -0.203 F 
ATOM     87  C   UNL A   1      46.285  27.946  35.162  1.00  0.00     0.198 A 
ATOM     88  C   UNL A   1      44.696  26.351  35.994  1.00  0.00     0.198 A 
ATOM     89  F   UNL A   1      42.406  26.618  35.535  1.00  0.00    -0.203 F 
ATOM     90  F   UNL A   1      47.553  28.349  35.009  1.00  0.00    -0.200 F 
ATOM     91  C   UNL A   1      46.007  26.784  35.866  1.00  0.00     0.200 A 
ATOM     92  F   UNL A   1      44.424  25.237  36.689  1.00  0.00    -0.200 F 
ATOM     93  F   UNL A   1      47.004  26.076  36.414  1.00  0.00    -0.200 F 
ENDBRANCH  60  83
ENDBRANCH  34  35
ENDBRANCH  26  29
ENDBRANCH  24  25
ENDBRANCH  23  24
ENDBRANCH   1  23
TORSDOF 15
ENDMDL
