MODEL 1
REMARK VINA RESULT:     -11.7      0.000      0.000
REMARK SMILES CCC[NH2+][C@@]1(C(=O)NCCCCNC(=O)c2ccc(-c3c4nc(c(-c5c(F)c(F)c(F)c(F)c5F)c5ccc([nH]5)c(-c5c(F)c(F)c(F)c(F)c5F)c5nc(c(-c6c(F)c(F)c(F)c(F)c6F)c6ccc3[nH]6)C=C5)C=C4)cc2)CCC[C@@H]1CC[NH+]1CC[NH+](C)CC1
REMARK SMILES IDX 10 1 9 2 8 3 6 4 7 5 5 7 79 8 82 9 80 10 81 11 4 12 3 15
REMARK SMILES IDX 2 16 1 17 83 18 84 19 85 20 86 21 91 22 87 24 90 25 88 26
REMARK SMILES IDX 89 27 11 29 12 30 13 31 14 32 15 34 16 35 17 36 78 37 18 38
REMARK SMILES IDX 77 39 19 40 20 41 21 42 71 43 22 44 76 45 70 46 72 47 23 48
REMARK SMILES IDX 75 49 69 50 68 51 24 53 56 54 36 55 55 56 37 57 40 58 54 59
REMARK SMILES IDX 73 60 38 61 39 62 53 64 74 65 41 66 25 67 26 68 34 69 27 70
REMARK SMILES IDX 28 71 32 72 35 73 29 74 30 75 33 76 31 77 57 78 58 79 66 80
REMARK SMILES IDX 59 81 60 82 64 83 67 84 61 85 62 86 65 87 63 88 42 89 43 90
REMARK SMILES IDX 51 91 44 92 45 93 49 94 52 95 46 96 47 97 50 98 48 99
REMARK H PARENT 8 6 4 13 4 14 85 23 88 28 13 33 72 52 40 63
REMARK Flexibility Score: inf
ROOT
ATOM      1  C   UNL A   1      31.756  30.291  26.610  1.00  0.00     0.023 C 
ENDROOT
BRANCH   1   2
ATOM      2  C   UNL A   1      33.098  29.691  26.190  1.00  0.00     0.116 C 
BRANCH   2   3
ATOM      3  N   UNL A   1      33.231  29.708  24.754  1.00  0.00    -0.351 N 
ATOM      4  C   UNL A   1      33.256  28.724  23.818  1.00  0.00     0.281 C 
ATOM      5  O   UNL A   1      33.706  29.099  22.726  1.00  0.00    -0.268 OA
ATOM      6  H   UNL A   1      33.320  30.613  24.378  1.00  0.00     0.163 HD
BRANCH   4   7
ATOM      7  C   UNL A   1      32.791  27.227  24.064  1.00  0.00     0.178 C 
ATOM      8  C   UNL A   1      33.652  26.136  23.388  1.00  0.00     0.079 C 
ATOM      9  C   UNL A   1      31.351  26.930  23.542  1.00  0.00     0.066 C 
ATOM     10  C   UNL A   1      32.790  25.478  22.298  1.00  0.00     0.008 C 
ATOM     11  C   UNL A   1      31.530  26.322  22.157  1.00  0.00     0.011 C 
BRANCH   7  12
ATOM     12  N   UNL A   1      32.734  26.974  25.532  1.00  0.00    -0.333 N 
ATOM     13  H   UNL A   1      33.359  27.642  25.981  1.00  0.00     0.347 HD
ATOM     14  H   UNL A   1      31.747  27.066  25.770  1.00  0.00     0.347 HD
BRANCH  12  15
ATOM     15  C   UNL A   1      33.104  25.645  26.006  1.00  0.00     0.261 C 
BRANCH  15  16
ATOM     16  C   UNL A   1      31.830  24.900  26.432  1.00  0.00     0.058 C 
ATOM     17  C   UNL A   1      31.520  23.677  25.577  1.00  0.00     0.010 C 
ENDBRANCH  15  16
ENDBRANCH  12  15
ENDBRANCH   7  12
BRANCH   9  18
ATOM     18  C   UNL A   1      30.308  28.060  23.582  1.00  0.00     0.072 C 
BRANCH  18  19
ATOM     19  C   UNL A   1      29.994  28.764  22.245  1.00  0.00     0.263 C 
BRANCH  19  20
ATOM     20  N   UNL A   1      28.865  29.722  22.240  1.00  0.00    -0.326 N 
ATOM     21  C   UNL A   1      29.149  30.793  21.256  1.00  0.00     0.324 C 
ATOM     22  C   UNL A   1      28.593  30.312  23.558  1.00  0.00     0.324 C 
ATOM     23  H   UNL A   1      28.028  29.202  21.982  1.00  0.00     0.348 HD
ATOM     24  C   UNL A   1      28.128  31.959  21.282  1.00  0.00     0.324 C 
ATOM     25  C   UNL A   1      27.588  31.484  23.557  1.00  0.00     0.324 C 
ATOM     26  N   UNL A   1      27.901  32.565  22.610  1.00  0.00    -0.328 N 
ATOM     27  C   UNL A   1      29.056  33.349  23.048  1.00  0.00     0.333 C 
ATOM     28  H   UNL A   1      27.119  33.219  22.563  1.00  0.00     0.348 HD
ENDBRANCH  19  20
ENDBRANCH  18  19
ENDBRANCH   9  18
ENDBRANCH   4   7
ENDBRANCH   2   3
ENDBRANCH   1   2
BRANCH   1  29
ATOM     29  C   UNL A   1      31.689  31.812  26.500  1.00  0.00     0.023 C 
BRANCH  29  30
ATOM     30  C   UNL A   1      32.804  32.540  27.236  1.00  0.00     0.116 C 
BRANCH  30  31
ATOM     31  N   UNL A   1      32.466  33.905  27.614  1.00  0.00    -0.352 N 
ATOM     32  C   UNL A   1      33.076  34.687  28.566  1.00  0.00     0.251 C 
ATOM     33  H   UNL A   1      31.711  34.316  27.132  1.00  0.00     0.163 HD
ATOM     34  O   UNL A   1      32.642  35.790  28.855  1.00  0.00    -0.269 OA
BRANCH  32  35
ATOM     35  C   UNL A   1      34.247  34.129  29.263  1.00  0.00     0.039 A 
ATOM     36  C   UNL A   1      34.047  33.159  30.245  1.00  0.00     0.014 A 
ATOM     37  C   UNL A   1      35.535  34.505  28.873  1.00  0.00     0.014 A 
ATOM     38  C   UNL A   1      35.153  32.525  30.806  1.00  0.00     0.010 A 
ATOM     39  C   UNL A   1      36.627  33.807  29.365  1.00  0.00     0.010 A 
ATOM     40  C   UNL A   1      36.447  32.826  30.351  1.00  0.00    -0.014 A 
BRANCH  40  41
ATOM     41  C   UNL A   1      37.631  32.155  30.935  1.00  0.00     0.031 A 
ATOM     42  C   UNL A   1      38.090  32.530  32.316  1.00  0.00     0.074 A 
ATOM     43  C   UNL A   1      38.310  31.247  30.209  1.00  0.00     0.049 A 
ATOM     44  N   UNL A   1      39.103  32.070  33.004  1.00  0.00    -0.248 NA
ATOM     45  C   UNL A   1      37.333  33.589  33.001  1.00  0.00     0.031 C 
ATOM     46  C   UNL A   1      38.001  30.858  28.831  1.00  0.00     0.029 A 
ATOM     47  N   UNL A   1      39.402  30.483  30.532  1.00  0.00    -0.354 N 
ATOM     48  C   UNL A   1      39.109  32.794  34.189  1.00  0.00     0.074 A 
ATOM     49  C   UNL A   1      38.050  33.771  34.098  1.00  0.00     0.031 C 
ATOM     50  C   UNL A   1      38.859  29.903  28.441  1.00  0.00     0.029 A 
ATOM     51  C   UNL A   1      39.791  29.628  29.530  1.00  0.00     0.049 A 
ATOM     52  H   UNL A   1      39.864  30.543  31.400  1.00  0.00     0.167 HD
ATOM     53  C   UNL A   1      39.904  32.632  35.273  1.00  0.00     0.037 A 
ATOM     54  C   UNL A   1      40.780  28.715  29.507  1.00  0.00     0.037 A 
ATOM     55  C   UNL A   1      40.930  31.630  35.371  1.00  0.00     0.049 A 
ATOM     56  C   UNL A   1      41.622  28.525  30.740  1.00  0.00     0.074 A 
ATOM     57  C   UNL A   1      41.753  31.336  36.443  1.00  0.00     0.029 A 
ATOM     58  N   UNL A   1      41.269  30.752  34.352  1.00  0.00    -0.354 N 
ATOM     59  N   UNL A   1      41.567  29.158  31.888  1.00  0.00    -0.248 NA
ATOM     60  C   UNL A   1      42.652  27.481  30.681  1.00  0.00     0.031 C 
ATOM     61  C   UNL A   1      42.615  30.303  36.060  1.00  0.00     0.029 A 
ATOM     62  C   UNL A   1      42.297  29.922  34.766  1.00  0.00     0.049 A 
ATOM     63  H   UNL A   1      40.842  30.723  33.465  1.00  0.00     0.167 HD
ATOM     64  C   UNL A   1      42.531  28.570  32.696  1.00  0.00     0.074 A 
ATOM     65  C   UNL A   1      43.143  27.517  31.911  1.00  0.00     0.031 C 
ATOM     66  C   UNL A   1      42.882  28.874  33.970  1.00  0.00     0.037 A 
BRANCH  53  67
ATOM     67  C   UNL A   1      39.677  33.552  36.437  1.00  0.00     0.064 A 
ATOM     68  C   UNL A   1      38.828  33.198  37.499  1.00  0.00     0.173 A 
ATOM     69  C   UNL A   1      40.322  34.796  36.501  1.00  0.00     0.173 A 
ATOM     70  F   UNL A   1      38.174  32.028  37.479  1.00  0.00    -0.203 F 
ATOM     71  C   UNL A   1      38.606  34.070  38.562  1.00  0.00     0.198 A 
ATOM     72  C   UNL A   1      40.122  35.651  37.581  1.00  0.00     0.198 A 
ATOM     73  F   UNL A   1      41.144  35.183  35.515  1.00  0.00    -0.203 F 
ATOM     74  F   UNL A   1      37.744  33.735  39.532  1.00  0.00    -0.200 F 
ATOM     75  C   UNL A   1      39.258  35.292  38.605  1.00  0.00     0.200 A 
ATOM     76  F   UNL A   1      40.762  36.829  37.628  1.00  0.00    -0.200 F 
ATOM     77  F   UNL A   1      39.046  36.131  39.629  1.00  0.00    -0.200 F 
ENDBRANCH  53  67
BRANCH  54  78
ATOM     78  C   UNL A   1      40.990  27.874  28.301  1.00  0.00     0.064 A 
ATOM     79  C   UNL A   1      40.362  26.627  28.175  1.00  0.00     0.173 A 
ATOM     80  C   UNL A   1      41.824  28.292  27.254  1.00  0.00     0.173 A 
ATOM     81  F   UNL A   1      39.568  26.177  29.159  1.00  0.00    -0.203 F 
ATOM     82  C   UNL A   1      40.581  25.818  27.062  1.00  0.00     0.198 A 
ATOM     83  C   UNL A   1      42.020  27.494  26.128  1.00  0.00     0.198 A 
ATOM     84  F   UNL A   1      42.441  29.481  27.321  1.00  0.00    -0.203 F 
ATOM     85  F   UNL A   1      40.006  24.610  26.992  1.00  0.00    -0.200 F 
ATOM     86  C   UNL A   1      41.406  26.254  26.038  1.00  0.00     0.200 A 
ATOM     87  F   UNL A   1      42.807  27.926  25.133  1.00  0.00    -0.200 F 
ATOM     88  F   UNL A   1      41.616  25.476  24.967  1.00  0.00    -0.200 F 
ENDBRANCH  54  78
BRANCH  66  89
ATOM     89  C   UNL A   1      43.949  28.031  34.602  1.00  0.00     0.064 A 
ATOM     90  C   UNL A   1      43.645  26.837  35.272  1.00  0.00     0.173 A 
ATOM     91  C   UNL A   1      45.297  28.412  34.516  1.00  0.00     0.173 A 
ATOM     92  F   UNL A   1      42.370  26.437  35.393  1.00  0.00    -0.203 F 
ATOM     93  C   UNL A   1      44.647  26.073  35.862  1.00  0.00     0.198 A 
ATOM     94  C   UNL A   1      46.300  27.629  35.080  1.00  0.00     0.198 A 
ATOM     95  F   UNL A   1      45.642  29.541  33.879  1.00  0.00    -0.203 F 
ATOM     96  F   UNL A   1      44.328  24.965  36.546  1.00  0.00    -0.200 F 
ATOM     97  C   UNL A   1      45.974  26.466  35.760  1.00  0.00     0.200 A 
ATOM     98  F   UNL A   1      47.582  28.002  34.968  1.00  0.00    -0.200 F 
ATOM     99  F   UNL A   1      46.938  25.728  36.328  1.00  0.00    -0.200 F 
ENDBRANCH  66  89
ENDBRANCH  40  41
ENDBRANCH  32  35
ENDBRANCH  30  31
ENDBRANCH  29  30
ENDBRANCH   1  29
TORSDOF 17
ENDMDL
MODEL 2
REMARK VINA RESULT:     -11.7      1.675      3.865
REMARK SMILES CCC[NH2+][C@@]1(C(=O)NCCCCNC(=O)c2ccc(-c3c4nc(c(-c5c(F)c(F)c(F)c(F)c5F)c5ccc([nH]5)c(-c5c(F)c(F)c(F)c(F)c5F)c5nc(c(-c6c(F)c(F)c(F)c(F)c6F)c6ccc3[nH]6)C=C5)C=C4)cc2)CCC[C@@H]1CC[NH+]1CC[NH+](C)CC1
REMARK SMILES IDX 10 1 9 2 8 3 6 4 7 5 5 7 79 8 82 9 80 10 81 11 4 12 3 15
REMARK SMILES IDX 2 16 1 17 83 18 84 19 85 20 86 21 91 22 87 24 90 25 88 26
REMARK SMILES IDX 89 27 11 29 12 30 13 31 14 32 15 34 16 35 17 36 78 37 18 38
REMARK SMILES IDX 77 39 19 40 20 41 21 42 71 43 22 44 76 45 70 46 72 47 23 48
REMARK SMILES IDX 75 49 69 50 68 51 24 53 56 54 36 55 55 56 37 57 40 58 54 59
REMARK SMILES IDX 73 60 38 61 39 62 53 64 74 65 41 66 25 67 26 68 34 69 27 70
REMARK SMILES IDX 28 71 32 72 35 73 29 74 30 75 33 76 31 77 57 78 58 79 66 80
REMARK SMILES IDX 59 81 60 82 64 83 67 84 61 85 62 86 65 87 63 88 42 89 43 90
REMARK SMILES IDX 51 91 44 92 45 93 49 94 52 95 46 96 47 97 50 98 48 99
REMARK H PARENT 8 6 4 13 4 14 85 23 88 28 13 33 72 52 40 63
REMARK Flexibility Score: inf
ROOT
ATOM      1  C   UNL A   1      31.792  31.057  26.121  1.00  0.00     0.023 C 
ENDROOT
BRANCH   1   2
ATOM      2  C   UNL A   1      32.868  30.210  26.803  1.00  0.00     0.116 C 
BRANCH   2   3
ATOM      3  N   UNL A   1      32.286  29.020  27.374  1.00  0.00    -0.351 N 
ATOM      4  C   UNL A   1      31.684  27.933  26.826  1.00  0.00     0.281 C 
ATOM      5  O   UNL A   1      31.028  27.274  27.645  1.00  0.00    -0.268 OA
ATOM      6  H   UNL A   1      32.336  28.991  28.357  1.00  0.00     0.163 HD
BRANCH   4   7
ATOM      7  C   UNL A   1      31.764  27.528  25.295  1.00  0.00     0.178 C 
ATOM      8  C   UNL A   1      30.672  28.128  24.381  1.00  0.00     0.079 C 
ATOM      9  C   UNL A   1      31.639  25.992  25.051  1.00  0.00     0.066 C 
ATOM     10  C   UNL A   1      29.776  26.971  23.912  1.00  0.00     0.008 C 
ATOM     11  C   UNL A   1      30.172  25.743  24.722  1.00  0.00     0.011 C 
BRANCH   7  12
ATOM     12  N   UNL A   1      33.108  27.898  24.767  1.00  0.00    -0.333 N 
ATOM     13  H   UNL A   1      33.586  28.429  25.495  1.00  0.00     0.347 HD
ATOM     14  H   UNL A   1      33.540  27.008  24.518  1.00  0.00     0.347 HD
BRANCH  12  15
ATOM     15  C   UNL A   1      33.163  28.688  23.543  1.00  0.00     0.261 C 
BRANCH  15  16
ATOM     16  C   UNL A   1      33.976  27.918  22.492  1.00  0.00     0.058 C 
ATOM     17  C   UNL A   1      33.238  26.725  21.900  1.00  0.00     0.010 C 
ENDBRANCH  15  16
ENDBRANCH  12  15
ENDBRANCH   7  12
BRANCH   9  18
ATOM     18  C   UNL A   1      32.196  25.032  26.117  1.00  0.00     0.072 C 
BRANCH  18  19
ATOM     19  C   UNL A   1      31.273  23.877  26.562  1.00  0.00     0.263 C 
BRANCH  19  20
ATOM     20  N   UNL A   1      31.898  22.544  26.725  1.00  0.00    -0.326 N 
ATOM     21  C   UNL A   1      33.237  22.713  27.336  1.00  0.00     0.324 C 
ATOM     22  C   UNL A   1      32.012  21.794  25.467  1.00  0.00     0.324 C 
ATOM     23  H   UNL A   1      31.287  21.996  27.329  1.00  0.00     0.348 HD
ATOM     24  C   UNL A   1      34.071  21.407  27.394  1.00  0.00     0.324 C 
ATOM     25  C   UNL A   1      32.862  20.509  25.544  1.00  0.00     0.324 C 
ATOM     26  N   UNL A   1      34.208  20.692  26.109  1.00  0.00    -0.328 N 
ATOM     27  C   UNL A   1      35.089  21.407  25.186  1.00  0.00     0.333 C 
ATOM     28  H   UNL A   1      34.643  19.782  26.265  1.00  0.00     0.348 HD
ENDBRANCH  19  20
ENDBRANCH  18  19
ENDBRANCH   9  18
ENDBRANCH   4   7
ENDBRANCH   2   3
ENDBRANCH   1   2
BRANCH   1  29
ATOM     29  C   UNL A   1      31.429  32.332  26.876  1.00  0.00     0.023 C 
BRANCH  29  30
ATOM     30  C   UNL A   1      32.623  33.077  27.453  1.00  0.00     0.116 C 
BRANCH  30  31
ATOM     31  N   UNL A   1      32.327  34.446  27.851  1.00  0.00    -0.352 N 
ATOM     32  C   UNL A   1      32.982  35.207  28.789  1.00  0.00     0.251 C 
ATOM     33  H   UNL A   1      31.568  34.877  27.394  1.00  0.00     0.163 HD
ATOM     34  O   UNL A   1      32.581  36.318  29.099  1.00  0.00    -0.269 OA
BRANCH  32  35
ATOM     35  C   UNL A   1      34.161  34.620  29.447  1.00  0.00     0.039 A 
ATOM     36  C   UNL A   1      33.982  33.901  30.629  1.00  0.00     0.014 A 
ATOM     37  C   UNL A   1      35.415  34.707  28.839  1.00  0.00     0.014 A 
ATOM     38  C   UNL A   1      35.067  33.223  31.180  1.00  0.00     0.010 A 
ATOM     39  C   UNL A   1      36.468  33.956  29.337  1.00  0.00     0.010 A 
ATOM     40  C   UNL A   1      36.310  33.224  30.523  1.00  0.00    -0.014 A 
BRANCH  40  41
ATOM     41  C   UNL A   1      37.470  32.502  31.094  1.00  0.00     0.031 A 
ATOM     42  C   UNL A   1      37.955  32.851  32.473  1.00  0.00     0.074 A 
ATOM     43  C   UNL A   1      38.104  31.571  30.359  1.00  0.00     0.049 A 
ATOM     44  N   UNL A   1      38.954  32.347  33.151  1.00  0.00    -0.248 NA
ATOM     45  C   UNL A   1      37.247  33.937  33.169  1.00  0.00     0.031 C 
ATOM     46  C   UNL A   1      37.769  31.202  28.982  1.00  0.00     0.029 A 
ATOM     47  N   UNL A   1      39.167  30.762  30.669  1.00  0.00    -0.354 N 
ATOM     48  C   UNL A   1      38.999  33.065  34.339  1.00  0.00     0.074 A 
ATOM     49  C   UNL A   1      37.980  34.085  34.261  1.00  0.00     0.031 C 
ATOM     50  C   UNL A   1      38.584  30.213  28.581  1.00  0.00     0.029 A 
ATOM     51  C   UNL A   1      39.512  29.895  29.661  1.00  0.00     0.049 A 
ATOM     52  H   UNL A   1      39.638  30.798  31.534  1.00  0.00     0.167 HD
ATOM     53  C   UNL A   1      39.795  32.866  35.416  1.00  0.00     0.037 A 
ATOM     54  C   UNL A   1      40.463  28.943  29.626  1.00  0.00     0.037 A 
ATOM     55  C   UNL A   1      40.780  31.822  35.501  1.00  0.00     0.049 A 
ATOM     56  C   UNL A   1      41.307  28.713  30.850  1.00  0.00     0.074 A 
ATOM     57  C   UNL A   1      41.598  31.489  36.565  1.00  0.00     0.029 A 
ATOM     58  N   UNL A   1      41.074  30.935  34.475  1.00  0.00    -0.354 N 
ATOM     59  N   UNL A   1      41.287  29.342  32.001  1.00  0.00    -0.248 NA
ATOM     60  C   UNL A   1      42.292  27.627  30.778  1.00  0.00     0.031 C 
ATOM     61  C   UNL A   1      42.414  30.423  36.170  1.00  0.00     0.029 A 
ATOM     62  C   UNL A   1      42.070  30.062  34.877  1.00  0.00     0.049 A 
ATOM     63  H   UNL A   1      40.639  30.928  33.592  1.00  0.00     0.167 HD
ATOM     64  C   UNL A   1      42.232  28.711  32.799  1.00  0.00     0.074 A 
ATOM     65  C   UNL A   1      42.794  27.638  32.005  1.00  0.00     0.031 C 
ATOM     66  C   UNL A   1      42.606  28.994  34.071  1.00  0.00     0.037 A 
BRANCH  53  67
ATOM     67  C   UNL A   1      39.615  33.788  36.586  1.00  0.00     0.064 A 
ATOM     68  C   UNL A   1      40.249  35.041  36.639  1.00  0.00     0.173 A 
ATOM     69  C   UNL A   1      38.794  33.424  37.663  1.00  0.00     0.173 A 
ATOM     70  F   UNL A   1      41.059  35.429  35.643  1.00  0.00    -0.203 F 
ATOM     71  C   UNL A   1      40.095  35.877  37.741  1.00  0.00     0.198 A 
ATOM     72  C   UNL A   1      38.617  34.276  38.749  1.00  0.00     0.198 A 
ATOM     73  F   UNL A   1      38.164  32.239  37.663  1.00  0.00    -0.203 F 
ATOM     74  F   UNL A   1      40.759  37.040  37.796  1.00  0.00    -0.200 F 
ATOM     75  C   UNL A   1      39.275  35.497  38.792  1.00  0.00     0.200 A 
ATOM     76  F   UNL A   1      37.815  33.914  39.760  1.00  0.00    -0.200 F 
ATOM     77  F   UNL A   1      39.125  36.304  39.852  1.00  0.00    -0.200 F 
ENDBRANCH  53  67
BRANCH  54  78
ATOM     78  C   UNL A   1      40.629  28.100  28.414  1.00  0.00     0.064 A 
ATOM     79  C   UNL A   1      39.971  26.867  28.300  1.00  0.00     0.173 A 
ATOM     80  C   UNL A   1      41.449  28.502  27.350  1.00  0.00     0.173 A 
ATOM     81  F   UNL A   1      39.188  26.433  29.299  1.00  0.00    -0.203 F 
ATOM     82  C   UNL A   1      40.148  26.056  27.181  1.00  0.00     0.198 A 
ATOM     83  C   UNL A   1      41.604  27.702  26.219  1.00  0.00     0.198 A 
ATOM     84  F   UNL A   1      42.094  29.676  27.406  1.00  0.00    -0.203 F 
ATOM     85  F   UNL A   1      39.545  24.861  27.121  1.00  0.00    -0.200 F 
ATOM     86  C   UNL A   1      40.960  26.475  26.140  1.00  0.00     0.200 A 
ATOM     87  F   UNL A   1      42.379  28.118  25.208  1.00  0.00    -0.200 F 
ATOM     88  F   UNL A   1      41.130  25.695  25.064  1.00  0.00    -0.200 F 
ENDBRANCH  54  78
BRANCH  66  89
ATOM     89  C   UNL A   1      43.643  28.105  34.691  1.00  0.00     0.064 A 
ATOM     90  C   UNL A   1      43.299  26.900  35.320  1.00  0.00     0.173 A 
ATOM     91  C   UNL A   1      45.001  28.454  34.633  1.00  0.00     0.173 A 
ATOM     92  F   UNL A   1      42.012  26.530  35.413  1.00  0.00    -0.203 F 
ATOM     93  C   UNL A   1      44.273  26.093  35.900  1.00  0.00     0.198 A 
ATOM     94  C   UNL A   1      45.976  27.628  35.185  1.00  0.00     0.198 A 
ATOM     95  F   UNL A   1      45.383  29.592  34.035  1.00  0.00    -0.203 F 
ATOM     96  F   UNL A   1      43.916  24.974  36.546  1.00  0.00    -0.200 F 
ATOM     97  C   UNL A   1      45.611  26.454  35.827  1.00  0.00     0.200 A 
ATOM     98  F   UNL A   1      47.268  27.971  35.101  1.00  0.00    -0.200 F 
ATOM     99  F   UNL A   1      46.548  25.675  36.383  1.00  0.00    -0.200 F 
ENDBRANCH  66  89
ENDBRANCH  40  41
ENDBRANCH  32  35
ENDBRANCH  30  31
ENDBRANCH  29  30
ENDBRANCH   1  29
TORSDOF 17
ENDMDL
MODEL 3
REMARK VINA RESULT:     -11.6      1.351      3.829
REMARK SMILES CCC[NH2+][C@@]1(C(=O)NCCCCNC(=O)c2ccc(-c3c4nc(c(-c5c(F)c(F)c(F)c(F)c5F)c5ccc([nH]5)c(-c5c(F)c(F)c(F)c(F)c5F)c5nc(c(-c6c(F)c(F)c(F)c(F)c6F)c6ccc3[nH]6)C=C5)C=C4)cc2)CCC[C@@H]1CC[NH+]1CC[NH+](C)CC1
REMARK SMILES IDX 10 1 9 2 8 3 6 4 7 5 5 7 79 8 82 9 80 10 81 11 4 12 3 15
REMARK SMILES IDX 2 16 1 17 83 18 84 19 85 20 86 21 91 22 87 24 90 25 88 26
REMARK SMILES IDX 89 27 11 29 12 30 13 31 14 32 15 34 16 35 17 36 78 37 18 38
REMARK SMILES IDX 77 39 19 40 20 41 21 42 71 43 22 44 76 45 70 46 72 47 23 48
REMARK SMILES IDX 75 49 69 50 68 51 24 53 56 54 36 55 55 56 37 57 40 58 54 59
REMARK SMILES IDX 73 60 38 61 39 62 53 64 74 65 41 66 25 67 26 68 34 69 27 70
REMARK SMILES IDX 28 71 32 72 35 73 29 74 30 75 33 76 31 77 57 78 58 79 66 80
REMARK SMILES IDX 59 81 60 82 64 83 67 84 61 85 62 86 65 87 63 88 42 89 43 90
REMARK SMILES IDX 51 91 44 92 45 93 49 94 52 95 46 96 47 97 50 98 48 99
REMARK H PARENT 8 6 4 13 4 14 85 23 88 28 13 33 72 52 40 63
REMARK Flexibility Score: inf
ROOT
ATOM      1  C   UNL A   1      31.994  30.509  26.627  1.00  0.00     0.023 C 
ENDROOT
BRANCH   1   2
ATOM      2  C   UNL A   1      31.613  29.993  25.239  1.00  0.00     0.116 C 
BRANCH   2   3
ATOM      3  N   UNL A   1      32.796  29.678  24.477  1.00  0.00    -0.351 N 
ATOM      4  C   UNL A   1      33.114  28.647  23.652  1.00  0.00     0.281 C 
ATOM      5  O   UNL A   1      34.330  28.552  23.435  1.00  0.00    -0.268 OA
ATOM      6  H   UNL A   1      33.515  30.343  24.573  1.00  0.00     0.163 HD
BRANCH   4   7
ATOM      7  C   UNL A   1      32.069  27.628  23.030  1.00  0.00     0.178 C 
ATOM      8  C   UNL A   1      30.765  28.252  22.482  1.00  0.00     0.079 C 
ATOM      9  C   UNL A   1      31.562  26.559  24.047  1.00  0.00     0.066 C 
ATOM     10  C   UNL A   1      29.614  27.783  23.387  1.00  0.00     0.008 C 
ATOM     11  C   UNL A   1      30.246  27.098  24.593  1.00  0.00     0.011 C 
BRANCH   7  12
ATOM     12  N   UNL A   1      32.738  26.851  21.948  1.00  0.00    -0.333 N 
ATOM     13  H   UNL A   1      32.752  27.438  21.115  1.00  0.00     0.347 HD
ATOM     14  H   UNL A   1      33.652  26.611  22.332  1.00  0.00     0.347 HD
BRANCH  12  15
ATOM     15  C   UNL A   1      32.151  25.571  21.569  1.00  0.00     0.261 C 
BRANCH  15  16
ATOM     16  C   UNL A   1      33.213  24.473  21.728  1.00  0.00     0.058 C 
ATOM     17  C   UNL A   1      32.718  23.245  22.481  1.00  0.00     0.010 C 
ENDBRANCH  15  16
ENDBRANCH  12  15
ENDBRANCH   7  12
BRANCH   9  18
ATOM     18  C   UNL A   1      32.526  26.076  25.145  1.00  0.00     0.072 C 
BRANCH  18  19
ATOM     19  C   UNL A   1      32.221  24.702  25.781  1.00  0.00     0.263 C 
BRANCH  19  20
ATOM     20  N   UNL A   1      33.335  24.028  26.487  1.00  0.00    -0.326 N 
ATOM     21  C   UNL A   1      34.534  24.045  25.617  1.00  0.00     0.324 C 
ATOM     22  C   UNL A   1      33.025  22.649  26.887  1.00  0.00     0.324 C 
ATOM     23  H   UNL A   1      33.502  24.545  27.350  1.00  0.00     0.348 HD
ATOM     24  C   UNL A   1      35.721  23.211  26.166  1.00  0.00     0.324 C 
ATOM     25  C   UNL A   1      34.224  21.832  27.411  1.00  0.00     0.324 C 
ATOM     26  N   UNL A   1      35.396  21.815  26.521  1.00  0.00    -0.328 N 
ATOM     27  C   UNL A   1      35.158  20.998  25.332  1.00  0.00     0.333 C 
ATOM     28  H   UNL A   1      36.188  21.388  27.003  1.00  0.00     0.348 HD
ENDBRANCH  19  20
ENDBRANCH  18  19
ENDBRANCH   9  18
ENDBRANCH   4   7
ENDBRANCH   2   3
ENDBRANCH   1   2
BRANCH   1  29
ATOM     29  C   UNL A   1      31.636  31.973  26.871  1.00  0.00     0.023 C 
BRANCH  29  30
ATOM     30  C   UNL A   1      32.820  32.852  27.241  1.00  0.00     0.116 C 
BRANCH  30  31
ATOM     31  N   UNL A   1      32.445  34.186  27.691  1.00  0.00    -0.352 N 
ATOM     32  C   UNL A   1      33.025  34.927  28.692  1.00  0.00     0.251 C 
ATOM     33  H   UNL A   1      31.686  34.605  27.223  1.00  0.00     0.163 HD
ATOM     34  O   UNL A   1      32.562  36.002  29.037  1.00  0.00    -0.269 OA
BRANCH  32  35
ATOM     35  C   UNL A   1      34.203  34.359  29.371  1.00  0.00     0.039 A 
ATOM     36  C   UNL A   1      34.005  33.497  30.449  1.00  0.00     0.014 A 
ATOM     37  C   UNL A   1      35.483  34.613  28.876  1.00  0.00     0.014 A 
ATOM     38  C   UNL A   1      35.104  32.844  31.005  1.00  0.00     0.010 A 
ATOM     39  C   UNL A   1      36.561  33.892  29.369  1.00  0.00     0.010 A 
ATOM     40  C   UNL A   1      36.384  33.018  30.450  1.00  0.00    -0.014 A 
BRANCH  40  41
ATOM     41  C   UNL A   1      37.559  32.325  31.027  1.00  0.00     0.031 A 
ATOM     42  C   UNL A   1      38.035  32.694  32.404  1.00  0.00     0.074 A 
ATOM     43  C   UNL A   1      38.216  31.404  30.298  1.00  0.00     0.049 A 
ATOM     44  N   UNL A   1      39.044  32.217  33.087  1.00  0.00    -0.248 NA
ATOM     45  C   UNL A   1      37.301  33.768  33.093  1.00  0.00     0.031 C 
ATOM     46  C   UNL A   1      37.890  31.020  28.923  1.00  0.00     0.029 A 
ATOM     47  N   UNL A   1      39.296  30.622  30.614  1.00  0.00    -0.354 N 
ATOM     48  C   UNL A   1      39.071  32.943  34.270  1.00  0.00     0.074 A 
ATOM     49  C   UNL A   1      38.029  33.939  34.185  1.00  0.00     0.031 C 
ATOM     50  C   UNL A   1      38.728  30.048  28.529  1.00  0.00     0.029 A 
ATOM     51  C   UNL A   1      39.662  29.757  29.612  1.00  0.00     0.049 A 
ATOM     52  H   UNL A   1      39.765  30.674  31.479  1.00  0.00     0.167 HD
ATOM     53  C   UNL A   1      39.870  32.768  35.349  1.00  0.00     0.037 A 
ATOM     54  C   UNL A   1      40.634  28.826  29.583  1.00  0.00     0.037 A 
ATOM     55  C   UNL A   1      40.879  31.747  35.441  1.00  0.00     0.049 A 
ATOM     56  C   UNL A   1      41.481  28.623  30.810  1.00  0.00     0.074 A 
ATOM     57  C   UNL A   1      41.704  31.439  36.508  1.00  0.00     0.029 A 
ATOM     58  N   UNL A   1      41.194  30.861  34.421  1.00  0.00    -0.354 N 
ATOM     59  N   UNL A   1      41.446  29.258  31.957  1.00  0.00    -0.248 NA
ATOM     60  C   UNL A   1      42.492  27.560  30.745  1.00  0.00     0.031 C 
ATOM     61  C   UNL A   1      42.544  30.390  36.120  1.00  0.00     0.029 A 
ATOM     62  C   UNL A   1      42.210  30.013  34.829  1.00  0.00     0.049 A 
ATOM     63  H   UNL A   1      40.761  30.839  33.537  1.00  0.00     0.167 HD
ATOM     64  C   UNL A   1      42.404  28.654  32.760  1.00  0.00     0.074 A 
ATOM     65  C   UNL A   1      42.992  27.589  31.972  1.00  0.00     0.031 C 
ATOM     66  C   UNL A   1      42.770  28.953  34.031  1.00  0.00     0.037 A 
BRANCH  53  67
ATOM     67  C   UNL A   1      39.669  33.693  36.513  1.00  0.00     0.064 A 
ATOM     68  C   UNL A   1      38.848  33.342  37.598  1.00  0.00     0.173 A 
ATOM     69  C   UNL A   1      40.310  34.940  36.554  1.00  0.00     0.173 A 
ATOM     70  F   UNL A   1      38.198  32.169  37.600  1.00  0.00    -0.203 F 
ATOM     71  C   UNL A   1      38.649  34.219  38.660  1.00  0.00     0.198 A 
ATOM     72  C   UNL A   1      40.134  35.800  37.634  1.00  0.00     0.198 A 
ATOM     73  F   UNL A   1      41.106  35.325  35.545  1.00  0.00    -0.203 F 
ATOM     74  F   UNL A   1      37.812  33.886  39.653  1.00  0.00    -0.200 F 
ATOM     75  C   UNL A   1      39.296  35.444  38.681  1.00  0.00     0.200 A 
ATOM     76  F   UNL A   1      40.769  36.981  37.658  1.00  0.00    -0.200 F 
ATOM     77  F   UNL A   1      39.106  36.287  39.706  1.00  0.00    -0.200 F 
ENDBRANCH  53  67
BRANCH  54  78
ATOM     78  C   UNL A   1      40.820  27.981  28.377  1.00  0.00     0.064 A 
ATOM     79  C   UNL A   1      41.615  28.418  27.307  1.00  0.00     0.173 A 
ATOM     80  C   UNL A   1      40.207  26.725  28.261  1.00  0.00     0.173 A 
ATOM     81  F   UNL A   1      42.209  29.620  27.365  1.00  0.00    -0.203 F 
ATOM     82  C   UNL A   1      41.767  27.645  26.158  1.00  0.00     0.198 A 
ATOM     83  C   UNL A   1      40.382  25.940  27.122  1.00  0.00     0.198 A 
ATOM     84  F   UNL A   1      39.444  26.257  29.259  1.00  0.00    -0.203 F 
ATOM     85  F   UNL A   1      42.493  28.111  25.132  1.00  0.00    -0.200 F 
ATOM     86  C   UNL A   1      41.155  26.406  26.068  1.00  0.00     0.200 A 
ATOM     87  F   UNL A   1      39.800  24.736  27.046  1.00  0.00    -0.200 F 
ATOM     88  F   UNL A   1      41.302  25.662  24.963  1.00  0.00    -0.200 F 
ENDBRANCH  54  78
BRANCH  66  89
ATOM     89  C   UNL A   1      43.826  28.092  34.657  1.00  0.00     0.064 A 
ATOM     90  C   UNL A   1      45.183  28.444  34.619  1.00  0.00     0.173 A 
ATOM     91  C   UNL A   1      43.471  26.910  35.325  1.00  0.00     0.173 A 
ATOM     92  F   UNL A   1      45.573  29.558  33.982  1.00  0.00    -0.203 F 
ATOM     93  C   UNL A   1      46.150  27.627  35.197  1.00  0.00     0.198 A 
ATOM     94  C   UNL A   1      44.438  26.111  35.929  1.00  0.00     0.198 A 
ATOM     95  F   UNL A   1      42.186  26.532  35.397  1.00  0.00    -0.203 F 
ATOM     96  F   UNL A   1      47.446  27.955  35.100  1.00  0.00    -0.200 F 
ATOM     97  C   UNL A   1      45.776  26.465  35.857  1.00  0.00     0.200 A 
ATOM     98  F   UNL A   1      44.074  24.997  36.578  1.00  0.00    -0.200 F 
ATOM     99  F   UNL A   1      46.709  25.680  36.414  1.00  0.00    -0.200 F 
ENDBRANCH  66  89
ENDBRANCH  40  41
ENDBRANCH  32  35
ENDBRANCH  30  31
ENDBRANCH  29  30
ENDBRANCH   1  29
TORSDOF 17
ENDMDL
