MODEL 1
REMARK VINA RESULT:     -11.9      0.000      0.000
REMARK SMILES C[NH2+]C[C@H](C)C(=O)Nc1snc(C)c1C(=O)NCCCCNC(=O)c1ccc(-c2c3nc(c(-c4c(F)c(F)c(F)c(F)c4F)c4ccc([nH]4)c(-c4c(F)c(F)c(F)c(F)c4F)c4nc(c(-c5c(F)c(F)c(F)c(F)c5F)c5ccc2[nH]5)C=C4)C=C3)cc1
REMARK SMILES IDX 18 1 17 2 15 3 16 4 14 6 9 7 10 8 11 9 12 10 13 11 8 12 6 13
REMARK SMILES IDX 7 14 4 16 5 17 3 18 2 19 1 20 19 23 20 24 21 25 22 26 23 27
REMARK SMILES IDX 24 29 25 30 26 31 87 32 27 33 86 34 28 35 29 36 30 37 80 38
REMARK SMILES IDX 31 39 85 40 79 41 81 42 32 43 84 44 78 45 77 46 33 48 65 49
REMARK SMILES IDX 45 50 64 51 46 52 49 53 63 54 82 55 47 56 48 57 62 59 83 60
REMARK SMILES IDX 50 61 34 62 35 63 43 64 36 65 37 66 41 67 44 68 38 69 39 70
REMARK SMILES IDX 42 71 40 72 66 73 67 74 75 75 68 76 69 77 73 78 76 79 70 80
REMARK SMILES IDX 71 81 74 82 72 83 51 84 52 85 60 86 53 87 54 88 58 89 61 90
REMARK SMILES IDX 55 91 56 92 59 93 57 94
REMARK H PARENT 17 5 8 15 2 21 2 22 22 28 81 47 49 58
REMARK Flexibility Score: inf
ROOT
ATOM      1  C   UNL A   1      38.366  21.951  25.997  1.00  0.00     0.116 C 
ENDROOT
BRANCH   1   2
ATOM      2  N   UNL A   1      37.915  22.296  24.662  1.00  0.00    -0.352 N 
ATOM      3  C   UNL A   1      36.655  22.313  24.093  1.00  0.00     0.256 C 
ATOM      4  O   UNL A   1      36.612  22.697  22.922  1.00  0.00    -0.269 OA
ATOM      5  H   UNL A   1      38.638  22.566  24.050  1.00  0.00     0.163 HD
BRANCH   3   6
ATOM      6  C   UNL A   1      35.444  21.847  24.779  1.00  0.00     0.097 A 
ATOM      7  C   UNL A   1      34.959  20.561  24.947  1.00  0.00     0.129 A 
ATOM      8  S   UNL A   1      33.308  20.615  25.365  1.00  0.00    -0.017 S 
ATOM      9  N   UNL A   1      33.314  22.204  25.788  1.00  0.00    -0.195 NA
ATOM     10  C   UNL A   1      34.497  22.734  25.463  1.00  0.00     0.066 A 
ATOM     11  C   UNL A   1      34.677  24.177  25.808  1.00  0.00     0.069 C 
BRANCH   7  12
ATOM     12  N   UNL A   1      35.436  19.292  24.785  1.00  0.00    -0.315 N 
ATOM     13  C   UNL A   1      34.728  18.140  24.649  1.00  0.00     0.233 C 
ATOM     14  O   UNL A   1      35.327  17.084  24.887  1.00  0.00    -0.274 OA
ATOM     15  H   UNL A   1      36.416  19.200  24.763  1.00  0.00     0.170 HD
BRANCH  13  16
ATOM     16  C   UNL A   1      33.308  18.085  24.094  1.00  0.00     0.130 C 
ATOM     17  C   UNL A   1      33.209  17.695  22.624  1.00  0.00     0.024 C 
BRANCH  16  18
ATOM     18  C   UNL A   1      32.299  17.304  24.959  1.00  0.00     0.273 C 
BRANCH  18  19
ATOM     19  N   UNL A   1      32.793  16.346  25.949  1.00  0.00    -0.348 N 
ATOM     20  C   UNL A   1      32.670  14.946  25.582  1.00  0.00     0.330 C 
ATOM     21  H   UNL A   1      33.781  16.543  26.110  1.00  0.00     0.346 HD
ATOM     22  H   UNL A   1      32.209  16.471  26.776  1.00  0.00     0.346 HD
ENDBRANCH  18  19
ENDBRANCH  16  18
ENDBRANCH  13  16
ENDBRANCH   7  12
ENDBRANCH   3   6
ENDBRANCH   1   2
BRANCH   1  23
ATOM     23  C   UNL A   1      39.881  21.801  26.172  1.00  0.00     0.023 C 
BRANCH  23  24
ATOM     24  C   UNL A   1      40.472  20.405  25.929  1.00  0.00     0.023 C 
BRANCH  24  25
ATOM     25  C   UNL A   1      41.819  20.135  26.591  1.00  0.00     0.116 C 
BRANCH  25  26
ATOM     26  N   UNL A   1      42.879  19.724  25.674  1.00  0.00    -0.352 N 
ATOM     27  C   UNL A   1      43.766  20.554  25.001  1.00  0.00     0.251 C 
ATOM     28  H   UNL A   1      42.975  18.757  25.518  1.00  0.00     0.163 HD
ATOM     29  O   UNL A   1      44.441  20.154  24.070  1.00  0.00    -0.269 OA
BRANCH  27  30
ATOM     30  C   UNL A   1      43.850  21.964  25.439  1.00  0.00     0.039 A 
ATOM     31  C   UNL A   1      43.093  22.963  24.824  1.00  0.00     0.014 A 
ATOM     32  C   UNL A   1      44.633  22.248  26.552  1.00  0.00     0.014 A 
ATOM     33  C   UNL A   1      43.049  24.232  25.406  1.00  0.00     0.010 A 
ATOM     34  C   UNL A   1      44.487  23.455  27.195  1.00  0.00     0.010 A 
ATOM     35  C   UNL A   1      43.726  24.470  26.612  1.00  0.00    -0.014 A 
BRANCH  35  36
ATOM     36  C   UNL A   1      43.577  25.748  27.317  1.00  0.00     0.031 A 
ATOM     37  C   UNL A   1      44.531  26.837  26.943  1.00  0.00     0.074 A 
ATOM     38  C   UNL A   1      42.496  26.042  28.072  1.00  0.00     0.049 A 
ATOM     39  N   UNL A   1      45.314  27.519  27.716  1.00  0.00    -0.248 NA
ATOM     40  C   UNL A   1      44.644  27.201  25.520  1.00  0.00     0.031 C 
ATOM     41  C   UNL A   1      41.289  25.224  28.260  1.00  0.00     0.029 A 
ATOM     42  N   UNL A   1      42.184  27.199  28.730  1.00  0.00    -0.354 N 
ATOM     43  C   UNL A   1      45.909  28.496  26.914  1.00  0.00     0.074 A 
ATOM     44  C   UNL A   1      45.545  28.186  25.556  1.00  0.00     0.031 C 
ATOM     45  C   UNL A   1      40.296  25.993  28.751  1.00  0.00     0.029 A 
ATOM     46  C   UNL A   1      40.853  27.285  29.104  1.00  0.00     0.049 A 
ATOM     47  H   UNL A   1      42.844  27.904  28.921  1.00  0.00     0.167 HD
ATOM     48  C   UNL A   1      46.479  29.610  27.455  1.00  0.00     0.037 A 
ATOM     49  C   UNL A   1      40.222  28.339  29.665  1.00  0.00     0.037 A 
ATOM     50  C   UNL A   1      46.650  29.478  28.874  1.00  0.00     0.049 A 
ATOM     51  C   UNL A   1      41.234  29.189  30.328  1.00  0.00     0.074 A 
ATOM     52  C   UNL A   1      47.555  28.898  29.732  1.00  0.00     0.029 A 
ATOM     53  N   UNL A   1      45.540  29.799  29.603  1.00  0.00    -0.354 N 
ATOM     54  N   UNL A   1      41.962  28.795  31.338  1.00  0.00    -0.248 NA
ATOM     55  C   UNL A   1      41.664  30.430  29.694  1.00  0.00     0.031 C 
ATOM     56  C   UNL A   1      46.867  28.708  30.967  1.00  0.00     0.029 A 
ATOM     57  C   UNL A   1      45.567  29.184  30.825  1.00  0.00     0.049 A 
ATOM     58  H   UNL A   1      44.819  30.394  29.291  1.00  0.00     0.167 HD
ATOM     59  C   UNL A   1      43.144  29.491  31.196  1.00  0.00     0.074 A 
ATOM     60  C   UNL A   1      42.839  30.600  30.305  1.00  0.00     0.031 C 
ATOM     61  C   UNL A   1      44.335  28.924  31.533  1.00  0.00     0.037 A 
BRANCH  48  62
ATOM     62  C   UNL A   1      46.509  30.987  26.826  1.00  0.00     0.064 A 
ATOM     63  C   UNL A   1      47.719  31.720  26.820  1.00  0.00     0.173 A 
ATOM     64  C   UNL A   1      45.348  31.733  26.544  1.00  0.00     0.173 A 
ATOM     65  F   UNL A   1      48.885  31.116  27.095  1.00  0.00    -0.203 F 
ATOM     66  C   UNL A   1      47.747  33.103  26.618  1.00  0.00     0.198 A 
ATOM     67  C   UNL A   1      45.386  33.106  26.293  1.00  0.00     0.198 A 
ATOM     68  F   UNL A   1      44.126  31.191  26.618  1.00  0.00    -0.203 F 
ATOM     69  F   UNL A   1      48.901  33.774  26.740  1.00  0.00    -0.200 F 
ATOM     70  C   UNL A   1      46.579  33.796  26.359  1.00  0.00     0.200 A 
ATOM     71  F   UNL A   1      44.242  33.767  26.066  1.00  0.00    -0.200 F 
ATOM     72  F   UNL A   1      46.593  35.129  26.222  1.00  0.00    -0.200 F 
ENDBRANCH  48  62
BRANCH  49  73
ATOM     73  C   UNL A   1      38.814  28.745  29.483  1.00  0.00     0.064 A 
ATOM     74  C   UNL A   1      37.967  28.952  30.579  1.00  0.00     0.173 A 
ATOM     75  C   UNL A   1      38.349  29.190  28.229  1.00  0.00     0.173 A 
ATOM     76  F   UNL A   1      38.356  28.585  31.809  1.00  0.00    -0.203 F 
ATOM     77  C   UNL A   1      36.736  29.598  30.437  1.00  0.00     0.198 A 
ATOM     78  C   UNL A   1      37.118  29.828  28.086  1.00  0.00     0.198 A 
ATOM     79  F   UNL A   1      39.121  29.094  27.135  1.00  0.00    -0.203 F 
ATOM     80  F   UNL A   1      35.978  29.835  31.517  1.00  0.00    -0.200 F 
ATOM     81  C   UNL A   1      36.318  30.047  29.193  1.00  0.00     0.200 A 
ATOM     82  F   UNL A   1      36.741  30.286  26.884  1.00  0.00    -0.200 F 
ATOM     83  F   UNL A   1      35.170  30.724  29.069  1.00  0.00    -0.200 F 
ENDBRANCH  49  73
BRANCH  61  84
ATOM     84  C   UNL A   1      44.321  27.814  32.533  1.00  0.00     0.064 A 
ATOM     85  C   UNL A   1      44.194  28.002  33.917  1.00  0.00     0.173 A 
ATOM     86  C   UNL A   1      44.338  26.498  32.053  1.00  0.00     0.173 A 
ATOM     87  F   UNL A   1      44.092  29.229  34.439  1.00  0.00    -0.203 F 
ATOM     88  C   UNL A   1      44.121  26.915  34.785  1.00  0.00     0.198 A 
ATOM     89  C   UNL A   1      44.232  25.415  32.919  1.00  0.00     0.198 A 
ATOM     90  F   UNL A   1      44.412  26.266  30.732  1.00  0.00    -0.203 F 
ATOM     91  F   UNL A   1      44.013  27.116  36.107  1.00  0.00    -0.200 F 
ATOM     92  C   UNL A   1      44.134  25.623  34.284  1.00  0.00     0.200 A 
ATOM     93  F   UNL A   1      44.202  24.169  32.425  1.00  0.00    -0.200 F 
ATOM     94  F   UNL A   1      44.027  24.577  35.116  1.00  0.00    -0.200 F 
ENDBRANCH  61  84
ENDBRANCH  35  36
ENDBRANCH  27  30
ENDBRANCH  25  26
ENDBRANCH  24  25
ENDBRANCH  23  24
ENDBRANCH   1  23
TORSDOF 15
ENDMDL
MODEL 2
REMARK VINA RESULT:     -11.8      2.480      3.655
REMARK SMILES C[NH2+]C[C@H](C)C(=O)Nc1snc(C)c1C(=O)NCCCCNC(=O)c1ccc(-c2c3nc(c(-c4c(F)c(F)c(F)c(F)c4F)c4ccc([nH]4)c(-c4c(F)c(F)c(F)c(F)c4F)c4nc(c(-c5c(F)c(F)c(F)c(F)c5F)c5ccc2[nH]5)C=C4)C=C3)cc1
REMARK SMILES IDX 18 1 17 2 15 3 16 4 14 6 9 7 10 8 11 9 12 10 13 11 8 12 6 13
REMARK SMILES IDX 7 14 4 16 5 17 3 18 2 19 1 20 19 23 20 24 21 25 22 26 23 27
REMARK SMILES IDX 24 29 25 30 26 31 87 32 27 33 86 34 28 35 29 36 30 37 80 38
REMARK SMILES IDX 31 39 85 40 79 41 81 42 32 43 84 44 78 45 77 46 33 48 65 49
REMARK SMILES IDX 45 50 64 51 46 52 49 53 63 54 82 55 47 56 48 57 62 59 83 60
REMARK SMILES IDX 50 61 34 62 35 63 43 64 36 65 37 66 41 67 44 68 38 69 39 70
REMARK SMILES IDX 42 71 40 72 66 73 67 74 75 75 68 76 69 77 73 78 76 79 70 80
REMARK SMILES IDX 71 81 74 82 72 83 51 84 52 85 60 86 53 87 54 88 58 89 61 90
REMARK SMILES IDX 55 91 56 92 59 93 57 94
REMARK H PARENT 17 5 8 15 2 21 2 22 22 28 81 47 49 58
REMARK Flexibility Score: inf
ROOT
ATOM      1  C   UNL A   1      36.405  24.041  25.668  1.00  0.00     0.116 C 
ENDROOT
BRANCH   1   2
ATOM      2  N   UNL A   1      36.120  23.632  24.305  1.00  0.00    -0.352 N 
ATOM      3  C   UNL A   1      34.962  23.684  23.553  1.00  0.00     0.256 C 
ATOM      4  O   UNL A   1      35.070  23.280  22.394  1.00  0.00    -0.269 OA
ATOM      5  H   UNL A   1      36.893  23.248  23.831  1.00  0.00     0.163 HD
BRANCH   3   6
ATOM      6  C   UNL A   1      33.663  24.115  24.085  1.00  0.00     0.097 A 
ATOM      7  C   UNL A   1      32.981  23.690  25.212  1.00  0.00     0.129 A 
ATOM      8  S   UNL A   1      31.340  24.132  25.097  1.00  0.00    -0.017 S 
ATOM      9  N   UNL A   1      31.567  25.234  23.898  1.00  0.00    -0.195 NA
ATOM     10  C   UNL A   1      32.831  25.155  23.470  1.00  0.00     0.066 A 
ATOM     11  C   UNL A   1      33.211  26.116  22.391  1.00  0.00     0.069 C 
BRANCH   7  12
ATOM     12  N   UNL A   1      33.267  22.953  26.325  1.00  0.00    -0.315 N 
ATOM     13  C   UNL A   1      33.290  21.600  26.453  1.00  0.00     0.233 C 
ATOM     14  O   UNL A   1      33.202  21.145  27.600  1.00  0.00    -0.274 OA
ATOM     15  H   UNL A   1      33.484  23.466  27.137  1.00  0.00     0.170 HD
BRANCH  13  16
ATOM     16  C   UNL A   1      33.556  20.649  25.289  1.00  0.00     0.130 C 
ATOM     17  C   UNL A   1      35.023  20.298  25.071  1.00  0.00     0.024 C 
BRANCH  16  18
ATOM     18  C   UNL A   1      32.658  19.395  25.253  1.00  0.00     0.273 C 
BRANCH  18  19
ATOM     19  N   UNL A   1      32.878  18.327  26.230  1.00  0.00    -0.348 N 
ATOM     20  C   UNL A   1      32.928  16.982  25.685  1.00  0.00     0.330 C 
ATOM     21  H   UNL A   1      33.765  18.510  26.699  1.00  0.00     0.346 HD
ATOM     22  H   UNL A   1      32.071  18.348  26.852  1.00  0.00     0.346 HD
ENDBRANCH  18  19
ENDBRANCH  16  18
ENDBRANCH  13  16
ENDBRANCH   7  12
ENDBRANCH   3   6
ENDBRANCH   1   2
BRANCH   1  23
ATOM     23  C   UNL A   1      37.836  23.790  26.156  1.00  0.00     0.023 C 
BRANCH  23  24
ATOM     24  C   UNL A   1      38.468  22.441  25.784  1.00  0.00     0.023 C 
BRANCH  24  25
ATOM     25  C   UNL A   1      39.620  21.985  26.674  1.00  0.00     0.116 C 
BRANCH  25  26
ATOM     26  N   UNL A   1      40.928  21.975  26.025  1.00  0.00    -0.352 N 
ATOM     27  C   UNL A   1      41.817  23.037  25.927  1.00  0.00     0.251 C 
ATOM     28  H   UNL A   1      41.208  21.125  25.613  1.00  0.00     0.163 HD
ATOM     29  O   UNL A   1      42.759  23.018  25.157  1.00  0.00    -0.269 OA
BRANCH  27  30
ATOM     30  C   UNL A   1      41.569  24.218  26.782  1.00  0.00     0.039 A 
ATOM     31  C   UNL A   1      42.097  24.307  28.071  1.00  0.00     0.014 A 
ATOM     32  C   UNL A   1      40.874  25.284  26.222  1.00  0.00     0.014 A 
ATOM     33  C   UNL A   1      42.010  25.523  28.754  1.00  0.00     0.010 A 
ATOM     34  C   UNL A   1      40.903  26.513  26.839  1.00  0.00     0.010 A 
ATOM     35  C   UNL A   1      41.436  26.638  28.123  1.00  0.00    -0.014 A 
BRANCH  35  36
ATOM     36  C   UNL A   1      41.464  27.958  28.762  1.00  0.00     0.031 A 
ATOM     37  C   UNL A   1      42.586  28.868  28.377  1.00  0.00     0.074 A 
ATOM     38  C   UNL A   1      40.417  28.452  29.459  1.00  0.00     0.049 A 
ATOM     39  N   UNL A   1      43.439  29.461  29.150  1.00  0.00    -0.248 NA
ATOM     40  C   UNL A   1      42.800  29.138  26.946  1.00  0.00     0.031 C 
ATOM     41  C   UNL A   1      39.093  27.838  29.636  1.00  0.00     0.029 A 
ATOM     42  N   UNL A   1      40.265  29.674  30.051  1.00  0.00    -0.354 N 
ATOM     43  C   UNL A   1      44.203  30.294  28.329  1.00  0.00     0.074 A 
ATOM     44  C   UNL A   1      43.841  29.975  26.973  1.00  0.00     0.031 C 
ATOM     45  C   UNL A   1      38.215  28.773  30.051  1.00  0.00     0.029 A 
ATOM     46  C   UNL A   1      38.953  29.982  30.367  1.00  0.00     0.049 A 
ATOM     47  H   UNL A   1      41.020  30.280  30.236  1.00  0.00     0.167 HD
ATOM     48  C   UNL A   1      44.920  31.334  28.841  1.00  0.00     0.037 A 
ATOM     49  C   UNL A   1      38.474  31.146  30.854  1.00  0.00     0.037 A 
ATOM     50  C   UNL A   1      45.023  31.250  30.271  1.00  0.00     0.049 A 
ATOM     51  C   UNL A   1      39.582  31.864  31.519  1.00  0.00     0.074 A 
ATOM     52  C   UNL A   1      45.799  30.583  31.190  1.00  0.00     0.029 A 
ATOM     53  N   UNL A   1      43.953  31.774  30.939  1.00  0.00    -0.354 N 
ATOM     54  N   UNL A   1      40.207  31.416  32.573  1.00  0.00    -0.248 NA
ATOM     55  C   UNL A   1      40.219  32.992  30.846  1.00  0.00     0.031 C 
ATOM     56  C   UNL A   1      45.050  30.563  32.404  1.00  0.00     0.029 A 
ATOM     57  C   UNL A   1      43.844  31.225  32.188  1.00  0.00     0.049 A 
ATOM     58  H   UNL A   1      43.343  32.454  30.572  1.00  0.00     0.167 HD
ATOM     59  C   UNL A   1      41.486  31.915  32.448  1.00  0.00     0.074 A 
ATOM     60  C   UNL A   1      41.386  33.012  31.496  1.00  0.00     0.031 C 
ATOM     61  C   UNL A   1      42.564  31.191  32.857  1.00  0.00     0.037 A 
BRANCH  48  62
ATOM     62  C   UNL A   1      45.184  32.657  28.152  1.00  0.00     0.064 A 
ATOM     63  C   UNL A   1      44.099  33.519  27.870  1.00  0.00     0.173 A 
ATOM     64  C   UNL A   1      46.381  32.947  27.469  1.00  0.00     0.173 A 
ATOM     65  F   UNL A   1      42.904  33.326  28.448  1.00  0.00    -0.203 F 
ATOM     66  C   UNL A   1      44.194  34.545  26.925  1.00  0.00     0.198 A 
ATOM     67  C   UNL A   1      46.487  34.004  26.563  1.00  0.00     0.198 A 
ATOM     68  F   UNL A   1      47.455  32.152  27.560  1.00  0.00    -0.203 F 
ATOM     69  F   UNL A   1      43.107  35.261  26.603  1.00  0.00    -0.200 F 
ATOM     70  C   UNL A   1      45.387  34.783  26.268  1.00  0.00     0.200 A 
ATOM     71  F   UNL A   1      47.644  34.206  25.918  1.00  0.00    -0.200 F 
ATOM     72  F   UNL A   1      45.467  35.727  25.320  1.00  0.00    -0.200 F 
ENDBRANCH  48  62
BRANCH  49  73
ATOM     73  C   UNL A   1      37.152  31.753  30.597  1.00  0.00     0.064 A 
ATOM     74  C   UNL A   1      36.155  31.772  31.581  1.00  0.00     0.173 A 
ATOM     75  C   UNL A   1      36.937  32.557  29.460  1.00  0.00     0.173 A 
ATOM     76  F   UNL A   1      36.306  31.057  32.706  1.00  0.00    -0.203 F 
ATOM     77  C   UNL A   1      35.020  32.576  31.452  1.00  0.00     0.198 A 
ATOM     78  C   UNL A   1      35.801  33.355  29.328  1.00  0.00     0.198 A 
ATOM     79  F   UNL A   1      37.869  32.652  28.499  1.00  0.00    -0.203 F 
ATOM     80  F   UNL A   1      34.116  32.618  32.441  1.00  0.00    -0.200 F 
ATOM     81  C   UNL A   1      34.850  33.376  30.332  1.00  0.00     0.200 A 
ATOM     82  F   UNL A   1      35.665  34.148  28.256  1.00  0.00    -0.200 F 
ATOM     83  F   UNL A   1      33.795  34.197  30.240  1.00  0.00    -0.200 F 
ENDBRANCH  49  73
BRANCH  61  84
ATOM     84  C   UNL A   1      42.346  30.149  33.905  1.00  0.00     0.064 A 
ATOM     85  C   UNL A   1      42.012  28.815  33.633  1.00  0.00     0.173 A 
ATOM     86  C   UNL A   1      42.585  30.501  35.240  1.00  0.00     0.173 A 
ATOM     87  F   UNL A   1      41.847  28.389  32.375  1.00  0.00    -0.203 F 
ATOM     88  C   UNL A   1      41.889  27.881  34.659  1.00  0.00     0.198 A 
ATOM     89  C   UNL A   1      42.494  29.560  36.260  1.00  0.00     0.198 A 
ATOM     90  F   UNL A   1      42.953  31.755  35.548  1.00  0.00    -0.203 F 
ATOM     91  F   UNL A   1      41.555  26.613  34.379  1.00  0.00    -0.200 F 
ATOM     92  C   UNL A   1      42.137  28.254  35.971  1.00  0.00     0.200 A 
ATOM     93  F   UNL A   1      42.777  29.917  37.521  1.00  0.00    -0.200 F 
ATOM     94  F   UNL A   1      42.055  27.348  36.955  1.00  0.00    -0.200 F 
ENDBRANCH  61  84
ENDBRANCH  35  36
ENDBRANCH  27  30
ENDBRANCH  25  26
ENDBRANCH  24  25
ENDBRANCH  23  24
ENDBRANCH   1  23
TORSDOF 15
ENDMDL
MODEL 3
REMARK VINA RESULT:     -11.8      3.004      4.702
REMARK SMILES C[NH2+]C[C@H](C)C(=O)Nc1snc(C)c1C(=O)NCCCCNC(=O)c1ccc(-c2c3nc(c(-c4c(F)c(F)c(F)c(F)c4F)c4ccc([nH]4)c(-c4c(F)c(F)c(F)c(F)c4F)c4nc(c(-c5c(F)c(F)c(F)c(F)c5F)c5ccc2[nH]5)C=C4)C=C3)cc1
REMARK SMILES IDX 18 1 17 2 15 3 16 4 14 6 9 7 10 8 11 9 12 10 13 11 8 12 6 13
REMARK SMILES IDX 7 14 4 16 5 17 3 18 2 19 1 20 19 23 20 24 21 25 22 26 23 27
REMARK SMILES IDX 24 29 25 30 26 31 87 32 27 33 86 34 28 35 29 36 30 37 80 38
REMARK SMILES IDX 31 39 85 40 79 41 81 42 32 43 84 44 78 45 77 46 33 48 65 49
REMARK SMILES IDX 45 50 64 51 46 52 49 53 63 54 82 55 47 56 48 57 62 59 83 60
REMARK SMILES IDX 50 61 34 62 35 63 43 64 36 65 37 66 41 67 44 68 38 69 39 70
REMARK SMILES IDX 42 71 40 72 66 73 67 74 75 75 68 76 69 77 73 78 76 79 70 80
REMARK SMILES IDX 71 81 74 82 72 83 51 84 52 85 60 86 53 87 54 88 58 89 61 90
REMARK SMILES IDX 55 91 56 92 59 93 57 94
REMARK H PARENT 17 5 8 15 2 21 2 22 22 28 81 47 49 58
REMARK Flexibility Score: inf
ROOT
ATOM      1  C   UNL A   1      36.503  23.524  24.603  1.00  0.00     0.116 C 
ENDROOT
BRANCH   1   2
ATOM      2  N   UNL A   1      35.538  23.654  25.679  1.00  0.00    -0.352 N 
ATOM      3  C   UNL A   1      34.174  23.876  25.670  1.00  0.00     0.256 C 
ATOM      4  O   UNL A   1      33.637  23.897  26.778  1.00  0.00    -0.269 OA
ATOM      5  H   UNL A   1      35.926  23.567  26.580  1.00  0.00     0.163 HD
BRANCH   3   6
ATOM      6  C   UNL A   1      33.400  24.143  24.450  1.00  0.00     0.097 A 
ATOM      7  C   UNL A   1      33.212  25.329  23.761  1.00  0.00     0.129 A 
ATOM      8  S   UNL A   1      31.858  25.195  22.736  1.00  0.00    -0.017 S 
ATOM      9  N   UNL A   1      31.789  23.553  22.795  1.00  0.00    -0.195 NA
ATOM     10  C   UNL A   1      32.666  23.115  23.704  1.00  0.00     0.066 A 
ATOM     11  C   UNL A   1      32.749  21.632  23.863  1.00  0.00     0.069 C 
BRANCH   7  12
ATOM     12  N   UNL A   1      33.773  26.574  23.758  1.00  0.00    -0.315 N 
ATOM     13  C   UNL A   1      33.544  27.600  24.619  1.00  0.00     0.233 C 
ATOM     14  O   UNL A   1      33.856  28.734  24.234  1.00  0.00    -0.274 OA
ATOM     15  H   UNL A   1      34.426  26.750  23.042  1.00  0.00     0.170 HD
BRANCH  13  16
ATOM     16  C   UNL A   1      33.065  27.404  26.055  1.00  0.00     0.130 C 
ATOM     17  C   UNL A   1      33.526  28.475  27.036  1.00  0.00     0.024 C 
BRANCH  16  18
ATOM     18  C   UNL A   1      31.560  27.104  26.205  1.00  0.00     0.273 C 
BRANCH  18  19
ATOM     19  N   UNL A   1      31.139  25.825  26.779  1.00  0.00    -0.348 N 
ATOM     20  C   UNL A   1      30.029  25.172  26.106  1.00  0.00     0.330 C 
ATOM     21  H   UNL A   1      31.938  25.191  26.755  1.00  0.00     0.346 HD
ATOM     22  H   UNL A   1      30.810  26.036  27.721  1.00  0.00     0.346 HD
ENDBRANCH  18  19
ENDBRANCH  16  18
ENDBRANCH  13  16
ENDBRANCH   7  12
ENDBRANCH   3   6
ENDBRANCH   1   2
BRANCH   1  23
ATOM     23  C   UNL A   1      36.968  22.098  24.291  1.00  0.00     0.023 C 
BRANCH  23  24
ATOM     24  C   UNL A   1      37.922  21.444  25.301  1.00  0.00     0.023 C 
BRANCH  24  25
ATOM     25  C   UNL A   1      38.890  22.391  26.003  1.00  0.00     0.116 C 
BRANCH  25  26
ATOM     26  N   UNL A   1      40.301  22.046  25.850  1.00  0.00    -0.352 N 
ATOM     27  C   UNL A   1      41.391  22.866  26.111  1.00  0.00     0.251 C 
ATOM     28  H   UNL A   1      40.499  21.137  25.528  1.00  0.00     0.163 HD
ATOM     29  O   UNL A   1      42.510  22.592  25.716  1.00  0.00    -0.269 OA
BRANCH  27  30
ATOM     30  C   UNL A   1      41.146  24.109  26.872  1.00  0.00     0.039 A 
ATOM     31  C   UNL A   1      41.656  24.287  28.159  1.00  0.00     0.014 A 
ATOM     32  C   UNL A   1      40.473  25.139  26.225  1.00  0.00     0.014 A 
ATOM     33  C   UNL A   1      41.574  25.551  28.750  1.00  0.00     0.010 A 
ATOM     34  C   UNL A   1      40.509  26.410  26.750  1.00  0.00     0.010 A 
ATOM     35  C   UNL A   1      41.025  26.623  28.029  1.00  0.00    -0.014 A 
BRANCH  35  36
ATOM     36  C   UNL A   1      41.061  27.986  28.570  1.00  0.00     0.031 A 
ATOM     37  C   UNL A   1      42.146  28.882  28.065  1.00  0.00     0.074 A 
ATOM     38  C   UNL A   1      40.040  28.514  29.282  1.00  0.00     0.049 A 
ATOM     39  N   UNL A   1      43.026  29.541  28.749  1.00  0.00    -0.248 NA
ATOM     40  C   UNL A   1      42.284  29.050  26.609  1.00  0.00     0.031 C 
ATOM     41  C   UNL A   1      38.738  27.896  29.568  1.00  0.00     0.029 A 
ATOM     42  N   UNL A   1      39.896  29.774  29.791  1.00  0.00    -0.354 N 
ATOM     43  C   UNL A   1      43.733  30.323  27.833  1.00  0.00     0.074 A 
ATOM     44  C   UNL A   1      43.310  29.902  26.524  1.00  0.00     0.031 C 
ATOM     45  C   UNL A   1      37.865  28.846  29.960  1.00  0.00     0.029 A 
ATOM     46  C   UNL A   1      38.596  30.085  30.150  1.00  0.00     0.049 A 
ATOM     47  H   UNL A   1      40.648  30.402  29.894  1.00  0.00     0.167 HD
ATOM     48  C   UNL A   1      44.455  31.408  28.232  1.00  0.00     0.037 A 
ATOM     49  C   UNL A   1      38.121  31.275  30.576  1.00  0.00     0.037 A 
ATOM     50  C   UNL A   1      44.630  31.429  29.657  1.00  0.00     0.049 A 
ATOM     51  C   UNL A   1      39.247  32.055  31.131  1.00  0.00     0.074 A 
ATOM     52  C   UNL A   1      45.463  30.842  30.581  1.00  0.00     0.029 A 
ATOM     53  N   UNL A   1      43.585  31.985  30.340  1.00  0.00    -0.354 N 
ATOM     54  N   UNL A   1      39.932  31.693  32.182  1.00  0.00    -0.248 NA
ATOM     55  C   UNL A   1      39.830  33.140  30.348  1.00  0.00     0.031 C 
ATOM     56  C   UNL A   1      44.774  30.900  31.830  1.00  0.00     0.029 A 
ATOM     57  C   UNL A   1      43.548  31.526  31.628  1.00  0.00     0.049 A 
ATOM     58  H   UNL A   1      42.945  32.629  29.956  1.00  0.00     0.167 HD
ATOM     59  C   UNL A   1      41.194  32.200  31.956  1.00  0.00     0.074 A 
ATOM     60  C   UNL A   1      41.027  33.223  30.935  1.00  0.00     0.031 C 
ATOM     61  C   UNL A   1      42.304  31.523  32.362  1.00  0.00     0.037 A 
BRANCH  48  62
ATOM     62  C   UNL A   1      44.661  32.681  27.438  1.00  0.00     0.064 A 
ATOM     63  C   UNL A   1      45.863  32.861  26.715  1.00  0.00     0.173 A 
ATOM     64  C   UNL A   1      43.892  33.845  27.633  1.00  0.00     0.173 A 
ATOM     65  F   UNL A   1      46.685  31.825  26.487  1.00  0.00    -0.203 F 
ATOM     66  C   UNL A   1      46.289  34.122  26.286  1.00  0.00     0.198 A 
ATOM     67  C   UNL A   1      44.296  35.095  27.159  1.00  0.00     0.198 A 
ATOM     68  F   UNL A   1      42.785  33.842  28.387  1.00  0.00    -0.203 F 
ATOM     69  F   UNL A   1      47.491  34.261  25.709  1.00  0.00    -0.200 F 
ATOM     70  C   UNL A   1      45.507  35.239  26.512  1.00  0.00     0.200 A 
ATOM     71  F   UNL A   1      43.537  36.171  27.407  1.00  0.00    -0.200 F 
ATOM     72  F   UNL A   1      45.937  36.457  26.155  1.00  0.00    -0.200 F 
ENDBRANCH  48  62
BRANCH  49  73
ATOM     73  C   UNL A   1      36.777  31.842  30.344  1.00  0.00     0.064 A 
ATOM     74  C   UNL A   1      35.918  32.142  31.409  1.00  0.00     0.173 A 
ATOM     75  C   UNL A   1      36.415  32.341  29.076  1.00  0.00     0.173 A 
ATOM     76  F   UNL A   1      36.214  31.729  32.649  1.00  0.00    -0.203 F 
ATOM     77  C   UNL A   1      34.776  32.926  31.224  1.00  0.00     0.198 A 
ATOM     78  C   UNL A   1      35.273  33.118  28.892  1.00  0.00     0.198 A 
ATOM     79  F   UNL A   1      37.213  32.159  28.013  1.00  0.00    -0.203 F 
ATOM     80  F   UNL A   1      34.010  33.247  32.277  1.00  0.00    -0.200 F 
ATOM     81  C   UNL A   1      34.462  33.425  29.970  1.00  0.00     0.200 A 
ATOM     82  F   UNL A   1      34.998  33.620  27.680  1.00  0.00    -0.200 F 
ATOM     83  F   UNL A   1      33.405  34.231  29.807  1.00  0.00    -0.200 F 
ENDBRANCH  49  73
BRANCH  61  84
ATOM     84  C   UNL A   1      42.156  30.557  33.492  1.00  0.00     0.064 A 
ATOM     85  C   UNL A   1      41.886  29.190  33.330  1.00  0.00     0.173 A 
ATOM     86  C   UNL A   1      42.398  31.024  34.790  1.00  0.00     0.173 A 
ATOM     87  F   UNL A   1      41.723  28.660  32.113  1.00  0.00    -0.203 F 
ATOM     88  C   UNL A   1      41.828  28.335  34.428  1.00  0.00     0.198 A 
ATOM     89  C   UNL A   1      42.372  30.162  35.881  1.00  0.00     0.198 A 
ATOM     90  F   UNL A   1      42.706  32.315  34.993  1.00  0.00    -0.203 F 
ATOM     91  F   UNL A   1      41.555  27.034  34.253  1.00  0.00    -0.200 F 
ATOM     92  C   UNL A   1      42.077  28.821  35.702  1.00  0.00     0.200 A 
ATOM     93  F   UNL A   1      42.656  30.630  37.105  1.00  0.00    -0.200 F 
ATOM     94  F   UNL A   1      42.058  27.993  36.755  1.00  0.00    -0.200 F 
ENDBRANCH  61  84
ENDBRANCH  35  36
ENDBRANCH  27  30
ENDBRANCH  25  26
ENDBRANCH  24  25
ENDBRANCH  23  24
ENDBRANCH   1  23
TORSDOF 15
ENDMDL
