MODEL 1
REMARK VINA RESULT:     -12.5      0.000      0.000
REMARK SMILES C[C@](C(=O)NCCCCNC(=O)c1ccc(-c2c3nc(c(-c4c(F)c(F)c(F)c(F)c4F)c4ccc([nH]4)c(-c4c(F)c(F)c(F)c(F)c4F)c4nc(c(-c5c(F)c(F)c(F)c(F)c5F)c5ccc2[nH]5)C=C4)C=C3)cc1)(c1cc(F)cc(F)c1)[NH+]1CCCC1
REMARK SMILES IDX 8 1 7 2 6 3 5 4 3 5 4 6 2 8 1 9 76 10 77 11 83 12 78 13
REMARK SMILES IDX 81 14 79 15 80 16 82 17 84 18 85 19 88 20 86 22 87 23 9 24
REMARK SMILES IDX 10 25 11 26 12 28 13 29 14 30 75 31 15 32 74 33 16 34 17 35
REMARK SMILES IDX 18 36 68 37 19 38 73 39 67 40 69 41 20 42 72 43 66 44 65 45
REMARK SMILES IDX 21 47 53 48 33 49 52 50 34 51 37 52 51 53 70 54 35 55 36 56
REMARK SMILES IDX 50 58 71 59 38 60 22 61 23 62 31 63 24 64 25 65 29 66 32 67
REMARK SMILES IDX 26 68 27 69 30 70 28 71 54 72 55 73 63 74 56 75 57 76 61 77
REMARK SMILES IDX 64 78 58 79 59 80 62 81 60 82 39 83 40 84 48 85 41 86 42 87
REMARK SMILES IDX 46 88 49 89 43 90 44 91 47 92 45 93
REMARK H PARENT 5 7 84 21 10 27 69 46 37 57
REMARK Flexibility Score: inf
ROOT
ATOM      1  C   UNL A   1      31.039  31.990  26.381  1.00  0.00     0.023 C 
ENDROOT
BRANCH   1   2
ATOM      2  C   UNL A   1      31.119  30.767  25.474  1.00  0.00     0.023 C 
BRANCH   2   3
ATOM      3  C   UNL A   1      32.308  29.868  25.800  1.00  0.00     0.116 C 
BRANCH   3   4
ATOM      4  N   UNL A   1      33.179  29.733  24.647  1.00  0.00    -0.350 N 
ATOM      5  C   UNL A   1      33.201  28.736  23.700  1.00  0.00     0.286 C 
ATOM      6  O   UNL A   1      34.042  28.835  22.801  1.00  0.00    -0.267 OA
ATOM      7  H   UNL A   1      33.841  30.451  24.526  1.00  0.00     0.163 HD
BRANCH   5   8
ATOM      8  C   UNL A   1      32.147  27.534  23.764  1.00  0.00     0.200 C 
ATOM      9  C   UNL A   1      31.922  27.155  25.243  1.00  0.00     0.096 C 
BRANCH   8  10
ATOM     10  C   UNL A   1      30.796  28.081  23.201  1.00  0.00     0.028 A 
ATOM     11  C   UNL A   1      30.705  29.211  22.367  1.00  0.00     0.050 A 
ATOM     12  C   UNL A   1      29.576  27.507  23.625  1.00  0.00     0.050 A 
ATOM     13  C   UNL A   1      29.469  29.765  22.031  1.00  0.00     0.126 A 
ATOM     14  C   UNL A   1      28.351  28.094  23.297  1.00  0.00     0.126 A 
ATOM     15  F   UNL A   1      29.434  30.869  21.272  1.00  0.00    -0.207 F 
ATOM     16  C   UNL A   1      28.286  29.229  22.507  1.00  0.00     0.078 A 
ATOM     17  F   UNL A   1      27.222  27.581  23.803  1.00  0.00    -0.207 F 
ENDBRANCH   8  10
BRANCH   8  18
ATOM     18  N   UNL A   1      32.720  26.404  22.963  1.00  0.00    -0.319 N 
ATOM     19  C   UNL A   1      32.783  25.097  23.639  1.00  0.00     0.263 C 
ATOM     20  C   UNL A   1      32.103  26.062  21.679  1.00  0.00     0.263 C 
ATOM     21  H   UNL A   1      33.629  26.844  22.822  1.00  0.00     0.349 HD
ATOM     22  C   UNL A   1      33.468  24.271  22.565  1.00  0.00     0.067 C 
ATOM     23  C   UNL A   1      32.930  24.845  21.259  1.00  0.00     0.067 C 
ENDBRANCH   8  18
ENDBRANCH   5   8
ENDBRANCH   3   4
ENDBRANCH   2   3
ENDBRANCH   1   2
BRANCH   1  24
ATOM     24  C   UNL A   1      32.389  32.439  26.928  1.00  0.00     0.116 C 
BRANCH  24  25
ATOM     25  N   UNL A   1      32.355  33.775  27.506  1.00  0.00    -0.352 N 
ATOM     26  C   UNL A   1      33.253  34.345  28.382  1.00  0.00     0.251 C 
ATOM     27  H   UNL A   1      31.596  34.343  27.237  1.00  0.00     0.163 HD
ATOM     28  O   UNL A   1      33.053  35.435  28.883  1.00  0.00    -0.269 OA
BRANCH  26  29
ATOM     29  C   UNL A   1      34.456  33.562  28.731  1.00  0.00     0.039 A 
ATOM     30  C   UNL A   1      35.712  34.110  28.470  1.00  0.00     0.014 A 
ATOM     31  C   UNL A   1      34.321  32.360  29.429  1.00  0.00     0.014 A 
ATOM     32  C   UNL A   1      36.845  33.491  28.998  1.00  0.00     0.010 A 
ATOM     33  C   UNL A   1      35.443  31.786  30.011  1.00  0.00     0.010 A 
ATOM     34  C   UNL A   1      36.712  32.357  29.816  1.00  0.00    -0.014 A 
BRANCH  34  35
ATOM     35  C   UNL A   1      37.877  31.768  30.521  1.00  0.00     0.031 A 
ATOM     36  C   UNL A   1      38.713  30.727  29.835  1.00  0.00     0.074 A 
ATOM     37  C   UNL A   1      38.103  32.088  31.810  1.00  0.00     0.049 A 
ATOM     38  N   UNL A   1      39.678  29.992  30.323  1.00  0.00    -0.248 NA
ATOM     39  C   UNL A   1      38.402  30.454  28.423  1.00  0.00     0.031 C 
ATOM     40  C   UNL A   1      37.320  33.041  32.599  1.00  0.00     0.029 A 
ATOM     41  N   UNL A   1      39.043  31.622  32.697  1.00  0.00    -0.354 N 
ATOM     42  C   UNL A   1      40.069  29.152  29.290  1.00  0.00     0.074 A 
ATOM     43  C   UNL A   1      39.216  29.442  28.158  1.00  0.00     0.031 C 
ATOM     44  C   UNL A   1      37.810  33.090  33.848  1.00  0.00     0.029 A 
ATOM     45  C   UNL A   1      38.914  32.142  33.962  1.00  0.00     0.049 A 
ATOM     46  H   UNL A   1      39.743  30.975  32.449  1.00  0.00     0.167 HD
ATOM     47  C   UNL A   1      41.061  28.232  29.286  1.00  0.00     0.037 A 
ATOM     48  C   UNL A   1      39.592  31.865  35.093  1.00  0.00     0.037 A 
ATOM     49  C   UNL A   1      41.938  27.985  30.399  1.00  0.00     0.049 A 
ATOM     50  C   UNL A   1      40.696  30.843  35.052  1.00  0.00     0.074 A 
ATOM     51  C   UNL A   1      43.048  27.163  30.453  1.00  0.00     0.029 A 
ATOM     52  N   UNL A   1      41.798  28.556  31.655  1.00  0.00    -0.354 N 
ATOM     53  N   UNL A   1      41.123  30.126  34.041  1.00  0.00    -0.248 NA
ATOM     54  C   UNL A   1      41.412  30.587  36.311  1.00  0.00     0.031 C 
ATOM     55  C   UNL A   1      43.552  27.195  31.756  1.00  0.00     0.029 A 
ATOM     56  C   UNL A   1      42.780  28.071  32.503  1.00  0.00     0.049 A 
ATOM     57  H   UNL A   1      41.104  29.207  31.907  1.00  0.00     0.167 HD
ATOM     58  C   UNL A   1      42.164  29.353  34.534  1.00  0.00     0.074 A 
ATOM     59  C   UNL A   1      42.320  29.699  35.930  1.00  0.00     0.031 C 
ATOM     60  C   UNL A   1      42.921  28.431  33.888  1.00  0.00     0.037 A 
BRANCH  47  61
ATOM     61  C   UNL A   1      41.268  27.424  28.041  1.00  0.00     0.064 A 
ATOM     62  C   UNL A   1      42.088  27.876  26.998  1.00  0.00     0.173 A 
ATOM     63  C   UNL A   1      40.698  26.147  27.926  1.00  0.00     0.173 A 
ATOM     64  F   UNL A   1      42.645  29.095  27.056  1.00  0.00    -0.203 F 
ATOM     65  C   UNL A   1      42.321  27.082  25.877  1.00  0.00     0.198 A 
ATOM     66  C   UNL A   1      40.955  25.347  26.818  1.00  0.00     0.198 A 
ATOM     67  F   UNL A   1      39.909  25.669  28.900  1.00  0.00    -0.203 F 
ATOM     68  F   UNL A   1      43.086  27.546  24.879  1.00  0.00    -0.200 F 
ATOM     69  C   UNL A   1      41.764  25.816  25.793  1.00  0.00     0.200 A 
ATOM     70  F   UNL A   1      40.425  24.118  26.742  1.00  0.00    -0.200 F 
ATOM     71  F   UNL A   1      42.005  25.046  24.723  1.00  0.00    -0.200 F 
ENDBRANCH  47  61
BRANCH  48  72
ATOM     72  C   UNL A   1      39.240  32.549  36.365  1.00  0.00     0.064 A 
ATOM     73  C   UNL A   1      38.330  31.978  37.264  1.00  0.00     0.173 A 
ATOM     74  C   UNL A   1      39.780  33.803  36.691  1.00  0.00     0.173 A 
ATOM     75  F   UNL A   1      37.769  30.792  36.985  1.00  0.00    -0.203 F 
ATOM     76  C   UNL A   1      37.952  32.645  38.428  1.00  0.00     0.198 A 
ATOM     77  C   UNL A   1      39.424  34.455  37.870  1.00  0.00     0.198 A 
ATOM     78  F   UNL A   1      40.658  34.392  35.867  1.00  0.00    -0.203 F 
ATOM     79  F   UNL A   1      37.037  32.100  39.242  1.00  0.00    -0.200 F 
ATOM     80  C   UNL A   1      38.501  33.881  38.732  1.00  0.00     0.200 A 
ATOM     81  F   UNL A   1      39.966  35.644  38.165  1.00  0.00    -0.200 F 
ATOM     82  F   UNL A   1      38.134  34.524  39.848  1.00  0.00    -0.200 F 
ENDBRANCH  48  72
BRANCH  60  83
ATOM     83  C   UNL A   1      43.992  27.744  34.681  1.00  0.00     0.064 A 
ATOM     84  C   UNL A   1      43.761  26.509  35.303  1.00  0.00     0.173 A 
ATOM     85  C   UNL A   1      45.278  28.298  34.769  1.00  0.00     0.173 A 
ATOM     86  F   UNL A   1      42.543  25.949  35.260  1.00  0.00    -0.203 F 
ATOM     87  C   UNL A   1      44.777  25.860  35.999  1.00  0.00     0.198 A 
ATOM     88  C   UNL A   1      46.298  27.632  35.443  1.00  0.00     0.198 A 
ATOM     89  F   UNL A   1      45.550  29.474  34.186  1.00  0.00    -0.203 F 
ATOM     90  F   UNL A   1      44.524  24.698  36.618  1.00  0.00    -0.200 F 
ATOM     91  C   UNL A   1      46.046  26.416  36.061  1.00  0.00     0.200 A 
ATOM     92  F   UNL A   1      47.527  28.165  35.489  1.00  0.00    -0.200 F 
ATOM     93  F   UNL A   1      47.025  25.783  36.720  1.00  0.00    -0.200 F 
ENDBRANCH  60  83
ENDBRANCH  34  35
ENDBRANCH  26  29
ENDBRANCH  24  25
ENDBRANCH   1  24
TORSDOF 13
ENDMDL
MODEL 2
REMARK VINA RESULT:     -12.4      1.523      2.449
REMARK SMILES C[C@](C(=O)NCCCCNC(=O)c1ccc(-c2c3nc(c(-c4c(F)c(F)c(F)c(F)c4F)c4ccc([nH]4)c(-c4c(F)c(F)c(F)c(F)c4F)c4nc(c(-c5c(F)c(F)c(F)c(F)c5F)c5ccc2[nH]5)C=C4)C=C3)cc1)(c1cc(F)cc(F)c1)[NH+]1CCCC1
REMARK SMILES IDX 8 1 7 2 6 3 5 4 3 5 4 6 2 8 1 9 76 10 77 11 83 12 78 13
REMARK SMILES IDX 81 14 79 15 80 16 82 17 84 18 85 19 88 20 86 22 87 23 9 24
REMARK SMILES IDX 10 25 11 26 12 28 13 29 14 30 75 31 15 32 74 33 16 34 17 35
REMARK SMILES IDX 18 36 68 37 19 38 73 39 67 40 69 41 20 42 72 43 66 44 65 45
REMARK SMILES IDX 21 47 53 48 33 49 52 50 34 51 37 52 51 53 70 54 35 55 36 56
REMARK SMILES IDX 50 58 71 59 38 60 22 61 23 62 31 63 24 64 25 65 29 66 32 67
REMARK SMILES IDX 26 68 27 69 30 70 28 71 54 72 55 73 63 74 56 75 57 76 61 77
REMARK SMILES IDX 64 78 58 79 59 80 62 81 60 82 39 83 40 84 48 85 41 86 42 87
REMARK SMILES IDX 46 88 49 89 43 90 44 91 47 92 45 93
REMARK H PARENT 5 7 84 21 10 27 69 46 37 57
REMARK Flexibility Score: inf
ROOT
ATOM      1  C   UNL A   1      31.613  29.725  26.321  1.00  0.00     0.023 C 
ENDROOT
BRANCH   1   2
ATOM      2  C   UNL A   1      31.737  28.572  27.310  1.00  0.00     0.023 C 
BRANCH   2   3
ATOM      3  C   UNL A   1      32.199  27.276  26.651  1.00  0.00     0.116 C 
BRANCH   3   4
ATOM      4  N   UNL A   1      31.272  26.197  26.939  1.00  0.00    -0.350 N 
ATOM      5  C   UNL A   1      30.885  25.159  26.126  1.00  0.00     0.286 C 
ATOM      6  O   UNL A   1      30.074  24.352  26.593  1.00  0.00    -0.267 OA
ATOM      7  H   UNL A   1      30.869  26.209  27.837  1.00  0.00     0.163 HD
BRANCH   5   8
ATOM      8  C   UNL A   1      31.502  25.006  24.658  1.00  0.00     0.200 C 
ATOM      9  C   UNL A   1      30.807  23.821  23.953  1.00  0.00     0.096 C 
BRANCH   8  10
ATOM     10  C   UNL A   1      31.140  26.307  23.871  1.00  0.00     0.028 A 
ATOM     11  C   UNL A   1      32.106  27.192  23.355  1.00  0.00     0.050 A 
ATOM     12  C   UNL A   1      29.790  26.705  23.756  1.00  0.00     0.050 A 
ATOM     13  C   UNL A   1      31.740  28.425  22.813  1.00  0.00     0.126 A 
ATOM     14  C   UNL A   1      29.449  27.955  23.234  1.00  0.00     0.126 A 
ATOM     15  F   UNL A   1      32.697  29.255  22.376  1.00  0.00    -0.207 F 
ATOM     16  C   UNL A   1      30.417  28.828  22.767  1.00  0.00     0.078 A 
ATOM     17  F   UNL A   1      28.166  28.339  23.236  1.00  0.00    -0.207 F 
ENDBRANCH   8  10
BRANCH   8  18
ATOM     18  N   UNL A   1      32.977  24.791  24.821  1.00  0.00    -0.319 N 
ATOM     19  C   UNL A   1      33.385  23.909  25.927  1.00  0.00     0.263 C 
ATOM     20  C   UNL A   1      33.744  24.254  23.694  1.00  0.00     0.263 C 
ATOM     21  H   UNL A   1      33.195  25.776  24.971  1.00  0.00     0.349 HD
ATOM     22  C   UNL A   1      34.895  24.008  25.808  1.00  0.00     0.067 C 
ATOM     23  C   UNL A   1      35.139  24.130  24.308  1.00  0.00     0.067 C 
ENDBRANCH   8  18
ENDBRANCH   5   8
ENDBRANCH   3   4
ENDBRANCH   2   3
ENDBRANCH   1   2
BRANCH   1  24
ATOM     24  C   UNL A   1      32.843  30.623  26.266  1.00  0.00     0.116 C 
BRANCH  24  25
ATOM     25  N   UNL A   1      32.590  31.971  26.757  1.00  0.00    -0.352 N 
ATOM     26  C   UNL A   1      33.377  32.732  27.592  1.00  0.00     0.251 C 
ATOM     27  H   UNL A   1      31.751  32.390  26.454  1.00  0.00     0.163 HD
ATOM     28  O   UNL A   1      33.001  33.806  28.022  1.00  0.00    -0.269 OA
BRANCH  26  29
ATOM     29  C   UNL A   1      34.687  32.178  27.988  1.00  0.00     0.039 A 
ATOM     30  C   UNL A   1      35.793  33.027  28.020  1.00  0.00     0.014 A 
ATOM     31  C   UNL A   1      34.772  30.862  28.445  1.00  0.00     0.014 A 
ATOM     32  C   UNL A   1      36.977  32.578  28.607  1.00  0.00     0.010 A 
ATOM     33  C   UNL A   1      35.928  30.442  29.091  1.00  0.00     0.010 A 
ATOM     34  C   UNL A   1      37.033  31.303  29.194  1.00  0.00    -0.014 A 
BRANCH  34  35
ATOM     35  C   UNL A   1      38.220  30.855  29.962  1.00  0.00     0.031 A 
ATOM     36  C   UNL A   1      39.149  29.837  29.369  1.00  0.00     0.074 A 
ATOM     37  C   UNL A   1      38.388  31.279  31.230  1.00  0.00     0.049 A 
ATOM     38  N   UNL A   1      40.153  29.212  29.928  1.00  0.00    -0.248 NA
ATOM     39  C   UNL A   1      38.896  29.443  27.974  1.00  0.00     0.031 C 
ATOM     40  C   UNL A   1      37.516  32.222  31.933  1.00  0.00     0.029 A 
ATOM     41  N   UNL A   1      39.337  30.948  32.167  1.00  0.00    -0.354 N 
ATOM     42  C   UNL A   1      40.633  28.335  28.965  1.00  0.00     0.074 A 
ATOM     43  C   UNL A   1      39.791  28.481  27.798  1.00  0.00     0.031 C 
ATOM     44  C   UNL A   1      37.968  32.394  33.186  1.00  0.00     0.029 A 
ATOM     45  C   UNL A   1      39.135  31.543  33.389  1.00  0.00     0.049 A 
ATOM     46  H   UNL A   1      40.089  30.341  31.980  1.00  0.00     0.167 HD
ATOM     47  C   UNL A   1      41.691  27.496  29.047  1.00  0.00     0.037 A 
ATOM     48  C   UNL A   1      39.803  31.397  34.550  1.00  0.00     0.037 A 
ATOM     49  C   UNL A   1      42.554  27.394  30.192  1.00  0.00     0.049 A 
ATOM     50  C   UNL A   1      40.981  30.462  34.605  1.00  0.00     0.074 A 
ATOM     51  C   UNL A   1      43.721  26.665  30.327  1.00  0.00     0.029 A 
ATOM     52  N   UNL A   1      42.340  28.037  31.401  1.00  0.00    -0.354 N 
ATOM     53  N   UNL A   1      41.487  29.712  33.656  1.00  0.00    -0.248 NA
ATOM     54  C   UNL A   1      41.681  30.349  35.894  1.00  0.00     0.031 C 
ATOM     55  C   UNL A   1      44.187  26.825  31.635  1.00  0.00     0.029 A 
ATOM     56  C   UNL A   1      43.332  27.689  32.302  1.00  0.00     0.049 A 
ATOM     57  H   UNL A   1      41.592  28.649  31.592  1.00  0.00     0.167 HD
ATOM     58  C   UNL A   1      42.569  29.056  34.224  1.00  0.00     0.074 A 
ATOM     59  C   UNL A   1      42.663  29.509  35.595  1.00  0.00     0.031 C 
ATOM     60  C   UNL A   1      43.409  28.153  33.661  1.00  0.00     0.037 A 
BRANCH  47  61
ATOM     61  C   UNL A   1      41.990  26.622  27.867  1.00  0.00     0.064 A 
ATOM     62  C   UNL A   1      42.935  26.990  26.899  1.00  0.00     0.173 A 
ATOM     63  C   UNL A   1      41.377  25.366  27.746  1.00  0.00     0.173 A 
ATOM     64  F   UNL A   1      43.538  28.187  26.964  1.00  0.00    -0.203 F 
ATOM     65  C   UNL A   1      43.248  26.136  25.844  1.00  0.00     0.198 A 
ATOM     66  C   UNL A   1      41.712  24.504  26.706  1.00  0.00     0.198 A 
ATOM     67  F   UNL A   1      40.469  24.967  28.649  1.00  0.00    -0.203 F 
ATOM     68  F   UNL A   1      44.134  26.520  24.914  1.00  0.00    -0.200 F 
ATOM     69  C   UNL A   1      42.645  24.891  25.755  1.00  0.00     0.200 A 
ATOM     70  F   UNL A   1      41.137  23.296  26.627  1.00  0.00    -0.200 F 
ATOM     71  F   UNL A   1      42.961  24.062  24.750  1.00  0.00    -0.200 F 
ENDBRANCH  47  61
BRANCH  48  72
ATOM     72  C   UNL A   1      39.368  32.139  35.764  1.00  0.00     0.064 A 
ATOM     73  C   UNL A   1      39.918  33.388  36.081  1.00  0.00     0.173 A 
ATOM     74  C   UNL A   1      38.421  31.599  36.647  1.00  0.00     0.173 A 
ATOM     75  F   UNL A   1      40.844  33.935  35.280  1.00  0.00    -0.203 F 
ATOM     76  C   UNL A   1      39.557  34.058  37.250  1.00  0.00     0.198 A 
ATOM     77  C   UNL A   1      38.039  32.283  37.799  1.00  0.00     0.198 A 
ATOM     78  F   UNL A   1      37.863  30.408  36.388  1.00  0.00    -0.203 F 
ATOM     79  F   UNL A   1      40.140  35.225  37.556  1.00  0.00    -0.200 F 
ATOM     80  C   UNL A   1      38.616  33.507  38.105  1.00  0.00     0.200 A 
ATOM     81  F   UNL A   1      37.121  31.752  38.618  1.00  0.00    -0.200 F 
ATOM     82  F   UNL A   1      38.273  34.148  39.230  1.00  0.00    -0.200 F 
ENDBRANCH  48  72
BRANCH  60  83
ATOM     83  C   UNL A   1      44.508  27.606  34.522  1.00  0.00     0.064 A 
ATOM     84  C   UNL A   1      45.738  28.268  34.644  1.00  0.00     0.173 A 
ATOM     85  C   UNL A   1      44.309  26.440  35.277  1.00  0.00     0.173 A 
ATOM     86  F   UNL A   1      45.981  29.377  33.928  1.00  0.00    -0.203 F 
ATOM     87  C   UNL A   1      46.735  27.774  35.479  1.00  0.00     0.198 A 
ATOM     88  C   UNL A   1      45.298  25.965  36.132  1.00  0.00     0.198 A 
ATOM     89  F   UNL A   1      43.147  25.774  35.199  1.00  0.00    -0.203 F 
ATOM     90  F   UNL A   1      47.917  28.402  35.552  1.00  0.00    -0.200 F 
ATOM     91  C   UNL A   1      46.512  26.629  36.230  1.00  0.00     0.200 A 
ATOM     92  F   UNL A   1      45.075  24.866  36.867  1.00  0.00    -0.200 F 
ATOM     93  F   UNL A   1      47.468  26.163  37.043  1.00  0.00    -0.200 F 
ENDBRANCH  60  83
ENDBRANCH  34  35
ENDBRANCH  26  29
ENDBRANCH  24  25
ENDBRANCH   1  24
TORSDOF 13
ENDMDL
MODEL 3
REMARK VINA RESULT:     -12.4      1.043      7.419
REMARK SMILES C[C@](C(=O)NCCCCNC(=O)c1ccc(-c2c3nc(c(-c4c(F)c(F)c(F)c(F)c4F)c4ccc([nH]4)c(-c4c(F)c(F)c(F)c(F)c4F)c4nc(c(-c5c(F)c(F)c(F)c(F)c5F)c5ccc2[nH]5)C=C4)C=C3)cc1)(c1cc(F)cc(F)c1)[NH+]1CCCC1
REMARK SMILES IDX 8 1 7 2 6 3 5 4 3 5 4 6 2 8 1 9 76 10 77 11 83 12 78 13
REMARK SMILES IDX 81 14 79 15 80 16 82 17 84 18 85 19 88 20 86 22 87 23 9 24
REMARK SMILES IDX 10 25 11 26 12 28 13 29 14 30 75 31 15 32 74 33 16 34 17 35
REMARK SMILES IDX 18 36 68 37 19 38 73 39 67 40 69 41 20 42 72 43 66 44 65 45
REMARK SMILES IDX 21 47 53 48 33 49 52 50 34 51 37 52 51 53 70 54 35 55 36 56
REMARK SMILES IDX 50 58 71 59 38 60 22 61 23 62 31 63 24 64 25 65 29 66 32 67
REMARK SMILES IDX 26 68 27 69 30 70 28 71 54 72 55 73 63 74 56 75 57 76 61 77
REMARK SMILES IDX 64 78 58 79 59 80 62 81 60 82 39 83 40 84 48 85 41 86 42 87
REMARK SMILES IDX 46 88 49 89 43 90 44 91 47 92 45 93
REMARK H PARENT 5 7 84 21 10 27 69 46 37 57
REMARK Flexibility Score: inf
ROOT
ATOM      1  C   UNL A   1      31.814  31.996  26.986  1.00  0.00     0.023 C 
ENDROOT
BRANCH   1   2
ATOM      2  C   UNL A   1      32.166  30.518  26.858  1.00  0.00     0.023 C 
BRANCH   2   3
ATOM      3  C   UNL A   1      31.607  29.887  25.587  1.00  0.00     0.116 C 
BRANCH   3   4
ATOM      4  N   UNL A   1      32.654  29.719  24.596  1.00  0.00    -0.350 N 
ATOM      5  C   UNL A   1      32.814  28.707  23.679  1.00  0.00     0.286 C 
ATOM      6  O   UNL A   1      33.794  28.777  22.930  1.00  0.00    -0.267 OA
ATOM      7  H   UNL A   1      33.341  30.424  24.577  1.00  0.00     0.163 HD
BRANCH   5   8
ATOM      8  C   UNL A   1      31.741  27.524  23.582  1.00  0.00     0.200 C 
ATOM      9  C   UNL A   1      31.463  26.995  25.005  1.00  0.00     0.096 C 
BRANCH   8  10
ATOM     10  C   UNL A   1      30.416  28.152  23.041  1.00  0.00     0.028 A 
ATOM     11  C   UNL A   1      30.380  29.300  22.227  1.00  0.00     0.050 A 
ATOM     12  C   UNL A   1      29.171  27.636  23.465  1.00  0.00     0.050 A 
ATOM     13  C   UNL A   1      29.172  29.925  21.911  1.00  0.00     0.126 A 
ATOM     14  C   UNL A   1      27.976  28.293  23.158  1.00  0.00     0.126 A 
ATOM     15  F   UNL A   1      29.190  31.042  21.171  1.00  0.00    -0.207 F 
ATOM     16  C   UNL A   1      27.966  29.444  22.388  1.00  0.00     0.078 A 
ATOM     17  F   UNL A   1      26.825  27.832  23.665  1.00  0.00    -0.207 F 
ENDBRANCH   8  10
BRANCH   8  18
ATOM     18  N   UNL A   1      32.322  26.475  22.683  1.00  0.00    -0.319 N 
ATOM     19  C   UNL A   1      32.260  25.090  23.178  1.00  0.00     0.263 C 
ATOM     20  C   UNL A   1      31.802  26.344  21.320  1.00  0.00     0.263 C 
ATOM     21  H   UNL A   1      33.261  26.873  22.676  1.00  0.00     0.349 HD
ATOM     22  C   UNL A   1      32.992  24.370  22.060  1.00  0.00     0.067 C 
ATOM     23  C   UNL A   1      32.599  25.143  20.805  1.00  0.00     0.067 C 
ENDBRANCH   8  18
ENDBRANCH   5   8
ENDBRANCH   3   4
ENDBRANCH   2   3
ENDBRANCH   1   2
BRANCH   1  24
ATOM     24  C   UNL A   1      32.954  32.855  27.520  1.00  0.00     0.116 C 
BRANCH  24  25
ATOM     25  N   UNL A   1      32.560  34.233  27.778  1.00  0.00    -0.352 N 
ATOM     26  C   UNL A   1      33.063  35.098  28.725  1.00  0.00     0.251 C 
ATOM     27  H   UNL A   1      31.844  34.591  27.203  1.00  0.00     0.163 HD
ATOM     28  O   UNL A   1      32.570  36.193  28.916  1.00  0.00    -0.269 OA
BRANCH  26  29
ATOM     29  C   UNL A   1      34.203  34.631  29.538  1.00  0.00     0.039 A 
ATOM     30  C   UNL A   1      33.953  34.095  30.801  1.00  0.00     0.014 A 
ATOM     31  C   UNL A   1      35.485  34.610  28.984  1.00  0.00     0.014 A 
ATOM     32  C   UNL A   1      34.984  33.444  31.479  1.00  0.00     0.010 A 
ATOM     33  C   UNL A   1      36.490  33.901  29.629  1.00  0.00     0.010 A 
ATOM     34  C   UNL A   1      36.243  33.297  30.874  1.00  0.00    -0.014 A 
BRANCH  34  35
ATOM     35  C   UNL A   1      37.312  32.478  31.496  1.00  0.00     0.031 A 
ATOM     36  C   UNL A   1      37.843  32.850  32.849  1.00  0.00     0.074 A 
ATOM     37  C   UNL A   1      37.876  31.478  30.790  1.00  0.00     0.049 A 
ATOM     38  N   UNL A   1      38.864  32.356  33.499  1.00  0.00    -0.248 NA
ATOM     39  C   UNL A   1      37.155  33.946  33.551  1.00  0.00     0.031 C 
ATOM     40  C   UNL A   1      37.485  31.064  29.441  1.00  0.00     0.029 A 
ATOM     41  N   UNL A   1      38.924  30.645  31.098  1.00  0.00    -0.354 N 
ATOM     42  C   UNL A   1      38.958  33.096  34.669  1.00  0.00     0.074 A 
ATOM     43  C   UNL A   1      37.913  34.095  34.627  1.00  0.00     0.031 C 
ATOM     44  C   UNL A   1      38.278  30.058  29.039  1.00  0.00     0.029 A 
ATOM     45  C   UNL A   1      39.262  29.784  30.082  1.00  0.00     0.049 A 
ATOM     46  H   UNL A   1      39.390  30.664  31.966  1.00  0.00     0.167 HD
ATOM     47  C   UNL A   1      39.830  32.941  35.692  1.00  0.00     0.037 A 
ATOM     48  C   UNL A   1      40.268  28.892  29.992  1.00  0.00     0.037 A 
ATOM     49  C   UNL A   1      40.833  31.912  35.749  1.00  0.00     0.049 A 
ATOM     50  C   UNL A   1      41.215  28.739  31.152  1.00  0.00     0.074 A 
ATOM     51  C   UNL A   1      41.683  31.597  36.794  1.00  0.00     0.029 A 
ATOM     52  N   UNL A   1      41.124  31.036  34.716  1.00  0.00    -0.354 N 
ATOM     53  N   UNL A   1      41.232  29.377  32.296  1.00  0.00    -0.248 NA
ATOM     54  C   UNL A   1      42.288  27.744  31.005  1.00  0.00     0.031 C 
ATOM     55  C   UNL A   1      42.525  30.563  36.375  1.00  0.00     0.029 A 
ATOM     56  C   UNL A   1      42.169  30.205  35.084  1.00  0.00     0.049 A 
ATOM     57  H   UNL A   1      40.658  31.008  33.849  1.00  0.00     0.167 HD
ATOM     58  C   UNL A   1      42.298  28.850  33.011  1.00  0.00     0.074 A 
ATOM     59  C   UNL A   1      42.895  27.826  32.182  1.00  0.00     0.031 C 
ATOM     60  C   UNL A   1      42.747  29.189  34.244  1.00  0.00     0.037 A 
BRANCH  47  61
ATOM     61  C   UNL A   1      39.742  33.896  36.843  1.00  0.00     0.064 A 
ATOM     62  C   UNL A   1      40.381  35.144  36.814  1.00  0.00     0.173 A 
ATOM     63  C   UNL A   1      38.946  33.589  37.956  1.00  0.00     0.173 A 
ATOM     64  F   UNL A   1      41.164  35.478  35.777  1.00  0.00    -0.203 F 
ATOM     65  C   UNL A   1      40.235  36.047  37.865  1.00  0.00     0.198 A 
ATOM     66  C   UNL A   1      38.780  34.504  38.992  1.00  0.00     0.198 A 
ATOM     67  F   UNL A   1      38.312  32.409  38.029  1.00  0.00    -0.203 F 
ATOM     68  F   UNL A   1      40.877  37.222  37.829  1.00  0.00    -0.200 F 
ATOM     69  C   UNL A   1      39.427  35.730  38.946  1.00  0.00     0.200 A 
ATOM     70  F   UNL A   1      37.990  34.202  40.031  1.00  0.00    -0.200 F 
ATOM     71  F   UNL A   1      39.272  36.607  39.948  1.00  0.00    -0.200 F 
ENDBRANCH  47  61
BRANCH  48  72
ATOM     72  C   UNL A   1      40.446  28.085  28.756  1.00  0.00     0.064 A 
ATOM     73  C   UNL A   1      41.217  28.561  27.688  1.00  0.00     0.173 A 
ATOM     74  C   UNL A   1      39.821  26.838  28.605  1.00  0.00     0.173 A 
ATOM     75  F   UNL A   1      41.815  29.759  27.777  1.00  0.00    -0.203 F 
ATOM     76  C   UNL A   1      41.336  27.834  26.505  1.00  0.00     0.198 A 
ATOM     77  C   UNL A   1      39.966  26.098  27.433  1.00  0.00     0.198 A 
ATOM     78  F   UNL A   1      39.074  26.335  29.598  1.00  0.00    -0.203 F 
ATOM     79  F   UNL A   1      42.035  28.340  25.478  1.00  0.00    -0.200 F 
ATOM     80  C   UNL A   1      40.713  26.602  26.379  1.00  0.00     0.200 A 
ATOM     81  F   UNL A   1      39.371  24.903  27.320  1.00  0.00    -0.200 F 
ATOM     82  F   UNL A   1      40.824  25.906  25.240  1.00  0.00    -0.200 F 
ENDBRANCH  48  72
BRANCH  60  83
ATOM     83  C   UNL A   1      43.931  28.438  34.776  1.00  0.00     0.064 A 
ATOM     84  C   UNL A   1      43.779  27.217  35.447  1.00  0.00     0.173 A 
ATOM     85  C   UNL A   1      45.232  28.916  34.561  1.00  0.00     0.173 A 
ATOM     86  F   UNL A   1      42.553  26.729  35.690  1.00  0.00    -0.203 F 
ATOM     87  C   UNL A   1      44.889  26.508  35.898  1.00  0.00     0.198 A 
ATOM     88  C   UNL A   1      46.340  28.190  34.990  1.00  0.00     0.198 A 
ATOM     89  F   UNL A   1      45.430  30.077  33.920  1.00  0.00    -0.203 F 
ATOM     90  F   UNL A   1      44.718  25.360  36.570  1.00  0.00    -0.200 F 
ATOM     91  C   UNL A   1      46.167  26.989  35.661  1.00  0.00     0.200 A 
ATOM     92  F   UNL A   1      47.576  28.651  34.747  1.00  0.00    -0.200 F 
ATOM     93  F   UNL A   1      47.233  26.298  36.084  1.00  0.00    -0.200 F 
ENDBRANCH  60  83
ENDBRANCH  34  35
ENDBRANCH  26  29
ENDBRANCH  24  25
ENDBRANCH   1  24
TORSDOF 13
ENDMDL
