MODEL 1
REMARK VINA RESULT:     -13.4      0.000      0.000
REMARK SMILES Cc1ccc(NC(=O)C[N@@H+]2CC[C@@H](C(=O)NCCCCNC(=O)c3ccc(-c4c5nc(c(-c6c(F)c(F)c(F)c(F)c6F)c6ccc([nH]6)c(-c6c(F)c(F)c(F)c(F)c6F)c6nc(c(-c7c(F)c(F)c(F)c(F)c7F)c7ccc4[nH]7)C=C6)C=C5)cc3)[C@@H]2C)cc1
REMARK SMILES IDX 18 1 17 2 16 3 14 4 15 5 13 7 10 8 11 9 87 10 12 12 88 13
REMARK SMILES IDX 9 14 7 15 6 16 8 18 5 19 1 20 2 21 3 22 90 23 4 24 89 25
REMARK SMILES IDX 19 26 20 27 21 28 22 29 23 31 24 32 25 33 86 34 26 35 85 36
REMARK SMILES IDX 27 37 28 38 29 39 79 40 30 41 84 42 78 43 80 44 31 45 83 46
REMARK SMILES IDX 77 47 76 48 32 50 64 51 44 52 63 53 45 54 48 55 62 56 81 57
REMARK SMILES IDX 46 58 47 59 61 61 82 62 49 63 33 64 34 65 42 66 35 67 36 68
REMARK SMILES IDX 40 69 43 70 37 71 38 72 41 73 39 74 65 75 66 76 74 77 67 78
REMARK SMILES IDX 68 79 72 80 75 81 69 82 70 83 73 84 71 85 50 86 51 87 59 88
REMARK SMILES IDX 52 89 53 90 57 91 60 92 54 93 55 94 58 95 56 96
REMARK H PARENT 16 6 10 11 6 17 21 30 80 49 48 60
REMARK Flexibility Score: inf
ROOT
ATOM      1  C   UNL A   1      31.582  29.797  25.338  1.00  0.00     0.023 C 
ENDROOT
BRANCH   1   2
ATOM      2  C   UNL A   1      31.569  28.980  24.045  1.00  0.00     0.116 C 
BRANCH   2   3
ATOM      3  N   UNL A   1      32.857  28.835  23.367  1.00  0.00    -0.356 N 
ATOM      4  C   UNL A   1      33.389  27.867  22.560  1.00  0.00     0.229 C 
ATOM      5  O   UNL A   1      34.242  28.270  21.755  1.00  0.00    -0.275 OA
ATOM      6  H   UNL A   1      33.469  29.591  23.524  1.00  0.00     0.163 HD
BRANCH   4   7
ATOM      7  C   UNL A   1      33.085  26.354  22.597  1.00  0.00     0.142 C 
ATOM      8  N   UNL A   1      32.378  25.505  24.576  1.00  0.00    -0.324 N 
ATOM      9  C   UNL A   1      31.266  25.120  23.748  1.00  0.00     0.263 C 
ATOM     10  C   UNL A   1      33.602  25.552  23.783  1.00  0.00     0.194 C 
ATOM     11  H   UNL A   1      32.146  26.441  24.909  1.00  0.00     0.348 HD
ATOM     12  C   UNL A   1      31.589  25.932  22.478  1.00  0.00     0.081 C 
ATOM     13  C   UNL A   1      34.148  24.211  23.270  1.00  0.00     0.076 C 
BRANCH   8  14
ATOM     14  C   UNL A   1      32.410  25.331  26.009  1.00  0.00     0.364 C 
BRANCH  14  15
ATOM     15  C   UNL A   1      31.902  23.993  26.599  1.00  0.00     0.279 C 
ATOM     16  N   UNL A   1      32.427  22.732  26.515  1.00  0.00    -0.321 N 
ATOM     17  H   UNL A   1      31.752  22.060  26.767  1.00  0.00     0.170 HD
ATOM     18  O   UNL A   1      30.779  24.022  27.139  1.00  0.00    -0.268 OA
BRANCH  16  19
ATOM     19  C   UNL A   1      33.644  22.105  26.177  1.00  0.00     0.041 A 
ATOM     20  C   UNL A   1      37.442  20.517  24.752  1.00  0.00     0.044 C 
ATOM     21  C   UNL A   1      36.166  21.071  25.308  1.00  0.00    -0.051 A 
ATOM     22  C   UNL A   1      34.978  20.444  24.980  1.00  0.00     0.005 A 
ATOM     23  C   UNL A   1      36.098  22.199  26.125  1.00  0.00     0.005 A 
ATOM     24  C   UNL A   1      33.761  20.959  25.430  1.00  0.00     0.026 A 
ATOM     25  C   UNL A   1      34.850  22.713  26.540  1.00  0.00     0.026 A 
ENDBRANCH  16  19
ENDBRANCH  14  15
ENDBRANCH   8  14
ENDBRANCH   4   7
ENDBRANCH   2   3
ENDBRANCH   1   2
BRANCH   1  26
ATOM     26  C   UNL A   1      32.980  30.044  25.905  1.00  0.00     0.023 C 
BRANCH  26  27
ATOM     27  C   UNL A   1      33.045  30.107  27.433  1.00  0.00     0.116 C 
BRANCH  27  28
ATOM     28  N   UNL A   1      33.713  31.277  27.984  1.00  0.00    -0.352 N 
ATOM     29  C   UNL A   1      34.956  31.402  28.594  1.00  0.00     0.251 C 
ATOM     30  H   UNL A   1      33.202  32.115  27.913  1.00  0.00     0.163 HD
ATOM     31  O   UNL A   1      35.267  32.470  29.088  1.00  0.00    -0.269 OA
BRANCH  29  32
ATOM     32  C   UNL A   1      35.959  30.297  28.542  1.00  0.00     0.039 A 
ATOM     33  C   UNL A   1      36.290  29.645  29.743  1.00  0.00     0.014 A 
ATOM     34  C   UNL A   1      36.672  29.988  27.390  1.00  0.00     0.014 A 
ATOM     35  C   UNL A   1      37.460  28.888  29.828  1.00  0.00     0.010 A 
ATOM     36  C   UNL A   1      37.876  29.326  27.487  1.00  0.00     0.010 A 
ATOM     37  C   UNL A   1      38.300  28.830  28.718  1.00  0.00    -0.014 A 
BRANCH  37  38
ATOM     38  C   UNL A   1      39.690  28.408  28.765  1.00  0.00     0.031 A 
ATOM     39  C   UNL A   1      40.097  27.041  28.400  1.00  0.00     0.074 A 
ATOM     40  C   UNL A   1      40.634  29.350  28.985  1.00  0.00     0.049 A 
ATOM     41  N   UNL A   1      41.170  26.477  28.843  1.00  0.00    -0.248 NA
ATOM     42  C   UNL A   1      39.325  26.195  27.498  1.00  0.00     0.031 C 
ATOM     43  C   UNL A   1      42.073  29.230  28.777  1.00  0.00     0.029 A 
ATOM     44  N   UNL A   1      40.475  30.589  29.623  1.00  0.00    -0.354 N 
ATOM     45  C   UNL A   1      41.386  25.359  28.076  1.00  0.00     0.074 A 
ATOM     46  C   UNL A   1      40.173  25.176  27.311  1.00  0.00     0.031 C 
ATOM     47  C   UNL A   1      42.695  30.158  29.521  1.00  0.00     0.029 A 
ATOM     48  C   UNL A   1      41.678  30.812  30.326  1.00  0.00     0.049 A 
ATOM     49  H   UNL A   1      39.688  31.179  29.587  1.00  0.00     0.167 HD
ATOM     50  C   UNL A   1      42.624  24.792  28.042  1.00  0.00     0.037 A 
ATOM     51  C   UNL A   1      41.698  30.902  31.687  1.00  0.00     0.037 A 
ATOM     52  C   UNL A   1      43.577  25.522  28.871  1.00  0.00     0.049 A 
ATOM     53  C   UNL A   1      42.586  29.871  32.336  1.00  0.00     0.074 A 
ATOM     54  C   UNL A   1      44.533  26.477  28.565  1.00  0.00     0.029 A 
ATOM     55  N   UNL A   1      43.402  25.572  30.250  1.00  0.00    -0.354 N 
ATOM     56  N   UNL A   1      42.941  28.759  31.754  1.00  0.00    -0.248 NA
ATOM     57  C   UNL A   1      43.125  29.991  33.686  1.00  0.00     0.031 C 
ATOM     58  C   UNL A   1      44.915  27.124  29.764  1.00  0.00     0.029 A 
ATOM     59  C   UNL A   1      44.200  26.557  30.803  1.00  0.00     0.049 A 
ATOM     60  H   UNL A   1      42.795  24.990  30.761  1.00  0.00     0.167 HD
ATOM     61  C   UNL A   1      43.726  28.025  32.604  1.00  0.00     0.074 A 
ATOM     62  C   UNL A   1      43.820  28.845  33.798  1.00  0.00     0.031 C 
ATOM     63  C   UNL A   1      44.220  26.806  32.236  1.00  0.00     0.037 A 
BRANCH  50  64
ATOM     64  C   UNL A   1      43.005  23.769  27.004  1.00  0.00     0.064 A 
ATOM     65  C   UNL A   1      42.717  22.399  27.173  1.00  0.00     0.173 A 
ATOM     66  C   UNL A   1      43.702  24.095  25.827  1.00  0.00     0.173 A 
ATOM     67  F   UNL A   1      42.001  21.954  28.211  1.00  0.00    -0.203 F 
ATOM     68  C   UNL A   1      43.179  21.423  26.286  1.00  0.00     0.198 A 
ATOM     69  C   UNL A   1      44.205  23.115  24.964  1.00  0.00     0.198 A 
ATOM     70  F   UNL A   1      43.908  25.376  25.484  1.00  0.00    -0.203 F 
ATOM     71  F   UNL A   1      42.889  20.133  26.508  1.00  0.00    -0.200 F 
ATOM     72  C   UNL A   1      43.951  21.778  25.199  1.00  0.00     0.200 A 
ATOM     73  F   UNL A   1      44.950  23.476  23.909  1.00  0.00    -0.200 F 
ATOM     74  F   UNL A   1      44.438  20.838  24.380  1.00  0.00    -0.200 F 
ENDBRANCH  50  64
BRANCH  51  75
ATOM     75  C   UNL A   1      40.424  31.423  32.249  1.00  0.00     0.064 A 
ATOM     76  C   UNL A   1      40.107  32.779  32.027  1.00  0.00     0.173 A 
ATOM     77  C   UNL A   1      39.379  30.566  32.615  1.00  0.00     0.173 A 
ATOM     78  F   UNL A   1      41.072  33.633  31.648  1.00  0.00    -0.203 F 
ATOM     79  C   UNL A   1      38.790  33.230  32.051  1.00  0.00     0.198 A 
ATOM     80  C   UNL A   1      38.061  31.026  32.653  1.00  0.00     0.198 A 
ATOM     81  F   UNL A   1      39.611  29.261  32.817  1.00  0.00    -0.203 F 
ATOM     82  F   UNL A   1      38.508  34.495  31.708  1.00  0.00    -0.200 F 
ATOM     83  C   UNL A   1      37.764  32.346  32.339  1.00  0.00     0.200 A 
ATOM     84  F   UNL A   1      37.063  30.165  32.900  1.00  0.00    -0.200 F 
ATOM     85  F   UNL A   1      36.490  32.752  32.270  1.00  0.00    -0.200 F 
ENDBRANCH  51  75
BRANCH  63  86
ATOM     86  C   UNL A   1      44.869  25.781  33.138  1.00  0.00     0.064 A 
ATOM     87  C   UNL A   1      46.228  25.432  33.087  1.00  0.00     0.173 A 
ATOM     88  C   UNL A   1      44.140  25.212  34.215  1.00  0.00     0.173 A 
ATOM     89  F   UNL A   1      47.060  25.987  32.197  1.00  0.00    -0.203 F 
ATOM     90  C   UNL A   1      46.800  24.540  34.000  1.00  0.00     0.198 A 
ATOM     91  C   UNL A   1      44.727  24.373  35.161  1.00  0.00     0.198 A 
ATOM     92  F   UNL A   1      42.838  25.474  34.404  1.00  0.00    -0.203 F 
ATOM     93  F   UNL A   1      48.092  24.209  33.879  1.00  0.00    -0.200 F 
ATOM     94  C   UNL A   1      46.055  24.024  35.044  1.00  0.00     0.200 A 
ATOM     95  F   UNL A   1      44.003  23.927  36.196  1.00  0.00    -0.200 F 
ATOM     96  F   UNL A   1      46.621  23.212  35.946  1.00  0.00    -0.200 F 
ENDBRANCH  63  86
ENDBRANCH  37  38
ENDBRANCH  29  32
ENDBRANCH  27  28
ENDBRANCH  26  27
ENDBRANCH   1  26
TORSDOF 14
ENDMDL
MODEL 2
REMARK VINA RESULT:     -13.4      1.647      3.128
REMARK SMILES Cc1ccc(NC(=O)C[N@@H+]2CC[C@@H](C(=O)NCCCCNC(=O)c3ccc(-c4c5nc(c(-c6c(F)c(F)c(F)c(F)c6F)c6ccc([nH]6)c(-c6c(F)c(F)c(F)c(F)c6F)c6nc(c(-c7c(F)c(F)c(F)c(F)c7F)c7ccc4[nH]7)C=C6)C=C5)cc3)[C@@H]2C)cc1
REMARK SMILES IDX 18 1 17 2 16 3 14 4 15 5 13 7 10 8 11 9 87 10 12 12 88 13
REMARK SMILES IDX 9 14 7 15 6 16 8 18 5 19 1 20 2 21 3 22 90 23 4 24 89 25
REMARK SMILES IDX 19 26 20 27 21 28 22 29 23 31 24 32 25 33 86 34 26 35 85 36
REMARK SMILES IDX 27 37 28 38 29 39 79 40 30 41 84 42 78 43 80 44 31 45 83 46
REMARK SMILES IDX 77 47 76 48 32 50 64 51 44 52 63 53 45 54 48 55 62 56 81 57
REMARK SMILES IDX 46 58 47 59 61 61 82 62 49 63 33 64 34 65 42 66 35 67 36 68
REMARK SMILES IDX 40 69 43 70 37 71 38 72 41 73 39 74 65 75 66 76 74 77 67 78
REMARK SMILES IDX 68 79 72 80 75 81 69 82 70 83 73 84 71 85 50 86 51 87 59 88
REMARK SMILES IDX 52 89 53 90 57 91 60 92 54 93 55 94 58 95 56 96
REMARK H PARENT 16 6 10 11 6 17 21 30 80 49 48 60
REMARK Flexibility Score: inf
ROOT
ATOM      1  C   UNL A   1      31.569  29.303  26.879  1.00  0.00     0.023 C 
ENDROOT
BRANCH   1   2
ATOM      2  C   UNL A   1      32.112  28.031  27.533  1.00  0.00     0.116 C 
BRANCH   2   3
ATOM      3  N   UNL A   1      31.584  26.769  27.014  1.00  0.00    -0.356 N 
ATOM      4  C   UNL A   1      32.165  25.579  26.672  1.00  0.00     0.229 C 
ATOM      5  O   UNL A   1      31.425  24.590  26.774  1.00  0.00    -0.275 OA
ATOM      6  H   UNL A   1      30.608  26.779  26.882  1.00  0.00     0.163 HD
BRANCH   4   7
ATOM      7  C   UNL A   1      33.593  25.363  26.124  1.00  0.00     0.142 C 
ATOM      8  N   UNL A   1      33.790  24.054  24.284  1.00  0.00    -0.324 N 
ATOM      9  C   UNL A   1      34.402  25.256  23.781  1.00  0.00     0.263 C 
ATOM     10  C   UNL A   1      33.997  23.951  25.725  1.00  0.00     0.194 C 
ATOM     11  H   UNL A   1      32.796  24.164  24.084  1.00  0.00     0.348 HD
ATOM     12  C   UNL A   1      34.020  26.238  24.906  1.00  0.00     0.081 C 
ATOM     13  C   UNL A   1      35.434  23.697  26.203  1.00  0.00     0.076 C 
BRANCH   8  14
ATOM     14  C   UNL A   1      33.517  22.892  23.472  1.00  0.00     0.364 C 
BRANCH  14  15
ATOM     15  C   UNL A   1      32.057  22.629  23.030  1.00  0.00     0.279 C 
ATOM     16  N   UNL A   1      30.975  23.467  23.003  1.00  0.00    -0.321 N 
ATOM     17  H   UNL A   1      30.141  22.951  22.921  1.00  0.00     0.170 HD
ATOM     18  O   UNL A   1      31.768  21.447  22.764  1.00  0.00    -0.268 OA
BRANCH  16  19
ATOM     19  C   UNL A   1      30.697  24.849  23.057  1.00  0.00     0.041 A 
ATOM     20  C   UNL A   1      30.268  29.160  23.504  1.00  0.00     0.044 C 
ATOM     21  C   UNL A   1      30.412  27.687  23.279  1.00  0.00    -0.051 A 
ATOM     22  C   UNL A   1      29.671  26.824  24.064  1.00  0.00     0.005 A 
ATOM     23  C   UNL A   1      31.269  27.125  22.332  1.00  0.00     0.005 A 
ATOM     24  C   UNL A   1      29.815  25.442  23.925  1.00  0.00     0.026 A 
ATOM     25  C   UNL A   1      31.416  25.723  22.237  1.00  0.00     0.026 A 
ENDBRANCH  16  19
ENDBRANCH  14  15
ENDBRANCH   8  14
ENDBRANCH   4   7
ENDBRANCH   2   3
ENDBRANCH   1   2
BRANCH   1  26
ATOM     26  C   UNL A   1      32.553  30.472  26.880  1.00  0.00     0.023 C 
BRANCH  26  27
ATOM     27  C   UNL A   1      33.946  30.131  27.414  1.00  0.00     0.116 C 
BRANCH  27  28
ATOM     28  N   UNL A   1      34.567  31.152  28.244  1.00  0.00    -0.352 N 
ATOM     29  C   UNL A   1      35.729  31.113  29.005  1.00  0.00     0.251 C 
ATOM     30  H   UNL A   1      34.087  32.011  28.269  1.00  0.00     0.163 HD
ATOM     31  O   UNL A   1      36.001  32.060  29.720  1.00  0.00    -0.269 OA
BRANCH  29  32
ATOM     32  C   UNL A   1      36.707  29.993  28.868  1.00  0.00     0.039 A 
ATOM     33  C   UNL A   1      36.917  29.155  29.977  1.00  0.00     0.014 A 
ATOM     34  C   UNL A   1      37.511  29.836  27.745  1.00  0.00     0.014 A 
ATOM     35  C   UNL A   1      38.058  28.352  30.042  1.00  0.00     0.010 A 
ATOM     36  C   UNL A   1      38.687  29.124  27.839  1.00  0.00     0.010 A 
ATOM     37  C   UNL A   1      38.990  28.433  29.010  1.00  0.00    -0.014 A 
BRANCH  37  38
ATOM     38  C   UNL A   1      40.361  27.959  29.107  1.00  0.00     0.031 A 
ATOM     39  C   UNL A   1      40.769  26.656  28.558  1.00  0.00     0.074 A 
ATOM     40  C   UNL A   1      41.301  28.818  29.560  1.00  0.00     0.049 A 
ATOM     41  N   UNL A   1      41.785  25.988  28.992  1.00  0.00    -0.248 NA
ATOM     42  C   UNL A   1      40.065  25.996  27.465  1.00  0.00     0.031 C 
ATOM     43  C   UNL A   1      42.750  28.682  29.460  1.00  0.00     0.029 A 
ATOM     44  N   UNL A   1      41.111  29.941  30.378  1.00  0.00    -0.354 N 
ATOM     45  C   UNL A   1      42.047  25.003  28.073  1.00  0.00     0.074 A 
ATOM     46  C   UNL A   1      40.905  24.991  27.186  1.00  0.00     0.031 C 
ATOM     47  C   UNL A   1      43.321  29.453  30.398  1.00  0.00     0.029 A 
ATOM     48  C   UNL A   1      42.249  30.004  31.209  1.00  0.00     0.049 A 
ATOM     49  H   UNL A   1      40.343  30.558  30.372  1.00  0.00     0.167 HD
ATOM     50  C   UNL A   1      43.270  24.405  28.053  1.00  0.00     0.037 A 
ATOM     51  C   UNL A   1      42.146  29.871  32.563  1.00  0.00     0.037 A 
ATOM     52  C   UNL A   1      44.159  24.955  29.070  1.00  0.00     0.049 A 
ATOM     53  C   UNL A   1      42.949  28.716  33.108  1.00  0.00     0.074 A 
ATOM     54  C   UNL A   1      45.160  25.912  29.010  1.00  0.00     0.029 A 
ATOM     55  N   UNL A   1      43.860  24.787  30.419  1.00  0.00    -0.354 N 
ATOM     56  N   UNL A   1      43.332  27.702  32.383  1.00  0.00    -0.248 NA
ATOM     57  C   UNL A   1      43.365  28.596  34.500  1.00  0.00     0.031 C 
ATOM     58  C   UNL A   1      45.444  26.341  30.328  1.00  0.00     0.029 A 
ATOM     59  C   UNL A   1      44.625  25.640  31.194  1.00  0.00     0.049 A 
ATOM     60  H   UNL A   1      43.196  24.152  30.772  1.00  0.00     0.167 HD
ATOM     61  C   UNL A   1      44.020  26.812  33.164  1.00  0.00     0.074 A 
ATOM     62  C   UNL A   1      44.022  27.423  34.481  1.00  0.00     0.031 C 
ATOM     63  C   UNL A   1      44.519  25.651  32.645  1.00  0.00     0.037 A 
BRANCH  50  64
ATOM     64  C   UNL A   1      43.722  23.551  26.897  1.00  0.00     0.064 A 
ATOM     65  C   UNL A   1      43.300  22.213  26.754  1.00  0.00     0.173 A 
ATOM     66  C   UNL A   1      44.618  24.006  25.913  1.00  0.00     0.173 A 
ATOM     67  F   UNL A   1      42.397  21.669  27.578  1.00  0.00    -0.203 F 
ATOM     68  C   UNL A   1      43.812  21.369  25.766  1.00  0.00     0.198 A 
ATOM     69  C   UNL A   1      45.167  23.149  24.953  1.00  0.00     0.198 A 
ATOM     70  F   UNL A   1      44.979  25.297  25.859  1.00  0.00    -0.203 F 
ATOM     71  F   UNL A   1      43.386  20.100  25.690  1.00  0.00    -0.200 F 
ATOM     72  C   UNL A   1      44.770  21.828  24.886  1.00  0.00     0.200 A 
ATOM     73  F   UNL A   1      46.094  23.610  24.101  1.00  0.00    -0.200 F 
ATOM     74  F   UNL A   1      45.300  21.004  23.972  1.00  0.00    -0.200 F 
ENDBRANCH  50  64
BRANCH  51  75
ATOM     75  C   UNL A   1      40.838  30.339  33.091  1.00  0.00     0.064 A 
ATOM     76  C   UNL A   1      40.568  31.723  33.060  1.00  0.00     0.173 A 
ATOM     77  C   UNL A   1      39.749  29.470  33.228  1.00  0.00     0.173 A 
ATOM     78  F   UNL A   1      41.578  32.593  32.902  1.00  0.00    -0.203 F 
ATOM     79  C   UNL A   1      39.262  32.207  33.043  1.00  0.00     0.198 A 
ATOM     80  C   UNL A   1      38.441  29.961  33.228  1.00  0.00     0.198 A 
ATOM     81  F   UNL A   1      39.937  28.143  33.241  1.00  0.00    -0.203 F 
ATOM     82  F   UNL A   1      39.036  33.519  32.882  1.00  0.00    -0.200 F 
ATOM     83  C   UNL A   1      38.199  31.323  33.102  1.00  0.00     0.200 A 
ATOM     84  F   UNL A   1      37.409  29.105  33.251  1.00  0.00    -0.200 F 
ATOM     85  F   UNL A   1      36.943  31.776  32.990  1.00  0.00    -0.200 F 
ENDBRANCH  51  75
BRANCH  63  86
ATOM     86  C   UNL A   1      45.061  24.470  33.417  1.00  0.00     0.064 A 
ATOM     87  C   UNL A   1      44.330  23.302  33.687  1.00  0.00     0.173 A 
ATOM     88  C   UNL A   1      46.429  24.426  33.791  1.00  0.00     0.173 A 
ATOM     89  F   UNL A   1      43.062  23.160  33.282  1.00  0.00    -0.203 F 
ATOM     90  C   UNL A   1      44.904  22.201  34.332  1.00  0.00     0.198 A 
ATOM     91  C   UNL A   1      47.013  23.304  34.376  1.00  0.00     0.198 A 
ATOM     92  F   UNL A   1      47.255  25.460  33.572  1.00  0.00    -0.203 F 
ATOM     93  F   UNL A   1      44.149  21.128  34.603  1.00  0.00    -0.200 F 
ATOM     94  C   UNL A   1      46.246  22.195  34.662  1.00  0.00     0.200 A 
ATOM     95  F   UNL A   1      48.327  23.297  34.637  1.00  0.00    -0.200 F 
ATOM     96  F   UNL A   1      46.801  21.119  35.231  1.00  0.00    -0.200 F 
ENDBRANCH  63  86
ENDBRANCH  37  38
ENDBRANCH  29  32
ENDBRANCH  27  28
ENDBRANCH  26  27
ENDBRANCH   1  26
TORSDOF 14
ENDMDL
MODEL 3
REMARK VINA RESULT:     -13.3      1.306      3.504
REMARK SMILES Cc1ccc(NC(=O)C[N@@H+]2CC[C@@H](C(=O)NCCCCNC(=O)c3ccc(-c4c5nc(c(-c6c(F)c(F)c(F)c(F)c6F)c6ccc([nH]6)c(-c6c(F)c(F)c(F)c(F)c6F)c6nc(c(-c7c(F)c(F)c(F)c(F)c7F)c7ccc4[nH]7)C=C6)C=C5)cc3)[C@@H]2C)cc1
REMARK SMILES IDX 18 1 17 2 16 3 14 4 15 5 13 7 10 8 11 9 87 10 12 12 88 13
REMARK SMILES IDX 9 14 7 15 6 16 8 18 5 19 1 20 2 21 3 22 90 23 4 24 89 25
REMARK SMILES IDX 19 26 20 27 21 28 22 29 23 31 24 32 25 33 86 34 26 35 85 36
REMARK SMILES IDX 27 37 28 38 29 39 79 40 30 41 84 42 78 43 80 44 31 45 83 46
REMARK SMILES IDX 77 47 76 48 32 50 64 51 44 52 63 53 45 54 48 55 62 56 81 57
REMARK SMILES IDX 46 58 47 59 61 61 82 62 49 63 33 64 34 65 42 66 35 67 36 68
REMARK SMILES IDX 40 69 43 70 37 71 38 72 41 73 39 74 65 75 66 76 74 77 67 78
REMARK SMILES IDX 68 79 72 80 75 81 69 82 70 83 73 84 71 85 50 86 51 87 59 88
REMARK SMILES IDX 52 89 53 90 57 91 60 92 54 93 55 94 58 95 56 96
REMARK H PARENT 16 6 10 11 6 17 21 30 80 49 48 60
REMARK Flexibility Score: inf
ROOT
ATOM      1  C   UNL A   1      32.587  27.900  27.190  1.00  0.00     0.023 C 
ENDROOT
BRANCH   1   2
ATOM      2  C   UNL A   1      31.665  27.313  26.118  1.00  0.00     0.116 C 
BRANCH   2   3
ATOM      3  N   UNL A   1      30.996  26.060  26.466  1.00  0.00    -0.356 N 
ATOM      4  C   UNL A   1      31.402  24.754  26.488  1.00  0.00     0.229 C 
ATOM      5  O   UNL A   1      30.802  24.035  27.299  1.00  0.00    -0.275 OA
ATOM      6  H   UNL A   1      30.058  26.181  26.741  1.00  0.00     0.163 HD
BRANCH   4   7
ATOM      7  C   UNL A   1      32.462  24.094  25.579  1.00  0.00     0.142 C 
ATOM      8  N   UNL A   1      33.596  25.464  24.175  1.00  0.00    -0.324 N 
ATOM      9  C   UNL A   1      34.706  24.903  24.898  1.00  0.00     0.263 C 
ATOM     10  C   UNL A   1      32.500  24.504  24.114  1.00  0.00     0.194 C 
ATOM     11  H   UNL A   1      33.313  26.278  24.720  1.00  0.00     0.348 HD
ATOM     12  C   UNL A   1      33.948  24.197  26.040  1.00  0.00     0.081 C 
ATOM     13  C   UNL A   1      32.725  23.248  23.258  1.00  0.00     0.076 C 
BRANCH   8  14
ATOM     14  C   UNL A   1      33.723  26.531  23.210  1.00  0.00     0.364 C 
BRANCH  14  15
ATOM     15  C   UNL A   1      32.855  26.471  21.929  1.00  0.00     0.279 C 
ATOM     16  N   UNL A   1      31.612  26.985  21.677  1.00  0.00    -0.321 N 
ATOM     17  H   UNL A   1      31.223  26.567  20.875  1.00  0.00     0.170 HD
ATOM     18  O   UNL A   1      33.283  25.748  21.009  1.00  0.00    -0.268 OA
BRANCH  16  19
ATOM     19  C   UNL A   1      30.720  27.932  22.221  1.00  0.00     0.041 A 
ATOM     20  C   UNL A   1      27.656  30.748  23.507  1.00  0.00     0.044 C 
ATOM     21  C   UNL A   1      28.705  29.749  23.131  1.00  0.00    -0.051 A 
ATOM     22  C   UNL A   1      29.831  30.195  22.463  1.00  0.00     0.005 A 
ATOM     23  C   UNL A   1      28.610  28.383  23.395  1.00  0.00     0.005 A 
ATOM     24  C   UNL A   1      30.808  29.291  22.044  1.00  0.00     0.026 A 
ATOM     25  C   UNL A   1      29.601  27.489  22.931  1.00  0.00     0.026 A 
ENDBRANCH  16  19
ENDBRANCH  14  15
ENDBRANCH   8  14
ENDBRANCH   4   7
ENDBRANCH   2   3
ENDBRANCH   1   2
BRANCH   1  26
ATOM     26  C   UNL A   1      32.395  29.398  27.424  1.00  0.00     0.023 C 
BRANCH  26  27
ATOM     27  C   UNL A   1      33.549  30.271  26.927  1.00  0.00     0.116 C 
BRANCH  27  28
ATOM     28  N   UNL A   1      34.057  31.243  27.884  1.00  0.00    -0.352 N 
ATOM     29  C   UNL A   1      35.150  31.181  28.740  1.00  0.00     0.251 C 
ATOM     30  H   UNL A   1      33.543  32.082  27.932  1.00  0.00     0.163 HD
ATOM     31  O   UNL A   1      35.323  32.077  29.546  1.00  0.00    -0.269 OA
BRANCH  29  32
ATOM     32  C   UNL A   1      36.179  30.107  28.605  1.00  0.00     0.039 A 
ATOM     33  C   UNL A   1      36.468  29.320  29.734  1.00  0.00     0.014 A 
ATOM     34  C   UNL A   1      36.951  29.952  27.460  1.00  0.00     0.014 A 
ATOM     35  C   UNL A   1      37.651  28.578  29.784  1.00  0.00     0.010 A 
ATOM     36  C   UNL A   1      38.165  29.303  27.536  1.00  0.00     0.010 A 
ATOM     37  C   UNL A   1      38.542  28.669  28.717  1.00  0.00    -0.014 A 
BRANCH  37  38
ATOM     38  C   UNL A   1      39.938  28.268  28.782  1.00  0.00     0.031 A 
ATOM     39  C   UNL A   1      40.380  26.935  28.342  1.00  0.00     0.074 A 
ATOM     40  C   UNL A   1      40.857  29.209  29.093  1.00  0.00     0.049 A 
ATOM     41  N   UNL A   1      41.450  26.360  28.780  1.00  0.00    -0.248 NA
ATOM     42  C   UNL A   1      39.653  26.137  27.361  1.00  0.00     0.031 C 
ATOM     43  C   UNL A   1      42.303  29.127  28.923  1.00  0.00     0.029 A 
ATOM     44  N   UNL A   1      40.655  30.400  29.805  1.00  0.00    -0.354 N 
ATOM     45  C   UNL A   1      41.710  25.299  27.949  1.00  0.00     0.074 A 
ATOM     46  C   UNL A   1      40.524  25.147  27.135  1.00  0.00     0.031 C 
ATOM     47  C   UNL A   1      42.885  30.014  29.746  1.00  0.00     0.029 A 
ATOM     48  C   UNL A   1      41.831  30.597  30.559  1.00  0.00     0.049 A 
ATOM     49  H   UNL A   1      39.859  30.978  29.783  1.00  0.00     0.167 HD
ATOM     50  C   UNL A   1      42.959  24.756  27.918  1.00  0.00     0.037 A 
ATOM     51  C   UNL A   1      41.808  30.597  31.923  1.00  0.00     0.037 A 
ATOM     52  C   UNL A   1      43.872  25.446  28.823  1.00  0.00     0.049 A 
ATOM     53  C   UNL A   1      42.694  29.540  32.531  1.00  0.00     0.074 A 
ATOM     54  C   UNL A   1      44.820  26.434  28.611  1.00  0.00     0.029 A 
ATOM     55  N   UNL A   1      43.654  25.402  30.196  1.00  0.00    -0.354 N 
ATOM     56  N   UNL A   1      43.088  28.475  31.890  1.00  0.00    -0.248 NA
ATOM     57  C   UNL A   1      43.190  29.580  33.903  1.00  0.00     0.031 C 
ATOM     58  C   UNL A   1      45.152  27.007  29.861  1.00  0.00     0.029 A 
ATOM     59  C   UNL A   1      44.416  26.361  30.837  1.00  0.00     0.049 A 
ATOM     60  H   UNL A   1      43.042  24.778  30.648  1.00  0.00     0.167 HD
ATOM     61  C   UNL A   1      43.860  27.700  32.714  1.00  0.00     0.074 A 
ATOM     62  C   UNL A   1      43.902  28.441  33.962  1.00  0.00     0.031 C 
ATOM     63  C   UNL A   1      44.387  26.516  32.284  1.00  0.00     0.037 A 
BRANCH  50  64
ATOM     64  C   UNL A   1      43.390  23.810  26.828  1.00  0.00     0.064 A 
ATOM     65  C   UNL A   1      43.061  22.440  26.862  1.00  0.00     0.173 A 
ATOM     66  C   UNL A   1      44.178  24.210  25.733  1.00  0.00     0.173 A 
ATOM     67  F   UNL A   1      42.262  21.932  27.808  1.00  0.00    -0.203 F 
ATOM     68  C   UNL A   1      43.562  21.526  25.933  1.00  0.00     0.198 A 
ATOM     69  C   UNL A   1      44.719  23.290  24.830  1.00  0.00     0.198 A 
ATOM     70  F   UNL A   1      44.436  25.509  25.513  1.00  0.00    -0.203 F 
ATOM     71  F   UNL A   1      43.229  20.231  26.026  1.00  0.00    -0.200 F 
ATOM     72  C   UNL A   1      44.419  21.946  24.936  1.00  0.00     0.200 A 
ATOM     73  F   UNL A   1      45.547  23.713  23.863  1.00  0.00    -0.200 F 
ATOM     74  F   UNL A   1      44.943  21.062  24.077  1.00  0.00    -0.200 F 
ENDBRANCH  50  64
BRANCH  51  75
ATOM     75  C   UNL A   1      40.508  31.058  32.477  1.00  0.00     0.064 A 
ATOM     76  C   UNL A   1      40.186  32.427  32.359  1.00  0.00     0.173 A 
ATOM     77  C   UNL A   1      39.459  30.166  32.726  1.00  0.00     0.173 A 
ATOM     78  F   UNL A   1      41.156  33.316  32.093  1.00  0.00    -0.203 F 
ATOM     79  C   UNL A   1      38.864  32.864  32.369  1.00  0.00     0.198 A 
ATOM     80  C   UNL A   1      38.135  30.612  32.752  1.00  0.00     0.198 A 
ATOM     81  F   UNL A   1      39.696  28.850  32.826  1.00  0.00    -0.203 F 
ATOM     82  F   UNL A   1      38.582  34.152  32.125  1.00  0.00    -0.200 F 
ATOM     83  C   UNL A   1      37.837  31.952  32.541  1.00  0.00     0.200 A 
ATOM     84  F   UNL A   1      37.137  29.726  32.885  1.00  0.00    -0.200 F 
ATOM     85  F   UNL A   1      36.562  32.353  32.456  1.00  0.00    -0.200 F 
ENDBRANCH  51  75
BRANCH  63  86
ATOM     86  C   UNL A   1      45.027  25.444  33.137  1.00  0.00     0.064 A 
ATOM     87  C   UNL A   1      46.408  25.194  33.186  1.00  0.00     0.173 A 
ATOM     88  C   UNL A   1      44.248  24.715  34.072  1.00  0.00     0.173 A 
ATOM     89  F   UNL A   1      47.273  25.896  32.445  1.00  0.00    -0.203 F 
ATOM     90  C   UNL A   1      46.960  24.248  34.057  1.00  0.00     0.198 A 
ATOM     91  C   UNL A   1      44.808  23.819  34.982  1.00  0.00     0.198 A 
ATOM     92  F   UNL A   1      42.918  24.868  34.157  1.00  0.00    -0.203 F 
ATOM     93  F   UNL A   1      48.279  24.019  34.032  1.00  0.00    -0.200 F 
ATOM     94  C   UNL A   1      46.164  23.573  34.963  1.00  0.00     0.200 A 
ATOM     95  F   UNL A   1      44.028  23.217  35.889  1.00  0.00    -0.200 F 
ATOM     96  F   UNL A   1      46.704  22.708  35.830  1.00  0.00    -0.200 F 
ENDBRANCH  63  86
ENDBRANCH  37  38
ENDBRANCH  29  32
ENDBRANCH  27  28
ENDBRANCH  26  27
ENDBRANCH   1  26
TORSDOF 14
ENDMDL
