MODEL 1
REMARK VINA RESULT:     -11.9      0.000      0.000
REMARK SMILES COC(=O)CNC(=O)N1[C@@H](C(=O)NCCCCNC(=O)c2ccc(-c3c4nc(c(-c5c(F)c(F)c(F)c(F)c5F)c5ccc([nH]5)c(-c5c(F)c(F)c(F)c(F)c5F)c5nc(c(-c6c(F)c(F)c(F)c(F)c6F)c6ccc3[nH]6)C=C5)C=C4)cc2)CC[C@@H]2CCCC[C@H]21
REMARK SMILES IDX 14 1 13 2 11 3 12 4 10 6 9 7 91 8 84 9 86 10 90 11 85 12
REMARK SMILES IDX 87 13 89 14 88 15 7 16 6 17 8 19 5 20 3 21 4 22 2 23 1 24
REMARK SMILES IDX 15 25 16 26 17 27 18 28 19 29 20 31 21 32 22 33 83 34 23 35
REMARK SMILES IDX 82 36 24 37 25 38 26 39 76 40 27 41 81 42 75 43 77 44 28 45
REMARK SMILES IDX 80 46 74 47 73 48 29 50 61 51 41 52 60 53 42 54 45 55 59 56
REMARK SMILES IDX 78 57 43 58 44 59 58 61 79 62 46 63 30 64 31 65 39 66 32 67
REMARK SMILES IDX 33 68 37 69 40 70 34 71 35 72 38 73 36 74 62 75 63 76 71 77
REMARK SMILES IDX 64 78 65 79 69 80 72 81 66 82 67 83 70 84 68 85 47 86 48 87
REMARK SMILES IDX 56 88 49 89 50 90 54 91 57 92 51 93 52 94 55 95 53 96
REMARK H PARENT 13 5 6 18 18 30 77 49 45 60
REMARK Flexibility Score: inf
ROOT
ATOM      1  C   UNL A   1      32.026  30.106  25.386  1.00  0.00     0.116 C 
ENDROOT
BRANCH   1   2
ATOM      2  N   UNL A   1      30.973  29.323  24.767  1.00  0.00    -0.354 N 
ATOM      3  C   UNL A   1      30.797  27.974  24.752  1.00  0.00     0.242 C 
ATOM      4  O   UNL A   1      29.959  27.519  23.966  1.00  0.00    -0.273 OA
ATOM      5  H   UNL A   1      30.287  29.843  24.289  1.00  0.00     0.163 HD
BRANCH   3   6
ATOM      6  C   UNL A   1      31.680  27.024  25.593  1.00  0.00     0.176 C 
ATOM      7  N   UNL A   1      32.925  26.539  24.944  1.00  0.00    -0.310 N 
ATOM      8  C   UNL A   1      33.594  25.385  25.614  1.00  0.00     0.091 C 
ATOM      9  C   UNL A   1      30.729  25.881  26.018  1.00  0.00     0.036 C 
ATOM     10  C   UNL A   1      32.603  24.227  25.867  1.00  0.00     0.012 C 
ATOM     11  C   UNL A   1      34.885  24.850  24.955  1.00  0.00     0.025 C 
ATOM     12  C   UNL A   1      31.424  24.724  26.704  1.00  0.00     0.008 C 
ATOM     13  C   UNL A   1      33.253  23.032  26.584  1.00  0.00     0.006 C 
ATOM     14  C   UNL A   1      35.510  23.700  25.738  1.00  0.00     0.002 C 
ATOM     15  C   UNL A   1      34.524  22.556  25.897  1.00  0.00     0.000 C 
BRANCH   7  16
ATOM     16  C   UNL A   1      33.595  27.219  23.958  1.00  0.00     0.318 C 
ATOM     17  N   UNL A   1      33.442  26.958  22.651  1.00  0.00    -0.327 N 
ATOM     18  H   UNL A   1      34.178  27.324  22.110  1.00  0.00     0.166 HD
ATOM     19  O   UNL A   1      34.436  28.085  24.212  1.00  0.00    -0.249 OA
BRANCH  17  20
ATOM     20  C   UNL A   1      32.452  26.263  21.838  1.00  0.00     0.240 C 
BRANCH  20  21
ATOM     21  C   UNL A   1      33.018  25.169  20.943  1.00  0.00     0.325 C 
ATOM     22  O   UNL A   1      32.981  25.217  19.719  1.00  0.00    -0.250 OA
BRANCH  21  23
ATOM     23  O   UNL A   1      33.712  24.242  21.661  1.00  0.00    -0.468 OA
ATOM     24  C   UNL A   1      32.884  23.269  22.297  1.00  0.00     0.282 C 
ENDBRANCH  21  23
ENDBRANCH  20  21
ENDBRANCH  17  20
ENDBRANCH   7  16
ENDBRANCH   3   6
ENDBRANCH   1   2
BRANCH   1  25
ATOM     25  C   UNL A   1      31.528  30.711  26.695  1.00  0.00     0.023 C 
BRANCH  25  26
ATOM     26  C   UNL A   1      31.465  32.239  26.685  1.00  0.00     0.023 C 
BRANCH  26  27
ATOM     27  C   UNL A   1      32.690  32.921  27.277  1.00  0.00     0.116 C 
BRANCH  27  28
ATOM     28  N   UNL A   1      32.443  34.317  27.608  1.00  0.00    -0.352 N 
ATOM     29  C   UNL A   1      33.007  35.070  28.606  1.00  0.00     0.251 C 
ATOM     30  H   UNL A   1      31.785  34.781  27.040  1.00  0.00     0.163 HD
ATOM     31  O   UNL A   1      32.566  36.182  28.878  1.00  0.00    -0.269 OA
BRANCH  29  32
ATOM     32  C   UNL A   1      34.139  34.512  29.369  1.00  0.00     0.039 A 
ATOM     33  C   UNL A   1      33.879  33.663  30.445  1.00  0.00     0.014 A 
ATOM     34  C   UNL A   1      35.454  34.805  28.994  1.00  0.00     0.014 A 
ATOM     35  C   UNL A   1      34.944  33.065  31.118  1.00  0.00     0.010 A 
ATOM     36  C   UNL A   1      36.508  34.141  29.608  1.00  0.00     0.010 A 
ATOM     37  C   UNL A   1      36.265  33.276  30.686  1.00  0.00    -0.014 A 
BRANCH  37  38
ATOM     38  C   UNL A   1      37.411  32.627  31.370  1.00  0.00     0.031 A 
ATOM     39  C   UNL A   1      38.122  31.479  30.708  1.00  0.00     0.074 A 
ATOM     40  C   UNL A   1      37.775  33.033  32.601  1.00  0.00     0.049 A 
ATOM     41  N   UNL A   1      39.100  30.738  31.161  1.00  0.00    -0.248 NA
ATOM     42  C   UNL A   1      37.649  31.093  29.368  1.00  0.00     0.031 C 
ATOM     43  C   UNL A   1      37.133  34.104  33.365  1.00  0.00     0.029 A 
ATOM     44  N   UNL A   1      38.770  32.583  33.432  1.00  0.00    -0.354 N 
ATOM     45  C   UNL A   1      39.347  29.795  30.173  1.00  0.00     0.074 A 
ATOM     46  C   UNL A   1      38.375  30.014  29.125  1.00  0.00     0.031 C 
ATOM     47  C   UNL A   1      37.768  34.248  34.539  1.00  0.00     0.029 A 
ATOM     48  C   UNL A   1      38.833  33.255  34.629  1.00  0.00     0.049 A 
ATOM     49  H   UNL A   1      39.382  31.849  33.193  1.00  0.00     0.167 HD
ATOM     50  C   UNL A   1      40.317  28.851  30.128  1.00  0.00     0.037 A 
ATOM     51  C   UNL A   1      39.656  33.081  35.681  1.00  0.00     0.037 A 
ATOM     52  C   UNL A   1      41.297  28.653  31.163  1.00  0.00     0.049 A 
ATOM     53  C   UNL A   1      40.717  32.014  35.612  1.00  0.00     0.074 A 
ATOM     54  C   UNL A   1      42.351  27.758  31.193  1.00  0.00     0.029 A 
ATOM     55  N   UNL A   1      41.339  29.364  32.354  1.00  0.00    -0.354 N 
ATOM     56  N   UNL A   1      40.986  31.172  34.643  1.00  0.00    -0.248 NA
ATOM     57  C   UNL A   1      41.597  31.880  36.781  1.00  0.00     0.031 C 
ATOM     58  C   UNL A   1      43.000  27.890  32.426  1.00  0.00     0.029 A 
ATOM     59  C   UNL A   1      42.390  28.911  33.136  1.00  0.00     0.049 A 
ATOM     60  H   UNL A   1      40.715  30.082  32.606  1.00  0.00     0.167 HD
ATOM     61  C   UNL A   1      42.084  30.438  35.068  1.00  0.00     0.074 A 
ATOM     62  C   UNL A   1      42.441  30.942  36.378  1.00  0.00     0.031 C 
ATOM     63  C   UNL A   1      42.741  29.437  34.431  1.00  0.00     0.037 A 
BRANCH  50  64
ATOM     64  C   UNL A   1      40.366  27.964  28.916  1.00  0.00     0.064 A 
ATOM     65  C   UNL A   1      39.662  26.751  28.861  1.00  0.00     0.173 A 
ATOM     66  C   UNL A   1      41.103  28.345  27.783  1.00  0.00     0.173 A 
ATOM     67  F   UNL A   1      38.953  26.334  29.920  1.00  0.00    -0.203 F 
ATOM     68  C   UNL A   1      39.722  25.936  27.733  1.00  0.00     0.198 A 
ATOM     69  C   UNL A   1      41.132  27.544  26.644  1.00  0.00     0.198 A 
ATOM     70  F   UNL A   1      41.791  29.496  27.778  1.00  0.00    -0.203 F 
ATOM     71  F   UNL A   1      39.088  24.756  27.728  1.00  0.00    -0.200 F 
ATOM     72  C   UNL A   1      40.449  26.337  26.623  1.00  0.00     0.200 A 
ATOM     73  F   UNL A   1      41.823  27.940  25.566  1.00  0.00    -0.200 F 
ATOM     74  F   UNL A   1      40.498  25.557  25.535  1.00  0.00    -0.200 F 
ENDBRANCH  50  64
BRANCH  51  75
ATOM     75  C   UNL A   1      39.531  33.954  36.878  1.00  0.00     0.064 A 
ATOM     76  C   UNL A   1      40.185  35.193  36.938  1.00  0.00     0.173 A 
ATOM     77  C   UNL A   1      38.772  33.564  37.991  1.00  0.00     0.173 A 
ATOM     78  F   UNL A   1      40.938  35.602  35.906  1.00  0.00    -0.203 F 
ATOM     79  C   UNL A   1      40.107  35.995  38.074  1.00  0.00     0.198 A 
ATOM     80  C   UNL A   1      38.669  34.382  39.115  1.00  0.00     0.198 A 
ATOM     81  F   UNL A   1      38.121  32.392  37.984  1.00  0.00    -0.203 F 
ATOM     82  F   UNL A   1      40.786  37.150  38.124  1.00  0.00    -0.200 F 
ATOM     83  C   UNL A   1      39.345  35.592  39.160  1.00  0.00     0.200 A 
ATOM     84  F   UNL A   1      37.919  33.995  40.156  1.00  0.00    -0.200 F 
ATOM     85  F   UNL A   1      39.270  36.364  40.252  1.00  0.00    -0.200 F 
ENDBRANCH  51  75
BRANCH  63  86
ATOM     86  C   UNL A   1      43.945  28.856  35.114  1.00  0.00     0.064 A 
ATOM     87  C   UNL A   1      45.229  29.393  34.940  1.00  0.00     0.173 A 
ATOM     88  C   UNL A   1      43.803  27.768  35.991  1.00  0.00     0.173 A 
ATOM     89  F   UNL A   1      45.421  30.425  34.105  1.00  0.00    -0.203 F 
ATOM     90  C   UNL A   1      46.328  28.844  35.594  1.00  0.00     0.198 A 
ATOM     91  C   UNL A   1      44.899  27.244  36.669  1.00  0.00     0.198 A 
ATOM     92  F   UNL A   1      42.595  27.221  36.200  1.00  0.00    -0.203 F 
ATOM     93  F   UNL A   1      47.554  29.340  35.371  1.00  0.00    -0.200 F 
ATOM     94  C   UNL A   1      46.163  27.777  36.464  1.00  0.00     0.200 A 
ATOM     95  F   UNL A   1      44.733  26.224  37.522  1.00  0.00    -0.200 F 
ATOM     96  F   UNL A   1      47.221  27.256  37.099  1.00  0.00    -0.200 F 
ENDBRANCH  63  86
ENDBRANCH  37  38
ENDBRANCH  29  32
ENDBRANCH  27  28
ENDBRANCH  26  27
ENDBRANCH  25  26
ENDBRANCH   1  25
TORSDOF 15
ENDMDL
MODEL 2
REMARK VINA RESULT:     -11.8      1.245      2.275
REMARK SMILES COC(=O)CNC(=O)N1[C@@H](C(=O)NCCCCNC(=O)c2ccc(-c3c4nc(c(-c5c(F)c(F)c(F)c(F)c5F)c5ccc([nH]5)c(-c5c(F)c(F)c(F)c(F)c5F)c5nc(c(-c6c(F)c(F)c(F)c(F)c6F)c6ccc3[nH]6)C=C5)C=C4)cc2)CC[C@@H]2CCCC[C@H]21
REMARK SMILES IDX 14 1 13 2 11 3 12 4 10 6 9 7 91 8 84 9 86 10 90 11 85 12
REMARK SMILES IDX 87 13 89 14 88 15 7 16 6 17 8 19 5 20 3 21 4 22 2 23 1 24
REMARK SMILES IDX 15 25 16 26 17 27 18 28 19 29 20 31 21 32 22 33 83 34 23 35
REMARK SMILES IDX 82 36 24 37 25 38 26 39 76 40 27 41 81 42 75 43 77 44 28 45
REMARK SMILES IDX 80 46 74 47 73 48 29 50 61 51 41 52 60 53 42 54 45 55 59 56
REMARK SMILES IDX 78 57 43 58 44 59 58 61 79 62 46 63 30 64 31 65 39 66 32 67
REMARK SMILES IDX 33 68 37 69 40 70 34 71 35 72 38 73 36 74 62 75 63 76 71 77
REMARK SMILES IDX 64 78 65 79 69 80 72 81 66 82 67 83 70 84 68 85 47 86 48 87
REMARK SMILES IDX 56 88 49 89 50 90 54 91 57 92 51 93 52 94 55 95 53 96
REMARK H PARENT 13 5 6 18 18 30 77 49 45 60
REMARK Flexibility Score: inf
ROOT
ATOM      1  C   UNL A   1      31.747  30.052  25.459  1.00  0.00     0.116 C 
ENDROOT
BRANCH   1   2
ATOM      2  N   UNL A   1      31.630  29.231  26.649  1.00  0.00    -0.354 N 
ATOM      3  C   UNL A   1      31.750  27.882  26.781  1.00  0.00     0.242 C 
ATOM      4  O   UNL A   1      31.380  27.380  27.848  1.00  0.00    -0.273 OA
ATOM      5  H   UNL A   1      31.437  29.721  27.481  1.00  0.00     0.163 HD
BRANCH   3   6
ATOM      6  C   UNL A   1      32.220  26.984  25.614  1.00  0.00     0.176 C 
ATOM      7  N   UNL A   1      31.373  25.801  25.315  1.00  0.00    -0.310 N 
ATOM      8  C   UNL A   1      31.993  24.774  24.426  1.00  0.00     0.091 C 
ATOM      9  C   UNL A   1      33.680  26.616  25.968  1.00  0.00     0.036 C 
ATOM     10  C   UNL A   1      33.389  24.352  24.937  1.00  0.00     0.012 C 
ATOM     11  C   UNL A   1      31.141  23.525  24.106  1.00  0.00     0.025 C 
ATOM     12  C   UNL A   1      34.294  25.580  25.051  1.00  0.00     0.008 C 
ATOM     13  C   UNL A   1      34.069  23.316  24.027  1.00  0.00     0.006 C 
ATOM     14  C   UNL A   1      31.848  22.559  23.161  1.00  0.00     0.002 C 
ATOM     15  C   UNL A   1      33.180  22.115  23.739  1.00  0.00     0.000 C 
BRANCH   7  16
ATOM     16  C   UNL A   1      30.031  25.725  25.590  1.00  0.00     0.318 C 
ATOM     17  N   UNL A   1      29.086  26.244  24.792  1.00  0.00    -0.327 N 
ATOM     18  H   UNL A   1      28.225  26.352  25.255  1.00  0.00     0.166 HD
ATOM     19  O   UNL A   1      29.602  25.221  26.631  1.00  0.00    -0.249 OA
BRANCH  17  20
ATOM     20  C   UNL A   1      29.026  26.688  23.404  1.00  0.00     0.240 C 
BRANCH  20  21
ATOM     21  C   UNL A   1      29.765  27.989  23.121  1.00  0.00     0.325 C 
ATOM     22  O   UNL A   1      30.839  28.036  22.532  1.00  0.00    -0.250 OA
BRANCH  21  23
ATOM     23  O   UNL A   1      29.009  29.076  23.440  1.00  0.00    -0.468 OA
ATOM     24  C   UNL A   1      27.775  29.149  22.728  1.00  0.00     0.282 C 
ENDBRANCH  21  23
ENDBRANCH  20  21
ENDBRANCH  17  20
ENDBRANCH   7  16
ENDBRANCH   3   6
ENDBRANCH   1   2
BRANCH   1  25
ATOM     25  C   UNL A   1      31.132  31.426  25.709  1.00  0.00     0.023 C 
BRANCH  25  26
ATOM     26  C   UNL A   1      31.398  31.978  27.110  1.00  0.00     0.023 C 
BRANCH  26  27
ATOM     27  C   UNL A   1      32.672  32.803  27.226  1.00  0.00     0.116 C 
BRANCH  27  28
ATOM     28  N   UNL A   1      32.402  34.196  27.553  1.00  0.00    -0.352 N 
ATOM     29  C   UNL A   1      32.963  34.964  28.541  1.00  0.00     0.251 C 
ATOM     30  H   UNL A   1      31.731  34.645  26.990  1.00  0.00     0.163 HD
ATOM     31  O   UNL A   1      32.505  36.070  28.813  1.00  0.00    -0.269 OA
BRANCH  29  32
ATOM     32  C   UNL A   1      34.114  34.431  29.294  1.00  0.00     0.039 A 
ATOM     33  C   UNL A   1      33.885  33.752  30.491  1.00  0.00     0.014 A 
ATOM     34  C   UNL A   1      35.411  34.576  28.795  1.00  0.00     0.014 A 
ATOM     35  C   UNL A   1      34.959  33.172  31.166  1.00  0.00     0.010 A 
ATOM     36  C   UNL A   1      36.466  33.924  29.421  1.00  0.00     0.010 A 
ATOM     37  C   UNL A   1      36.253  33.228  30.621  1.00  0.00    -0.014 A 
BRANCH  37  38
ATOM     38  C   UNL A   1      37.405  32.594  31.307  1.00  0.00     0.031 A 
ATOM     39  C   UNL A   1      38.143  31.467  30.639  1.00  0.00     0.074 A 
ATOM     40  C   UNL A   1      37.751  32.993  32.546  1.00  0.00     0.049 A 
ATOM     41  N   UNL A   1      39.132  30.739  31.093  1.00  0.00    -0.248 NA
ATOM     42  C   UNL A   1      37.689  31.087  29.292  1.00  0.00     0.031 C 
ATOM     43  C   UNL A   1      37.082  34.043  33.316  1.00  0.00     0.029 A 
ATOM     44  N   UNL A   1      38.747  32.553  33.381  1.00  0.00    -0.354 N 
ATOM     45  C   UNL A   1      39.405  29.812  30.097  1.00  0.00     0.074 A 
ATOM     46  C   UNL A   1      38.438  30.024  29.043  1.00  0.00     0.031 C 
ATOM     47  C   UNL A   1      37.705  34.186  34.497  1.00  0.00     0.029 A 
ATOM     48  C   UNL A   1      38.787  33.212  34.585  1.00  0.00     0.049 A 
ATOM     49  H   UNL A   1      39.375  31.833  33.139  1.00  0.00     0.167 HD
ATOM     50  C   UNL A   1      40.393  28.888  30.050  1.00  0.00     0.037 A 
ATOM     51  C   UNL A   1      39.604  33.042  35.643  1.00  0.00     0.037 A 
ATOM     52  C   UNL A   1      41.368  28.696  31.091  1.00  0.00     0.049 A 
ATOM     53  C   UNL A   1      40.686  31.997  35.571  1.00  0.00     0.074 A 
ATOM     54  C   UNL A   1      42.438  27.822  31.121  1.00  0.00     0.029 A 
ATOM     55  N   UNL A   1      41.386  29.395  32.290  1.00  0.00    -0.354 N 
ATOM     56  N   UNL A   1      40.979  31.171  34.596  1.00  0.00    -0.248 NA
ATOM     57  C   UNL A   1      41.558  31.867  36.747  1.00  0.00     0.031 C 
ATOM     58  C   UNL A   1      43.074  27.953  32.361  1.00  0.00     0.029 A 
ATOM     59  C   UNL A   1      42.439  28.953  33.076  1.00  0.00     0.049 A 
ATOM     60  H   UNL A   1      40.746  30.098  32.545  1.00  0.00     0.167 HD
ATOM     61  C   UNL A   1      42.088  30.453  35.023  1.00  0.00     0.074 A 
ATOM     62  C   UNL A   1      42.424  30.949  36.341  1.00  0.00     0.031 C 
ATOM     63  C   UNL A   1      42.769  29.471  34.380  1.00  0.00     0.037 A 
BRANCH  50  64
ATOM     64  C   UNL A   1      40.470  28.015  28.828  1.00  0.00     0.064 A 
ATOM     65  C   UNL A   1      39.784  26.792  28.752  1.00  0.00     0.173 A 
ATOM     66  C   UNL A   1      41.213  28.419  27.709  1.00  0.00     0.173 A 
ATOM     67  F   UNL A   1      39.069  26.353  29.798  1.00  0.00    -0.203 F 
ATOM     68  C   UNL A   1      39.869  25.991  27.616  1.00  0.00     0.198 A 
ATOM     69  C   UNL A   1      41.267  27.632  26.562  1.00  0.00     0.198 A 
ATOM     70  F   UNL A   1      41.884  29.581  27.725  1.00  0.00    -0.203 F 
ATOM     71  F   UNL A   1      39.253  24.802  27.590  1.00  0.00    -0.200 F 
ATOM     72  C   UNL A   1      40.603  26.416  26.519  1.00  0.00     0.200 A 
ATOM     73  F   UNL A   1      41.965  28.050  25.497  1.00  0.00    -0.200 F 
ATOM     74  F   UNL A   1      40.676  25.648  25.423  1.00  0.00    -0.200 F 
ENDBRANCH  50  64
BRANCH  51  75
ATOM     75  C   UNL A   1      39.452  33.899  36.848  1.00  0.00     0.064 A 
ATOM     76  C   UNL A   1      40.066  35.158  36.919  1.00  0.00     0.173 A 
ATOM     77  C   UNL A   1      38.708  33.475  37.958  1.00  0.00     0.173 A 
ATOM     78  F   UNL A   1      40.805  35.601  35.891  1.00  0.00    -0.203 F 
ATOM     79  C   UNL A   1      39.964  35.947  38.063  1.00  0.00     0.198 A 
ATOM     80  C   UNL A   1      38.580  34.279  39.090  1.00  0.00     0.198 A 
ATOM     81  F   UNL A   1      38.095  32.282  37.941  1.00  0.00    -0.203 F 
ATOM     82  F   UNL A   1      40.605  37.122  38.124  1.00  0.00    -0.200 F 
ATOM     83  C   UNL A   1      39.216  35.509  39.145  1.00  0.00     0.200 A 
ATOM     84  F   UNL A   1      37.843  33.858  40.128  1.00  0.00    -0.200 F 
ATOM     85  F   UNL A   1      39.117  36.267  40.246  1.00  0.00    -0.200 F 
ENDBRANCH  51  75
BRANCH  63  86
ATOM     86  C   UNL A   1      43.978  28.906  35.068  1.00  0.00     0.064 A 
ATOM     87  C   UNL A   1      43.885  27.843  35.978  1.00  0.00     0.173 A 
ATOM     88  C   UNL A   1      45.255  29.411  34.777  1.00  0.00     0.173 A 
ATOM     89  F   UNL A   1      42.686  27.333  36.301  1.00  0.00    -0.203 F 
ATOM     90  C   UNL A   1      45.022  27.328  36.594  1.00  0.00     0.198 A 
ATOM     91  C   UNL A   1      46.393  28.869  35.369  1.00  0.00     0.198 A 
ATOM     92  F   UNL A   1      45.402  30.422  33.907  1.00  0.00    -0.203 F 
ATOM     93  F   UNL A   1      44.904  26.348  37.502  1.00  0.00    -0.200 F 
ATOM     94  C   UNL A   1      46.275  27.834  36.283  1.00  0.00     0.200 A 
ATOM     95  F   UNL A   1      47.604  29.350  35.053  1.00  0.00    -0.200 F 
ATOM     96  F   UNL A   1      47.368  27.330  36.871  1.00  0.00    -0.200 F 
ENDBRANCH  63  86
ENDBRANCH  37  38
ENDBRANCH  29  32
ENDBRANCH  27  28
ENDBRANCH  26  27
ENDBRANCH  25  26
ENDBRANCH   1  25
TORSDOF 15
ENDMDL
MODEL 3
REMARK VINA RESULT:     -11.8      0.621      7.258
REMARK SMILES COC(=O)CNC(=O)N1[C@@H](C(=O)NCCCCNC(=O)c2ccc(-c3c4nc(c(-c5c(F)c(F)c(F)c(F)c5F)c5ccc([nH]5)c(-c5c(F)c(F)c(F)c(F)c5F)c5nc(c(-c6c(F)c(F)c(F)c(F)c6F)c6ccc3[nH]6)C=C5)C=C4)cc2)CC[C@@H]2CCCC[C@H]21
REMARK SMILES IDX 14 1 13 2 11 3 12 4 10 6 9 7 91 8 84 9 86 10 90 11 85 12
REMARK SMILES IDX 87 13 89 14 88 15 7 16 6 17 8 19 5 20 3 21 4 22 2 23 1 24
REMARK SMILES IDX 15 25 16 26 17 27 18 28 19 29 20 31 21 32 22 33 83 34 23 35
REMARK SMILES IDX 82 36 24 37 25 38 26 39 76 40 27 41 81 42 75 43 77 44 28 45
REMARK SMILES IDX 80 46 74 47 73 48 29 50 61 51 41 52 60 53 42 54 45 55 59 56
REMARK SMILES IDX 78 57 43 58 44 59 58 61 79 62 46 63 30 64 31 65 39 66 32 67
REMARK SMILES IDX 33 68 37 69 40 70 34 71 35 72 38 73 36 74 62 75 63 76 71 77
REMARK SMILES IDX 64 78 65 79 69 80 72 81 66 82 67 83 70 84 68 85 47 86 48 87
REMARK SMILES IDX 56 88 49 89 50 90 54 91 57 92 51 93 52 94 55 95 53 96
REMARK H PARENT 13 5 6 18 18 30 77 49 45 60
REMARK Flexibility Score: inf
ROOT
ATOM      1  C   UNL A   1      31.990  30.081  25.387  1.00  0.00     0.116 C 
ENDROOT
BRANCH   1   2
ATOM      2  N   UNL A   1      30.946  29.367  24.677  1.00  0.00    -0.354 N 
ATOM      3  C   UNL A   1      30.705  28.029  24.614  1.00  0.00     0.242 C 
ATOM      4  O   UNL A   1      29.904  27.635  23.761  1.00  0.00    -0.273 OA
ATOM      5  H   UNL A   1      30.322  29.932  24.166  1.00  0.00     0.163 HD
BRANCH   3   6
ATOM      6  C   UNL A   1      31.479  27.017  25.490  1.00  0.00     0.176 C 
ATOM      7  N   UNL A   1      32.724  26.458  24.902  1.00  0.00    -0.310 N 
ATOM      8  C   UNL A   1      33.280  25.258  25.594  1.00  0.00     0.091 C 
ATOM      9  C   UNL A   1      30.435  25.934  25.850  1.00  0.00     0.036 C 
ATOM     10  C   UNL A   1      32.205  24.163  25.779  1.00  0.00     0.012 C 
ATOM     11  C   UNL A   1      34.568  24.646  24.998  1.00  0.00     0.025 C 
ATOM     12  C   UNL A   1      31.017  24.729  26.558  1.00  0.00     0.008 C 
ATOM     13  C   UNL A   1      32.738  22.923  26.516  1.00  0.00     0.006 C 
ATOM     14  C   UNL A   1      35.075  23.451  25.800  1.00  0.00     0.002 C 
ATOM     15  C   UNL A   1      34.011  22.371  25.891  1.00  0.00     0.000 C 
BRANCH   7  16
ATOM     16  C   UNL A   1      33.488  27.102  23.962  1.00  0.00     0.318 C 
ATOM     17  N   UNL A   1      33.379  26.875  22.645  1.00  0.00    -0.327 N 
ATOM     18  H   UNL A   1      34.164  27.193  22.145  1.00  0.00     0.166 HD
ATOM     19  O   UNL A   1      34.379  27.897  24.272  1.00  0.00    -0.249 OA
BRANCH  17  20
ATOM     20  C   UNL A   1      32.378  26.269  21.773  1.00  0.00     0.240 C 
BRANCH  20  21
ATOM     21  C   UNL A   1      32.903  25.149  20.885  1.00  0.00     0.325 C 
ATOM     22  O   UNL A   1      32.905  25.209  19.661  1.00  0.00    -0.250 OA
BRANCH  21  23
ATOM     23  O   UNL A   1      33.518  24.176  21.614  1.00  0.00    -0.468 OA
ATOM     24  C   UNL A   1      32.613  23.280  22.257  1.00  0.00     0.282 C 
ENDBRANCH  21  23
ENDBRANCH  20  21
ENDBRANCH  17  20
ENDBRANCH   7  16
ENDBRANCH   3   6
ENDBRANCH   1   2
BRANCH   1  25
ATOM     25  C   UNL A   1      31.416  30.741  26.636  1.00  0.00     0.023 C 
BRANCH  25  26
ATOM     26  C   UNL A   1      31.435  32.269  26.593  1.00  0.00     0.023 C 
BRANCH  26  27
ATOM     27  C   UNL A   1      32.693  32.897  27.178  1.00  0.00     0.116 C 
BRANCH  27  28
ATOM     28  N   UNL A   1      32.468  34.257  27.644  1.00  0.00    -0.352 N 
ATOM     29  C   UNL A   1      33.063  34.908  28.695  1.00  0.00     0.251 C 
ATOM     30  H   UNL A   1      31.803  34.778  27.139  1.00  0.00     0.163 HD
ATOM     31  O   UNL A   1      32.641  35.993  29.081  1.00  0.00    -0.269 OA
BRANCH  29  32
ATOM     32  C   UNL A   1      34.207  34.271  29.374  1.00  0.00     0.039 A 
ATOM     33  C   UNL A   1      33.964  33.363  30.405  1.00  0.00     0.014 A 
ATOM     34  C   UNL A   1      35.514  34.550  28.965  1.00  0.00     0.014 A 
ATOM     35  C   UNL A   1      35.035  32.693  30.995  1.00  0.00     0.010 A 
ATOM     36  C   UNL A   1      36.571  33.819  29.493  1.00  0.00     0.010 A 
ATOM     37  C   UNL A   1      36.344  32.894  30.523  1.00  0.00    -0.014 A 
BRANCH  37  38
ATOM     38  C   UNL A   1      37.496  32.171  31.117  1.00  0.00     0.031 A 
ATOM     39  C   UNL A   1      37.979  32.539  32.492  1.00  0.00     0.074 A 
ATOM     40  C   UNL A   1      38.136  31.226  30.402  1.00  0.00     0.049 A 
ATOM     41  N   UNL A   1      39.003  32.076  33.163  1.00  0.00    -0.248 NA
ATOM     42  C   UNL A   1      37.229  33.592  33.196  1.00  0.00     0.031 C 
ATOM     43  C   UNL A   1      37.789  30.814  29.041  1.00  0.00     0.029 A 
ATOM     44  N   UNL A   1      39.220  30.447  30.719  1.00  0.00    -0.354 N 
ATOM     45  C   UNL A   1      39.026  32.788  34.354  1.00  0.00     0.074 A 
ATOM     46  C   UNL A   1      37.957  33.760  34.289  1.00  0.00     0.031 C 
ATOM     47  C   UNL A   1      38.626  29.838  28.651  1.00  0.00     0.029 A 
ATOM     48  C   UNL A   1      39.591  29.586  29.716  1.00  0.00     0.049 A 
ATOM     49  H   UNL A   1      39.688  30.501  31.584  1.00  0.00     0.167 HD
ATOM     50  C   UNL A   1      39.845  32.626  35.420  1.00  0.00     0.037 A 
ATOM     51  C   UNL A   1      40.603  28.698  29.662  1.00  0.00     0.037 A 
ATOM     52  C   UNL A   1      40.893  31.642  35.489  1.00  0.00     0.049 A 
ATOM     53  C   UNL A   1      41.508  28.547  30.856  1.00  0.00     0.074 A 
ATOM     54  C   UNL A   1      41.746  31.363  36.541  1.00  0.00     0.029 A 
ATOM     55  N   UNL A   1      41.228  30.776  34.459  1.00  0.00    -0.354 N 
ATOM     56  N   UNL A   1      41.480  29.179  32.004  1.00  0.00    -0.248 NA
ATOM     57  C   UNL A   1      42.584  27.552  30.748  1.00  0.00     0.031 C 
ATOM     58  C   UNL A   1      42.634  30.364  36.128  1.00  0.00     0.029 A 
ATOM     59  C   UNL A   1      42.292  29.975  34.844  1.00  0.00     0.049 A 
ATOM     60  H   UNL A   1      40.778  30.736  33.584  1.00  0.00     0.167 HD
ATOM     61  C   UNL A   1      42.503  28.633  32.767  1.00  0.00     0.074 A 
ATOM     62  C   UNL A   1      43.127  27.609  31.956  1.00  0.00     0.031 C 
ATOM     63  C   UNL A   1      42.890  28.949  34.028  1.00  0.00     0.037 A 
BRANCH  50  64
ATOM     64  C   UNL A   1      39.636  33.534  36.600  1.00  0.00     0.064 A 
ATOM     65  C   UNL A   1      38.806  33.170  37.672  1.00  0.00     0.173 A 
ATOM     66  C   UNL A   1      40.296  34.770  36.674  1.00  0.00     0.173 A 
ATOM     67  F   UNL A   1      38.141  32.005  37.646  1.00  0.00    -0.203 F 
ATOM     68  C   UNL A   1      38.617  34.023  38.756  1.00  0.00     0.198 A 
ATOM     69  C   UNL A   1      40.132  35.605  37.776  1.00  0.00     0.198 A 
ATOM     70  F   UNL A   1      41.105  35.167  35.681  1.00  0.00    -0.203 F 
ATOM     71  F   UNL A   1      37.774  33.678  39.739  1.00  0.00    -0.200 F 
ATOM     72  C   UNL A   1      39.287  35.236  38.811  1.00  0.00     0.200 A 
ATOM     73  F   UNL A   1      40.791  36.770  37.836  1.00  0.00    -0.200 F 
ATOM     74  F   UNL A   1      39.111  36.052  39.859  1.00  0.00    -0.200 F 
ENDBRANCH  50  64
BRANCH  51  75
ATOM     75  C   UNL A   1      40.796  27.860  28.449  1.00  0.00     0.064 A 
ATOM     76  C   UNL A   1      41.593  28.308  27.384  1.00  0.00     0.173 A 
ATOM     77  C   UNL A   1      40.180  26.608  28.318  1.00  0.00     0.173 A 
ATOM     78  F   UNL A   1      42.188  29.508  27.453  1.00  0.00    -0.203 F 
ATOM     79  C   UNL A   1      41.743  27.548  26.227  1.00  0.00     0.198 A 
ATOM     80  C   UNL A   1      40.356  25.834  27.172  1.00  0.00     0.198 A 
ATOM     81  F   UNL A   1      39.413  26.129  29.309  1.00  0.00    -0.203 F 
ATOM     82  F   UNL A   1      42.466  28.024  25.204  1.00  0.00    -0.200 F 
ATOM     83  C   UNL A   1      41.129  26.309  26.124  1.00  0.00     0.200 A 
ATOM     84  F   UNL A   1      39.774  24.630  27.084  1.00  0.00    -0.200 F 
ATOM     85  F   UNL A   1      41.273  25.577  25.010  1.00  0.00    -0.200 F 
ENDBRANCH  51  75
BRANCH  63  86
ATOM     86  C   UNL A   1      44.006  28.144  34.630  1.00  0.00     0.064 A 
ATOM     87  C   UNL A   1      43.771  26.939  35.306  1.00  0.00     0.173 A 
ATOM     88  C   UNL A   1      45.337  28.569  34.489  1.00  0.00     0.173 A 
ATOM     89  F   UNL A   1      42.517  26.495  35.479  1.00  0.00    -0.203 F 
ATOM     90  C   UNL A   1      44.823  26.204  35.846  1.00  0.00     0.198 A 
ATOM     91  C   UNL A   1      46.389  27.814  35.000  1.00  0.00     0.198 A 
ATOM     92  F   UNL A   1      45.619  29.711  33.844  1.00  0.00    -0.203 F 
ATOM     93  F   UNL A   1      44.571  25.083  36.535  1.00  0.00    -0.200 F 
ATOM     94  C   UNL A   1      46.132  26.637  35.685  1.00  0.00     0.200 A 
ATOM     95  F   UNL A   1      47.653  28.226  34.828  1.00  0.00    -0.200 F 
ATOM     96  F   UNL A   1      47.143  25.924  36.197  1.00  0.00    -0.200 F 
ENDBRANCH  63  86
ENDBRANCH  37  38
ENDBRANCH  29  32
ENDBRANCH  27  28
ENDBRANCH  26  27
ENDBRANCH  25  26
ENDBRANCH   1  25
TORSDOF 15
ENDMDL
