MODEL 1
REMARK VINA RESULT:     -13.2      0.000      0.000
REMARK SMILES NS(=O)(=O)c1ccc(/N=N/c2ccc(O)c(C(=O)NCCCCNC(=O)c3ccc(-c4c5nc(c(-c6c(F)c(F)c(F)c(F)c6F)c6ccc([nH]6)c(-c6c(F)c(F)c(F)c(F)c6F)c6nc(c(-c7c(F)c(F)c(F)c(F)c7F)c7ccc4[nH]7)C=C6)C=C5)cc3)c2)cc1
REMARK SMILES IDX 20 1 19 2 17 3 18 4 16 6 11 7 12 8 90 9 13 10 14 11 10 12
REMARK SMILES IDX 9 13 8 14 5 15 6 16 92 17 7 18 91 19 2 20 3 21 4 22 1 23
REMARK SMILES IDX 15 26 21 28 22 29 23 30 24 31 25 32 26 34 27 35 28 36 89 37
REMARK SMILES IDX 29 38 88 39 30 40 31 41 32 42 82 43 33 44 87 45 81 46 83 47
REMARK SMILES IDX 34 48 86 49 80 50 79 51 35 53 67 54 47 55 66 56 48 57 51 58
REMARK SMILES IDX 65 59 84 60 49 61 50 62 64 64 85 65 52 66 36 67 37 68 45 69
REMARK SMILES IDX 38 70 39 71 43 72 46 73 40 74 41 75 44 76 42 77 68 78 69 79
REMARK SMILES IDX 77 80 70 81 71 82 75 83 78 84 72 85 73 86 76 87 74 88 53 89
REMARK SMILES IDX 54 90 62 91 55 92 56 93 60 94 63 95 57 96 58 97 61 98 59 99
REMARK H PARENT 19 5 1 24 1 25 15 27 24 33 83 52 51 63
REMARK Flexibility Score: inf
ROOT
ATOM      1  C   UNL A   1      36.916  22.738  25.356  1.00  0.00     0.116 C 
ENDROOT
BRANCH   1   2
ATOM      2  N   UNL A   1      36.062  22.335  26.463  1.00  0.00    -0.352 N 
ATOM      3  C   UNL A   1      34.753  21.904  26.479  1.00  0.00     0.255 C 
ATOM      4  O   UNL A   1      34.200  21.701  27.562  1.00  0.00    -0.269 OA
ATOM      5  H   UNL A   1      36.490  22.377  27.349  1.00  0.00     0.163 HD
BRANCH   3   6
ATOM      6  C   UNL A   1      33.948  21.752  25.242  1.00  0.00     0.083 A 
ATOM      7  C   UNL A   1      32.431  22.701  23.587  1.00  0.00     0.087 A 
ATOM      8  C   UNL A   1      32.153  21.412  23.123  1.00  0.00     0.034 A 
ATOM      9  C   UNL A   1      33.407  22.855  24.583  1.00  0.00     0.048 A 
ATOM     10  C   UNL A   1      32.808  20.302  23.670  1.00  0.00     0.049 A 
ATOM     11  C   UNL A   1      33.693  20.473  24.732  1.00  0.00     0.128 A 
BRANCH   7  12
ATOM     12  N   UNL A   1      31.690  23.800  23.087  1.00  0.00    -0.151 NA
ATOM     13  N   UNL A   1      31.794  24.777  23.865  1.00  0.00    -0.151 NA
BRANCH  13  14
ATOM     14  C   UNL A   1      30.971  25.853  23.500  1.00  0.00     0.086 A 
ATOM     15  C   UNL A   1      29.435  28.134  22.966  1.00  0.00     0.082 A 
ATOM     16  C   UNL A   1      30.766  28.079  22.539  1.00  0.00     0.024 A 
ATOM     17  C   UNL A   1      28.869  27.067  23.666  1.00  0.00     0.024 A 
ATOM     18  C   UNL A   1      31.527  26.938  22.808  1.00  0.00     0.031 A 
ATOM     19  C   UNL A   1      29.642  25.933  23.934  1.00  0.00     0.031 A 
BRANCH  15  20
ATOM     20  S   UNL A   1      28.490  29.594  22.640  1.00  0.00     0.238 S 
ATOM     21  O   UNL A   1      28.476  29.817  21.217  1.00  0.00    -0.207 OA
ATOM     22  O   UNL A   1      28.868  30.614  23.593  1.00  0.00    -0.207 OA
BRANCH  20  23
ATOM     23  N   UNL A   1      26.921  29.164  23.065  1.00  0.00    -0.225 NA
ATOM     24  H   UNL A   1      26.584  28.439  22.431  1.00  0.00     0.137 HD
ATOM     25  H   UNL A   1      26.315  29.981  23.000  1.00  0.00     0.137 HD
ENDBRANCH  20  23
ENDBRANCH  15  20
ENDBRANCH  13  14
ENDBRANCH   7  12
BRANCH  11  26
ATOM     26  O   UNL A   1      34.274  19.340  25.235  1.00  0.00    -0.507 OA
ATOM     27  H   UNL A   1      35.096  19.395  25.682  1.00  0.00     0.293 HD
ENDBRANCH  11  26
ENDBRANCH   3   6
ENDBRANCH   1   2
BRANCH   1  28
ATOM     28  C   UNL A   1      37.250  21.618  24.379  1.00  0.00     0.023 C 
BRANCH  28  29
ATOM     29  C   UNL A   1      37.860  20.358  24.979  1.00  0.00     0.023 C 
BRANCH  29  30
ATOM     30  C   UNL A   1      39.119  20.559  25.810  1.00  0.00     0.116 C 
BRANCH  30  31
ATOM     31  N   UNL A   1      40.000  19.398  25.842  1.00  0.00    -0.352 N 
ATOM     32  C   UNL A   1      41.353  19.341  26.085  1.00  0.00     0.251 C 
ATOM     33  H   UNL A   1      39.565  18.533  25.666  1.00  0.00     0.163 HD
ATOM     34  O   UNL A   1      41.959  18.278  26.004  1.00  0.00    -0.269 OA
BRANCH  32  35
ATOM     35  C   UNL A   1      42.083  20.584  26.404  1.00  0.00     0.039 A 
ATOM     36  C   UNL A   1      42.523  21.402  25.359  1.00  0.00     0.014 A 
ATOM     37  C   UNL A   1      42.273  20.971  27.732  1.00  0.00     0.014 A 
ATOM     38  C   UNL A   1      43.070  22.655  25.647  1.00  0.00     0.010 A 
ATOM     39  C   UNL A   1      42.736  22.251  28.012  1.00  0.00     0.010 A 
ATOM     40  C   UNL A   1      43.136  23.108  26.974  1.00  0.00    -0.014 A 
BRANCH  40  41
ATOM     41  C   UNL A   1      43.627  24.465  27.319  1.00  0.00     0.031 A 
ATOM     42  C   UNL A   1      42.665  25.483  27.864  1.00  0.00     0.074 A 
ATOM     43  C   UNL A   1      44.899  24.817  27.045  1.00  0.00     0.049 A 
ATOM     44  N   UNL A   1      42.837  26.763  28.073  1.00  0.00    -0.248 NA
ATOM     45  C   UNL A   1      41.311  24.999  28.178  1.00  0.00     0.031 C 
ATOM     46  C   UNL A   1      45.919  23.933  26.478  1.00  0.00     0.029 A 
ATOM     47  N   UNL A   1      45.543  26.022  27.182  1.00  0.00    -0.354 N 
ATOM     48  C   UNL A   1      41.609  27.241  28.507  1.00  0.00     0.074 A 
ATOM     49  C   UNL A   1      40.688  26.126  28.484  1.00  0.00     0.031 C 
ATOM     50  C   UNL A   1      47.061  24.622  26.327  1.00  0.00     0.029 A 
ATOM     51  C   UNL A   1      46.844  26.005  26.743  1.00  0.00     0.049 A 
ATOM     52  H   UNL A   1      45.112  26.822  27.561  1.00  0.00     0.167 HD
ATOM     53  C   UNL A   1      41.283  28.492  28.911  1.00  0.00     0.037 A 
ATOM     54  C   UNL A   1      47.752  26.997  26.667  1.00  0.00     0.037 A 
ATOM     55  C   UNL A   1      42.215  29.587  28.966  1.00  0.00     0.049 A 
ATOM     56  C   UNL A   1      47.371  28.379  27.126  1.00  0.00     0.074 A 
ATOM     57  C   UNL A   1      42.004  30.876  29.422  1.00  0.00     0.029 A 
ATOM     58  N   UNL A   1      43.537  29.519  28.553  1.00  0.00    -0.354 N 
ATOM     59  N   UNL A   1      46.223  28.809  27.590  1.00  0.00    -0.248 NA
ATOM     60  C   UNL A   1      48.413  29.413  27.055  1.00  0.00     0.031 C 
ATOM     61  C   UNL A   1      43.186  31.601  29.240  1.00  0.00     0.029 A 
ATOM     62  C   UNL A   1      44.151  30.749  28.726  1.00  0.00     0.049 A 
ATOM     63  H   UNL A   1      43.976  28.715  28.191  1.00  0.00     0.167 HD
ATOM     64  C   UNL A   1      46.413  30.148  27.901  1.00  0.00     0.074 A 
ATOM     65  C   UNL A   1      47.788  30.462  27.573  1.00  0.00     0.031 C 
ATOM     66  C   UNL A   1      45.528  31.037  28.416  1.00  0.00     0.037 A 
BRANCH  53  67
ATOM     67  C   UNL A   1      39.860  28.739  29.318  1.00  0.00     0.064 A 
ATOM     68  C   UNL A   1      39.428  28.557  30.642  1.00  0.00     0.173 A 
ATOM     69  C   UNL A   1      38.916  29.174  28.376  1.00  0.00     0.173 A 
ATOM     70  F   UNL A   1      40.287  28.130  31.580  1.00  0.00    -0.203 F 
ATOM     71  C   UNL A   1      38.096  28.762  30.996  1.00  0.00     0.198 A 
ATOM     72  C   UNL A   1      37.594  29.411  28.741  1.00  0.00     0.198 A 
ATOM     73  F   UNL A   1      39.276  29.370  27.098  1.00  0.00    -0.203 F 
ATOM     74  F   UNL A   1      37.695  28.519  32.251  1.00  0.00    -0.200 F 
ATOM     75  C   UNL A   1      37.183  29.194  30.048  1.00  0.00     0.200 A 
ATOM     76  F   UNL A   1      36.714  29.843  27.826  1.00  0.00    -0.200 F 
ATOM     77  F   UNL A   1      35.902  29.392  30.390  1.00  0.00    -0.200 F 
ENDBRANCH  53  67
BRANCH  54  78
ATOM     78  C   UNL A   1      49.119  26.711  26.158  1.00  0.00     0.064 A 
ATOM     79  C   UNL A   1      50.094  26.152  26.996  1.00  0.00     0.173 A 
ATOM     80  C   UNL A   1      49.478  26.978  24.829  1.00  0.00     0.173 A 
ATOM     81  F   UNL A   1      49.805  25.897  28.281  1.00  0.00    -0.203 F 
ATOM     82  C   UNL A   1      51.379  25.885  26.529  1.00  0.00     0.198 A 
ATOM     83  C   UNL A   1      50.755  26.686  24.355  1.00  0.00     0.198 A 
ATOM     84  F   UNL A   1      48.580  27.508  23.984  1.00  0.00    -0.203 F 
ATOM     85  F   UNL A   1      52.302  25.387  27.363  1.00  0.00    -0.200 F 
ATOM     86  C   UNL A   1      51.707  26.145  25.207  1.00  0.00     0.200 A 
ATOM     87  F   UNL A   1      51.064  26.924  23.073  1.00  0.00    -0.200 F 
ATOM     88  F   UNL A   1      52.941  25.881  24.756  1.00  0.00    -0.200 F 
ENDBRANCH  54  78
BRANCH  66  89
ATOM     89  C   UNL A   1      46.026  32.421  28.715  1.00  0.00     0.064 A 
ATOM     90  C   UNL A   1      46.622  32.743  29.942  1.00  0.00     0.173 A 
ATOM     91  C   UNL A   1      45.969  33.417  27.728  1.00  0.00     0.173 A 
ATOM     92  F   UNL A   1      46.687  31.830  30.922  1.00  0.00    -0.203 F 
ATOM     93  C   UNL A   1      47.131  34.018  30.175  1.00  0.00     0.198 A 
ATOM     94  C   UNL A   1      46.505  34.681  27.954  1.00  0.00     0.198 A 
ATOM     95  F   UNL A   1      45.415  33.155  26.535  1.00  0.00    -0.203 F 
ATOM     96  F   UNL A   1      47.666  34.317  31.367  1.00  0.00    -0.200 F 
ATOM     97  C   UNL A   1      47.081  34.982  29.178  1.00  0.00     0.200 A 
ATOM     98  F   UNL A   1      46.470  35.605  26.984  1.00  0.00    -0.200 F 
ATOM     99  F   UNL A   1      47.588  36.203  29.399  1.00  0.00    -0.200 F 
ENDBRANCH  66  89
ENDBRANCH  40  41
ENDBRANCH  32  35
ENDBRANCH  30  31
ENDBRANCH  29  30
ENDBRANCH  28  29
ENDBRANCH   1  28
TORSDOF 16
ENDMDL
MODEL 2
REMARK VINA RESULT:     -12.8      0.385      1.954
REMARK SMILES NS(=O)(=O)c1ccc(/N=N/c2ccc(O)c(C(=O)NCCCCNC(=O)c3ccc(-c4c5nc(c(-c6c(F)c(F)c(F)c(F)c6F)c6ccc([nH]6)c(-c6c(F)c(F)c(F)c(F)c6F)c6nc(c(-c7c(F)c(F)c(F)c(F)c7F)c7ccc4[nH]7)C=C6)C=C5)cc3)c2)cc1
REMARK SMILES IDX 20 1 19 2 17 3 18 4 16 6 11 7 12 8 90 9 13 10 14 11 10 12
REMARK SMILES IDX 9 13 8 14 5 15 6 16 92 17 7 18 91 19 2 20 3 21 4 22 1 23
REMARK SMILES IDX 15 26 21 28 22 29 23 30 24 31 25 32 26 34 27 35 28 36 89 37
REMARK SMILES IDX 29 38 88 39 30 40 31 41 32 42 82 43 33 44 87 45 81 46 83 47
REMARK SMILES IDX 34 48 86 49 80 50 79 51 35 53 67 54 47 55 66 56 48 57 51 58
REMARK SMILES IDX 65 59 84 60 49 61 50 62 64 64 85 65 52 66 36 67 37 68 45 69
REMARK SMILES IDX 38 70 39 71 43 72 46 73 40 74 41 75 44 76 42 77 68 78 69 79
REMARK SMILES IDX 77 80 70 81 71 82 75 83 78 84 72 85 73 86 76 87 74 88 53 89
REMARK SMILES IDX 54 90 62 91 55 92 56 93 60 94 63 95 57 96 58 97 61 98 59 99
REMARK H PARENT 19 5 1 24 1 25 15 27 24 33 83 52 51 63
REMARK Flexibility Score: inf
ROOT
ATOM      1  C   UNL A   1      36.619  23.148  25.429  1.00  0.00     0.116 C 
ENDROOT
BRANCH   1   2
ATOM      2  N   UNL A   1      35.904  22.513  26.527  1.00  0.00    -0.352 N 
ATOM      3  C   UNL A   1      34.681  21.879  26.556  1.00  0.00     0.255 C 
ATOM      4  O   UNL A   1      34.230  21.492  27.636  1.00  0.00    -0.269 OA
ATOM      5  H   UNL A   1      36.371  22.543  27.392  1.00  0.00     0.163 HD
BRANCH   3   6
ATOM      6  C   UNL A   1      33.839  21.713  25.346  1.00  0.00     0.083 A 
ATOM      7  C   UNL A   1      32.141  22.580  23.827  1.00  0.00     0.087 A 
ATOM      8  C   UNL A   1      31.992  21.300  23.285  1.00  0.00     0.034 A 
ATOM      9  C   UNL A   1      33.141  22.785  24.789  1.00  0.00     0.048 A 
ATOM     10  C   UNL A   1      32.798  20.243  23.724  1.00  0.00     0.049 A 
ATOM     11  C   UNL A   1      33.709  20.449  24.757  1.00  0.00     0.128 A 
BRANCH   7  12
ATOM     12  N   UNL A   1      31.254  23.613  23.437  1.00  0.00    -0.151 NA
ATOM     13  N   UNL A   1      31.859  24.710  23.405  1.00  0.00    -0.151 NA
BRANCH  13  14
ATOM     14  C   UNL A   1      31.005  25.797  23.162  1.00  0.00     0.086 A 
ATOM     15  C   UNL A   1      29.429  28.093  22.860  1.00  0.00     0.082 A 
ATOM     16  C   UNL A   1      30.701  28.044  22.281  1.00  0.00     0.024 A 
ATOM     17  C   UNL A   1      28.943  27.012  23.598  1.00  0.00     0.024 A 
ATOM     18  C   UNL A   1      31.482  26.895  22.434  1.00  0.00     0.031 A 
ATOM     19  C   UNL A   1      29.736  25.870  23.750  1.00  0.00     0.031 A 
BRANCH  15  20
ATOM     20  S   UNL A   1      28.460  29.562  22.679  1.00  0.00     0.238 S 
ATOM     21  O   UNL A   1      28.339  29.855  21.274  1.00  0.00    -0.207 OA
ATOM     22  O   UNL A   1      28.908  30.536  23.650  1.00  0.00    -0.207 OA
BRANCH  20  23
ATOM     23  N   UNL A   1      26.929  29.103  23.198  1.00  0.00    -0.225 NA
ATOM     24  H   UNL A   1      26.995  28.233  23.727  1.00  0.00     0.137 HD
ATOM     25  H   UNL A   1      26.323  28.965  22.390  1.00  0.00     0.137 HD
ENDBRANCH  20  23
ENDBRANCH  15  20
ENDBRANCH  13  14
ENDBRANCH   7  12
BRANCH  11  26
ATOM     26  O   UNL A   1      34.442  19.363  25.155  1.00  0.00    -0.507 OA
ATOM     27  H   UNL A   1      34.194  18.503  24.875  1.00  0.00     0.293 HD
ENDBRANCH  11  26
ENDBRANCH   3   6
ENDBRANCH   1   2
BRANCH   1  28
ATOM     28  C   UNL A   1      37.292  22.174  24.471  1.00  0.00     0.023 C 
BRANCH  28  29
ATOM     29  C   UNL A   1      37.738  20.843  25.063  1.00  0.00     0.023 C 
BRANCH  29  30
ATOM     30  C   UNL A   1      38.945  20.898  25.988  1.00  0.00     0.116 C 
BRANCH  30  31
ATOM     31  N   UNL A   1      39.819  19.735  25.893  1.00  0.00    -0.352 N 
ATOM     32  C   UNL A   1      41.185  19.660  26.042  1.00  0.00     0.251 C 
ATOM     33  H   UNL A   1      39.369  18.883  25.693  1.00  0.00     0.163 HD
ATOM     34  O   UNL A   1      41.778  18.603  25.857  1.00  0.00    -0.269 OA
BRANCH  32  35
ATOM     35  C   UNL A   1      41.942  20.881  26.387  1.00  0.00     0.039 A 
ATOM     36  C   UNL A   1      42.299  21.770  25.369  1.00  0.00     0.014 A 
ATOM     37  C   UNL A   1      42.239  21.175  27.719  1.00  0.00     0.014 A 
ATOM     38  C   UNL A   1      42.871  23.002  25.698  1.00  0.00     0.010 A 
ATOM     39  C   UNL A   1      42.727  22.433  28.049  1.00  0.00     0.010 A 
ATOM     40  C   UNL A   1      43.045  23.361  27.044  1.00  0.00    -0.014 A 
BRANCH  40  41
ATOM     41  C   UNL A   1      43.567  24.692  27.443  1.00  0.00     0.031 A 
ATOM     42  C   UNL A   1      42.624  25.716  28.012  1.00  0.00     0.074 A 
ATOM     43  C   UNL A   1      44.850  25.021  27.195  1.00  0.00     0.049 A 
ATOM     44  N   UNL A   1      42.826  26.982  28.267  1.00  0.00    -0.248 NA
ATOM     45  C   UNL A   1      41.254  25.256  28.294  1.00  0.00     0.031 C 
ATOM     46  C   UNL A   1      45.854  24.131  26.608  1.00  0.00     0.029 A 
ATOM     47  N   UNL A   1      45.523  26.203  27.381  1.00  0.00    -0.354 N 
ATOM     48  C   UNL A   1      41.605  27.476  28.705  1.00  0.00     0.074 A 
ATOM     49  C   UNL A   1      40.656  26.387  28.632  1.00  0.00     0.031 C 
ATOM     50  C   UNL A   1      47.015  24.794  26.494  1.00  0.00     0.029 A 
ATOM     51  C   UNL A   1      46.828  26.167  26.956  1.00  0.00     0.049 A 
ATOM     52  H   UNL A   1      45.108  27.000  27.783  1.00  0.00     0.167 HD
ATOM     53  C   UNL A   1      41.307  28.721  29.148  1.00  0.00     0.037 A 
ATOM     54  C   UNL A   1      47.763  27.138  26.925  1.00  0.00     0.037 A 
ATOM     55  C   UNL A   1      42.266  29.789  29.252  1.00  0.00     0.049 A 
ATOM     56  C   UNL A   1      47.411  28.512  27.428  1.00  0.00     0.074 A 
ATOM     57  C   UNL A   1      42.082  31.066  29.750  1.00  0.00     0.029 A 
ATOM     58  N   UNL A   1      43.590  29.701  28.852  1.00  0.00    -0.354 N 
ATOM     59  N   UNL A   1      46.268  28.955  27.894  1.00  0.00    -0.248 NA
ATOM     60  C   UNL A   1      48.479  29.521  27.405  1.00  0.00     0.031 C 
ATOM     61  C   UNL A   1      43.284  31.766  29.607  1.00  0.00     0.029 A 
ATOM     62  C   UNL A   1      44.233  30.908  29.074  1.00  0.00     0.049 A 
ATOM     63  H   UNL A   1      44.013  28.898  28.466  1.00  0.00     0.167 HD
ATOM     64  C   UNL A   1      46.489  30.278  28.254  1.00  0.00     0.074 A 
ATOM     65  C   UNL A   1      47.876  30.567  27.952  1.00  0.00     0.031 C 
ATOM     66  C   UNL A   1      45.621  31.171  28.790  1.00  0.00     0.037 A 
BRANCH  53  67
ATOM     67  C   UNL A   1      39.885  28.990  29.547  1.00  0.00     0.064 A 
ATOM     68  C   UNL A   1      38.919  29.392  28.611  1.00  0.00     0.173 A 
ATOM     69  C   UNL A   1      39.479  28.835  30.881  1.00  0.00     0.173 A 
ATOM     70  F   UNL A   1      39.257  29.568  27.325  1.00  0.00    -0.203 F 
ATOM     71  C   UNL A   1      37.611  29.668  29.004  1.00  0.00     0.198 A 
ATOM     72  C   UNL A   1      38.163  29.077  31.263  1.00  0.00     0.198 A 
ATOM     73  F   UNL A   1      40.360  28.447  31.816  1.00  0.00    -0.203 F 
ATOM     74  F   UNL A   1      36.724  30.113  28.103  1.00  0.00    -0.200 F 
ATOM     75  C   UNL A   1      37.233  29.504  30.327  1.00  0.00     0.200 A 
ATOM     76  F   UNL A   1      37.795  28.906  32.541  1.00  0.00    -0.200 F 
ATOM     77  F   UNL A   1      35.974  29.769  30.703  1.00  0.00    -0.200 F 
ENDBRANCH  53  67
BRANCH  54  78
ATOM     78  C   UNL A   1      49.127  26.834  26.422  1.00  0.00     0.064 A 
ATOM     79  C   UNL A   1      49.448  27.005  25.068  1.00  0.00     0.173 A 
ATOM     80  C   UNL A   1      50.140  26.378  27.278  1.00  0.00     0.173 A 
ATOM     81  F   UNL A   1      48.508  27.420  24.206  1.00  0.00    -0.203 F 
ATOM     82  C   UNL A   1      50.723  26.718  24.587  1.00  0.00     0.198 A 
ATOM     83  C   UNL A   1      51.423  26.117  26.801  1.00  0.00     0.198 A 
ATOM     84  F   UNL A   1      49.888  26.202  28.584  1.00  0.00    -0.203 F 
ATOM     85  F   UNL A   1      50.990  26.853  23.281  1.00  0.00    -0.200 F 
ATOM     86  C   UNL A   1      51.712  26.280  25.454  1.00  0.00     0.200 A 
ATOM     87  F   UNL A   1      52.380  25.709  27.646  1.00  0.00    -0.200 F 
ATOM     88  F   UNL A   1      52.940  26.012  24.993  1.00  0.00    -0.200 F 
ENDBRANCH  54  78
BRANCH  66  89
ATOM     89  C   UNL A   1      46.150  32.530  29.143  1.00  0.00     0.064 A 
ATOM     90  C   UNL A   1      46.079  33.607  28.248  1.00  0.00     0.173 A 
ATOM     91  C   UNL A   1      46.668  32.771  30.425  1.00  0.00     0.173 A 
ATOM     92  F   UNL A   1      45.605  33.424  27.007  1.00  0.00    -0.203 F 
ATOM     93  C   UNL A   1      46.521  34.874  28.620  1.00  0.00     0.198 A 
ATOM     94  C   UNL A   1      47.082  34.045  30.803  1.00  0.00     0.198 A 
ATOM     95  F   UNL A   1      46.750  31.775  31.319  1.00  0.00    -0.203 F 
ATOM     96  F   UNL A   1      46.477  35.883  27.738  1.00  0.00    -0.200 F 
ATOM     97  C   UNL A   1      47.013  35.094  29.899  1.00  0.00     0.200 A 
ATOM     98  F   UNL A   1      47.541  34.258  32.043  1.00  0.00    -0.200 F 
ATOM     99  F   UNL A   1      47.422  36.318  30.260  1.00  0.00    -0.200 F 
ENDBRANCH  66  89
ENDBRANCH  40  41
ENDBRANCH  32  35
ENDBRANCH  30  31
ENDBRANCH  29  30
ENDBRANCH  28  29
ENDBRANCH   1  28
TORSDOF 16
ENDMDL
MODEL 3
REMARK VINA RESULT:     -12.7      5.675     11.409
REMARK SMILES NS(=O)(=O)c1ccc(/N=N/c2ccc(O)c(C(=O)NCCCCNC(=O)c3ccc(-c4c5nc(c(-c6c(F)c(F)c(F)c(F)c6F)c6ccc([nH]6)c(-c6c(F)c(F)c(F)c(F)c6F)c6nc(c(-c7c(F)c(F)c(F)c(F)c7F)c7ccc4[nH]7)C=C6)C=C5)cc3)c2)cc1
REMARK SMILES IDX 20 1 19 2 17 3 18 4 16 6 11 7 12 8 90 9 13 10 14 11 10 12
REMARK SMILES IDX 9 13 8 14 5 15 6 16 92 17 7 18 91 19 2 20 3 21 4 22 1 23
REMARK SMILES IDX 15 26 21 28 22 29 23 30 24 31 25 32 26 34 27 35 28 36 89 37
REMARK SMILES IDX 29 38 88 39 30 40 31 41 32 42 82 43 33 44 87 45 81 46 83 47
REMARK SMILES IDX 34 48 86 49 80 50 79 51 35 53 67 54 47 55 66 56 48 57 51 58
REMARK SMILES IDX 65 59 84 60 49 61 50 62 64 64 85 65 52 66 36 67 37 68 45 69
REMARK SMILES IDX 38 70 39 71 43 72 46 73 40 74 41 75 44 76 42 77 68 78 69 79
REMARK SMILES IDX 77 80 70 81 71 82 75 83 78 84 72 85 73 86 76 87 74 88 53 89
REMARK SMILES IDX 54 90 62 91 55 92 56 93 60 94 63 95 57 96 58 97 61 98 59 99
REMARK H PARENT 19 5 1 24 1 25 15 27 24 33 83 52 51 63
REMARK Flexibility Score: inf
ROOT
ATOM      1  C   UNL A   1      32.240  29.556  25.565  1.00  0.00     0.116 C 
ENDROOT
BRANCH   1   2
ATOM      2  N   UNL A   1      30.983  29.471  24.835  1.00  0.00    -0.352 N 
ATOM      3  C   UNL A   1      30.603  28.657  23.791  1.00  0.00     0.255 C 
ATOM      4  O   UNL A   1      29.502  28.829  23.264  1.00  0.00    -0.269 OA
ATOM      5  H   UNL A   1      30.290  30.101  25.138  1.00  0.00     0.163 HD
BRANCH   3   6
ATOM      6  C   UNL A   1      31.503  27.629  23.212  1.00  0.00     0.083 A 
ATOM      7  C   UNL A   1      32.277  25.319  23.121  1.00  0.00     0.087 A 
ATOM      8  C   UNL A   1      33.402  25.740  22.406  1.00  0.00     0.034 A 
ATOM      9  C   UNL A   1      31.290  26.267  23.429  1.00  0.00     0.048 A 
ATOM     10  C   UNL A   1      33.554  27.083  22.042  1.00  0.00     0.049 A 
ATOM     11  C   UNL A   1      32.612  28.022  22.454  1.00  0.00     0.128 A 
BRANCH   7  12
ATOM     12  N   UNL A   1      32.189  23.976  23.561  1.00  0.00    -0.151 NA
ATOM     13  N   UNL A   1      33.335  23.476  23.649  1.00  0.00    -0.151 NA
BRANCH  13  14
ATOM     14  C   UNL A   1      33.310  22.105  23.946  1.00  0.00     0.086 A 
ATOM     15  C   UNL A   1      33.439  19.336  24.353  1.00  0.00     0.082 A 
ATOM     16  C   UNL A   1      34.432  20.163  24.889  1.00  0.00     0.024 A 
ATOM     17  C   UNL A   1      32.391  19.878  23.606  1.00  0.00     0.024 A 
ATOM     18  C   UNL A   1      34.361  21.543  24.683  1.00  0.00     0.031 A 
ATOM     19  C   UNL A   1      32.334  21.260  23.402  1.00  0.00     0.031 A 
BRANCH  15  20
ATOM     20  S   UNL A   1      33.552  17.588  24.600  1.00  0.00     0.238 S 
ATOM     21  O   UNL A   1      32.646  17.220  25.657  1.00  0.00    -0.207 OA
ATOM     22  O   UNL A   1      34.947  17.207  24.590  1.00  0.00    -0.207 OA
BRANCH  20  23
ATOM     23  N   UNL A   1      32.915  16.938  23.187  1.00  0.00    -0.225 NA
ATOM     24  H   UNL A   1      33.560  16.243  22.810  1.00  0.00     0.137 HD
ATOM     25  H   UNL A   1      32.778  17.681  22.501  1.00  0.00     0.137 HD
ENDBRANCH  20  23
ENDBRANCH  15  20
ENDBRANCH  13  14
ENDBRANCH   7  12
BRANCH  11  26
ATOM     26  O   UNL A   1      32.840  29.321  22.087  1.00  0.00    -0.507 OA
ATOM     27  H   UNL A   1      32.454  29.661  21.302  1.00  0.00     0.293 HD
ENDBRANCH  11  26
ENDBRANCH   3   6
ENDBRANCH   1   2
BRANCH   1  28
ATOM     28  C   UNL A   1      32.130  30.222  26.931  1.00  0.00     0.023 C 
BRANCH  28  29
ATOM     29  C   UNL A   1      31.804  31.710  26.933  1.00  0.00     0.023 C 
BRANCH  29  30
ATOM     30  C   UNL A   1      32.929  32.636  27.371  1.00  0.00     0.116 C 
BRANCH  30  31
ATOM     31  N   UNL A   1      32.495  33.993  27.679  1.00  0.00    -0.352 N 
ATOM     32  C   UNL A   1      33.011  34.884  28.591  1.00  0.00     0.251 C 
ATOM     33  H   UNL A   1      31.723  34.317  27.161  1.00  0.00     0.163 HD
ATOM     34  O   UNL A   1      32.476  35.972  28.775  1.00  0.00    -0.269 OA
BRANCH  32  35
ATOM     35  C   UNL A   1      34.198  34.502  29.384  1.00  0.00     0.039 A 
ATOM     36  C   UNL A   1      34.017  33.916  30.639  1.00  0.00     0.014 A 
ATOM     37  C   UNL A   1      35.481  34.663  28.857  1.00  0.00     0.014 A 
ATOM     38  C   UNL A   1      35.120  33.404  31.328  1.00  0.00     0.010 A 
ATOM     39  C   UNL A   1      36.563  34.077  29.501  1.00  0.00     0.010 A 
ATOM     40  C   UNL A   1      36.395  33.438  30.741  1.00  0.00    -0.014 A 
BRANCH  40  41
ATOM     41  C   UNL A   1      37.579  32.829  31.395  1.00  0.00     0.031 A 
ATOM     42  C   UNL A   1      38.274  31.671  30.735  1.00  0.00     0.074 A 
ATOM     43  C   UNL A   1      37.962  33.236  32.621  1.00  0.00     0.049 A 
ATOM     44  N   UNL A   1      39.212  30.888  31.202  1.00  0.00    -0.248 NA
ATOM     45  C   UNL A   1      37.822  31.326  29.378  1.00  0.00     0.031 C 
ATOM     46  C   UNL A   1      37.343  34.321  33.385  1.00  0.00     0.029 A 
ATOM     47  N   UNL A   1      38.948  32.766  33.453  1.00  0.00    -0.354 N 
ATOM     48  C   UNL A   1      39.435  29.939  30.213  1.00  0.00     0.074 A 
ATOM     49  C   UNL A   1      38.501  30.214  29.144  1.00  0.00     0.031 C 
ATOM     50  C   UNL A   1      37.971  34.440  34.566  1.00  0.00     0.029 A 
ATOM     51  C   UNL A   1      39.005  33.413  34.662  1.00  0.00     0.049 A 
ATOM     52  H   UNL A   1      39.558  32.034  33.204  1.00  0.00     0.167 HD
ATOM     53  C   UNL A   1      40.351  28.943  30.189  1.00  0.00     0.037 A 
ATOM     54  C   UNL A   1      39.790  33.191  35.735  1.00  0.00     0.037 A 
ATOM     55  C   UNL A   1      41.302  28.699  31.242  1.00  0.00     0.049 A 
ATOM     56  C   UNL A   1      40.805  32.081  35.685  1.00  0.00     0.074 A 
ATOM     57  C   UNL A   1      42.315  27.758  31.287  1.00  0.00     0.029 A 
ATOM     58  N   UNL A   1      41.356  29.405  32.434  1.00  0.00    -0.354 N 
ATOM     59  N   UNL A   1      41.049  31.225  34.722  1.00  0.00    -0.248 NA
ATOM     60  C   UNL A   1      41.659  31.908  36.869  1.00  0.00     0.031 C 
ATOM     61  C   UNL A   1      42.952  27.863  32.528  1.00  0.00     0.029 A 
ATOM     62  C   UNL A   1      42.375  28.908  33.231  1.00  0.00     0.049 A 
ATOM     63  H   UNL A   1      40.759  30.150  32.678  1.00  0.00     0.167 HD
ATOM     64  C   UNL A   1      42.104  30.439  35.166  1.00  0.00     0.074 A 
ATOM     65  C   UNL A   1      42.456  30.921  36.486  1.00  0.00     0.031 C 
ATOM     66  C   UNL A   1      42.727  29.415  34.534  1.00  0.00     0.037 A 
BRANCH  53  67
ATOM     67  C   UNL A   1      40.362  28.041  28.989  1.00  0.00     0.064 A 
ATOM     68  C   UNL A   1      39.633  26.841  28.960  1.00  0.00     0.173 A 
ATOM     69  C   UNL A   1      41.101  28.385  27.848  1.00  0.00     0.173 A 
ATOM     70  F   UNL A   1      38.920  26.458  30.030  1.00  0.00    -0.203 F 
ATOM     71  C   UNL A   1      39.678  26.001  27.851  1.00  0.00     0.198 A 
ATOM     72  C   UNL A   1      41.115  27.560  26.727  1.00  0.00     0.198 A 
ATOM     73  F   UNL A   1      41.810  29.524  27.818  1.00  0.00    -0.203 F 
ATOM     74  F   UNL A   1      39.027  24.831  27.873  1.00  0.00    -0.200 F 
ATOM     75  C   UNL A   1      40.413  26.364  26.733  1.00  0.00     0.200 A 
ATOM     76  F   UNL A   1      41.815  27.919  25.641  1.00  0.00    -0.200 F 
ATOM     77  F   UNL A   1      40.455  25.556  25.665  1.00  0.00    -0.200 F 
ENDBRANCH  53  67
BRANCH  54  78
ATOM     78  C   UNL A   1      39.662  34.056  36.937  1.00  0.00     0.064 A 
ATOM     79  C   UNL A   1      38.867  33.663  38.023  1.00  0.00     0.173 A 
ATOM     80  C   UNL A   1      40.333  35.284  37.031  1.00  0.00     0.173 A 
ATOM     81  F   UNL A   1      38.190  32.506  37.971  1.00  0.00    -0.203 F 
ATOM     82  C   UNL A   1      38.738  34.470  39.151  1.00  0.00     0.198 A 
ATOM     83  C   UNL A   1      40.224  36.078  38.171  1.00  0.00     0.198 A 
ATOM     84  F   UNL A   1      41.111  35.705  36.022  1.00  0.00    -0.203 F 
ATOM     85  F   UNL A   1      37.940  34.086  40.157  1.00  0.00    -0.200 F 
ATOM     86  C   UNL A   1      39.421  35.673  39.228  1.00  0.00     0.200 A 
ATOM     87  F   UNL A   1      40.899  37.233  38.248  1.00  0.00    -0.200 F 
ATOM     88  F   UNL A   1      39.302  36.445  40.316  1.00  0.00    -0.200 F 
ENDBRANCH  54  78
BRANCH  66  89
ATOM     89  C   UNL A   1      43.893  28.775  35.228  1.00  0.00     0.064 A 
ATOM     90  C   UNL A   1      45.197  29.275  35.098  1.00  0.00     0.173 A 
ATOM     91  C   UNL A   1      43.687  27.690  36.095  1.00  0.00     0.173 A 
ATOM     92  F   UNL A   1      45.448  30.300  34.272  1.00  0.00    -0.203 F 
ATOM     93  C   UNL A   1      46.254  28.701  35.800  1.00  0.00     0.198 A 
ATOM     94  C   UNL A   1      44.740  27.139  36.817  1.00  0.00     0.198 A 
ATOM     95  F   UNL A   1      42.457  27.181  36.259  1.00  0.00    -0.203 F 
ATOM     96  F   UNL A   1      47.498  29.171  35.636  1.00  0.00    -0.200 F 
ATOM     97  C   UNL A   1      46.024  27.641  36.666  1.00  0.00     0.200 A 
ATOM     98  F   UNL A   1      44.513  26.126  37.664  1.00  0.00    -0.200 F 
ATOM     99  F   UNL A   1      47.041  27.103  37.354  1.00  0.00    -0.200 F 
ENDBRANCH  66  89
ENDBRANCH  40  41
ENDBRANCH  32  35
ENDBRANCH  30  31
ENDBRANCH  29  30
ENDBRANCH  28  29
ENDBRANCH   1  28
TORSDOF 16
ENDMDL
