MODEL 1
REMARK VINA RESULT:     -11.9      0.000      0.000
REMARK SMILES CN(CC(C)(C)O)C(=O)NC[C@@H](C(=O)NCCCCNC(=O)c1ccc(-c2c3nc(c(-c4c(F)c(F)c(F)c(F)c4F)c4ccc([nH]4)c(-c4c(F)c(F)c(F)c(F)c4F)c4nc(c(-c5c(F)c(F)c(F)c(F)c5F)c5ccc2[nH]5)C=C4)C=C3)cc1)c1ccccc1
REMARK SMILES IDX 13 1 14 2 15 3 12 5 11 6 10 7 8 8 9 9 2 11 1 12 3 13 4 14
REMARK SMILES IDX 5 15 6 16 7 17 86 19 87 20 91 21 88 22 90 23 89 24 16 25
REMARK SMILES IDX 17 26 18 27 19 28 20 29 21 30 22 32 23 33 24 34 85 35 25 36
REMARK SMILES IDX 84 37 26 38 27 39 28 40 78 41 29 42 83 43 77 44 79 45 30 46
REMARK SMILES IDX 82 47 76 48 75 49 31 51 63 52 43 53 62 54 44 55 47 56 61 57
REMARK SMILES IDX 80 58 45 59 46 60 60 62 81 63 48 64 32 65 33 66 41 67 34 68
REMARK SMILES IDX 35 69 39 70 42 71 36 72 37 73 40 74 38 75 64 76 65 77 73 78
REMARK SMILES IDX 66 79 67 80 71 81 74 82 68 83 69 84 72 85 70 86 49 87 50 88
REMARK SMILES IDX 58 89 51 90 52 91 56 92 59 93 53 94 54 95 57 96 55 97
REMARK H PARENT 15 4 10 10 7 18 20 31 79 50 47 61
REMARK Flexibility Score: inf
ROOT
ATOM      1  C   UNL A   1      34.267  21.234  26.254  1.00  0.00     0.229 C 
ATOM      2  O   UNL A   1      33.606  21.010  27.270  1.00  0.00    -0.274 OA
ATOM      3  N   UNL A   1      35.569  21.610  26.448  1.00  0.00    -0.356 N 
ATOM      4  H   UNL A   1      36.007  21.246  27.251  1.00  0.00     0.163 HD
ENDROOT
BRANCH   1   5
ATOM      5  C   UNL A   1      33.704  21.083  24.826  1.00  0.00     0.128 C 
BRANCH   5   6
ATOM      6  C   UNL A   1      32.288  21.728  24.747  1.00  0.00     0.136 C 
BRANCH   6   7
ATOM      7  N   UNL A   1      31.955  22.681  25.805  1.00  0.00    -0.337 N 
ATOM      8  C   UNL A   1      31.728  23.977  26.045  1.00  0.00     0.317 C 
ATOM      9  O   UNL A   1      31.602  24.230  27.251  1.00  0.00    -0.249 OA
ATOM     10  H   UNL A   1      31.862  22.187  26.653  1.00  0.00     0.165 HD
BRANCH   8  11
ATOM     11  N   UNL A   1      31.638  24.964  25.115  1.00  0.00    -0.325 N 
ATOM     12  C   UNL A   1      30.278  25.318  24.697  1.00  0.00     0.148 C 
BRANCH  11  13
ATOM     13  C   UNL A   1      32.695  25.693  24.412  1.00  0.00     0.155 C 
BRANCH  13  14
ATOM     14  C   UNL A   1      33.070  25.142  23.006  1.00  0.00     0.077 C 
ATOM     15  C   UNL A   1      33.277  26.256  21.984  1.00  0.00     0.043 C 
ATOM     16  C   UNL A   1      34.325  24.268  23.128  1.00  0.00     0.043 C 
BRANCH  14  17
ATOM     17  O   UNL A   1      32.026  24.292  22.511  1.00  0.00    -0.389 OA
ATOM     18  H   UNL A   1      32.405  23.625  21.918  1.00  0.00     0.211 HD
ENDBRANCH  14  17
ENDBRANCH  13  14
ENDBRANCH  11  13
ENDBRANCH   8  11
ENDBRANCH   6   7
ENDBRANCH   5   6
BRANCH   5  19
ATOM     19  C   UNL A   1      33.660  19.622  24.316  1.00  0.00    -0.034 A 
ATOM     20  C   UNL A   1      32.609  19.226  23.467  1.00  0.00     0.004 A 
ATOM     21  C   UNL A   1      34.615  18.642  24.626  1.00  0.00     0.004 A 
ATOM     22  C   UNL A   1      32.470  17.914  23.008  1.00  0.00     0.000 A 
ATOM     23  C   UNL A   1      34.479  17.321  24.174  1.00  0.00     0.000 A 
ATOM     24  C   UNL A   1      33.402  16.955  23.375  1.00  0.00     0.000 A 
ENDBRANCH   5  19
ENDBRANCH   1   5
BRANCH   3  25
ATOM     25  C   UNL A   1      36.384  22.478  25.618  1.00  0.00     0.116 C 
BRANCH  25  26
ATOM     26  C   UNL A   1      37.152  21.642  24.591  1.00  0.00     0.023 C 
BRANCH  26  27
ATOM     27  C   UNL A   1      37.813  20.383  25.137  1.00  0.00     0.023 C 
BRANCH  27  28
ATOM     28  C   UNL A   1      39.138  20.630  25.830  1.00  0.00     0.116 C 
BRANCH  28  29
ATOM     29  N   UNL A   1      39.974  19.439  25.910  1.00  0.00    -0.352 N 
ATOM     30  C   UNL A   1      41.331  19.353  26.126  1.00  0.00     0.251 C 
ATOM     31  H   UNL A   1      39.506  18.582  25.795  1.00  0.00     0.163 HD
ATOM     32  O   UNL A   1      41.917  18.283  26.057  1.00  0.00    -0.269 OA
BRANCH  30  33
ATOM     33  C   UNL A   1      42.081  20.596  26.397  1.00  0.00     0.039 A 
ATOM     34  C   UNL A   1      42.532  21.363  25.322  1.00  0.00     0.014 A 
ATOM     35  C   UNL A   1      42.248  21.041  27.711  1.00  0.00     0.014 A 
ATOM     36  C   UNL A   1      43.072  22.626  25.562  1.00  0.00     0.010 A 
ATOM     37  C   UNL A   1      42.688  22.338  27.939  1.00  0.00     0.010 A 
ATOM     38  C   UNL A   1      43.105  23.143  26.868  1.00  0.00    -0.014 A 
BRANCH  38  39
ATOM     39  C   UNL A   1      43.575  24.523  27.145  1.00  0.00     0.031 A 
ATOM     40  C   UNL A   1      42.609  25.546  27.673  1.00  0.00     0.074 A 
ATOM     41  C   UNL A   1      44.840  24.873  26.842  1.00  0.00     0.049 A 
ATOM     42  N   UNL A   1      42.791  26.825  27.885  1.00  0.00    -0.248 NA
ATOM     43  C   UNL A   1      41.245  25.079  27.963  1.00  0.00     0.031 C 
ATOM     44  C   UNL A   1      45.853  23.986  26.266  1.00  0.00     0.029 A 
ATOM     45  N   UNL A   1      45.488  26.077  26.965  1.00  0.00    -0.354 N 
ATOM     46  C   UNL A   1      41.563  27.313  28.309  1.00  0.00     0.074 A 
ATOM     47  C   UNL A   1      40.629  26.210  28.266  1.00  0.00     0.031 C 
ATOM     48  C   UNL A   1      46.999  24.667  26.112  1.00  0.00     0.029 A 
ATOM     49  C   UNL A   1      46.795  26.046  26.540  1.00  0.00     0.049 A 
ATOM     50  H   UNL A   1      45.058  26.887  27.323  1.00  0.00     0.167 HD
ATOM     51  C   UNL A   1      41.249  28.562  28.725  1.00  0.00     0.037 A 
ATOM     52  C   UNL A   1      47.719  27.025  26.497  1.00  0.00     0.037 A 
ATOM     53  C   UNL A   1      42.193  29.644  28.805  1.00  0.00     0.049 A 
ATOM     54  C   UNL A   1      47.350  28.400  26.984  1.00  0.00     0.074 A 
ATOM     55  C   UNL A   1      41.995  30.928  29.281  1.00  0.00     0.029 A 
ATOM     56  N   UNL A   1      43.517  29.565  28.401  1.00  0.00    -0.354 N 
ATOM     57  N   UNL A   1      46.204  28.832  27.452  1.00  0.00    -0.248 NA
ATOM     58  C   UNL A   1      48.405  29.422  26.942  1.00  0.00     0.031 C 
ATOM     59  C   UNL A   1      43.190  31.639  29.125  1.00  0.00     0.029 A 
ATOM     60  C   UNL A   1      44.144  30.784  28.598  1.00  0.00     0.049 A 
ATOM     61  H   UNL A   1      43.947  28.762  28.028  1.00  0.00     0.167 HD
ATOM     62  C   UNL A   1      46.407  30.165  27.785  1.00  0.00     0.074 A 
ATOM     63  C   UNL A   1      47.790  30.465  27.481  1.00  0.00     0.031 C 
ATOM     64  C   UNL A   1      45.526  31.059  28.298  1.00  0.00     0.037 A 
BRANCH  51  65
ATOM     65  C   UNL A   1      39.829  28.817  29.139  1.00  0.00     0.064 A 
ATOM     66  C   UNL A   1      39.404  28.634  30.464  1.00  0.00     0.173 A 
ATOM     67  C   UNL A   1      38.887  29.276  28.206  1.00  0.00     0.173 A 
ATOM     68  F   UNL A   1      40.261  28.182  31.392  1.00  0.00    -0.203 F 
ATOM     69  C   UNL A   1      38.082  28.869  30.832  1.00  0.00     0.198 A 
ATOM     70  C   UNL A   1      37.574  29.541  28.585  1.00  0.00     0.198 A 
ATOM     71  F   UNL A   1      39.241  29.472  26.927  1.00  0.00    -0.203 F 
ATOM     72  F   UNL A   1      37.687  28.634  32.091  1.00  0.00    -0.200 F 
ATOM     73  C   UNL A   1      37.170  29.329  29.894  1.00  0.00     0.200 A 
ATOM     74  F   UNL A   1      36.697  29.998  27.680  1.00  0.00    -0.200 F 
ATOM     75  F   UNL A   1      35.900  29.561  30.251  1.00  0.00    -0.200 F 
ENDBRANCH  51  65
BRANCH  52  76
ATOM     76  C   UNL A   1      49.091  26.731  26.008  1.00  0.00     0.064 A 
ATOM     77  C   UNL A   1      49.447  26.980  24.675  1.00  0.00     0.173 A 
ATOM     78  C   UNL A   1      50.071  26.192  26.854  1.00  0.00     0.173 A 
ATOM     79  F   UNL A   1      48.538  27.476  23.822  1.00  0.00    -0.203 F 
ATOM     80  C   UNL A   1      50.723  26.683  24.202  1.00  0.00     0.198 A 
ATOM     81  C   UNL A   1      51.355  25.921  26.387  1.00  0.00     0.198 A 
ATOM     82  F   UNL A   1      49.783  25.939  28.139  1.00  0.00    -0.203 F 
ATOM     83  F   UNL A   1      51.022  26.889  22.912  1.00  0.00    -0.200 F 
ATOM     84  C   UNL A   1      51.679  26.159  25.060  1.00  0.00     0.200 A 
ATOM     85  F   UNL A   1      52.280  25.428  27.222  1.00  0.00    -0.200 F 
ATOM     86  F   UNL A   1      52.906  25.876  24.605  1.00  0.00    -0.200 F 
ENDBRANCH  52  76
BRANCH  64  87
ATOM     87  C   UNL A   1      46.040  32.436  28.596  1.00  0.00     0.064 A 
ATOM     88  C   UNL A   1      46.628  32.752  29.830  1.00  0.00     0.173 A 
ATOM     89  C   UNL A   1      45.984  33.440  27.618  1.00  0.00     0.173 A 
ATOM     90  F   UNL A   1      46.691  31.829  30.803  1.00  0.00    -0.203 F 
ATOM     91  C   UNL A   1      47.120  34.029  30.081  1.00  0.00     0.198 A 
ATOM     92  C   UNL A   1      46.504  34.707  27.861  1.00  0.00     0.198 A 
ATOM     93  F   UNL A   1      45.439  33.186  26.418  1.00  0.00    -0.203 F 
ATOM     94  F   UNL A   1      47.636  34.322  31.282  1.00  0.00    -0.200 F 
ATOM     95  C   UNL A   1      47.064  35.003  29.094  1.00  0.00     0.200 A 
ATOM     96  F   UNL A   1      46.463  35.644  26.903  1.00  0.00    -0.200 F 
ATOM     97  F   UNL A   1      47.547  36.230  29.336  1.00  0.00    -0.200 F 
ENDBRANCH  64  87
ENDBRANCH  38  39
ENDBRANCH  30  33
ENDBRANCH  28  29
ENDBRANCH  27  28
ENDBRANCH  26  27
ENDBRANCH  25  26
ENDBRANCH   3  25
TORSDOF 18
ENDMDL
MODEL 2
REMARK VINA RESULT:     -11.7      0.764      2.031
REMARK SMILES CN(CC(C)(C)O)C(=O)NC[C@@H](C(=O)NCCCCNC(=O)c1ccc(-c2c3nc(c(-c4c(F)c(F)c(F)c(F)c4F)c4ccc([nH]4)c(-c4c(F)c(F)c(F)c(F)c4F)c4nc(c(-c5c(F)c(F)c(F)c(F)c5F)c5ccc2[nH]5)C=C4)C=C3)cc1)c1ccccc1
REMARK SMILES IDX 13 1 14 2 15 3 12 5 11 6 10 7 8 8 9 9 2 11 1 12 3 13 4 14
REMARK SMILES IDX 5 15 6 16 7 17 86 19 87 20 91 21 88 22 90 23 89 24 16 25
REMARK SMILES IDX 17 26 18 27 19 28 20 29 21 30 22 32 23 33 24 34 85 35 25 36
REMARK SMILES IDX 84 37 26 38 27 39 28 40 78 41 29 42 83 43 77 44 79 45 30 46
REMARK SMILES IDX 82 47 76 48 75 49 31 51 63 52 43 53 62 54 44 55 47 56 61 57
REMARK SMILES IDX 80 58 45 59 46 60 60 62 81 63 48 64 32 65 33 66 41 67 34 68
REMARK SMILES IDX 35 69 39 70 42 71 36 72 37 73 40 74 38 75 64 76 65 77 73 78
REMARK SMILES IDX 66 79 67 80 71 81 74 82 68 83 69 84 72 85 70 86 49 87 50 88
REMARK SMILES IDX 58 89 51 90 52 91 56 92 59 93 53 94 54 95 57 96 55 97
REMARK H PARENT 15 4 10 10 7 18 20 31 79 50 47 61
REMARK Flexibility Score: inf
ROOT
ATOM      1  C   UNL A   1      34.662  21.397  26.278  1.00  0.00     0.229 C 
ATOM      2  O   UNL A   1      33.922  21.426  27.264  1.00  0.00    -0.274 OA
ATOM      3  N   UNL A   1      35.937  21.860  26.462  1.00  0.00    -0.356 N 
ATOM      4  H   UNL A   1      36.313  21.738  27.364  1.00  0.00     0.163 HD
ENDROOT
BRANCH   1   5
ATOM      5  C   UNL A   1      34.221  20.853  24.904  1.00  0.00     0.128 C 
BRANCH   5   6
ATOM      6  C   UNL A   1      32.998  21.663  24.383  1.00  0.00     0.136 C 
BRANCH   6   7
ATOM      7  N   UNL A   1      33.267  22.609  23.299  1.00  0.00    -0.337 N 
ATOM      8  C   UNL A   1      32.925  23.810  22.818  1.00  0.00     0.317 C 
ATOM      9  O   UNL A   1      33.439  24.051  21.717  1.00  0.00    -0.249 OA
ATOM     10  H   UNL A   1      33.952  22.220  22.708  1.00  0.00     0.165 HD
BRANCH   8  11
ATOM     11  N   UNL A   1      32.105  24.713  23.416  1.00  0.00    -0.325 N 
ATOM     12  C   UNL A   1      30.669  24.498  23.209  1.00  0.00     0.148 C 
BRANCH  11  13
ATOM     13  C   UNL A   1      32.430  25.913  24.188  1.00  0.00     0.155 C 
BRANCH  13  14
ATOM     14  C   UNL A   1      32.963  25.661  25.628  1.00  0.00     0.077 C 
ATOM     15  C   UNL A   1      32.120  24.642  26.388  1.00  0.00     0.043 C 
ATOM     16  C   UNL A   1      34.428  25.213  25.549  1.00  0.00     0.043 C 
BRANCH  14  17
ATOM     17  O   UNL A   1      32.947  26.881  26.382  1.00  0.00    -0.389 OA
ATOM     18  H   UNL A   1      33.219  27.618  25.812  1.00  0.00     0.211 HD
ENDBRANCH  14  17
ENDBRANCH  13  14
ENDBRANCH  11  13
ENDBRANCH   8  11
ENDBRANCH   6   7
ENDBRANCH   5   6
BRANCH   5  19
ATOM     19  C   UNL A   1      33.906  19.337  24.897  1.00  0.00    -0.034 A 
ATOM     20  C   UNL A   1      34.872  18.440  24.405  1.00  0.00     0.004 A 
ATOM     21  C   UNL A   1      32.711  18.771  25.368  1.00  0.00     0.004 A 
ATOM     22  C   UNL A   1      34.642  17.065  24.315  1.00  0.00     0.000 A 
ATOM     23  C   UNL A   1      32.470  17.393  25.276  1.00  0.00     0.000 A 
ATOM     24  C   UNL A   1      33.431  16.541  24.740  1.00  0.00     0.000 A 
ENDBRANCH   5  19
ENDBRANCH   1   5
BRANCH   3  25
ATOM     25  C   UNL A   1      36.803  22.507  25.495  1.00  0.00     0.116 C 
BRANCH  25  26
ATOM     26  C   UNL A   1      37.373  21.465  24.529  1.00  0.00     0.023 C 
BRANCH  26  27
ATOM     27  C   UNL A   1      38.001  20.242  25.185  1.00  0.00     0.023 C 
BRANCH  27  28
ATOM     28  C   UNL A   1      39.338  20.512  25.846  1.00  0.00     0.116 C 
BRANCH  28  29
ATOM     29  N   UNL A   1      40.185  19.330  25.931  1.00  0.00    -0.352 N 
ATOM     30  C   UNL A   1      41.541  19.257  26.160  1.00  0.00     0.251 C 
ATOM     31  H   UNL A   1      39.727  18.468  25.808  1.00  0.00     0.163 HD
ATOM     32  O   UNL A   1      42.138  18.194  26.094  1.00  0.00    -0.269 OA
BRANCH  30  33
ATOM     33  C   UNL A   1      42.276  20.507  26.443  1.00  0.00     0.039 A 
ATOM     34  C   UNL A   1      42.759  21.264  25.374  1.00  0.00     0.014 A 
ATOM     35  C   UNL A   1      42.396  20.967  27.756  1.00  0.00     0.014 A 
ATOM     36  C   UNL A   1      43.284  22.532  25.618  1.00  0.00     0.010 A 
ATOM     37  C   UNL A   1      42.822  22.268  27.984  1.00  0.00     0.010 A 
ATOM     38  C   UNL A   1      43.271  23.064  26.919  1.00  0.00    -0.014 A 
BRANCH  38  39
ATOM     39  C   UNL A   1      43.725  24.449  27.196  1.00  0.00     0.031 A 
ATOM     40  C   UNL A   1      42.745  25.464  27.712  1.00  0.00     0.074 A 
ATOM     41  C   UNL A   1      44.989  24.810  26.903  1.00  0.00     0.049 A 
ATOM     42  N   UNL A   1      42.912  26.745  27.922  1.00  0.00    -0.248 NA
ATOM     43  C   UNL A   1      41.383  24.984  27.991  1.00  0.00     0.031 C 
ATOM     44  C   UNL A   1      46.016  23.932  26.340  1.00  0.00     0.029 A 
ATOM     45  N   UNL A   1      45.624  26.022  27.029  1.00  0.00    -0.354 N 
ATOM     46  C   UNL A   1      41.676  27.222  28.334  1.00  0.00     0.074 A 
ATOM     47  C   UNL A   1      40.752  26.110  28.285  1.00  0.00     0.031 C 
ATOM     48  C   UNL A   1      47.157  24.623  26.194  1.00  0.00     0.029 A 
ATOM     49  C   UNL A   1      46.935  26.002  26.616  1.00  0.00     0.049 A 
ATOM     50  H   UNL A   1      45.183  26.828  27.381  1.00  0.00     0.167 HD
ATOM     51  C   UNL A   1      41.346  28.469  28.744  1.00  0.00     0.037 A 
ATOM     52  C   UNL A   1      47.850  26.990  26.579  1.00  0.00     0.037 A 
ATOM     53  C   UNL A   1      42.278  29.561  28.829  1.00  0.00     0.049 A 
ATOM     54  C   UNL A   1      47.463  28.362  27.058  1.00  0.00     0.074 A 
ATOM     55  C   UNL A   1      42.064  30.844  29.299  1.00  0.00     0.029 A 
ATOM     56  N   UNL A   1      43.606  29.493  28.437  1.00  0.00    -0.354 N 
ATOM     57  N   UNL A   1      46.309  28.785  27.514  1.00  0.00    -0.248 NA
ATOM     58  C   UNL A   1      48.509  29.394  27.022  1.00  0.00     0.031 C 
ATOM     59  C   UNL A   1      43.252  31.566  29.152  1.00  0.00     0.029 A 
ATOM     60  C   UNL A   1      44.220  30.720  28.636  1.00  0.00     0.049 A 
ATOM     61  H   UNL A   1      44.048  28.694  28.070  1.00  0.00     0.167 HD
ATOM     62  C   UNL A   1      46.495  30.120  27.846  1.00  0.00     0.074 A 
ATOM     63  C   UNL A   1      47.878  30.433  27.552  1.00  0.00     0.031 C 
ATOM     64  C   UNL A   1      45.601  31.007  28.348  1.00  0.00     0.037 A 
BRANCH  51  65
ATOM     65  C   UNL A   1      39.920  28.712  29.144  1.00  0.00     0.064 A 
ATOM     66  C   UNL A   1      38.968  29.182  28.225  1.00  0.00     0.173 A 
ATOM     67  C   UNL A   1      39.492  28.447  30.453  1.00  0.00     0.173 A 
ATOM     68  F   UNL A   1      39.328  29.464  26.964  1.00  0.00    -0.203 F 
ATOM     69  C   UNL A   1      37.649  29.409  28.612  1.00  0.00     0.198 A 
ATOM     70  C   UNL A   1      38.165  28.645  30.827  1.00  0.00     0.198 A 
ATOM     71  F   UNL A   1      40.360  27.994  31.370  1.00  0.00    -0.203 F 
ATOM     72  F   UNL A   1      36.772  29.910  27.731  1.00  0.00    -0.200 F 
ATOM     73  C   UNL A   1      37.248  29.134  29.909  1.00  0.00     0.200 A 
ATOM     74  F   UNL A   1      37.776  28.367  32.079  1.00  0.00    -0.200 F 
ATOM     75  F   UNL A   1      35.977  29.347  30.278  1.00  0.00    -0.200 F 
ENDBRANCH  51  65
BRANCH  52  76
ATOM     76  C   UNL A   1      49.229  26.708  26.103  1.00  0.00     0.064 A 
ATOM     77  C   UNL A   1      50.199  26.193  26.974  1.00  0.00     0.173 A 
ATOM     78  C   UNL A   1      49.610  26.950  24.775  1.00  0.00     0.173 A 
ATOM     79  F   UNL A   1      49.889  25.965  28.260  1.00  0.00    -0.203 F 
ATOM     80  C   UNL A   1      51.501  25.951  26.543  1.00  0.00     0.198 A 
ATOM     81  C   UNL A   1      50.905  26.681  24.337  1.00  0.00     0.198 A 
ATOM     82  F   UNL A   1      48.719  27.437  23.899  1.00  0.00    -0.203 F 
ATOM     83  F   UNL A   1      52.420  25.503  27.410  1.00  0.00    -0.200 F 
ATOM     84  C   UNL A   1      51.852  26.189  25.223  1.00  0.00     0.200 A 
ATOM     85  F   UNL A   1      51.237  26.900  23.057  1.00  0.00    -0.200 F 
ATOM     86  F   UNL A   1      53.104  25.954  24.807  1.00  0.00    -0.200 F 
ENDBRANCH  52  76
BRANCH  64  87
ATOM     87  C   UNL A   1      46.100  32.390  28.646  1.00  0.00     0.064 A 
ATOM     88  C   UNL A   1      46.662  32.718  29.889  1.00  0.00     0.173 A 
ATOM     89  C   UNL A   1      46.054  33.387  27.661  1.00  0.00     0.173 A 
ATOM     90  F   UNL A   1      46.714  31.802  30.869  1.00  0.00    -0.203 F 
ATOM     91  C   UNL A   1      47.139  34.000  30.141  1.00  0.00     0.198 A 
ATOM     92  C   UNL A   1      46.559  34.660  27.906  1.00  0.00     0.198 A 
ATOM     93  F   UNL A   1      45.532  33.122  26.453  1.00  0.00    -0.203 F 
ATOM     94  F   UNL A   1      47.631  34.305  31.350  1.00  0.00    -0.200 F 
ATOM     95  C   UNL A   1      47.094  34.968  29.147  1.00  0.00     0.200 A 
ATOM     96  F   UNL A   1      46.528  35.590  26.941  1.00  0.00    -0.200 F 
ATOM     97  F   UNL A   1      47.563  36.200  29.390  1.00  0.00    -0.200 F 
ENDBRANCH  64  87
ENDBRANCH  38  39
ENDBRANCH  30  33
ENDBRANCH  28  29
ENDBRANCH  27  28
ENDBRANCH  26  27
ENDBRANCH  25  26
ENDBRANCH   3  25
TORSDOF 18
ENDMDL
MODEL 3
REMARK VINA RESULT:     -11.6      0.755      7.310
REMARK SMILES CN(CC(C)(C)O)C(=O)NC[C@@H](C(=O)NCCCCNC(=O)c1ccc(-c2c3nc(c(-c4c(F)c(F)c(F)c(F)c4F)c4ccc([nH]4)c(-c4c(F)c(F)c(F)c(F)c4F)c4nc(c(-c5c(F)c(F)c(F)c(F)c5F)c5ccc2[nH]5)C=C4)C=C3)cc1)c1ccccc1
REMARK SMILES IDX 13 1 14 2 15 3 12 5 11 6 10 7 8 8 9 9 2 11 1 12 3 13 4 14
REMARK SMILES IDX 5 15 6 16 7 17 86 19 87 20 91 21 88 22 90 23 89 24 16 25
REMARK SMILES IDX 17 26 18 27 19 28 20 29 21 30 22 32 23 33 24 34 85 35 25 36
REMARK SMILES IDX 84 37 26 38 27 39 28 40 78 41 29 42 83 43 77 44 79 45 30 46
REMARK SMILES IDX 82 47 76 48 75 49 31 51 63 52 43 53 62 54 44 55 47 56 61 57
REMARK SMILES IDX 80 58 45 59 46 60 60 62 81 63 48 64 32 65 33 66 41 67 34 68
REMARK SMILES IDX 35 69 39 70 42 71 36 72 37 73 40 74 38 75 64 76 65 77 73 78
REMARK SMILES IDX 66 79 67 80 71 81 74 82 68 83 69 84 72 85 70 86 49 87 50 88
REMARK SMILES IDX 58 89 51 90 52 91 56 92 59 93 53 94 54 95 57 96 55 97
REMARK H PARENT 15 4 10 10 7 18 20 31 79 50 47 61
REMARK Flexibility Score: inf
ROOT
ATOM      1  C   UNL A   1      34.178  21.127  26.127  1.00  0.00     0.229 C 
ATOM      2  O   UNL A   1      33.772  20.966  27.280  1.00  0.00    -0.274 OA
ATOM      3  N   UNL A   1      35.518  21.364  25.983  1.00  0.00    -0.356 N 
ATOM      4  H   UNL A   1      36.104  20.951  26.659  1.00  0.00     0.163 HD
ENDROOT
BRANCH   1   5
ATOM      5  C   UNL A   1      33.264  21.044  24.887  1.00  0.00     0.128 C 
BRANCH   5   6
ATOM      6  C   UNL A   1      31.809  21.436  25.279  1.00  0.00     0.136 C 
BRANCH   6   7
ATOM      7  N   UNL A   1      31.673  22.528  26.243  1.00  0.00    -0.337 N 
ATOM      8  C   UNL A   1      31.987  23.811  26.458  1.00  0.00     0.317 C 
ATOM      9  O   UNL A   1      31.684  24.197  27.595  1.00  0.00    -0.249 OA
ATOM     10  H   UNL A   1      31.162  22.198  27.018  1.00  0.00     0.165 HD
BRANCH   8  11
ATOM     11  N   UNL A   1      32.578  24.654  25.571  1.00  0.00    -0.325 N 
ATOM     12  C   UNL A   1      34.030  24.802  25.711  1.00  0.00     0.148 C 
BRANCH  11  13
ATOM     13  C   UNL A   1      31.984  25.493  24.530  1.00  0.00     0.155 C 
BRANCH  13  14
ATOM     14  C   UNL A   1      31.706  24.784  23.172  1.00  0.00     0.077 C 
ATOM     15  C   UNL A   1      30.363  24.060  23.161  1.00  0.00     0.043 C 
ATOM     16  C   UNL A   1      31.783  25.818  22.042  1.00  0.00     0.043 C 
BRANCH  14  17
ATOM     17  O   UNL A   1      32.724  23.809  22.905  1.00  0.00    -0.389 OA
ATOM     18  H   UNL A   1      32.336  23.058  22.429  1.00  0.00     0.211 HD
ENDBRANCH  14  17
ENDBRANCH  13  14
ENDBRANCH  11  13
ENDBRANCH   8  11
ENDBRANCH   6   7
ENDBRANCH   5   6
BRANCH   5  19
ATOM     19  C   UNL A   1      33.280  19.666  24.182  1.00  0.00    -0.034 A 
ATOM     20  C   UNL A   1      34.187  18.683  24.620  1.00  0.00     0.004 A 
ATOM     21  C   UNL A   1      32.430  19.305  23.125  1.00  0.00     0.004 A 
ATOM     22  C   UNL A   1      34.299  17.437  24.001  1.00  0.00     0.000 A 
ATOM     23  C   UNL A   1      32.540  18.057  22.494  1.00  0.00     0.000 A 
ATOM     24  C   UNL A   1      33.482  17.128  22.924  1.00  0.00     0.000 A 
ENDBRANCH   5  19
ENDBRANCH   1   5
BRANCH   3  25
ATOM     25  C   UNL A   1      36.185  22.148  24.960  1.00  0.00     0.116 C 
BRANCH  25  26
ATOM     26  C   UNL A   1      37.258  21.299  24.272  1.00  0.00     0.023 C 
BRANCH  26  27
ATOM     27  C   UNL A   1      37.816  20.153  25.106  1.00  0.00     0.023 C 
BRANCH  27  28
ATOM     28  C   UNL A   1      39.084  20.496  25.862  1.00  0.00     0.116 C 
BRANCH  28  29
ATOM     29  N   UNL A   1      40.023  19.385  25.941  1.00  0.00    -0.352 N 
ATOM     30  C   UNL A   1      41.383  19.421  26.149  1.00  0.00     0.251 C 
ATOM     31  H   UNL A   1      39.632  18.489  25.831  1.00  0.00     0.163 HD
ATOM     32  O   UNL A   1      42.062  18.408  26.080  1.00  0.00    -0.269 OA
BRANCH  30  33
ATOM     33  C   UNL A   1      42.021  20.727  26.412  1.00  0.00     0.039 A 
ATOM     34  C   UNL A   1      42.351  21.548  25.333  1.00  0.00     0.014 A 
ATOM     35  C   UNL A   1      42.198  21.168  27.725  1.00  0.00     0.014 A 
ATOM     36  C   UNL A   1      42.777  22.854  25.573  1.00  0.00     0.010 A 
ATOM     37  C   UNL A   1      42.521  22.498  27.959  1.00  0.00     0.010 A 
ATOM     38  C   UNL A   1      42.814  23.354  26.886  1.00  0.00    -0.014 A 
BRANCH  38  39
ATOM     39  C   UNL A   1      43.160  24.769  27.168  1.00  0.00     0.031 A 
ATOM     40  C   UNL A   1      44.555  25.262  26.903  1.00  0.00     0.074 A 
ATOM     41  C   UNL A   1      42.248  25.581  27.738  1.00  0.00     0.049 A 
ATOM     42  N   UNL A   1      45.087  26.427  27.172  1.00  0.00    -0.248 NA
ATOM     43  C   UNL A   1      45.488  24.304  26.291  1.00  0.00     0.031 C 
ATOM     44  C   UNL A   1      40.882  25.201  28.100  1.00  0.00     0.029 A 
ATOM     45  N   UNL A   1      42.339  26.895  28.126  1.00  0.00    -0.354 N 
ATOM     46  C   UNL A   1      46.416  26.331  26.783  1.00  0.00     0.074 A 
ATOM     47  C   UNL A   1      46.627  24.978  26.319  1.00  0.00     0.031 C 
ATOM     48  C   UNL A   1      40.255  26.263  28.631  1.00  0.00     0.029 A 
ATOM     49  C   UNL A   1      41.183  27.387  28.682  1.00  0.00     0.049 A 
ATOM     50  H   UNL A   1      43.155  27.434  28.015  1.00  0.00     0.167 HD
ATOM     51  C   UNL A   1      47.368  27.293  26.786  1.00  0.00     0.037 A 
ATOM     52  C   UNL A   1      40.909  28.607  29.183  1.00  0.00     0.037 A 
ATOM     53  C   UNL A   1      47.141  28.648  27.211  1.00  0.00     0.049 A 
ATOM     54  C   UNL A   1      41.979  29.664  29.156  1.00  0.00     0.074 A 
ATOM     55  C   UNL A   1      48.017  29.718  27.186  1.00  0.00     0.029 A 
ATOM     56  N   UNL A   1      45.947  29.119  27.735  1.00  0.00    -0.354 N 
ATOM     57  N   UNL A   1      43.213  29.583  28.720  1.00  0.00    -0.248 NA
ATOM     58  C   UNL A   1      41.617  30.985  29.688  1.00  0.00     0.031 C 
ATOM     59  C   UNL A   1      47.365  30.828  27.735  1.00  0.00     0.029 A 
ATOM     60  C   UNL A   1      46.069  30.461  28.056  1.00  0.00     0.049 A 
ATOM     61  H   UNL A   1      45.133  28.579  27.861  1.00  0.00     0.167 HD
ATOM     62  C   UNL A   1      43.765  30.844  28.897  1.00  0.00     0.074 A 
ATOM     63  C   UNL A   1      42.727  31.677  29.467  1.00  0.00     0.031 C 
ATOM     64  C   UNL A   1      45.019  31.274  28.612  1.00  0.00     0.037 A 
BRANCH  51  65
ATOM     65  C   UNL A   1      48.737  26.913  26.302  1.00  0.00     0.064 A 
ATOM     66  C   UNL A   1      49.714  26.414  27.178  1.00  0.00     0.173 A 
ATOM     67  C   UNL A   1      49.070  27.026  24.944  1.00  0.00     0.173 A 
ATOM     68  F   UNL A   1      49.453  26.300  28.488  1.00  0.00    -0.203 F 
ATOM     69  C   UNL A   1      50.983  26.071  26.716  1.00  0.00     0.198 A 
ATOM     70  C   UNL A   1      50.329  26.652  24.481  1.00  0.00     0.198 A 
ATOM     71  F   UNL A   1      48.172  27.495  24.065  1.00  0.00    -0.203 F 
ATOM     72  F   UNL A   1      51.916  25.648  27.579  1.00  0.00    -0.200 F 
ATOM     73  C   UNL A   1      51.287  26.184  25.368  1.00  0.00     0.200 A 
ATOM     74  F   UNL A   1      50.616  26.750  23.176  1.00  0.00    -0.200 F 
ATOM     75  F   UNL A   1      52.505  25.849  24.924  1.00  0.00    -0.200 F 
ENDBRANCH  51  65
BRANCH  52  76
ATOM     76  C   UNL A   1      39.555  28.904  29.717  1.00  0.00     0.064 A 
ATOM     77  C   UNL A   1      38.561  29.451  28.894  1.00  0.00     0.173 A 
ATOM     78  C   UNL A   1      39.226  28.656  31.058  1.00  0.00     0.173 A 
ATOM     79  F   UNL A   1      38.835  29.727  27.609  1.00  0.00    -0.203 F 
ATOM     80  C   UNL A   1      37.298  29.758  29.393  1.00  0.00     0.198 A 
ATOM     81  C   UNL A   1      37.953  28.936  31.550  1.00  0.00     0.198 A 
ATOM     82  F   UNL A   1      40.139  28.129  31.887  1.00  0.00    -0.203 F 
ATOM     83  F   UNL A   1      36.383  30.323  28.594  1.00  0.00    -0.200 F 
ATOM     84  C   UNL A   1      36.992  29.495  30.720  1.00  0.00     0.200 A 
ATOM     85  F   UNL A   1      37.657  28.668  32.829  1.00  0.00    -0.200 F 
ATOM     86  F   UNL A   1      35.776  29.787  31.200  1.00  0.00    -0.200 F 
ENDBRANCH  52  76
BRANCH  64  87
ATOM     87  C   UNL A   1      45.326  32.718  28.880  1.00  0.00     0.064 A 
ATOM     88  C   UNL A   1      45.072  33.714  27.925  1.00  0.00     0.173 A 
ATOM     89  C   UNL A   1      45.841  33.114  30.123  1.00  0.00     0.173 A 
ATOM     90  F   UNL A   1      44.595  33.383  26.715  1.00  0.00    -0.203 F 
ATOM     91  C   UNL A   1      45.344  35.051  28.198  1.00  0.00     0.198 A 
ATOM     92  C   UNL A   1      46.083  34.455  30.404  1.00  0.00     0.198 A 
ATOM     93  F   UNL A   1      46.094  32.200  31.073  1.00  0.00    -0.203 F 
ATOM     94  F   UNL A   1      45.137  35.981  27.256  1.00  0.00    -0.200 F 
ATOM     95  C   UNL A   1      45.842  35.421  29.440  1.00  0.00     0.200 A 
ATOM     96  F   UNL A   1      46.550  34.813  31.608  1.00  0.00    -0.200 F 
ATOM     97  F   UNL A   1      46.094  36.711  29.704  1.00  0.00    -0.200 F 
ENDBRANCH  64  87
ENDBRANCH  38  39
ENDBRANCH  30  33
ENDBRANCH  28  29
ENDBRANCH  27  28
ENDBRANCH  26  27
ENDBRANCH  25  26
ENDBRANCH   3  25
TORSDOF 18
ENDMDL
