MODEL 1
REMARK VINA RESULT:     -11.6      0.000      0.000
REMARK SMILES CC(C)C[C@H](NC(=O)CNC(=O)[C@@H](NC(=O)OCc1ccccc1)C(C)C)C(=O)N[C@@H](C)C(=O)NCCCCNC(=O)c1ccc(-c2c3nc(c(-c4c(F)c(F)c(F)c(F)c4F)c4ccc([nH]4)c(-c4c(F)c(F)c(F)c(F)c4F)c4nc(c(-c5c(F)c(F)c(F)c(F)c5F)c5ccc2[nH]5)C=C4)C=C3)cc1
REMARK SMILES IDX 31 1 32 2 30 3 28 4 29 5 5 7 4 8 2 9 1 10 3 11 6 12 7 13
REMARK SMILES IDX 8 15 9 16 10 17 11 18 12 20 13 21 14 22 15 23 16 25 17 26
REMARK SMILES IDX 18 27 19 28 20 29 24 30 21 31 23 32 22 33 25 34 26 35 27 36
REMARK SMILES IDX 33 37 34 38 35 39 36 41 37 42 38 43 39 44 40 45 41 46 42 48
REMARK SMILES IDX 43 49 44 50 105 51 45 52 104 53 46 54 47 55 48 56 98 57
REMARK SMILES IDX 49 58 103 59 97 60 99 61 50 62 102 63 96 64 95 65 51 67
REMARK SMILES IDX 83 68 63 69 82 70 64 71 67 72 81 73 100 74 65 75 66 76 80 78
REMARK SMILES IDX 101 79 68 80 52 81 53 82 61 83 54 84 55 85 59 86 62 87 56 88
REMARK SMILES IDX 57 89 60 90 58 91 84 92 85 93 93 94 86 95 87 96 91 97 94 98
REMARK SMILES IDX 88 99 89 100 92 101 90 102 69 103 70 104 78 105 71 106
REMARK SMILES IDX 72 107 76 108 79 109 73 110 74 111 77 112 75 113
REMARK H PARENT 30 6 6 14 10 19 14 24 35 40 40 47 99 66 67 77
REMARK Flexibility Score: inf
ROOT
ATOM      1  C   UNL A   1      31.867  29.603  26.084  1.00  0.00     0.168 C 
ATOM      2  C   UNL A   1      31.831  28.912  27.437  1.00  0.00     0.041 C 
ENDROOT
BRANCH   1   3
ATOM      3  N   UNL A   1      33.078  29.245  25.340  1.00  0.00    -0.343 N 
ATOM      4  C   UNL A   1      33.200  28.595  24.150  1.00  0.00     0.243 C 
ATOM      5  O   UNL A   1      34.283  28.668  23.569  1.00  0.00    -0.273 OA
ATOM      6  H   UNL A   1      33.926  29.513  25.762  1.00  0.00     0.164 HD
BRANCH   4   7
ATOM      7  C   UNL A   1      31.989  27.877  23.530  1.00  0.00     0.171 C 
BRANCH   7   8
ATOM      8  C   UNL A   1      31.326  26.948  24.545  1.00  0.00     0.038 C 
BRANCH   8   9
ATOM      9  C   UNL A   1      29.876  26.494  24.302  1.00  0.00    -0.015 C 
ATOM     10  C   UNL A   1      29.059  27.514  23.505  1.00  0.00     0.007 C 
ATOM     11  C   UNL A   1      29.911  25.172  23.525  1.00  0.00     0.007 C 
ENDBRANCH   8   9
ENDBRANCH   7   8
BRANCH   7  12
ATOM     12  N   UNL A   1      32.459  27.225  22.288  1.00  0.00    -0.343 N 
ATOM     13  C   UNL A   1      33.060  26.076  21.913  1.00  0.00     0.240 C 
ATOM     14  H   UNL A   1      32.280  27.795  21.506  1.00  0.00     0.164 HD
ATOM     15  O   UNL A   1      33.120  25.901  20.687  1.00  0.00    -0.273 OA
BRANCH  13  16
ATOM     16  C   UNL A   1      33.532  24.945  22.835  1.00  0.00     0.216 C 
BRANCH  16  17
ATOM     17  N   UNL A   1      34.391  25.259  23.953  1.00  0.00    -0.345 N 
ATOM     18  C   UNL A   1      34.716  24.567  25.074  1.00  0.00     0.243 C 
ATOM     19  H   UNL A   1      34.820  26.142  23.890  1.00  0.00     0.164 HD
ATOM     20  O   UNL A   1      35.640  25.038  25.748  1.00  0.00    -0.273 OA
BRANCH  18  21
ATOM     21  C   UNL A   1      34.028  23.243  25.524  1.00  0.00     0.177 C 
BRANCH  21  22
ATOM     22  N   UNL A   1      34.881  22.059  25.371  1.00  0.00    -0.309 N 
ATOM     23  C   UNL A   1      34.712  20.850  24.771  1.00  0.00     0.408 C 
ATOM     24  H   UNL A   1      35.764  22.162  25.792  1.00  0.00     0.167 HD
ATOM     25  O   UNL A   1      35.481  19.933  25.000  1.00  0.00    -0.225 OA
BRANCH  23  26
ATOM     26  O   UNL A   1      33.694  20.810  23.886  1.00  0.00    -0.445 OA
BRANCH  26  27
ATOM     27  C   UNL A   1      32.561  20.039  24.310  1.00  0.00     0.270 C 
BRANCH  27  28
ATOM     28  C   UNL A   1      32.801  18.542  24.390  1.00  0.00    -0.011 A 
ATOM     29  C   UNL A   1      33.368  17.791  23.346  1.00  0.00     0.007 A 
ATOM     30  C   UNL A   1      32.528  17.882  25.597  1.00  0.00     0.007 A 
ATOM     31  C   UNL A   1      33.661  16.436  23.501  1.00  0.00     0.000 A 
ATOM     32  C   UNL A   1      32.811  16.522  25.750  1.00  0.00     0.000 A 
ATOM     33  C   UNL A   1      33.382  15.802  24.704  1.00  0.00     0.000 A 
ENDBRANCH  27  28
ENDBRANCH  26  27
ENDBRANCH  23  26
ENDBRANCH  21  22
BRANCH  21  34
ATOM     34  C   UNL A   1      33.244  23.383  26.843  1.00  0.00     0.015 C 
ATOM     35  C   UNL A   1      31.748  23.626  26.593  1.00  0.00     0.010 C 
ATOM     36  C   UNL A   1      33.365  22.111  27.694  1.00  0.00     0.010 C 
ENDBRANCH  21  34
ENDBRANCH  18  21
ENDBRANCH  16  17
ENDBRANCH  13  16
ENDBRANCH   7  12
ENDBRANCH   4   7
ENDBRANCH   1   3
BRANCH   1  37
ATOM     37  C   UNL A   1      31.664  31.125  26.206  1.00  0.00     0.242 C 
ATOM     38  O   UNL A   1      30.686  31.674  25.689  1.00  0.00    -0.273 OA
ATOM     39  N   UNL A   1      32.485  31.900  26.962  1.00  0.00    -0.354 N 
ATOM     40  H   UNL A   1      32.257  32.859  26.972  1.00  0.00     0.163 HD
BRANCH  39  41
ATOM     41  C   UNL A   1      33.638  31.542  27.756  1.00  0.00     0.116 C 
BRANCH  41  42
ATOM     42  C   UNL A   1      34.103  32.709  28.620  1.00  0.00     0.023 C 
BRANCH  42  43
ATOM     43  C   UNL A   1      33.400  34.029  28.302  1.00  0.00     0.023 C 
BRANCH  43  44
ATOM     44  C   UNL A   1      33.915  35.226  29.092  1.00  0.00     0.116 C 
BRANCH  44  45
ATOM     45  N   UNL A   1      32.904  35.819  29.958  1.00  0.00    -0.352 N 
ATOM     46  C   UNL A   1      32.804  35.724  31.325  1.00  0.00     0.251 C 
ATOM     47  H   UNL A   1      32.210  36.353  29.509  1.00  0.00     0.163 HD
ATOM     48  O   UNL A   1      31.839  36.178  31.926  1.00  0.00    -0.269 OA
BRANCH  46  49
ATOM     49  C   UNL A   1      33.876  35.018  32.046  1.00  0.00     0.039 A 
ATOM     50  C   UNL A   1      33.655  33.712  32.480  1.00  0.00     0.014 A 
ATOM     51  C   UNL A   1      35.132  35.618  32.169  1.00  0.00     0.014 A 
ATOM     52  C   UNL A   1      34.726  32.968  32.973  1.00  0.00     0.010 A 
ATOM     53  C   UNL A   1      36.210  34.850  32.581  1.00  0.00     0.010 A 
ATOM     54  C   UNL A   1      36.019  33.517  32.983  1.00  0.00    -0.014 A 
BRANCH  54  55
ATOM     55  C   UNL A   1      37.199  32.722  33.400  1.00  0.00     0.031 A 
ATOM     56  C   UNL A   1      37.901  33.058  34.684  1.00  0.00     0.074 A 
ATOM     57  C   UNL A   1      37.698  31.779  32.579  1.00  0.00     0.049 A 
ATOM     58  N   UNL A   1      39.025  32.591  35.162  1.00  0.00    -0.248 NA
ATOM     59  C   UNL A   1      37.268  34.087  35.524  1.00  0.00     0.031 C 
ATOM     60  C   UNL A   1      37.134  31.400  31.283  1.00  0.00     0.029 A 
ATOM     61  N   UNL A   1      38.812  30.987  32.702  1.00  0.00    -0.354 N 
ATOM     62  C   UNL A   1      39.243  33.282  36.346  1.00  0.00     0.074 A 
ATOM     63  C   UNL A   1      38.170  34.244  36.480  1.00  0.00     0.031 C 
ATOM     64  C   UNL A   1      37.901  30.447  30.733  1.00  0.00     0.029 A 
ATOM     65  C   UNL A   1      39.035  30.180  31.613  1.00  0.00     0.049 A 
ATOM     66  H   UNL A   1      39.395  30.996  33.495  1.00  0.00     0.167 HD
ATOM     67  C   UNL A   1      40.235  33.112  37.252  1.00  0.00     0.037 A 
ATOM     68  C   UNL A   1      40.053  29.340  31.343  1.00  0.00     0.037 A 
ATOM     69  C   UNL A   1      41.291  32.144  37.114  1.00  0.00     0.049 A 
ATOM     70  C   UNL A   1      41.156  29.176  32.355  1.00  0.00     0.074 A 
ATOM     71  C   UNL A   1      42.314  31.851  37.998  1.00  0.00     0.029 A 
ATOM     72  N   UNL A   1      41.465  31.317  36.012  1.00  0.00    -0.354 N 
ATOM     73  N   UNL A   1      41.318  29.784  33.506  1.00  0.00    -0.248 NA
ATOM     74  C   UNL A   1      42.212  28.207  32.034  1.00  0.00     0.031 C 
ATOM     75  C   UNL A   1      43.139  30.890  37.406  1.00  0.00     0.029 A 
ATOM     76  C   UNL A   1      42.595  30.534  36.182  1.00  0.00     0.049 A 
ATOM     77  H   UNL A   1      40.873  31.292  35.226  1.00  0.00     0.167 HD
ATOM     78  C   UNL A   1      42.475  29.251  34.060  1.00  0.00     0.074 A 
ATOM     79  C   UNL A   1      42.969  28.264  33.121  1.00  0.00     0.031 C 
ATOM     80  C   UNL A   1      43.071  29.550  35.241  1.00  0.00     0.037 A 
BRANCH  67  81
ATOM     81  C   UNL A   1      40.224  34.005  38.460  1.00  0.00     0.064 A 
ATOM     82  C   UNL A   1      39.490  33.681  39.612  1.00  0.00     0.173 A 
ATOM     83  C   UNL A   1      40.955  35.203  38.468  1.00  0.00     0.173 A 
ATOM     84  F   UNL A   1      38.762  32.554  39.656  1.00  0.00    -0.203 F 
ATOM     85  C   UNL A   1      39.448  34.543  40.704  1.00  0.00     0.198 A 
ATOM     86  C   UNL A   1      40.944  36.044  39.577  1.00  0.00     0.198 A 
ATOM     87  F   UNL A   1      41.680  35.560  37.397  1.00  0.00    -0.203 F 
ATOM     88  F   UNL A   1      38.680  34.246  41.762  1.00  0.00    -0.200 F 
ATOM     89  C   UNL A   1      40.180  35.721  40.688  1.00  0.00     0.200 A 
ATOM     90  F   UNL A   1      41.663  37.174  39.565  1.00  0.00    -0.200 F 
ATOM     91  F   UNL A   1      40.137  36.552  41.739  1.00  0.00    -0.200 F 
ENDBRANCH  67  81
BRANCH  68  92
ATOM     92  C   UNL A   1      40.066  28.590  30.061  1.00  0.00     0.064 A 
ATOM     93  C   UNL A   1      39.445  27.338  29.948  1.00  0.00     0.173 A 
ATOM     94  C   UNL A   1      40.680  29.118  28.915  1.00  0.00     0.173 A 
ATOM     95  F   UNL A   1      38.860  26.783  31.019  1.00  0.00    -0.203 F 
ATOM     96  C   UNL A   1      39.450  26.638  28.744  1.00  0.00     0.198 A 
ATOM     97  C   UNL A   1      40.659  28.431  27.704  1.00  0.00     0.198 A 
ATOM     98  F   UNL A   1      41.283  30.315  28.967  1.00  0.00    -0.203 F 
ATOM     99  F   UNL A   1      38.882  25.426  28.674  1.00  0.00    -0.200 F 
ATOM    100  C   UNL A   1      40.049  27.187  27.620  1.00  0.00     0.200 A 
ATOM    101  F   UNL A   1      41.224  28.974  26.617  1.00  0.00    -0.200 F 
ATOM    102  F   UNL A   1      40.043  26.519  26.459  1.00  0.00    -0.200 F 
ENDBRANCH  68  92
BRANCH  80 103
ATOM    103  C   UNL A   1      44.301  28.774  35.614  1.00  0.00     0.064 A 
ATOM    104  C   UNL A   1      45.588  29.221  35.281  1.00  0.00     0.173 A 
ATOM    105  C   UNL A   1      44.190  27.598  36.371  1.00  0.00     0.173 A 
ATOM    106  F   UNL A   1      45.749  30.331  34.546  1.00  0.00    -0.203 F 
ATOM    107  C   UNL A   1      46.717  28.507  35.677  1.00  0.00     0.198 A 
ATOM    108  C   UNL A   1      45.322  26.905  36.793  1.00  0.00     0.198 A 
ATOM    109  F   UNL A   1      42.983  27.130  36.721  1.00  0.00    -0.203 F 
ATOM    110  F   UNL A   1      47.936  28.930  35.312  1.00  0.00    -0.200 F 
ATOM    111  C   UNL A   1      46.584  27.357  36.440  1.00  0.00     0.200 A 
ATOM    112  F   UNL A   1      45.190  25.805  37.545  1.00  0.00    -0.200 F 
ATOM    113  F   UNL A   1      47.672  26.682  36.833  1.00  0.00    -0.200 F 
ENDBRANCH  80 103
ENDBRANCH  54  55
ENDBRANCH  46  49
ENDBRANCH  44  45
ENDBRANCH  43  44
ENDBRANCH  42  43
ENDBRANCH  41  42
ENDBRANCH  39  41
ENDBRANCH   1  37
TORSDOF 24
ENDMDL
MODEL 2
REMARK VINA RESULT:     -11.1      0.737      6.853
REMARK SMILES CC(C)C[C@H](NC(=O)CNC(=O)[C@@H](NC(=O)OCc1ccccc1)C(C)C)C(=O)N[C@@H](C)C(=O)NCCCCNC(=O)c1ccc(-c2c3nc(c(-c4c(F)c(F)c(F)c(F)c4F)c4ccc([nH]4)c(-c4c(F)c(F)c(F)c(F)c4F)c4nc(c(-c5c(F)c(F)c(F)c(F)c5F)c5ccc2[nH]5)C=C4)C=C3)cc1
REMARK SMILES IDX 31 1 32 2 30 3 28 4 29 5 5 7 4 8 2 9 1 10 3 11 6 12 7 13
REMARK SMILES IDX 8 15 9 16 10 17 11 18 12 20 13 21 14 22 15 23 16 25 17 26
REMARK SMILES IDX 18 27 19 28 20 29 24 30 21 31 23 32 22 33 25 34 26 35 27 36
REMARK SMILES IDX 33 37 34 38 35 39 36 41 37 42 38 43 39 44 40 45 41 46 42 48
REMARK SMILES IDX 43 49 44 50 105 51 45 52 104 53 46 54 47 55 48 56 98 57
REMARK SMILES IDX 49 58 103 59 97 60 99 61 50 62 102 63 96 64 95 65 51 67
REMARK SMILES IDX 83 68 63 69 82 70 64 71 67 72 81 73 100 74 65 75 66 76 80 78
REMARK SMILES IDX 101 79 68 80 52 81 53 82 61 83 54 84 55 85 59 86 62 87 56 88
REMARK SMILES IDX 57 89 60 90 58 91 84 92 85 93 93 94 86 95 87 96 91 97 94 98
REMARK SMILES IDX 88 99 89 100 92 101 90 102 69 103 70 104 78 105 71 106
REMARK SMILES IDX 72 107 76 108 79 109 73 110 74 111 77 112 75 113
REMARK H PARENT 30 6 6 14 10 19 14 24 35 40 40 47 99 66 67 77
REMARK Flexibility Score: inf
ROOT
ATOM      1  C   UNL A   1      31.934  29.473  25.796  1.00  0.00     0.168 C 
ATOM      2  C   UNL A   1      31.965  28.632  27.061  1.00  0.00     0.041 C 
ENDROOT
BRANCH   1   3
ATOM      3  N   UNL A   1      33.131  29.248  24.981  1.00  0.00    -0.343 N 
ATOM      4  C   UNL A   1      33.229  28.901  23.669  1.00  0.00     0.243 C 
ATOM      5  O   UNL A   1      34.320  29.059  23.117  1.00  0.00    -0.273 OA
ATOM      6  H   UNL A   1      33.988  29.362  25.452  1.00  0.00     0.164 HD
BRANCH   4   7
ATOM      7  C   UNL A   1      31.990  28.416  22.898  1.00  0.00     0.171 C 
BRANCH   7   8
ATOM      8  C   UNL A   1      30.985  27.757  23.841  1.00  0.00     0.038 C 
BRANCH   8   9
ATOM      9  C   UNL A   1      29.615  27.326  23.285  1.00  0.00    -0.015 C 
ATOM     10  C   UNL A   1      28.872  26.366  24.215  1.00  0.00     0.007 C 
ATOM     11  C   UNL A   1      28.761  28.585  23.086  1.00  0.00     0.007 C 
ENDBRANCH   8   9
ENDBRANCH   7   8
BRANCH   7  12
ATOM     12  N   UNL A   1      32.471  27.563  21.790  1.00  0.00    -0.343 N 
ATOM     13  C   UNL A   1      33.092  26.377  21.621  1.00  0.00     0.240 C 
ATOM     14  H   UNL A   1      32.284  27.984  20.920  1.00  0.00     0.164 HD
ATOM     15  O   UNL A   1      33.155  25.990  20.445  1.00  0.00    -0.273 OA
BRANCH  13  16
ATOM     16  C   UNL A   1      33.583  25.434  22.727  1.00  0.00     0.216 C 
BRANCH  16  17
ATOM     17  N   UNL A   1      33.831  25.964  24.047  1.00  0.00    -0.345 N 
ATOM     18  C   UNL A   1      33.819  25.390  25.276  1.00  0.00     0.243 C 
ATOM     19  H   UNL A   1      34.051  26.923  24.056  1.00  0.00     0.164 HD
ATOM     20  O   UNL A   1      34.271  26.081  26.197  1.00  0.00    -0.273 OA
BRANCH  18  21
ATOM     21  C   UNL A   1      33.309  23.948  25.572  1.00  0.00     0.177 C 
BRANCH  21  22
ATOM     22  N   UNL A   1      34.388  22.986  25.826  1.00  0.00    -0.309 N 
ATOM     23  C   UNL A   1      34.554  21.665  25.549  1.00  0.00     0.408 C 
ATOM     24  H   UNL A   1      35.155  23.382  26.297  1.00  0.00     0.167 HD
ATOM     25  O   UNL A   1      35.438  21.026  26.091  1.00  0.00    -0.225 OA
BRANCH  23  26
ATOM     26  O   UNL A   1      33.718  21.189  24.602  1.00  0.00    -0.445 OA
BRANCH  26  27
ATOM     27  C   UNL A   1      32.679  20.333  25.095  1.00  0.00     0.270 C 
BRANCH  27  28
ATOM     28  C   UNL A   1      32.849  18.863  24.757  1.00  0.00    -0.011 A 
ATOM     29  C   UNL A   1      33.210  18.398  23.481  1.00  0.00     0.007 A 
ATOM     30  C   UNL A   1      32.727  17.919  25.787  1.00  0.00     0.007 A 
ATOM     31  C   UNL A   1      33.451  17.044  23.242  1.00  0.00     0.000 A 
ATOM     32  C   UNL A   1      32.957  16.561  25.547  1.00  0.00     0.000 A 
ATOM     33  C   UNL A   1      33.325  16.126  24.275  1.00  0.00     0.000 A 
ENDBRANCH  27  28
ENDBRANCH  26  27
ENDBRANCH  23  26
ENDBRANCH  21  22
BRANCH  21  34
ATOM     34  C   UNL A   1      32.095  23.914  26.518  1.00  0.00     0.015 C 
ATOM     35  C   UNL A   1      30.816  23.476  25.790  1.00  0.00     0.010 C 
ATOM     36  C   UNL A   1      32.323  22.929  27.674  1.00  0.00     0.010 C 
ENDBRANCH  21  34
ENDBRANCH  18  21
ENDBRANCH  16  17
ENDBRANCH  13  16
ENDBRANCH   7  12
ENDBRANCH   4   7
ENDBRANCH   1   3
BRANCH   1  37
ATOM     37  C   UNL A   1      31.685  30.963  26.098  1.00  0.00     0.242 C 
ATOM     38  O   UNL A   1      30.682  31.536  25.660  1.00  0.00    -0.273 OA
ATOM     39  N   UNL A   1      32.491  31.671  26.931  1.00  0.00    -0.354 N 
ATOM     40  H   UNL A   1      32.234  32.614  27.056  1.00  0.00     0.163 HD
BRANCH  39  41
ATOM     41  C   UNL A   1      33.668  31.261  27.664  1.00  0.00     0.116 C 
BRANCH  41  42
ATOM     42  C   UNL A   1      34.345  32.449  28.338  1.00  0.00     0.023 C 
BRANCH  42  43
ATOM     43  C   UNL A   1      33.514  33.732  28.307  1.00  0.00     0.023 C 
BRANCH  43  44
ATOM     44  C   UNL A   1      33.968  34.803  29.291  1.00  0.00     0.116 C 
BRANCH  44  45
ATOM     45  N   UNL A   1      32.912  35.232  30.200  1.00  0.00    -0.352 N 
ATOM     46  C   UNL A   1      32.882  35.122  31.568  1.00  0.00     0.251 C 
ATOM     47  H   UNL A   1      32.125  35.651  29.781  1.00  0.00     0.163 HD
ATOM     48  O   UNL A   1      31.882  35.420  32.209  1.00  0.00    -0.269 OA
BRANCH  46  49
ATOM     49  C   UNL A   1      34.078  34.592  32.242  1.00  0.00     0.039 A 
ATOM     50  C   UNL A   1      34.115  33.244  32.599  1.00  0.00     0.014 A 
ATOM     51  C   UNL A   1      35.200  35.411  32.396  1.00  0.00     0.014 A 
ATOM     52  C   UNL A   1      35.315  32.691  33.044  1.00  0.00     0.010 A 
ATOM     53  C   UNL A   1      36.410  34.839  32.758  1.00  0.00     0.010 A 
ATOM     54  C   UNL A   1      36.481  33.473  33.081  1.00  0.00    -0.014 A 
BRANCH  54  55
ATOM     55  C   UNL A   1      37.796  32.894  33.446  1.00  0.00     0.031 A 
ATOM     56  C   UNL A   1      38.436  31.883  32.539  1.00  0.00     0.074 A 
ATOM     57  C   UNL A   1      38.356  33.194  34.632  1.00  0.00     0.049 A 
ATOM     58  N   UNL A   1      39.502  31.152  32.734  1.00  0.00    -0.248 NA
ATOM     59  C   UNL A   1      37.762  31.638  31.255  1.00  0.00     0.031 C 
ATOM     60  C   UNL A   1      37.803  34.123  35.619  1.00  0.00     0.029 A 
ATOM     61  N   UNL A   1      39.504  32.727  35.222  1.00  0.00    -0.354 N 
ATOM     62  C   UNL A   1      39.614  30.347  31.609  1.00  0.00     0.074 A 
ATOM     63  C   UNL A   1      38.473  30.634  30.767  1.00  0.00     0.031 C 
ATOM     64  C   UNL A   1      38.612  34.159  36.689  1.00  0.00     0.029 A 
ATOM     65  C   UNL A   1      39.715  33.225  36.484  1.00  0.00     0.049 A 
ATOM     66  H   UNL A   1      40.117  32.094  34.782  1.00  0.00     0.167 HD
ATOM     67  C   UNL A   1      40.594  29.466  31.295  1.00  0.00     0.037 A 
ATOM     68  C   UNL A   1      40.675  32.940  37.386  1.00  0.00     0.037 A 
ATOM     69  C   UNL A   1      41.730  29.197  32.135  1.00  0.00     0.049 A 
ATOM     70  C   UNL A   1      41.747  31.946  37.026  1.00  0.00     0.074 A 
ATOM     71  C   UNL A   1      42.809  28.366  31.888  1.00  0.00     0.029 A 
ATOM     72  N   UNL A   1      41.930  29.748  33.393  1.00  0.00    -0.354 N 
ATOM     73  N   UNL A   1      41.884  31.240  35.929  1.00  0.00    -0.248 NA
ATOM     74  C   UNL A   1      42.799  31.714  38.024  1.00  0.00     0.031 C 
ATOM     75  C   UNL A   1      43.629  28.368  33.020  1.00  0.00     0.029 A 
ATOM     76  C   UNL A   1      43.100  29.253  33.947  1.00  0.00     0.049 A 
ATOM     77  H   UNL A   1      41.329  30.395  33.828  1.00  0.00     0.167 HD
ATOM     78  C   UNL A   1      43.050  30.504  36.091  1.00  0.00     0.074 A 
ATOM     79  C   UNL A   1      43.587  30.857  37.390  1.00  0.00     0.031 C 
ATOM     80  C   UNL A   1      43.626  29.619  35.239  1.00  0.00     0.037 A 
BRANCH  67  81
ATOM     81  C   UNL A   1      40.463  28.726  29.994  1.00  0.00     0.064 A 
ATOM     82  C   UNL A   1      39.741  27.526  29.895  1.00  0.00     0.173 A 
ATOM     83  C   UNL A   1      41.069  29.221  28.829  1.00  0.00     0.173 A 
ATOM     84  F   UNL A   1      39.152  27.000  30.981  1.00  0.00    -0.203 F 
ATOM     85  C   UNL A   1      39.672  26.825  28.694  1.00  0.00     0.198 A 
ATOM     86  C   UNL A   1      40.964  28.538  27.620  1.00  0.00     0.198 A 
ATOM     87  F   UNL A   1      41.765  30.367  28.862  1.00  0.00    -0.203 F 
ATOM     88  F   UNL A   1      39.040  25.644  28.645  1.00  0.00    -0.200 F 
ATOM     89  C   UNL A   1      40.278  27.335  27.557  1.00  0.00     0.200 A 
ATOM     90  F   UNL A   1      41.538  29.040  26.518  1.00  0.00    -0.200 F 
ATOM     91  F   UNL A   1      40.213  26.659  26.401  1.00  0.00    -0.200 F 
ENDBRANCH  67  81
BRANCH  68  92
ATOM     92  C   UNL A   1      40.662  33.613  38.710  1.00  0.00     0.064 A 
ATOM     93  C   UNL A   1      41.501  34.705  38.976  1.00  0.00     0.173 A 
ATOM     94  C   UNL A   1      39.796  33.195  39.731  1.00  0.00     0.173 A 
ATOM     95  F   UNL A   1      42.360  35.131  38.038  1.00  0.00    -0.203 F 
ATOM     96  C   UNL A   1      41.484  35.342  40.215  1.00  0.00     0.198 A 
ATOM     97  C   UNL A   1      39.758  33.850  40.959  1.00  0.00     0.198 A 
ATOM     98  F   UNL A   1      38.967  32.159  39.527  1.00  0.00    -0.203 F 
ATOM     99  F   UNL A   1      42.323  36.358  40.455  1.00  0.00    -0.200 F 
ATOM    100  C   UNL A   1      40.606  34.920  41.203  1.00  0.00     0.200 A 
ATOM    101  F   UNL A   1      38.896  33.450  41.904  1.00  0.00    -0.200 F 
ATOM    102  F   UNL A   1      40.582  35.541  42.390  1.00  0.00    -0.200 F 
ENDBRANCH  68  92
BRANCH  80 103
ATOM    103  C   UNL A   1      44.927  28.999  35.658  1.00  0.00     0.064 A 
ATOM    104  C   UNL A   1      44.978  27.779  36.350  1.00  0.00     0.173 A 
ATOM    105  C   UNL A   1      46.143  29.604  35.305  1.00  0.00     0.173 A 
ATOM    106  F   UNL A   1      43.845  27.166  36.723  1.00  0.00    -0.203 F 
ATOM    107  C   UNL A   1      46.199  27.200  36.688  1.00  0.00     0.198 A 
ATOM    108  C   UNL A   1      47.361  29.006  35.616  1.00  0.00     0.198 A 
ATOM    109  F   UNL A   1      46.150  30.768  34.638  1.00  0.00    -0.203 F 
ATOM    110  F   UNL A   1      46.224  26.056  37.386  1.00  0.00    -0.200 F 
ATOM    111  C   UNL A   1      47.388  27.807  36.313  1.00  0.00     0.200 A 
ATOM    112  F   UNL A   1      48.507  29.586  35.236  1.00  0.00    -0.200 F 
ATOM    113  F   UNL A   1      48.561  27.240  36.626  1.00  0.00    -0.200 F 
ENDBRANCH  80 103
ENDBRANCH  54  55
ENDBRANCH  46  49
ENDBRANCH  44  45
ENDBRANCH  43  44
ENDBRANCH  42  43
ENDBRANCH  41  42
ENDBRANCH  39  41
ENDBRANCH   1  37
TORSDOF 24
ENDMDL
MODEL 3
REMARK VINA RESULT:     -10.1      5.830     12.817
REMARK SMILES CC(C)C[C@H](NC(=O)CNC(=O)[C@@H](NC(=O)OCc1ccccc1)C(C)C)C(=O)N[C@@H](C)C(=O)NCCCCNC(=O)c1ccc(-c2c3nc(c(-c4c(F)c(F)c(F)c(F)c4F)c4ccc([nH]4)c(-c4c(F)c(F)c(F)c(F)c4F)c4nc(c(-c5c(F)c(F)c(F)c(F)c5F)c5ccc2[nH]5)C=C4)C=C3)cc1
REMARK SMILES IDX 31 1 32 2 30 3 28 4 29 5 5 7 4 8 2 9 1 10 3 11 6 12 7 13
REMARK SMILES IDX 8 15 9 16 10 17 11 18 12 20 13 21 14 22 15 23 16 25 17 26
REMARK SMILES IDX 18 27 19 28 20 29 24 30 21 31 23 32 22 33 25 34 26 35 27 36
REMARK SMILES IDX 33 37 34 38 35 39 36 41 37 42 38 43 39 44 40 45 41 46 42 48
REMARK SMILES IDX 43 49 44 50 105 51 45 52 104 53 46 54 47 55 48 56 98 57
REMARK SMILES IDX 49 58 103 59 97 60 99 61 50 62 102 63 96 64 95 65 51 67
REMARK SMILES IDX 83 68 63 69 82 70 64 71 67 72 81 73 100 74 65 75 66 76 80 78
REMARK SMILES IDX 101 79 68 80 52 81 53 82 61 83 54 84 55 85 59 86 62 87 56 88
REMARK SMILES IDX 57 89 60 90 58 91 84 92 85 93 93 94 86 95 87 96 91 97 94 98
REMARK SMILES IDX 88 99 89 100 92 101 90 102 69 103 70 104 78 105 71 106
REMARK SMILES IDX 72 107 76 108 79 109 73 110 74 111 77 112 75 113
REMARK H PARENT 30 6 6 14 10 19 14 24 35 40 40 47 99 66 67 77
REMARK Flexibility Score: inf
ROOT
ATOM      1  C   UNL A   1      39.593  30.017  33.610  1.00  0.00     0.168 C 
ATOM      2  C   UNL A   1      40.009  31.233  32.798  1.00  0.00     0.041 C 
ENDROOT
BRANCH   1   3
ATOM      3  N   UNL A   1      40.475  28.878  33.344  1.00  0.00    -0.343 N 
ATOM      4  C   UNL A   1      41.227  28.147  34.212  1.00  0.00     0.243 C 
ATOM      5  O   UNL A   1      41.650  27.057  33.822  1.00  0.00    -0.273 OA
ATOM      6  H   UNL A   1      40.532  28.601  32.401  1.00  0.00     0.164 HD
BRANCH   4   7
ATOM      7  C   UNL A   1      41.452  28.640  35.651  1.00  0.00     0.171 C 
BRANCH   7   8
ATOM      8  C   UNL A   1      42.881  29.147  35.836  1.00  0.00     0.038 C 
BRANCH   8   9
ATOM      9  C   UNL A   1      43.142  30.664  35.808  1.00  0.00    -0.015 C 
ATOM     10  C   UNL A   1      41.899  31.488  36.153  1.00  0.00     0.007 C 
ATOM     11  C   UNL A   1      44.245  30.980  36.826  1.00  0.00     0.007 C 
ENDBRANCH   8   9
ENDBRANCH   7   8
BRANCH   7  12
ATOM     12  N   UNL A   1      41.047  27.544  36.557  1.00  0.00    -0.343 N 
ATOM     13  C   UNL A   1      41.536  26.367  37.003  1.00  0.00     0.240 C 
ATOM     14  H   UNL A   1      40.162  27.724  36.949  1.00  0.00     0.164 HD
ATOM     15  O   UNL A   1      40.872  25.844  37.910  1.00  0.00    -0.273 OA
BRANCH  13  16
ATOM     16  C   UNL A   1      42.865  25.715  36.603  1.00  0.00     0.216 C 
BRANCH  16  17
ATOM     17  N   UNL A   1      43.582  24.922  37.573  1.00  0.00    -0.345 N 
ATOM     18  C   UNL A   1      44.663  24.109  37.465  1.00  0.00     0.243 C 
ATOM     19  H   UNL A   1      43.218  24.983  38.485  1.00  0.00     0.164 HD
ATOM     20  O   UNL A   1      45.155  23.724  38.532  1.00  0.00    -0.273 OA
BRANCH  18  21
ATOM     21  C   UNL A   1      45.308  23.673  36.115  1.00  0.00     0.177 C 
BRANCH  21  22
ATOM     22  N   UNL A   1      46.770  23.562  36.174  1.00  0.00    -0.309 N 
ATOM     23  C   UNL A   1      47.784  24.113  35.454  1.00  0.00     0.408 C 
ATOM     24  H   UNL A   1      47.084  22.961  36.886  1.00  0.00     0.167 HD
ATOM     25  O   UNL A   1      48.914  23.664  35.534  1.00  0.00    -0.225 OA
BRANCH  23  26
ATOM     26  O   UNL A   1      47.427  25.199  34.737  1.00  0.00    -0.445 OA
BRANCH  26  27
ATOM     27  C   UNL A   1      47.315  24.975  33.325  1.00  0.00     0.270 C 
BRANCH  27  28
ATOM     28  C   UNL A   1      46.167  25.705  32.652  1.00  0.00    -0.011 A 
ATOM     29  C   UNL A   1      45.256  25.082  31.782  1.00  0.00     0.007 A 
ATOM     30  C   UNL A   1      45.943  27.051  32.979  1.00  0.00     0.007 A 
ATOM     31  C   UNL A   1      44.157  25.769  31.265  1.00  0.00     0.000 A 
ATOM     32  C   UNL A   1      44.849  27.744  32.452  1.00  0.00     0.000 A 
ATOM     33  C   UNL A   1      43.955  27.101  31.600  1.00  0.00     0.000 A 
ENDBRANCH  27  28
ENDBRANCH  26  27
ENDBRANCH  23  26
ENDBRANCH  21  22
BRANCH  21  34
ATOM     34  C   UNL A   1      44.540  22.537  35.413  1.00  0.00     0.015 C 
ATOM     35  C   UNL A   1      43.612  23.071  34.313  1.00  0.00     0.010 C 
ATOM     36  C   UNL A   1      45.508  21.543  34.754  1.00  0.00     0.010 C 
ENDBRANCH  21  34
ENDBRANCH  18  21
ENDBRANCH  16  17
ENDBRANCH  13  16
ENDBRANCH   7  12
ENDBRANCH   4   7
ENDBRANCH   1   3
BRANCH   1  37
ATOM     37  C   UNL A   1      38.102  29.680  33.423  1.00  0.00     0.242 C 
ATOM     38  O   UNL A   1      37.735  28.512  33.260  1.00  0.00    -0.273 OA
ATOM     39  N   UNL A   1      37.133  30.626  33.531  1.00  0.00    -0.354 N 
ATOM     40  H   UNL A   1      36.214  30.296  33.399  1.00  0.00     0.163 HD
BRANCH  39  41
ATOM     41  C   UNL A   1      37.235  32.040  33.811  1.00  0.00     0.116 C 
BRANCH  41  42
ATOM     42  C   UNL A   1      36.794  32.877  32.616  1.00  0.00     0.023 C 
BRANCH  42  43
ATOM     43  C   UNL A   1      35.800  32.165  31.698  1.00  0.00     0.023 C 
BRANCH  43  44
ATOM     44  C   UNL A   1      36.376  31.733  30.355  1.00  0.00     0.116 C 
BRANCH  44  45
ATOM     45  N   UNL A   1      35.423  31.001  29.531  1.00  0.00    -0.352 N 
ATOM     46  C   UNL A   1      35.681  29.987  28.642  1.00  0.00     0.251 C 
ATOM     47  H   UNL A   1      34.479  31.266  29.624  1.00  0.00     0.163 HD
ATOM     48  O   UNL A   1      34.801  29.528  27.925  1.00  0.00    -0.269 OA
BRANCH  46  49
ATOM     49  C   UNL A   1      37.065  29.493  28.546  1.00  0.00     0.039 A 
ATOM     50  C   UNL A   1      37.774  29.689  27.361  1.00  0.00     0.014 A 
ATOM     51  C   UNL A   1      37.683  28.955  29.678  1.00  0.00     0.014 A 
ATOM     52  C   UNL A   1      39.141  29.414  27.333  1.00  0.00     0.010 A 
ATOM     53  C   UNL A   1      39.056  28.763  29.671  1.00  0.00     0.010 A 
ATOM     54  C   UNL A   1      39.799  28.995  28.501  1.00  0.00    -0.014 A 
BRANCH  54  55
ATOM     55  C   UNL A   1      41.268  28.796  28.538  1.00  0.00     0.031 A 
ATOM     56  C   UNL A   1      41.849  27.488  28.083  1.00  0.00     0.074 A 
ATOM     57  C   UNL A   1      42.060  29.741  29.076  1.00  0.00     0.049 A 
ATOM     58  N   UNL A   1      43.079  27.054  28.165  1.00  0.00    -0.248 NA
ATOM     59  C   UNL A   1      40.907  26.527  27.489  1.00  0.00     0.031 C 
ATOM     60  C   UNL A   1      41.606  31.030  29.599  1.00  0.00     0.029 A 
ATOM     61  N   UNL A   1      43.415  29.751  29.298  1.00  0.00    -0.354 N 
ATOM     62  C   UNL A   1      43.055  25.764  27.653  1.00  0.00     0.074 A 
ATOM     63  C   UNL A   1      41.678  25.464  27.324  1.00  0.00     0.031 C 
ATOM     64  C   UNL A   1      42.661  31.707  30.077  1.00  0.00     0.029 A 
ATOM     65  C   UNL A   1      43.858  30.882  29.938  1.00  0.00     0.049 A 
ATOM     66  H   UNL A   1      44.011  29.016  29.026  1.00  0.00     0.167 HD
ATOM     67  C   UNL A   1      44.092  24.916  27.453  1.00  0.00     0.037 A 
ATOM     68  C   UNL A   1      45.087  31.207  30.385  1.00  0.00     0.037 A 
ATOM     69  C   UNL A   1      45.459  25.229  27.774  1.00  0.00     0.049 A 
ATOM     70  C   UNL A   1      46.224  30.245  30.168  1.00  0.00     0.074 A 
ATOM     71  C   UNL A   1      46.592  24.465  27.561  1.00  0.00     0.029 A 
ATOM     72  N   UNL A   1      45.876  26.402  28.388  1.00  0.00    -0.354 N 
ATOM     73  N   UNL A   1      46.205  29.054  29.619  1.00  0.00    -0.248 NA
ATOM     74  C   UNL A   1      47.553  30.673  30.626  1.00  0.00     0.031 C 
ATOM     75  C   UNL A   1      47.686  25.149  28.100  1.00  0.00     0.029 A 
ATOM     76  C   UNL A   1      47.247  26.370  28.588  1.00  0.00     0.049 A 
ATOM     77  H   UNL A   1      45.286  27.146  28.645  1.00  0.00     0.167 HD
ATOM     78  C   UNL A   1      47.518  28.603  29.638  1.00  0.00     0.074 A 
ATOM     79  C   UNL A   1      48.310  29.653  30.245  1.00  0.00     0.031 C 
ATOM     80  C   UNL A   1      48.023  27.427  29.188  1.00  0.00     0.037 A 
BRANCH  67  81
ATOM     81  C   UNL A   1      43.775  23.567  26.872  1.00  0.00     0.064 A 
ATOM     82  C   UNL A   1      44.117  23.231  25.552  1.00  0.00     0.173 A 
ATOM     83  C   UNL A   1      43.118  22.596  27.643  1.00  0.00     0.173 A 
ATOM     84  F   UNL A   1      44.735  24.126  24.766  1.00  0.00    -0.203 F 
ATOM     85  C   UNL A   1      43.770  21.996  25.012  1.00  0.00     0.198 A 
ATOM     86  C   UNL A   1      42.808  21.346  27.112  1.00  0.00     0.198 A 
ATOM     87  F   UNL A   1      42.773  22.859  28.912  1.00  0.00    -0.203 F 
ATOM     88  F   UNL A   1      44.042  21.728  23.727  1.00  0.00    -0.200 F 
ATOM     89  C   UNL A   1      43.122  21.052  25.794  1.00  0.00     0.200 A 
ATOM     90  F   UNL A   1      42.195  20.431  27.874  1.00  0.00    -0.200 F 
ATOM     91  F   UNL A   1      42.787  19.864  25.272  1.00  0.00    -0.200 F 
ENDBRANCH  67  81
BRANCH  68  92
ATOM     92  C   UNL A   1      45.298  32.506  31.076  1.00  0.00     0.064 A 
ATOM     93  C   UNL A   1      45.174  32.613  32.468  1.00  0.00     0.173 A 
ATOM     94  C   UNL A   1      45.649  33.662  30.362  1.00  0.00     0.173 A 
ATOM     95  F   UNL A   1      44.823  31.541  33.193  1.00  0.00    -0.203 F 
ATOM     96  C   UNL A   1      45.379  33.829  33.118  1.00  0.00     0.198 A 
ATOM     97  C   UNL A   1      45.883  34.869  31.015  1.00  0.00     0.198 A 
ATOM     98  F   UNL A   1      45.787  33.612  29.029  1.00  0.00    -0.203 F 
ATOM     99  F   UNL A   1      45.217  33.912  34.445  1.00  0.00    -0.200 F 
ATOM    100  C   UNL A   1      45.741  34.955  32.392  1.00  0.00     0.200 A 
ATOM    101  F   UNL A   1      46.250  35.949  30.311  1.00  0.00    -0.200 F 
ATOM    102  F   UNL A   1      45.950  36.120  33.019  1.00  0.00    -0.200 F 
ENDBRANCH  68  92
BRANCH  80 103
ATOM    103  C   UNL A   1      49.507  27.223  29.293  1.00  0.00     0.064 A 
ATOM    104  C   UNL A   1      50.096  26.628  30.419  1.00  0.00     0.173 A 
ATOM    105  C   UNL A   1      50.344  27.572  28.222  1.00  0.00     0.173 A 
ATOM    106  F   UNL A   1      49.342  26.289  31.476  1.00  0.00    -0.203 F 
ATOM    107  C   UNL A   1      51.470  26.407  30.474  1.00  0.00     0.198 A 
ATOM    108  C   UNL A   1      51.712  27.320  28.268  1.00  0.00     0.198 A 
ATOM    109  F   UNL A   1      49.831  28.139  27.120  1.00  0.00    -0.203 F 
ATOM    110  F   UNL A   1      52.016  25.876  31.576  1.00  0.00    -0.200 F 
ATOM    111  C   UNL A   1      52.275  26.743  29.396  1.00  0.00     0.200 A 
ATOM    112  F   UNL A   1      52.484  27.630  27.218  1.00  0.00    -0.200 F 
ATOM    113  F   UNL A   1      53.594  26.516  29.446  1.00  0.00    -0.200 F 
ENDBRANCH  80 103
ENDBRANCH  54  55
ENDBRANCH  46  49
ENDBRANCH  44  45
ENDBRANCH  43  44
ENDBRANCH  42  43
ENDBRANCH  41  42
ENDBRANCH  39  41
ENDBRANCH   1  37
TORSDOF 24
ENDMDL
