MODEL 1
REMARK VINA RESULT:     -11.2      0.000      0.000
REMARK SMILES CCCC[N@H+](CC)[C@H]1CCC[C@]([NH3+])(C(=O)NCCCCNC(=O)c2ccc(-c3c4nc(c(-c5c(F)c(F)c(F)c(F)c5F)c5ccc([nH]5)c(-c5c(F)c(F)c(F)c(F)c5F)c5nc(c(-c6c(F)c(F)c(F)c(F)c6F)c6ccc3[nH]6)C=C5)C=C4)cc2)C1
REMARK SMILES IDX 17 1 16 2 14 3 15 4 12 6 8 7 9 8 87 9 10 10 11 11 5 12 4 14
REMARK SMILES IDX 3 15 2 16 1 17 6 18 7 19 13 20 18 24 19 25 20 26 21 27 22 28
REMARK SMILES IDX 23 30 24 31 25 32 86 33 26 34 85 35 27 36 28 37 29 38 79 39
REMARK SMILES IDX 30 40 84 41 78 42 80 43 31 44 83 45 77 46 76 47 32 49 64 50
REMARK SMILES IDX 44 51 63 52 45 53 48 54 62 55 81 56 46 57 47 58 61 60 82 61
REMARK SMILES IDX 49 62 33 63 34 64 42 65 35 66 36 67 40 68 43 69 37 70 38 71
REMARK SMILES IDX 41 72 39 73 65 74 66 75 74 76 67 77 68 78 72 79 75 80 69 81
REMARK SMILES IDX 70 82 73 83 71 84 50 85 51 86 59 87 52 88 53 89 57 90 60 91
REMARK SMILES IDX 54 92 55 93 58 94 56 95
REMARK H PARENT 16 5 5 13 13 21 13 22 13 23 21 29 80 48 48 59
REMARK Flexibility Score: inf
ROOT
ATOM      1  C   UNL A   1      33.077  30.210  25.921  1.00  0.00     0.116 C 
ENDROOT
BRANCH   1   2
ATOM      2  N   UNL A   1      33.311  28.781  25.951  1.00  0.00    -0.351 N 
ATOM      3  C   UNL A   1      33.379  27.838  24.973  1.00  0.00     0.281 C 
ATOM      4  O   UNL A   1      33.599  26.686  25.365  1.00  0.00    -0.268 OA
ATOM      5  H   UNL A   1      33.446  28.422  26.857  1.00  0.00     0.163 HD
BRANCH   3   6
ATOM      6  C   UNL A   1      33.305  28.184  23.445  1.00  0.00     0.179 C 
ATOM      7  C   UNL A   1      30.788  27.779  23.076  1.00  0.00     0.190 C 
ATOM      8  C   UNL A   1      31.107  26.480  22.305  1.00  0.00     0.065 C 
ATOM      9  C   UNL A   1      31.970  28.770  22.965  1.00  0.00     0.144 C 
ATOM     10  C   UNL A   1      32.469  25.894  22.670  1.00  0.00     0.013 C 
ATOM     11  C   UNL A   1      33.596  26.925  22.597  1.00  0.00     0.079 C 
BRANCH   7  12
ATOM     12  N   UNL A   1      29.479  28.415  22.753  1.00  0.00    -0.333 N 
ATOM     13  H   UNL A   1      29.328  28.180  21.771  1.00  0.00     0.348 HD
BRANCH  12  14
ATOM     14  C   UNL A   1      29.530  29.889  22.779  1.00  0.00     0.262 C 
BRANCH  14  15
ATOM     15  C   UNL A   1      29.135  30.669  21.505  1.00  0.00     0.061 C 
BRANCH  15  16
ATOM     16  C   UNL A   1      28.540  32.076  21.667  1.00  0.00     0.002 C 
ATOM     17  C   UNL A   1      28.665  32.679  23.058  1.00  0.00     0.004 C 
ENDBRANCH  15  16
ENDBRANCH  14  15
ENDBRANCH  12  14
BRANCH  12  18
ATOM     18  C   UNL A   1      28.287  27.800  23.336  1.00  0.00     0.258 C 
ATOM     19  C   UNL A   1      26.998  28.607  23.267  1.00  0.00     0.071 C 
ENDBRANCH  12  18
ENDBRANCH   7  12
BRANCH   6  20
ATOM     20  N   UNL A   1      34.399  29.150  23.151  1.00  0.00    -0.345 N 
ATOM     21  H   UNL A   1      34.896  29.373  24.014  1.00  0.00     0.345 HD
ATOM     22  H   UNL A   1      34.002  30.003  22.758  1.00  0.00     0.345 HD
ATOM     23  H   UNL A   1      35.048  28.736  22.482  1.00  0.00     0.345 HD
ENDBRANCH   6  20
ENDBRANCH   3   6
ENDBRANCH   1   2
BRANCH   1  24
ATOM     24  C   UNL A   1      31.653  30.562  26.348  1.00  0.00     0.023 C 
BRANCH  24  25
ATOM     25  C   UNL A   1      31.430  32.040  26.678  1.00  0.00     0.023 C 
BRANCH  25  26
ATOM     26  C   UNL A   1      32.662  32.787  27.173  1.00  0.00     0.116 C 
BRANCH  26  27
ATOM     27  N   UNL A   1      32.377  34.150  27.597  1.00  0.00    -0.352 N 
ATOM     28  C   UNL A   1      32.986  34.886  28.582  1.00  0.00     0.251 C 
ATOM     29  H   UNL A   1      31.649  34.604  27.112  1.00  0.00     0.163 HD
ATOM     30  O   UNL A   1      32.554  35.993  28.889  1.00  0.00    -0.269 OA
BRANCH  28  31
ATOM     31  C   UNL A   1      34.144  34.318  29.300  1.00  0.00     0.039 A 
ATOM     32  C   UNL A   1      33.913  33.552  30.446  1.00  0.00     0.014 A 
ATOM     33  C   UNL A   1      35.445  34.513  28.831  1.00  0.00     0.014 A 
ATOM     34  C   UNL A   1      34.984  32.923  31.082  1.00  0.00     0.010 A 
ATOM     35  C   UNL A   1      36.503  33.831  29.425  1.00  0.00     0.010 A 
ATOM     36  C   UNL A   1      36.281  33.028  30.555  1.00  0.00    -0.014 A 
BRANCH  36  37
ATOM     37  C   UNL A   1      37.420  32.301  31.169  1.00  0.00     0.031 A 
ATOM     38  C   UNL A   1      37.910  32.688  32.536  1.00  0.00     0.074 A 
ATOM     39  C   UNL A   1      38.054  31.341  30.468  1.00  0.00     0.049 A 
ATOM     40  N   UNL A   1      38.936  32.228  33.208  1.00  0.00    -0.248 NA
ATOM     41  C   UNL A   1      37.165  33.750  33.229  1.00  0.00     0.031 C 
ATOM     42  C   UNL A   1      37.702  30.912  29.113  1.00  0.00     0.029 A 
ATOM     43  N   UNL A   1      39.134  30.561  30.793  1.00  0.00    -0.354 N 
ATOM     44  C   UNL A   1      38.964  32.951  34.393  1.00  0.00     0.074 A 
ATOM     45  C   UNL A   1      37.888  33.917  34.327  1.00  0.00     0.031 C 
ATOM     46  C   UNL A   1      38.540  29.936  28.730  1.00  0.00     0.029 A 
ATOM     47  C   UNL A   1      39.509  29.695  29.794  1.00  0.00     0.049 A 
ATOM     48  H   UNL A   1      39.599  30.616  31.659  1.00  0.00     0.167 HD
ATOM     49  C   UNL A   1      39.796  32.805  35.452  1.00  0.00     0.037 A 
ATOM     50  C   UNL A   1      40.526  28.813  29.741  1.00  0.00     0.037 A 
ATOM     51  C   UNL A   1      40.849  31.827  35.524  1.00  0.00     0.049 A 
ATOM     52  C   UNL A   1      41.438  28.674  30.931  1.00  0.00     0.074 A 
ATOM     53  C   UNL A   1      41.714  31.566  36.572  1.00  0.00     0.029 A 
ATOM     54  N   UNL A   1      41.180  30.948  34.503  1.00  0.00    -0.354 N 
ATOM     55  N   UNL A   1      41.414  29.318  32.073  1.00  0.00    -0.248 NA
ATOM     56  C   UNL A   1      42.514  27.680  30.827  1.00  0.00     0.031 C 
ATOM     57  C   UNL A   1      42.595  30.557  36.171  1.00  0.00     0.029 A 
ATOM     58  C   UNL A   1      42.248  30.154  34.892  1.00  0.00     0.049 A 
ATOM     59  H   UNL A   1      40.725  30.895  33.633  1.00  0.00     0.167 HD
ATOM     60  C   UNL A   1      42.448  28.787  32.832  1.00  0.00     0.074 A 
ATOM     61  C   UNL A   1      43.070  27.757  32.027  1.00  0.00     0.031 C 
ATOM     62  C   UNL A   1      42.847  29.124  34.083  1.00  0.00     0.037 A 
BRANCH  49  63
ATOM     63  C   UNL A   1      39.595  33.718  36.626  1.00  0.00     0.064 A 
ATOM     64  C   UNL A   1      38.802  33.339  37.720  1.00  0.00     0.173 A 
ATOM     65  C   UNL A   1      40.238  34.962  36.681  1.00  0.00     0.173 A 
ATOM     66  F   UNL A   1      38.155  32.164  37.711  1.00  0.00    -0.203 F 
ATOM     67  C   UNL A   1      38.642  34.184  38.816  1.00  0.00     0.198 A 
ATOM     68  C   UNL A   1      40.099  35.792  37.791  1.00  0.00     0.198 A 
ATOM     69  F   UNL A   1      41.011  35.371  35.665  1.00  0.00    -0.203 F 
ATOM     70  F   UNL A   1      37.844  33.819  39.829  1.00  0.00    -0.200 F 
ATOM     71  C   UNL A   1      39.297  35.405  38.854  1.00  0.00     0.200 A 
ATOM     72  F   UNL A   1      40.743  36.967  37.833  1.00  0.00    -0.200 F 
ATOM     73  F   UNL A   1      39.149  36.212  39.914  1.00  0.00    -0.200 F 
ENDBRANCH  49  63
BRANCH  50  74
ATOM     74  C   UNL A   1      40.729  27.979  28.527  1.00  0.00     0.064 A 
ATOM     75  C   UNL A   1      41.503  28.443  27.455  1.00  0.00     0.173 A 
ATOM     76  C   UNL A   1      40.139  26.712  28.406  1.00  0.00     0.173 A 
ATOM     77  F   UNL A   1      42.071  29.657  27.516  1.00  0.00    -0.203 F 
ATOM     78  C   UNL A   1      41.657  27.685  26.296  1.00  0.00     0.198 A 
ATOM     79  C   UNL A   1      40.318  25.942  27.259  1.00  0.00     0.198 A 
ATOM     80  F   UNL A   1      39.394  26.219  29.406  1.00  0.00    -0.203 F 
ATOM     81  F   UNL A   1      42.357  28.177  25.265  1.00  0.00    -0.200 F 
ATOM     82  C   UNL A   1      41.069  26.434  26.201  1.00  0.00     0.200 A 
ATOM     83  F   UNL A   1      39.761  24.727  27.177  1.00  0.00    -0.200 F 
ATOM     84  F   UNL A   1      41.216  25.705  25.086  1.00  0.00    -0.200 F 
ENDBRANCH  50  74
BRANCH  62  85
ATOM     85  C   UNL A   1      43.984  28.345  34.675  1.00  0.00     0.064 A 
ATOM     86  C   UNL A   1      45.313  28.781  34.563  1.00  0.00     0.173 A 
ATOM     87  C   UNL A   1      43.736  27.169  35.399  1.00  0.00     0.173 A 
ATOM     88  F   UNL A   1      45.603  29.890  33.868  1.00  0.00    -0.203 F 
ATOM     89  C   UNL A   1      46.354  28.053  35.133  1.00  0.00     0.198 A 
ATOM     90  C   UNL A   1      44.777  26.461  35.993  1.00  0.00     0.198 A 
ATOM     91  F   UNL A   1      42.482  26.714  35.541  1.00  0.00    -0.203 F 
ATOM     92  F   UNL A   1      47.620  28.461  34.973  1.00  0.00    -0.200 F 
ATOM     93  C   UNL A   1      46.084  26.899  35.853  1.00  0.00     0.200 A 
ATOM     94  F   UNL A   1      44.513  25.353  36.702  1.00  0.00    -0.200 F 
ATOM     95  F   UNL A   1      47.088  26.205  36.408  1.00  0.00    -0.200 F 
ENDBRANCH  62  85
ENDBRANCH  36  37
ENDBRANCH  28  31
ENDBRANCH  26  27
ENDBRANCH  25  26
ENDBRANCH  24  25
ENDBRANCH   1  24
TORSDOF 17
ENDMDL
MODEL 2
REMARK VINA RESULT:     -11.0      5.654     10.990
REMARK SMILES CCCC[N@H+](CC)[C@H]1CCC[C@]([NH3+])(C(=O)NCCCCNC(=O)c2ccc(-c3c4nc(c(-c5c(F)c(F)c(F)c(F)c5F)c5ccc([nH]5)c(-c5c(F)c(F)c(F)c(F)c5F)c5nc(c(-c6c(F)c(F)c(F)c(F)c6F)c6ccc3[nH]6)C=C5)C=C4)cc2)C1
REMARK SMILES IDX 17 1 16 2 14 3 15 4 12 6 8 7 9 8 87 9 10 10 11 11 5 12 4 14
REMARK SMILES IDX 3 15 2 16 1 17 6 18 7 19 13 20 18 24 19 25 20 26 21 27 22 28
REMARK SMILES IDX 23 30 24 31 25 32 86 33 26 34 85 35 27 36 28 37 29 38 79 39
REMARK SMILES IDX 30 40 84 41 78 42 80 43 31 44 83 45 77 46 76 47 32 49 64 50
REMARK SMILES IDX 44 51 63 52 45 53 48 54 62 55 81 56 46 57 47 58 61 60 82 61
REMARK SMILES IDX 49 62 33 63 34 64 42 65 35 66 36 67 40 68 43 69 37 70 38 71
REMARK SMILES IDX 41 72 39 73 65 74 66 75 74 76 67 77 68 78 72 79 75 80 69 81
REMARK SMILES IDX 70 82 73 83 71 84 50 85 51 86 59 87 52 88 53 89 57 90 60 91
REMARK SMILES IDX 54 92 55 93 58 94 56 95
REMARK H PARENT 16 5 5 13 13 21 13 22 13 23 21 29 80 48 48 59
REMARK Flexibility Score: inf
ROOT
ATOM      1  C   UNL A   1      35.622  20.677  25.376  1.00  0.00     0.116 C 
ENDROOT
BRANCH   1   2
ATOM      2  N   UNL A   1      34.498  21.104  24.568  1.00  0.00    -0.351 N 
ATOM      3  C   UNL A   1      33.459  21.950  24.809  1.00  0.00     0.281 C 
ATOM      4  O   UNL A   1      32.662  22.088  23.873  1.00  0.00    -0.268 OA
ATOM      5  H   UNL A   1      34.482  20.705  23.669  1.00  0.00     0.163 HD
BRANCH   3   6
ATOM      6  C   UNL A   1      33.329  22.789  26.128  1.00  0.00     0.179 C 
ATOM      7  C   UNL A   1      32.819  25.085  25.078  1.00  0.00     0.190 C 
ATOM      8  C   UNL A   1      34.238  25.571  25.443  1.00  0.00     0.065 C 
ATOM      9  C   UNL A   1      32.363  23.981  26.059  1.00  0.00     0.144 C 
ATOM     10  C   UNL A   1      35.230  24.423  25.618  1.00  0.00     0.013 C 
ATOM     11  C   UNL A   1      34.713  23.331  26.555  1.00  0.00     0.079 C 
BRANCH   7  12
ATOM     12  N   UNL A   1      31.795  26.156  24.911  1.00  0.00    -0.333 N 
ATOM     13  H   UNL A   1      32.346  27.009  24.810  1.00  0.00     0.348 HD
BRANCH  12  14
ATOM     14  C   UNL A   1      30.985  26.377  26.124  1.00  0.00     0.262 C 
BRANCH  14  15
ATOM     15  C   UNL A   1      31.404  27.497  27.103  1.00  0.00     0.061 C 
BRANCH  15  16
ATOM     16  C   UNL A   1      32.301  28.627  26.577  1.00  0.00     0.002 C 
ATOM     17  C   UNL A   1      33.660  28.746  27.251  1.00  0.00     0.004 C 
ENDBRANCH  15  16
ENDBRANCH  14  15
ENDBRANCH  12  14
BRANCH  12  18
ATOM     18  C   UNL A   1      31.072  26.182  23.639  1.00  0.00     0.258 C 
ATOM     19  C   UNL A   1      29.966  27.220  23.503  1.00  0.00     0.071 C 
ENDBRANCH  12  18
ENDBRANCH   7  12
BRANCH   6  20
ATOM     20  N   UNL A   1      32.890  21.863  27.207  1.00  0.00    -0.345 N 
ATOM     21  H   UNL A   1      33.089  20.901  26.931  1.00  0.00     0.345 HD
ATOM     22  H   UNL A   1      31.888  21.971  27.361  1.00  0.00     0.345 HD
ATOM     23  H   UNL A   1      33.393  22.081  28.068  1.00  0.00     0.345 HD
ENDBRANCH   6  20
ENDBRANCH   3   6
ENDBRANCH   1   2
BRANCH   1  24
ATOM     24  C   UNL A   1      36.954  20.917  24.667  1.00  0.00     0.023 C 
BRANCH  24  25
ATOM     25  C   UNL A   1      38.007  19.830  24.896  1.00  0.00     0.023 C 
BRANCH  25  26
ATOM     26  C   UNL A   1      39.168  20.231  25.797  1.00  0.00     0.116 C 
BRANCH  26  27
ATOM     27  N   UNL A   1      40.195  19.206  25.903  1.00  0.00    -0.352 N 
ATOM     28  C   UNL A   1      41.538  19.359  26.147  1.00  0.00     0.251 C 
ATOM     29  H   UNL A   1      39.886  18.279  25.783  1.00  0.00     0.163 HD
ATOM     30  O   UNL A   1      42.293  18.394  26.100  1.00  0.00    -0.269 OA
BRANCH  28  31
ATOM     31  C   UNL A   1      42.074  20.706  26.426  1.00  0.00     0.039 A 
ATOM     32  C   UNL A   1      42.397  21.536  25.349  1.00  0.00     0.014 A 
ATOM     33  C   UNL A   1      42.229  21.158  27.738  1.00  0.00     0.014 A 
ATOM     34  C   UNL A   1      42.812  22.847  25.589  1.00  0.00     0.010 A 
ATOM     35  C   UNL A   1      42.575  22.485  27.974  1.00  0.00     0.010 A 
ATOM     36  C   UNL A   1      42.868  23.342  26.902  1.00  0.00    -0.014 A 
BRANCH  36  37
ATOM     37  C   UNL A   1      43.227  24.756  27.173  1.00  0.00     0.031 A 
ATOM     38  C   UNL A   1      44.629  25.237  26.928  1.00  0.00     0.074 A 
ATOM     39  C   UNL A   1      42.308  25.587  27.705  1.00  0.00     0.049 A 
ATOM     40  N   UNL A   1      45.157  26.410  27.175  1.00  0.00    -0.248 NA
ATOM     41  C   UNL A   1      45.571  24.264  26.352  1.00  0.00     0.031 C 
ATOM     42  C   UNL A   1      40.929  25.223  28.033  1.00  0.00     0.029 A 
ATOM     43  N   UNL A   1      42.400  26.905  28.072  1.00  0.00    -0.354 N 
ATOM     44  C   UNL A   1      46.489  26.311  26.796  1.00  0.00     0.074 A 
ATOM     45  C   UNL A   1      46.705  24.949  26.355  1.00  0.00     0.031 C 
ATOM     46  C   UNL A   1      40.300  26.295  28.539  1.00  0.00     0.029 A 
ATOM     47  C   UNL A   1      41.238  27.411  28.603  1.00  0.00     0.049 A 
ATOM     48  H   UNL A   1      43.220  27.439  27.967  1.00  0.00     0.167 HD
ATOM     49  C   UNL A   1      47.440  27.274  26.794  1.00  0.00     0.037 A 
ATOM     50  C   UNL A   1      40.965  28.634  29.096  1.00  0.00     0.037 A 
ATOM     51  C   UNL A   1      47.216  28.633  27.211  1.00  0.00     0.049 A 
ATOM     52  C   UNL A   1      42.043  29.686  29.083  1.00  0.00     0.074 A 
ATOM     53  C   UNL A   1      48.101  29.697  27.198  1.00  0.00     0.029 A 
ATOM     54  N   UNL A   1      46.018  29.115  27.717  1.00  0.00    -0.354 N 
ATOM     55  N   UNL A   1      43.280  29.599  28.662  1.00  0.00    -0.248 NA
ATOM     56  C   UNL A   1      41.681  31.010  29.609  1.00  0.00     0.031 C 
ATOM     57  C   UNL A   1      47.451  30.813  27.735  1.00  0.00     0.029 A 
ATOM     58  C   UNL A   1      46.146  30.459  28.035  1.00  0.00     0.049 A 
ATOM     59  H   UNL A   1      45.198  28.583  27.832  1.00  0.00     0.167 HD
ATOM     60  C   UNL A   1      43.836  30.858  28.842  1.00  0.00     0.074 A 
ATOM     61  C   UNL A   1      42.794  31.697  29.397  1.00  0.00     0.031 C 
ATOM     62  C   UNL A   1      45.095  31.282  28.574  1.00  0.00     0.037 A 
BRANCH  49  63
ATOM     63  C   UNL A   1      48.811  26.898  26.314  1.00  0.00     0.064 A 
ATOM     64  C   UNL A   1      49.777  26.380  27.191  1.00  0.00     0.173 A 
ATOM     65  C   UNL A   1      49.149  27.009  24.958  1.00  0.00     0.173 A 
ATOM     66  F   UNL A   1      49.509  26.265  28.500  1.00  0.00    -0.203 F 
ATOM     67  C   UNL A   1      51.039  26.010  26.730  1.00  0.00     0.198 A 
ATOM     68  C   UNL A   1      50.401  26.611  24.496  1.00  0.00     0.198 A 
ATOM     69  F   UNL A   1      48.261  27.493  24.076  1.00  0.00    -0.203 F 
ATOM     70  F   UNL A   1      51.960  25.560  27.593  1.00  0.00    -0.200 F 
ATOM     71  C   UNL A   1      51.346  26.119  25.382  1.00  0.00     0.200 A 
ATOM     72  F   UNL A   1      50.694  26.703  23.190  1.00  0.00    -0.200 F 
ATOM     73  F   UNL A   1      52.557  25.753  24.940  1.00  0.00    -0.200 F 
ENDBRANCH  49  63
BRANCH  50  74
ATOM     74  C   UNL A   1      39.611  28.942  29.626  1.00  0.00     0.064 A 
ATOM     75  C   UNL A   1      39.293  28.707  30.971  1.00  0.00     0.173 A 
ATOM     76  C   UNL A   1      38.602  29.455  28.798  1.00  0.00     0.173 A 
ATOM     77  F   UNL A   1      40.219  28.198  31.798  1.00  0.00    -0.203 F 
ATOM     78  C   UNL A   1      38.012  28.949  31.462  1.00  0.00     0.198 A 
ATOM     79  C   UNL A   1      37.330  29.724  29.296  1.00  0.00     0.198 A 
ATOM     80  F   UNL A   1      38.856  29.702  27.504  1.00  0.00    -0.203 F 
ATOM     81  F   UNL A   1      37.722  28.664  32.738  1.00  0.00    -0.200 F 
ATOM     82  C   UNL A   1      37.032  29.461  30.625  1.00  0.00     0.200 A 
ATOM     83  F   UNL A   1      36.390  30.233  28.488  1.00  0.00    -0.200 F 
ATOM     84  F   UNL A   1      35.799  29.692  31.097  1.00  0.00    -0.200 F 
ENDBRANCH  50  74
BRANCH  62  85
ATOM     85  C   UNL A   1      45.406  32.726  28.838  1.00  0.00     0.064 A 
ATOM     86  C   UNL A   1      45.177  33.717  27.873  1.00  0.00     0.173 A 
ATOM     87  C   UNL A   1      45.900  33.127  30.089  1.00  0.00     0.173 A 
ATOM     88  F   UNL A   1      44.720  33.382  26.657  1.00  0.00    -0.203 F 
ATOM     89  C   UNL A   1      45.457  35.054  28.141  1.00  0.00     0.198 A 
ATOM     90  C   UNL A   1      46.149  34.468  30.364  1.00  0.00     0.198 A 
ATOM     91  F   UNL A   1      46.130  32.218  31.049  1.00  0.00    -0.203 F 
ATOM     92  F   UNL A   1      45.277  35.979  27.188  1.00  0.00    -0.200 F 
ATOM     93  C   UNL A   1      45.935  35.429  29.388  1.00  0.00     0.200 A 
ATOM     94  F   UNL A   1      46.598  34.830  31.574  1.00  0.00    -0.200 F 
ATOM     95  F   UNL A   1      46.195  36.718  29.647  1.00  0.00    -0.200 F 
ENDBRANCH  62  85
ENDBRANCH  36  37
ENDBRANCH  28  31
ENDBRANCH  26  27
ENDBRANCH  25  26
ENDBRANCH  24  25
ENDBRANCH   1  24
TORSDOF 17
ENDMDL
MODEL 3
REMARK VINA RESULT:     -11.0      1.588      8.076
REMARK SMILES CCCC[N@H+](CC)[C@H]1CCC[C@]([NH3+])(C(=O)NCCCCNC(=O)c2ccc(-c3c4nc(c(-c5c(F)c(F)c(F)c(F)c5F)c5ccc([nH]5)c(-c5c(F)c(F)c(F)c(F)c5F)c5nc(c(-c6c(F)c(F)c(F)c(F)c6F)c6ccc3[nH]6)C=C5)C=C4)cc2)C1
REMARK SMILES IDX 17 1 16 2 14 3 15 4 12 6 8 7 9 8 87 9 10 10 11 11 5 12 4 14
REMARK SMILES IDX 3 15 2 16 1 17 6 18 7 19 13 20 18 24 19 25 20 26 21 27 22 28
REMARK SMILES IDX 23 30 24 31 25 32 86 33 26 34 85 35 27 36 28 37 29 38 79 39
REMARK SMILES IDX 30 40 84 41 78 42 80 43 31 44 83 45 77 46 76 47 32 49 64 50
REMARK SMILES IDX 44 51 63 52 45 53 48 54 62 55 81 56 46 57 47 58 61 60 82 61
REMARK SMILES IDX 49 62 33 63 34 64 42 65 35 66 36 67 40 68 43 69 37 70 38 71
REMARK SMILES IDX 41 72 39 73 65 74 66 75 74 76 67 77 68 78 72 79 75 80 69 81
REMARK SMILES IDX 70 82 73 83 71 84 50 85 51 86 59 87 52 88 53 89 57 90 60 91
REMARK SMILES IDX 54 92 55 93 58 94 56 95
REMARK H PARENT 16 5 5 13 13 21 13 22 13 23 21 29 80 48 48 59
REMARK Flexibility Score: inf
ROOT
ATOM      1  C   UNL A   1      31.723  30.064  25.118  1.00  0.00     0.116 C 
ENDROOT
BRANCH   1   2
ATOM      2  N   UNL A   1      31.008  28.820  24.919  1.00  0.00    -0.351 N 
ATOM      3  C   UNL A   1      31.307  27.685  24.229  1.00  0.00     0.281 C 
ATOM      4  O   UNL A   1      30.448  26.797  24.275  1.00  0.00    -0.268 OA
ATOM      5  H   UNL A   1      30.134  28.788  25.371  1.00  0.00     0.163 HD
BRANCH   3   6
ATOM      6  C   UNL A   1      32.687  27.455  23.521  1.00  0.00     0.179 C 
ATOM      7  C   UNL A   1      33.111  25.028  24.273  1.00  0.00     0.190 C 
ATOM      8  C   UNL A   1      34.203  25.518  25.248  1.00  0.00     0.065 C 
ATOM      9  C   UNL A   1      32.975  26.011  23.087  1.00  0.00     0.144 C 
ATOM     10  C   UNL A   1      34.028  26.981  25.648  1.00  0.00     0.013 C 
ATOM     11  C   UNL A   1      33.843  27.906  24.445  1.00  0.00     0.079 C 
BRANCH   7  12
ATOM     12  N   UNL A   1      33.234  23.611  23.827  1.00  0.00    -0.333 N 
ATOM     13  H   UNL A   1      33.461  23.104  24.683  1.00  0.00     0.348 HD
BRANCH  12  14
ATOM     14  C   UNL A   1      34.389  23.382  22.940  1.00  0.00     0.262 C 
BRANCH  14  15
ATOM     15  C   UNL A   1      35.618  22.629  23.498  1.00  0.00     0.061 C 
BRANCH  15  16
ATOM     16  C   UNL A   1      35.401  21.631  24.646  1.00  0.00     0.002 C 
ATOM     17  C   UNL A   1      36.619  20.803  25.026  1.00  0.00     0.004 C 
ENDBRANCH  15  16
ENDBRANCH  14  15
ENDBRANCH  12  14
BRANCH  12  18
ATOM     18  C   UNL A   1      31.994  22.926  23.462  1.00  0.00     0.258 C 
ATOM     19  C   UNL A   1      32.135  21.610  22.711  1.00  0.00     0.071 C 
ENDBRANCH  12  18
ENDBRANCH   7  12
BRANCH   6  20
ATOM     20  N   UNL A   1      32.733  28.345  22.328  1.00  0.00    -0.345 N 
ATOM     21  H   UNL A   1      33.364  27.948  21.632  1.00  0.00     0.345 HD
ATOM     22  H   UNL A   1      33.069  29.267  22.605  1.00  0.00     0.345 HD
ATOM     23  H   UNL A   1      31.797  28.429  21.930  1.00  0.00     0.345 HD
ENDBRANCH   6  20
ENDBRANCH   3   6
ENDBRANCH   1   2
BRANCH   1  24
ATOM     24  C   UNL A   1      31.662  30.527  26.573  1.00  0.00     0.023 C 
BRANCH  24  25
ATOM     25  C   UNL A   1      31.440  32.030  26.757  1.00  0.00     0.023 C 
BRANCH  25  26
ATOM     26  C   UNL A   1      32.642  32.803  27.286  1.00  0.00     0.116 C 
BRANCH  26  27
ATOM     27  N   UNL A   1      32.336  34.187  27.616  1.00  0.00    -0.352 N 
ATOM     28  C   UNL A   1      32.938  34.999  28.544  1.00  0.00     0.251 C 
ATOM     29  H   UNL A   1      31.599  34.594  27.105  1.00  0.00     0.163 HD
ATOM     30  O   UNL A   1      32.490  36.117  28.777  1.00  0.00    -0.269 OA
BRANCH  28  31
ATOM     31  C   UNL A   1      34.109  34.501  29.294  1.00  0.00     0.039 A 
ATOM     32  C   UNL A   1      33.903  33.907  30.542  1.00  0.00     0.014 A 
ATOM     33  C   UNL A   1      35.395  34.591  28.756  1.00  0.00     0.014 A 
ATOM     34  C   UNL A   1      34.982  33.341  31.222  1.00  0.00     0.010 A 
ATOM     35  C   UNL A   1      36.457  33.966  29.402  1.00  0.00     0.010 A 
ATOM     36  C   UNL A   1      36.260  33.333  30.640  1.00  0.00    -0.014 A 
BRANCH  36  37
ATOM     37  C   UNL A   1      37.403  32.664  31.309  1.00  0.00     0.031 A 
ATOM     38  C   UNL A   1      38.109  31.523  30.632  1.00  0.00     0.074 A 
ATOM     39  C   UNL A   1      37.761  33.041  32.552  1.00  0.00     0.049 A 
ATOM     40  N   UNL A   1      39.074  30.762  31.083  1.00  0.00    -0.248 NA
ATOM     41  C   UNL A   1      37.650  31.172  29.278  1.00  0.00     0.031 C 
ATOM     42  C   UNL A   1      37.121  34.102  33.331  1.00  0.00     0.029 A 
ATOM     43  N   UNL A   1      38.744  32.565  33.383  1.00  0.00    -0.354 N 
ATOM     44  C   UNL A   1      39.329  29.840  30.077  1.00  0.00     0.074 A 
ATOM     45  C   UNL A   1      38.382  30.099  29.013  1.00  0.00     0.031 C 
ATOM     46  C   UNL A   1      37.737  34.207  34.519  1.00  0.00     0.029 A 
ATOM     47  C   UNL A   1      38.789  33.200  34.601  1.00  0.00     0.049 A 
ATOM     48  H   UNL A   1      39.357  31.838  33.132  1.00  0.00     0.167 HD
ATOM     49  C   UNL A   1      40.284  28.880  30.033  1.00  0.00     0.037 A 
ATOM     50  C   UNL A   1      39.586  32.986  35.666  1.00  0.00     0.037 A 
ATOM     51  C   UNL A   1      41.239  28.641  31.082  1.00  0.00     0.049 A 
ATOM     52  C   UNL A   1      40.637  31.910  35.590  1.00  0.00     0.074 A 
ATOM     53  C   UNL A   1      42.277  27.727  31.111  1.00  0.00     0.029 A 
ATOM     54  N   UNL A   1      41.273  29.324  32.289  1.00  0.00    -0.354 N 
ATOM     55  N   UNL A   1      40.911  31.088  34.608  1.00  0.00    -0.248 NA
ATOM     56  C   UNL A   1      41.493  31.738  36.772  1.00  0.00     0.031 C 
ATOM     57  C   UNL A   1      42.914  27.827  32.353  1.00  0.00     0.029 A 
ATOM     58  C   UNL A   1      42.304  28.839  33.077  1.00  0.00     0.049 A 
ATOM     59  H   UNL A   1      40.656  30.045  32.547  1.00  0.00     0.167 HD
ATOM     60  C   UNL A   1      41.987  30.324  35.037  1.00  0.00     0.074 A 
ATOM     61  C   UNL A   1      42.326  30.791  36.365  1.00  0.00     0.031 C 
ATOM     62  C   UNL A   1      42.636  29.324  34.392  1.00  0.00     0.037 A 
BRANCH  49  63
ATOM     63  C   UNL A   1      40.351  28.022  28.804  1.00  0.00     0.064 A 
ATOM     64  C   UNL A   1      41.117  28.397  27.689  1.00  0.00     0.173 A 
ATOM     65  C   UNL A   1      39.682  26.790  28.756  1.00  0.00     0.173 A 
ATOM     66  F   UNL A   1      41.766  29.571  27.680  1.00  0.00    -0.203 F 
ATOM     67  C   UNL A   1      41.191  27.580  26.563  1.00  0.00     0.198 A 
ATOM     68  C   UNL A   1      39.783  25.963  27.640  1.00  0.00     0.198 A 
ATOM     69  F   UNL A   1      38.940  26.381  29.796  1.00  0.00    -0.203 F 
ATOM     70  F   UNL A   1      41.894  27.980  25.494  1.00  0.00    -0.200 F 
ATOM     71  C   UNL A   1      40.531  26.361  26.543  1.00  0.00     0.200 A 
ATOM     72  F   UNL A   1      39.155  24.778  27.626  1.00  0.00    -0.200 F 
ATOM     73  F   UNL A   1      40.613  25.573  25.462  1.00  0.00    -0.200 F 
ENDBRANCH  49  63
BRANCH  50  74
ATOM     74  C   UNL A   1      39.436  33.817  36.890  1.00  0.00     0.064 A 
ATOM     75  C   UNL A   1      40.073  35.061  36.998  1.00  0.00     0.173 A 
ATOM     76  C   UNL A   1      38.674  33.377  37.982  1.00  0.00     0.173 A 
ATOM     77  F   UNL A   1      40.830  35.515  35.988  1.00  0.00    -0.203 F 
ATOM     78  C   UNL A   1      39.975  35.822  38.161  1.00  0.00     0.198 A 
ATOM     79  C   UNL A   1      38.552  34.152  39.133  1.00  0.00     0.198 A 
ATOM     80  F   UNL A   1      38.040  32.196  37.927  1.00  0.00    -0.203 F 
ATOM     81  F   UNL A   1      40.638  36.982  38.258  1.00  0.00    -0.200 F 
ATOM     82  C   UNL A   1      39.211  35.369  39.226  1.00  0.00     0.200 A 
ATOM     83  F   UNL A   1      37.801  33.718  40.154  1.00  0.00    -0.200 F 
ATOM     84  F   UNL A   1      39.119  36.100  40.345  1.00  0.00    -0.200 F 
ENDBRANCH  50  74
BRANCH  62  85
ATOM     85  C   UNL A   1      43.803  28.695  35.094  1.00  0.00     0.064 A 
ATOM     86  C   UNL A   1      43.647  27.576  35.925  1.00  0.00     0.173 A 
ATOM     87  C   UNL A   1      45.100  29.194  34.899  1.00  0.00     0.173 A 
ATOM     88  F   UNL A   1      42.426  27.072  36.155  1.00  0.00    -0.203 F 
ATOM     89  C   UNL A   1      44.744  26.995  36.556  1.00  0.00     0.198 A 
ATOM     90  C   UNL A   1      46.198  28.592  35.507  1.00  0.00     0.198 A 
ATOM     91  F   UNL A   1      45.304  30.259  34.108  1.00  0.00    -0.203 F 
ATOM     92  F   UNL A   1      44.566  25.957  37.383  1.00  0.00    -0.200 F 
ATOM     93  C   UNL A   1      46.018  27.500  36.340  1.00  0.00     0.200 A 
ATOM     94  F   UNL A   1      47.430  29.072  35.286  1.00  0.00    -0.200 F 
ATOM     95  F   UNL A   1      47.074  26.934  36.942  1.00  0.00    -0.200 F 
ENDBRANCH  62  85
ENDBRANCH  36  37
ENDBRANCH  28  31
ENDBRANCH  26  27
ENDBRANCH  25  26
ENDBRANCH  24  25
ENDBRANCH   1  24
TORSDOF 17
ENDMDL
