MODEL 1
REMARK VINA RESULT:     -11.8      0.000      0.000
REMARK SMILES CNC(=O)[C@H]1CCCCN1C(=O)NCCOCC(=O)NCCCCNC(=O)c1ccc(-c2c3nc(c(-c4c(F)c(F)c(F)c(F)c4F)c4ccc([nH]4)c(-c4c(F)c(F)c(F)c(F)c4F)c4nc(c(-c5c(F)c(F)c(F)c(F)c5F)c5ccc2[nH]5)C=C4)C=C3)cc1
REMARK SMILES IDX 18 1 19 2 20 3 17 5 16 6 15 7 14 8 13 9 11 10 12 11 10 13
REMARK SMILES IDX 5 14 6 15 7 16 9 17 8 18 3 19 1 20 2 21 4 23 21 24 22 25
REMARK SMILES IDX 23 26 24 27 25 28 26 29 27 31 28 32 29 33 90 34 30 35 89 36
REMARK SMILES IDX 31 37 32 38 33 39 83 40 34 41 88 42 82 43 84 44 35 45 87 46
REMARK SMILES IDX 81 47 80 48 36 50 68 51 48 52 67 53 49 54 52 55 66 56 85 57
REMARK SMILES IDX 50 58 51 59 65 61 86 62 53 63 37 64 38 65 46 66 39 67 40 68
REMARK SMILES IDX 44 69 47 70 41 71 42 72 45 73 43 74 69 75 70 76 78 77 71 78
REMARK SMILES IDX 72 79 76 80 79 81 73 82 74 83 77 84 75 85 54 86 55 87 63 88
REMARK SMILES IDX 56 89 57 90 61 91 64 92 58 93 59 94 62 95 60 96
REMARK H PARENT 20 4 13 12 2 22 25 30 84 49 52 60
REMARK Flexibility Score: inf
ROOT
ATOM      1  C   UNL A   1      32.904  28.862  23.425  1.00  0.00     0.245 C 
ATOM      2  O   UNL A   1      33.971  28.821  22.815  1.00  0.00    -0.272 OA
ATOM      3  N   UNL A   1      32.785  29.701  24.497  1.00  0.00    -0.354 N 
ATOM      4  H   UNL A   1      33.596  30.197  24.752  1.00  0.00     0.163 HD
ENDROOT
BRANCH   1   5
ATOM      5  C   UNL A   1      31.692  28.029  23.001  1.00  0.00     0.260 C 
BRANCH   5   6
ATOM      6  O   UNL A   1      31.952  26.950  22.117  1.00  0.00    -0.370 OA
BRANCH   6   7
ATOM      7  C   UNL A   1      31.892  25.650  22.723  1.00  0.00     0.182 C 
BRANCH   7   8
ATOM      8  C   UNL A   1      32.956  24.693  22.170  1.00  0.00     0.146 C 
BRANCH   8   9
ATOM      9  N   UNL A   1      32.530  23.302  22.207  1.00  0.00    -0.336 N 
ATOM     10  C   UNL A   1      32.789  22.203  22.932  1.00  0.00     0.318 C 
ATOM     11  O   UNL A   1      32.139  21.207  22.596  1.00  0.00    -0.249 OA
ATOM     12  H   UNL A   1      31.868  23.115  21.502  1.00  0.00     0.165 HD
BRANCH  10  13
ATOM     13  N   UNL A   1      33.627  22.183  24.008  1.00  0.00    -0.313 N 
ATOM     14  C   UNL A   1      32.991  22.298  25.351  1.00  0.00     0.176 C 
ATOM     15  C   UNL A   1      33.169  23.773  25.749  1.00  0.00     0.035 C 
ATOM     16  C   UNL A   1      34.641  24.200  25.752  1.00  0.00     0.004 C 
ATOM     17  C   UNL A   1      35.071  22.393  24.051  1.00  0.00     0.122 C 
ATOM     18  C   UNL A   1      35.342  23.846  24.433  1.00  0.00     0.022 C 
BRANCH  14  19
ATOM     19  C   UNL A   1      33.529  21.189  26.309  1.00  0.00     0.242 C 
ATOM     20  C   UNL A   1      32.539  19.171  25.108  1.00  0.00     0.142 C 
ATOM     21  N   UNL A   1      33.278  19.865  26.128  1.00  0.00    -0.357 N 
ATOM     22  H   UNL A   1      33.673  19.279  26.814  1.00  0.00     0.163 HD
ATOM     23  O   UNL A   1      34.278  21.458  27.257  1.00  0.00    -0.273 OA
ENDBRANCH  14  19
ENDBRANCH  10  13
ENDBRANCH   8   9
ENDBRANCH   7   8
ENDBRANCH   6   7
ENDBRANCH   5   6
ENDBRANCH   1   5
BRANCH   3  24
ATOM     24  C   UNL A   1      31.607  29.946  25.303  1.00  0.00     0.116 C 
BRANCH  24  25
ATOM     25  C   UNL A   1      31.958  30.498  26.681  1.00  0.00     0.023 C 
BRANCH  25  26
ATOM     26  C   UNL A   1      31.663  31.987  26.874  1.00  0.00     0.023 C 
BRANCH  26  27
ATOM     27  C   UNL A   1      32.863  32.857  27.233  1.00  0.00     0.116 C 
BRANCH  27  28
ATOM     28  N   UNL A   1      32.495  34.202  27.647  1.00  0.00    -0.352 N 
ATOM     29  C   UNL A   1      33.032  34.980  28.646  1.00  0.00     0.251 C 
ATOM     30  H   UNL A   1      31.759  34.614  27.140  1.00  0.00     0.163 HD
ATOM     31  O   UNL A   1      32.528  36.060  28.926  1.00  0.00    -0.269 OA
BRANCH  29  32
ATOM     32  C   UNL A   1      34.197  34.489  29.412  1.00  0.00     0.039 A 
ATOM     33  C   UNL A   1      33.977  33.889  30.655  1.00  0.00     0.014 A 
ATOM     34  C   UNL A   1      35.494  34.598  28.904  1.00  0.00     0.014 A 
ATOM     35  C   UNL A   1      35.050  33.334  31.355  1.00  0.00     0.010 A 
ATOM     36  C   UNL A   1      36.551  33.983  29.569  1.00  0.00     0.010 A 
ATOM     37  C   UNL A   1      36.340  33.341  30.799  1.00  0.00    -0.014 A 
BRANCH  37  38
ATOM     38  C   UNL A   1      37.475  32.670  31.483  1.00  0.00     0.031 A 
ATOM     39  C   UNL A   1      38.175  31.511  30.827  1.00  0.00     0.074 A 
ATOM     40  C   UNL A   1      37.830  33.059  32.723  1.00  0.00     0.049 A 
ATOM     41  N   UNL A   1      39.133  30.752  31.294  1.00  0.00    -0.248 NA
ATOM     42  C   UNL A   1      37.719  31.143  29.477  1.00  0.00     0.031 C 
ATOM     43  C   UNL A   1      37.199  34.137  33.485  1.00  0.00     0.029 A 
ATOM     44  N   UNL A   1      38.803  32.583  33.568  1.00  0.00    -0.354 N 
ATOM     45  C   UNL A   1      39.381  29.807  30.307  1.00  0.00     0.074 A 
ATOM     46  C   UNL A   1      38.443  30.060  29.234  1.00  0.00     0.031 C 
ATOM     47  C   UNL A   1      37.811  34.254  34.674  1.00  0.00     0.029 A 
ATOM     48  C   UNL A   1      38.851  33.236  34.776  1.00  0.00     0.049 A 
ATOM     49  H   UNL A   1      39.408  31.844  33.330  1.00  0.00     0.167 HD
ATOM     50  C   UNL A   1      40.320  28.831  30.289  1.00  0.00     0.037 A 
ATOM     51  C   UNL A   1      39.640  33.028  35.848  1.00  0.00     0.037 A 
ATOM     52  C   UNL A   1      41.273  28.605  31.343  1.00  0.00     0.049 A 
ATOM     53  C   UNL A   1      40.673  31.934  35.799  1.00  0.00     0.074 A 
ATOM     54  C   UNL A   1      42.309  27.687  31.385  1.00  0.00     0.029 A 
ATOM     55  N   UNL A   1      41.305  29.300  32.542  1.00  0.00    -0.354 N 
ATOM     56  N   UNL A   1      40.950  31.099  34.828  1.00  0.00    -0.248 NA
ATOM     57  C   UNL A   1      41.508  31.759  36.996  1.00  0.00     0.031 C 
ATOM     58  C   UNL A   1      42.939  27.796  32.629  1.00  0.00     0.029 A 
ATOM     59  C   UNL A   1      42.330  28.817  33.341  1.00  0.00     0.049 A 
ATOM     60  H   UNL A   1      40.692  30.030  32.789  1.00  0.00     0.167 HD
ATOM     61  C   UNL A   1      42.009  30.325  35.281  1.00  0.00     0.074 A 
ATOM     62  C   UNL A   1      42.335  30.799  36.609  1.00  0.00     0.031 C 
ATOM     63  C   UNL A   1      42.653  29.311  34.653  1.00  0.00     0.037 A 
BRANCH  50  64
ATOM     64  C   UNL A   1      40.374  27.935  29.087  1.00  0.00     0.064 A 
ATOM     65  C   UNL A   1      39.632  26.746  29.023  1.00  0.00     0.173 A 
ATOM     66  C   UNL A   1      41.129  28.299  27.962  1.00  0.00     0.173 A 
ATOM     67  F   UNL A   1      38.902  26.348  30.075  1.00  0.00    -0.203 F 
ATOM     68  C   UNL A   1      39.661  25.943  27.885  1.00  0.00     0.198 A 
ATOM     69  C   UNL A   1      41.133  27.509  26.815  1.00  0.00     0.198 A 
ATOM     70  F   UNL A   1      41.852  29.429  27.968  1.00  0.00    -0.203 F 
ATOM     71  F   UNL A   1      38.976  24.793  27.861  1.00  0.00    -0.200 F 
ATOM     72  C   UNL A   1      40.403  26.330  26.779  1.00  0.00     0.200 A 
ATOM     73  F   UNL A   1      41.839  27.891  25.741  1.00  0.00    -0.200 F 
ATOM     74  F   UNL A   1      40.418  25.565  25.680  1.00  0.00    -0.200 F 
ENDBRANCH  50  64
BRANCH  51  75
ATOM     75  C   UNL A   1      39.501  33.884  37.057  1.00  0.00     0.064 A 
ATOM     76  C   UNL A   1      38.720  33.469  38.145  1.00  0.00     0.173 A 
ATOM     77  C   UNL A   1      40.117  35.140  37.139  1.00  0.00     0.173 A 
ATOM     78  F   UNL A   1      38.091  32.284  38.104  1.00  0.00    -0.203 F 
ATOM     79  C   UNL A   1      38.536  34.289  39.255  1.00  0.00     0.198 A 
ATOM     80  C   UNL A   1      39.959  35.947  38.264  1.00  0.00     0.198 A 
ATOM     81  F   UNL A   1      40.878  35.582  36.127  1.00  0.00    -0.203 F 
ATOM     82  F   UNL A   1      37.738  33.892  40.255  1.00  0.00    -0.200 F 
ATOM     83  C   UNL A   1      39.159  35.527  39.316  1.00  0.00     0.200 A 
ATOM     84  F   UNL A   1      40.573  37.137  38.324  1.00  0.00    -0.200 F 
ATOM     85  F   UNL A   1      38.981  36.317  40.382  1.00  0.00    -0.200 F 
ENDBRANCH  51  75
BRANCH  63  86
ATOM     86  C   UNL A   1      43.806  28.675  35.374  1.00  0.00     0.064 A 
ATOM     87  C   UNL A   1      43.621  27.611  36.268  1.00  0.00     0.173 A 
ATOM     88  C   UNL A   1      45.119  29.113  35.136  1.00  0.00     0.173 A 
ATOM     89  F   UNL A   1      42.385  27.166  36.542  1.00  0.00    -0.203 F 
ATOM     90  C   UNL A   1      44.705  27.025  36.916  1.00  0.00     0.198 A 
ATOM     91  C   UNL A   1      46.202  28.505  35.762  1.00  0.00     0.198 A 
ATOM     92  F   UNL A   1      45.350  30.124  34.285  1.00  0.00    -0.203 F 
ATOM     93  F   UNL A   1      44.501  26.041  37.803  1.00  0.00    -0.200 F 
ATOM     94  C   UNL A   1      45.994  27.466  36.657  1.00  0.00     0.200 A 
ATOM     95  F   UNL A   1      47.447  28.923  35.500  1.00  0.00    -0.200 F 
ATOM     96  F   UNL A   1      47.036  26.895  37.276  1.00  0.00    -0.200 F 
ENDBRANCH  63  86
ENDBRANCH  37  38
ENDBRANCH  29  32
ENDBRANCH  27  28
ENDBRANCH  26  27
ENDBRANCH  25  26
ENDBRANCH  24  25
ENDBRANCH   3  24
TORSDOF 17
ENDMDL
MODEL 2
REMARK VINA RESULT:     -11.7      3.961      8.798
REMARK SMILES CNC(=O)[C@H]1CCCCN1C(=O)NCCOCC(=O)NCCCCNC(=O)c1ccc(-c2c3nc(c(-c4c(F)c(F)c(F)c(F)c4F)c4ccc([nH]4)c(-c4c(F)c(F)c(F)c(F)c4F)c4nc(c(-c5c(F)c(F)c(F)c(F)c5F)c5ccc2[nH]5)C=C4)C=C3)cc1
REMARK SMILES IDX 18 1 19 2 20 3 17 5 16 6 15 7 14 8 13 9 11 10 12 11 10 13
REMARK SMILES IDX 5 14 6 15 7 16 9 17 8 18 3 19 1 20 2 21 4 23 21 24 22 25
REMARK SMILES IDX 23 26 24 27 25 28 26 29 27 31 28 32 29 33 90 34 30 35 89 36
REMARK SMILES IDX 31 37 32 38 33 39 83 40 34 41 88 42 82 43 84 44 35 45 87 46
REMARK SMILES IDX 81 47 80 48 36 50 68 51 48 52 67 53 49 54 52 55 66 56 85 57
REMARK SMILES IDX 50 58 51 59 65 61 86 62 53 63 37 64 38 65 46 66 39 67 40 68
REMARK SMILES IDX 44 69 47 70 41 71 42 72 45 73 43 74 69 75 70 76 78 77 71 78
REMARK SMILES IDX 72 79 76 80 79 81 73 82 74 83 77 84 75 85 54 86 55 87 63 88
REMARK SMILES IDX 56 89 57 90 61 91 64 92 58 93 59 94 62 95 60 96
REMARK H PARENT 20 4 13 12 2 22 25 30 84 49 52 60
REMARK Flexibility Score: inf
ROOT
ATOM      1  C   UNL A   1      30.866  28.446  22.477  1.00  0.00     0.245 C 
ATOM      2  O   UNL A   1      29.828  28.884  21.986  1.00  0.00    -0.272 OA
ATOM      3  N   UNL A   1      31.947  29.274  22.588  1.00  0.00    -0.354 N 
ATOM      4  H   UNL A   1      31.842  30.179  22.213  1.00  0.00     0.163 HD
ENDROOT
BRANCH   1   5
ATOM      5  C   UNL A   1      30.979  27.013  23.003  1.00  0.00     0.260 C 
BRANCH   5   6
ATOM      6  O   UNL A   1      29.762  26.389  23.384  1.00  0.00    -0.370 OA
BRANCH   6   7
ATOM      7  C   UNL A   1      29.666  26.063  24.779  1.00  0.00     0.182 C 
BRANCH   7   8
ATOM      8  C   UNL A   1      31.041  25.918  25.445  1.00  0.00     0.146 C 
BRANCH   8   9
ATOM      9  N   UNL A   1      31.081  24.831  26.412  1.00  0.00    -0.336 N 
ATOM     10  C   UNL A   1      31.771  23.696  26.600  1.00  0.00     0.318 C 
ATOM     11  O   UNL A   1      31.461  23.076  27.623  1.00  0.00    -0.249 OA
ATOM     12  H   UNL A   1      30.417  24.966  27.127  1.00  0.00     0.165 HD
BRANCH  10  13
ATOM     13  N   UNL A   1      32.791  23.283  25.794  1.00  0.00    -0.313 N 
ATOM     14  C   UNL A   1      34.168  23.675  26.207  1.00  0.00     0.176 C 
ATOM     15  C   UNL A   1      34.510  24.896  25.337  1.00  0.00     0.035 C 
ATOM     16  C   UNL A   1      34.407  24.589  23.839  1.00  0.00     0.004 C 
ATOM     17  C   UNL A   1      32.734  22.797  24.418  1.00  0.00     0.122 C 
ATOM     18  C   UNL A   1      33.056  23.955  23.477  1.00  0.00     0.022 C 
BRANCH  14  19
ATOM     19  C   UNL A   1      35.121  22.439  26.180  1.00  0.00     0.242 C 
ATOM     20  C   UNL A   1      37.334  23.700  26.093  1.00  0.00     0.142 C 
ATOM     21  N   UNL A   1      36.476  22.547  26.125  1.00  0.00    -0.357 N 
ATOM     22  H   UNL A   1      36.952  21.685  26.104  1.00  0.00     0.163 HD
ATOM     23  O   UNL A   1      34.689  21.283  26.277  1.00  0.00    -0.273 OA
ENDBRANCH  14  19
ENDBRANCH  10  13
ENDBRANCH   8   9
ENDBRANCH   7   8
ENDBRANCH   6   7
ENDBRANCH   5   6
ENDBRANCH   1   5
BRANCH   3  24
ATOM     24  C   UNL A   1      33.231  28.980  23.190  1.00  0.00     0.116 C 
BRANCH  24  25
ATOM     25  C   UNL A   1      33.259  29.314  24.679  1.00  0.00     0.023 C 
BRANCH  25  26
ATOM     26  C   UNL A   1      33.897  28.245  25.568  1.00  0.00     0.023 C 
BRANCH  26  27
ATOM     27  C   UNL A   1      33.682  28.420  27.068  1.00  0.00     0.116 C 
BRANCH  27  28
ATOM     28  N   UNL A   1      33.610  29.813  27.480  1.00  0.00    -0.352 N 
ATOM     29  C   UNL A   1      34.569  30.589  28.087  1.00  0.00     0.251 C 
ATOM     30  H   UNL A   1      32.754  30.263  27.298  1.00  0.00     0.163 HD
ATOM     31  O   UNL A   1      34.301  31.724  28.459  1.00  0.00    -0.269 OA
BRANCH  29  32
ATOM     32  C   UNL A   1      35.917  30.033  28.329  1.00  0.00     0.039 A 
ATOM     33  C   UNL A   1      36.875  30.135  27.316  1.00  0.00     0.014 A 
ATOM     34  C   UNL A   1      36.244  29.434  29.548  1.00  0.00     0.014 A 
ATOM     35  C   UNL A   1      38.182  29.702  27.553  1.00  0.00     0.010 A 
ATOM     36  C   UNL A   1      37.563  29.068  29.807  1.00  0.00     0.010 A 
ATOM     37  C   UNL A   1      38.545  29.202  28.814  1.00  0.00    -0.014 A 
BRANCH  37  38
ATOM     38  C   UNL A   1      39.951  28.828  29.116  1.00  0.00     0.031 A 
ATOM     39  C   UNL A   1      40.847  29.785  29.852  1.00  0.00     0.074 A 
ATOM     40  C   UNL A   1      40.440  27.655  28.666  1.00  0.00     0.049 A 
ATOM     41  N   UNL A   1      42.118  29.671  30.142  1.00  0.00    -0.248 NA
ATOM     42  C   UNL A   1      40.239  31.048  30.299  1.00  0.00     0.031 C 
ATOM     43  C   UNL A   1      39.685  26.662  27.900  1.00  0.00     0.029 A 
ATOM     44  N   UNL A   1      41.692  27.104  28.778  1.00  0.00    -0.354 N 
ATOM     45  C   UNL A   1      42.465  30.852  30.786  1.00  0.00     0.074 A 
ATOM     46  C   UNL A   1      41.283  31.687  30.806  1.00  0.00     0.031 C 
ATOM     47  C   UNL A   1      40.483  25.616  27.628  1.00  0.00     0.029 A 
ATOM     48  C   UNL A   1      41.814  25.880  28.165  1.00  0.00     0.049 A 
ATOM     49  H   UNL A   1      42.434  27.544  29.254  1.00  0.00     0.167 HD
ATOM     50  C   UNL A   1      43.656  31.197  31.331  1.00  0.00     0.037 A 
ATOM     51  C   UNL A   1      42.881  25.069  28.042  1.00  0.00     0.037 A 
ATOM     52  C   UNL A   1      44.819  30.350  31.340  1.00  0.00     0.049 A 
ATOM     53  C   UNL A   1      44.192  25.481  28.656  1.00  0.00     0.074 A 
ATOM     54  C   UNL A   1      46.050  30.583  31.930  1.00  0.00     0.029 A 
ATOM     55  N   UNL A   1      44.897  29.109  30.728  1.00  0.00    -0.354 N 
ATOM     56  N   UNL A   1      44.486  26.565  29.332  1.00  0.00    -0.248 NA
ATOM     57  C   UNL A   1      45.320  24.552  28.496  1.00  0.00     0.031 C 
ATOM     58  C   UNL A   1      46.888  29.503  31.635  1.00  0.00     0.029 A 
ATOM     59  C   UNL A   1      46.163  28.573  30.907  1.00  0.00     0.049 A 
ATOM     60  H   UNL A   1      44.163  28.672  30.240  1.00  0.00     0.167 HD
ATOM     61  C   UNL A   1      45.817  26.434  29.704  1.00  0.00     0.074 A 
ATOM     62  C   UNL A   1      46.270  25.158  29.192  1.00  0.00     0.031 C 
ATOM     63  C   UNL A   1      46.594  27.294  30.407  1.00  0.00     0.037 A 
BRANCH  50  64
ATOM     64  C   UNL A   1      43.764  32.549  31.974  1.00  0.00     0.064 A 
ATOM     65  C   UNL A   1      44.146  33.683  31.242  1.00  0.00     0.173 A 
ATOM     66  C   UNL A   1      43.426  32.723  33.324  1.00  0.00     0.173 A 
ATOM     67  F   UNL A   1      44.489  33.569  29.950  1.00  0.00    -0.203 F 
ATOM     68  C   UNL A   1      44.204  34.938  31.842  1.00  0.00     0.198 A 
ATOM     69  C   UNL A   1      43.457  33.984  33.914  1.00  0.00     0.198 A 
ATOM     70  F   UNL A   1      43.048  31.673  34.069  1.00  0.00    -0.203 F 
ATOM     71  F   UNL A   1      44.608  36.000  31.133  1.00  0.00    -0.200 F 
ATOM     72  C   UNL A   1      43.850  35.089  33.175  1.00  0.00     0.200 A 
ATOM     73  F   UNL A   1      43.101  34.131  35.198  1.00  0.00    -0.200 F 
ATOM     74  F   UNL A   1      43.892  36.300  33.747  1.00  0.00    -0.200 F 
ENDBRANCH  50  64
BRANCH  51  75
ATOM     75  C   UNL A   1      42.758  23.772  27.324  1.00  0.00     0.064 A 
ATOM     76  C   UNL A   1      42.284  22.628  27.983  1.00  0.00     0.173 A 
ATOM     77  C   UNL A   1      43.136  23.640  25.981  1.00  0.00     0.173 A 
ATOM     78  F   UNL A   1      41.931  22.699  29.275  1.00  0.00    -0.203 F 
ATOM     79  C   UNL A   1      42.222  21.397  27.335  1.00  0.00     0.198 A 
ATOM     80  C   UNL A   1      43.044  22.415  25.324  1.00  0.00     0.198 A 
ATOM     81  F   UNL A   1      43.592  24.704  25.304  1.00  0.00    -0.203 F 
ATOM     82  F   UNL A   1      41.820  20.309  28.005  1.00  0.00    -0.200 F 
ATOM     83  C   UNL A   1      42.598  21.292  26.004  1.00  0.00     0.200 A 
ATOM     84  F   UNL A   1      43.396  22.319  24.035  1.00  0.00    -0.200 F 
ATOM     85  F   UNL A   1      42.541  20.107  25.382  1.00  0.00    -0.200 F 
ENDBRANCH  51  75
BRANCH  63  86
ATOM     86  C   UNL A   1      48.001  26.866  30.705  1.00  0.00     0.064 A 
ATOM     87  C   UNL A   1      48.302  26.012  31.776  1.00  0.00     0.173 A 
ATOM     88  C   UNL A   1      49.059  27.286  29.882  1.00  0.00     0.173 A 
ATOM     89  F   UNL A   1      47.329  25.595  32.600  1.00  0.00    -0.203 F 
ATOM     90  C   UNL A   1      49.612  25.614  32.027  1.00  0.00     0.198 A 
ATOM     91  C   UNL A   1      50.363  26.861  30.118  1.00  0.00     0.198 A 
ATOM     92  F   UNL A   1      48.824  28.099  28.841  1.00  0.00    -0.203 F 
ATOM     93  F   UNL A   1      49.883  24.836  33.084  1.00  0.00    -0.200 F 
ATOM     94  C   UNL A   1      50.639  26.032  31.194  1.00  0.00     0.200 A 
ATOM     95  F   UNL A   1      51.351  27.255  29.304  1.00  0.00    -0.200 F 
ATOM     96  F   UNL A   1      51.899  25.641  31.433  1.00  0.00    -0.200 F 
ENDBRANCH  63  86
ENDBRANCH  37  38
ENDBRANCH  29  32
ENDBRANCH  27  28
ENDBRANCH  26  27
ENDBRANCH  25  26
ENDBRANCH  24  25
ENDBRANCH   3  24
TORSDOF 17
ENDMDL
MODEL 3
REMARK VINA RESULT:     -11.4      1.112      2.359
REMARK SMILES CNC(=O)[C@H]1CCCCN1C(=O)NCCOCC(=O)NCCCCNC(=O)c1ccc(-c2c3nc(c(-c4c(F)c(F)c(F)c(F)c4F)c4ccc([nH]4)c(-c4c(F)c(F)c(F)c(F)c4F)c4nc(c(-c5c(F)c(F)c(F)c(F)c5F)c5ccc2[nH]5)C=C4)C=C3)cc1
REMARK SMILES IDX 18 1 19 2 20 3 17 5 16 6 15 7 14 8 13 9 11 10 12 11 10 13
REMARK SMILES IDX 5 14 6 15 7 16 9 17 8 18 3 19 1 20 2 21 4 23 21 24 22 25
REMARK SMILES IDX 23 26 24 27 25 28 26 29 27 31 28 32 29 33 90 34 30 35 89 36
REMARK SMILES IDX 31 37 32 38 33 39 83 40 34 41 88 42 82 43 84 44 35 45 87 46
REMARK SMILES IDX 81 47 80 48 36 50 68 51 48 52 67 53 49 54 52 55 66 56 85 57
REMARK SMILES IDX 50 58 51 59 65 61 86 62 53 63 37 64 38 65 46 66 39 67 40 68
REMARK SMILES IDX 44 69 47 70 41 71 42 72 45 73 43 74 69 75 70 76 78 77 71 78
REMARK SMILES IDX 72 79 76 80 79 81 73 82 74 83 77 84 75 85 54 86 55 87 63 88
REMARK SMILES IDX 56 89 57 90 61 91 64 92 58 93 59 94 62 95 60 96
REMARK H PARENT 20 4 13 12 2 22 25 30 84 49 52 60
REMARK Flexibility Score: inf
ROOT
ATOM      1  C   UNL A   1      33.314  28.544  24.166  1.00  0.00     0.245 C 
ATOM      2  O   UNL A   1      34.303  28.570  23.436  1.00  0.00    -0.272 OA
ATOM      3  N   UNL A   1      32.664  29.714  24.442  1.00  0.00    -0.354 N 
ATOM      4  H   UNL A   1      33.065  30.532  24.069  1.00  0.00     0.163 HD
ENDROOT
BRANCH   1   5
ATOM      5  C   UNL A   1      32.766  27.240  24.751  1.00  0.00     0.260 C 
BRANCH   5   6
ATOM      6  O   UNL A   1      32.753  27.146  26.167  1.00  0.00    -0.370 OA
BRANCH   6   7
ATOM      7  C   UNL A   1      31.607  26.475  26.713  1.00  0.00     0.182 C 
BRANCH   7   8
ATOM      8  C   UNL A   1      30.671  25.929  25.626  1.00  0.00     0.146 C 
BRANCH   8   9
ATOM      9  N   UNL A   1      30.448  24.496  25.749  1.00  0.00    -0.336 N 
ATOM     10  C   UNL A   1      31.118  23.362  25.494  1.00  0.00     0.318 C 
ATOM     11  O   UNL A   1      30.508  22.332  25.798  1.00  0.00    -0.249 OA
ATOM     12  H   UNL A   1      29.556  24.306  26.122  1.00  0.00     0.165 HD
BRANCH  10  13
ATOM     13  N   UNL A   1      32.397  23.325  25.023  1.00  0.00    -0.313 N 
ATOM     14  C   UNL A   1      32.604  22.655  23.708  1.00  0.00     0.176 C 
ATOM     15  C   UNL A   1      33.118  21.248  24.056  1.00  0.00     0.035 C 
ATOM     16  C   UNL A   1      34.394  21.290  24.905  1.00  0.00     0.004 C 
ATOM     17  C   UNL A   1      33.648  23.545  25.744  1.00  0.00     0.122 C 
ATOM     18  C   UNL A   1      34.230  22.190  26.138  1.00  0.00     0.022 C 
BRANCH  14  19
ATOM     19  C   UNL A   1      33.458  23.557  22.762  1.00  0.00     0.242 C 
ATOM     20  C   UNL A   1      31.657  25.264  22.178  1.00  0.00     0.142 C 
ATOM     21  N   UNL A   1      32.963  24.661  22.140  1.00  0.00    -0.357 N 
ATOM     22  H   UNL A   1      33.611  25.129  21.566  1.00  0.00     0.163 HD
ATOM     23  O   UNL A   1      34.664  23.348  22.581  1.00  0.00    -0.273 OA
ENDBRANCH  14  19
ENDBRANCH  10  13
ENDBRANCH   8   9
ENDBRANCH   7   8
ENDBRANCH   6   7
ENDBRANCH   5   6
ENDBRANCH   1   5
BRANCH   3  24
ATOM     24  C   UNL A   1      31.454  29.893  25.218  1.00  0.00     0.116 C 
BRANCH  24  25
ATOM     25  C   UNL A   1      31.735  30.490  26.594  1.00  0.00     0.023 C 
BRANCH  25  26
ATOM     26  C   UNL A   1      31.528  32.003  26.695  1.00  0.00     0.023 C 
BRANCH  26  27
ATOM     27  C   UNL A   1      32.719  32.798  27.219  1.00  0.00     0.116 C 
BRANCH  27  28
ATOM     28  N   UNL A   1      32.377  34.157  27.609  1.00  0.00    -0.352 N 
ATOM     29  C   UNL A   1      32.955  34.957  28.567  1.00  0.00     0.251 C 
ATOM     30  H   UNL A   1      31.626  34.561  27.118  1.00  0.00     0.163 HD
ATOM     31  O   UNL A   1      32.470  36.048  28.835  1.00  0.00    -0.269 OA
BRANCH  29  32
ATOM     32  C   UNL A   1      34.144  34.476  29.303  1.00  0.00     0.039 A 
ATOM     33  C   UNL A   1      33.959  33.857  30.543  1.00  0.00     0.014 A 
ATOM     34  C   UNL A   1      35.428  34.614  28.771  1.00  0.00     0.014 A 
ATOM     35  C   UNL A   1      35.054  33.311  31.215  1.00  0.00     0.010 A 
ATOM     36  C   UNL A   1      36.509  34.009  29.408  1.00  0.00     0.010 A 
ATOM     37  C   UNL A   1      36.332  33.348  30.633  1.00  0.00    -0.014 A 
BRANCH  37  38
ATOM     38  C   UNL A   1      37.492  32.688  31.286  1.00  0.00     0.031 A 
ATOM     39  C   UNL A   1      38.187  31.538  30.610  1.00  0.00     0.074 A 
ATOM     40  C   UNL A   1      37.876  33.079  32.517  1.00  0.00     0.049 A 
ATOM     41  N   UNL A   1      39.165  30.788  31.051  1.00  0.00    -0.248 NA
ATOM     42  C   UNL A   1      37.701  31.167  29.272  1.00  0.00     0.031 C 
ATOM     43  C   UNL A   1      37.253  34.150  33.297  1.00  0.00     0.029 A 
ATOM     44  N   UNL A   1      38.875  32.612  33.335  1.00  0.00    -0.354 N 
ATOM     45  C   UNL A   1      39.397  29.848  30.056  1.00  0.00     0.074 A 
ATOM     46  C   UNL A   1      38.430  30.092  29.008  1.00  0.00     0.031 C 
ATOM     47  C   UNL A   1      37.894  34.271  34.470  1.00  0.00     0.029 A 
ATOM     48  C   UNL A   1      38.948  33.264  34.544  1.00  0.00     0.049 A 
ATOM     49  H   UNL A   1      39.482  31.881  33.081  1.00  0.00     0.167 HD
ATOM     50  C   UNL A   1      40.347  28.882  30.011  1.00  0.00     0.037 A 
ATOM     51  C   UNL A   1      39.766  33.063  35.594  1.00  0.00     0.037 A 
ATOM     52  C   UNL A   1      41.329  28.664  31.040  1.00  0.00     0.049 A 
ATOM     53  C   UNL A   1      40.809  31.981  35.516  1.00  0.00     0.074 A 
ATOM     54  C   UNL A   1      42.376  27.758  31.054  1.00  0.00     0.029 A 
ATOM     55  N   UNL A   1      41.385  29.358  32.239  1.00  0.00    -0.354 N 
ATOM     56  N   UNL A   1      41.070  31.150  34.537  1.00  0.00    -0.248 NA
ATOM     57  C   UNL A   1      41.678  31.813  36.691  1.00  0.00     0.031 C 
ATOM     58  C   UNL A   1      43.037  27.872  32.281  1.00  0.00     0.029 A 
ATOM     59  C   UNL A   1      42.435  28.885  33.010  1.00  0.00     0.049 A 
ATOM     60  H   UNL A   1      40.771  30.081  32.503  1.00  0.00     0.167 HD
ATOM     61  C   UNL A   1      42.149  30.386  34.961  1.00  0.00     0.074 A 
ATOM     62  C   UNL A   1      42.504  30.862  36.281  1.00  0.00     0.031 C 
ATOM     63  C   UNL A   1      42.787  29.380  34.314  1.00  0.00     0.037 A 
BRANCH  50  64
ATOM     64  C   UNL A   1      40.379  27.988  28.807  1.00  0.00     0.064 A 
ATOM     65  C   UNL A   1      41.131  28.315  27.668  1.00  0.00     0.173 A 
ATOM     66  C   UNL A   1      39.698  26.762  28.814  1.00  0.00     0.173 A 
ATOM     67  F   UNL A   1      41.792  29.481  27.607  1.00  0.00    -0.203 F 
ATOM     68  C   UNL A   1      41.183  27.456  26.573  1.00  0.00     0.198 A 
ATOM     69  C   UNL A   1      39.776  25.892  27.729  1.00  0.00     0.198 A 
ATOM     70  F   UNL A   1      38.969  26.397  29.880  1.00  0.00    -0.203 F 
ATOM     71  F   UNL A   1      41.875  27.807  25.481  1.00  0.00    -0.200 F 
ATOM     72  C   UNL A   1      40.513  26.242  26.608  1.00  0.00     0.200 A 
ATOM     73  F   UNL A   1      39.140  24.713  27.769  1.00  0.00    -0.200 F 
ATOM     74  F   UNL A   1      40.576  25.411  25.559  1.00  0.00    -0.200 F 
ENDBRANCH  50  64
BRANCH  51  75
ATOM     75  C   UNL A   1      39.650  33.915  36.807  1.00  0.00     0.064 A 
ATOM     76  C   UNL A   1      38.872  33.507  37.900  1.00  0.00     0.173 A 
ATOM     77  C   UNL A   1      40.285  35.162  36.890  1.00  0.00     0.173 A 
ATOM     78  F   UNL A   1      38.226  32.332  37.859  1.00  0.00    -0.203 F 
ATOM     79  C   UNL A   1      38.709  34.325  39.015  1.00  0.00     0.198 A 
ATOM     80  C   UNL A   1      40.148  35.967  38.019  1.00  0.00     0.198 A 
ATOM     81  F   UNL A   1      41.044  35.598  35.874  1.00  0.00    -0.203 F 
ATOM     82  F   UNL A   1      37.914  33.935  40.020  1.00  0.00    -0.200 F 
ATOM     83  C   UNL A   1      39.351  35.553  39.076  1.00  0.00     0.200 A 
ATOM     84  F   UNL A   1      40.779  37.147  38.080  1.00  0.00    -0.200 F 
ATOM     85  F   UNL A   1      39.192  36.342  40.147  1.00  0.00    -0.200 F 
ENDBRANCH  51  75
BRANCH  63  86
ATOM     86  C   UNL A   1      43.965  28.756  35.004  1.00  0.00     0.064 A 
ATOM     87  C   UNL A   1      45.264  29.266  34.855  1.00  0.00     0.173 A 
ATOM     88  C   UNL A   1      43.785  27.655  35.857  1.00  0.00     0.173 A 
ATOM     89  F   UNL A   1      45.490  30.306  34.038  1.00  0.00    -0.203 F 
ATOM     90  C   UNL A   1      46.341  28.681  35.514  1.00  0.00     0.198 A 
ATOM     91  C   UNL A   1      44.861  27.093  36.539  1.00  0.00     0.198 A 
ATOM     92  F   UNL A   1      42.562  27.134  36.039  1.00  0.00    -0.203 F 
ATOM     93  F   UNL A   1      47.580  29.155  35.319  1.00  0.00    -0.200 F 
ATOM     94  C   UNL A   1      46.138  27.602  36.361  1.00  0.00     0.200 A 
ATOM     95  F   UNL A   1      44.660  26.060  37.367  1.00  0.00    -0.200 F 
ATOM     96  F   UNL A   1      47.176  27.047  37.002  1.00  0.00    -0.200 F 
ENDBRANCH  63  86
ENDBRANCH  37  38
ENDBRANCH  29  32
ENDBRANCH  27  28
ENDBRANCH  26  27
ENDBRANCH  25  26
ENDBRANCH  24  25
ENDBRANCH   3  24
TORSDOF 17
ENDMDL
