MODEL 1
REMARK VINA RESULT:     -12.6      0.000      0.000
REMARK SMILES O=C(NCCCCNC(=O)[C@H]1CC[C@@H](CNC(=O)c2ccc(CO)cc2)O1)c1ccc(-c2c3nc(c(-c4c(F)c(F)c(F)c(F)c4F)c4ccc([nH]4)c(-c4c(F)c(F)c(F)c(F)c4F)c4nc(c(-c5c(F)c(F)c(F)c(F)c5F)c5ccc2[nH]5)C=C4)C=C3)cc1
REMARK SMILES IDX 7 1 6 2 5 3 4 4 3 5 1 6 2 7 28 9 29 10 90 11 30 12 89 13
REMARK SMILES IDX 31 14 32 15 33 16 83 17 34 18 88 19 82 20 84 21 35 22 87 23
REMARK SMILES IDX 81 24 80 25 36 27 68 28 48 29 67 30 49 31 52 32 66 33 85 34
REMARK SMILES IDX 50 35 51 36 65 38 86 39 53 40 37 41 38 42 46 43 39 44 40 45
REMARK SMILES IDX 44 46 47 47 41 48 42 49 45 50 43 51 69 52 70 53 78 54 71 55
REMARK SMILES IDX 72 56 76 57 79 58 73 59 74 60 77 61 75 62 54 63 55 64 63 65
REMARK SMILES IDX 56 66 57 67 61 68 64 69 58 70 59 71 62 72 60 73 8 74 9 75
REMARK SMILES IDX 10 77 11 78 12 79 27 80 13 81 14 82 15 83 16 84 17 85 18 87
REMARK SMILES IDX 19 88 20 89 26 90 21 91 25 92 22 93 23 94 24 95
REMARK H PARENT 3 8 84 26 52 37 8 76 16 86 24 96
REMARK Flexibility Score: inf
ROOT
ATOM      1  C   UNL A   1      37.214  21.831  25.680  1.00  0.00     0.116 C 
ENDROOT
BRANCH   1   2
ATOM      2  C   UNL A   1      37.020  20.528  24.912  1.00  0.00     0.023 C 
BRANCH   2   3
ATOM      3  C   UNL A   1      38.220  19.580  24.933  1.00  0.00     0.023 C 
BRANCH   3   4
ATOM      4  C   UNL A   1      39.341  19.982  25.882  1.00  0.00     0.116 C 
BRANCH   4   5
ATOM      5  N   UNL A   1      40.408  18.995  25.940  1.00  0.00    -0.352 N 
ATOM      6  O   UNL A   1      42.544  18.262  25.971  1.00  0.00    -0.269 OA
ATOM      7  C   UNL A   1      41.757  19.196  26.101  1.00  0.00     0.251 C 
ATOM      8  H   UNL A   1      40.124  18.057  25.852  1.00  0.00     0.163 HD
BRANCH   7   9
ATOM      9  C   UNL A   1      42.261  20.548  26.421  1.00  0.00     0.039 A 
ATOM     10  C   UNL A   1      42.674  21.408  25.400  1.00  0.00     0.014 A 
ATOM     11  C   UNL A   1      42.306  20.964  27.753  1.00  0.00     0.014 A 
ATOM     12  C   UNL A   1      43.238  22.637  25.717  1.00  0.00     0.010 A 
ATOM     13  C   UNL A   1      42.792  22.236  28.066  1.00  0.00     0.010 A 
ATOM     14  C   UNL A   1      43.270  23.079  27.049  1.00  0.00    -0.014 A 
BRANCH  14  15
ATOM     15  C   UNL A   1      43.676  24.475  27.342  1.00  0.00     0.031 A 
ATOM     16  C   UNL A   1      42.691  25.492  27.836  1.00  0.00     0.074 A 
ATOM     17  C   UNL A   1      44.963  24.815  27.132  1.00  0.00     0.049 A 
ATOM     18  N   UNL A   1      42.881  26.763  28.091  1.00  0.00    -0.248 NA
ATOM     19  C   UNL A   1      41.313  25.034  28.070  1.00  0.00     0.031 C 
ATOM     20  C   UNL A   1      46.002  23.907  26.635  1.00  0.00     0.029 A 
ATOM     21  N   UNL A   1      45.622  26.007  27.299  1.00  0.00    -0.354 N 
ATOM     22  C   UNL A   1      41.648  27.261  28.492  1.00  0.00     0.074 A 
ATOM     23  C   UNL A   1      40.711  26.159  28.438  1.00  0.00     0.031 C 
ATOM     24  C   UNL A   1      47.165  24.567  26.554  1.00  0.00     0.029 A 
ATOM     25  C   UNL A   1      46.941  25.959  26.919  1.00  0.00     0.049 A 
ATOM     26  H   UNL A   1      45.189  26.817  27.655  1.00  0.00     0.167 HD
ATOM     27  C   UNL A   1      41.339  28.525  28.868  1.00  0.00     0.037 A 
ATOM     28  C   UNL A   1      47.860  26.937  26.830  1.00  0.00     0.037 A 
ATOM     29  C   UNL A   1      42.292  29.605  28.939  1.00  0.00     0.049 A 
ATOM     30  C   UNL A   1      47.469  28.336  27.214  1.00  0.00     0.074 A 
ATOM     31  C   UNL A   1      42.093  30.898  29.391  1.00  0.00     0.029 A 
ATOM     32  N   UNL A   1      43.614  29.525  28.526  1.00  0.00    -0.354 N 
ATOM     33  N   UNL A   1      46.323  28.775  27.671  1.00  0.00    -0.248 NA
ATOM     34  C   UNL A   1      48.496  29.375  27.063  1.00  0.00     0.031 C 
ATOM     35  C   UNL A   1      43.273  31.619  29.187  1.00  0.00     0.029 A 
ATOM     36  C   UNL A   1      44.226  30.762  28.664  1.00  0.00     0.049 A 
ATOM     37  H   UNL A   1      44.052  28.711  28.186  1.00  0.00     0.167 HD
ATOM     38  C   UNL A   1      46.491  30.137  27.872  1.00  0.00     0.074 A 
ATOM     39  C   UNL A   1      47.861  30.446  27.518  1.00  0.00     0.031 C 
ATOM     40  C   UNL A   1      45.590  31.052  28.302  1.00  0.00     0.037 A 
BRANCH  27  41
ATOM     41  C   UNL A   1      39.914  28.840  29.217  1.00  0.00     0.064 A 
ATOM     42  C   UNL A   1      38.985  29.243  28.248  1.00  0.00     0.173 A 
ATOM     43  C   UNL A   1      39.447  28.629  30.526  1.00  0.00     0.173 A 
ATOM     44  F   UNL A   1      39.378  29.462  26.984  1.00  0.00    -0.203 F 
ATOM     45  C   UNL A   1      37.643  29.428  28.576  1.00  0.00     0.198 A 
ATOM     46  C   UNL A   1      38.102  28.790  30.844  1.00  0.00     0.198 A 
ATOM     47  F   UNL A   1      40.294  28.234  31.488  1.00  0.00    -0.203 F 
ATOM     48  F   UNL A   1      36.774  29.831  27.638  1.00  0.00    -0.200 F 
ATOM     49  C   UNL A   1      37.202  29.190  29.870  1.00  0.00     0.200 A 
ATOM     50  F   UNL A   1      37.676  28.542  32.090  1.00  0.00    -0.200 F 
ATOM     51  F   UNL A   1      35.906  29.345  30.177  1.00  0.00    -0.200 F 
ENDBRANCH  27  41
BRANCH  28  52
ATOM     52  C   UNL A   1      49.218  26.637  26.304  1.00  0.00     0.064 A 
ATOM     53  C   UNL A   1      50.223  26.127  27.136  1.00  0.00     0.173 A 
ATOM     54  C   UNL A   1      49.543  26.874  24.958  1.00  0.00     0.173 A 
ATOM     55  F   UNL A   1      49.968  25.899  28.433  1.00  0.00    -0.203 F 
ATOM     56  C   UNL A   1      51.509  25.897  26.651  1.00  0.00     0.198 A 
ATOM     57  C   UNL A   1      50.818  26.606  24.466  1.00  0.00     0.198 A 
ATOM     58  F   UNL A   1      48.616  27.355  24.117  1.00  0.00    -0.203 F 
ATOM     59  F   UNL A   1      52.469  25.468  27.482  1.00  0.00    -0.200 F 
ATOM     60  C   UNL A   1      51.804  26.131  25.316  1.00  0.00     0.200 A 
ATOM     61  F   UNL A   1      51.091  26.816  23.171  1.00  0.00    -0.200 F 
ATOM     62  F   UNL A   1      53.041  25.910  24.851  1.00  0.00    -0.200 F 
ENDBRANCH  28  52
BRANCH  40  63
ATOM     63  C   UNL A   1      46.058  32.472  28.422  1.00  0.00     0.064 A 
ATOM     64  C   UNL A   1      45.895  33.386  27.371  1.00  0.00     0.173 A 
ATOM     65  C   UNL A   1      46.635  32.935  29.615  1.00  0.00     0.173 A 
ATOM     66  F   UNL A   1      45.369  32.986  26.204  1.00  0.00    -0.203 F 
ATOM     67  C   UNL A   1      46.308  34.709  27.504  1.00  0.00     0.198 A 
ATOM     68  C   UNL A   1      47.016  34.266  29.755  1.00  0.00     0.198 A 
ATOM     69  F   UNL A   1      46.810  32.101  30.651  1.00  0.00    -0.203 F 
ATOM     70  F   UNL A   1      46.184  35.553  26.471  1.00  0.00    -0.200 F 
ATOM     71  C   UNL A   1      46.859  35.149  28.698  1.00  0.00     0.200 A 
ATOM     72  F   UNL A   1      47.534  34.694  30.915  1.00  0.00    -0.200 F 
ATOM     73  F   UNL A   1      47.243  36.427  28.828  1.00  0.00    -0.200 F 
ENDBRANCH  40  63
ENDBRANCH  14  15
ENDBRANCH   7   9
ENDBRANCH   4   5
ENDBRANCH   3   4
ENDBRANCH   2   3
ENDBRANCH   1   2
BRANCH   1  74
ATOM     74  N   UNL A   1      36.007  22.250  26.368  1.00  0.00    -0.354 N 
ATOM     75  C   UNL A   1      35.138  23.247  26.023  1.00  0.00     0.249 C 
ATOM     76  H   UNL A   1      35.785  21.751  27.188  1.00  0.00     0.163 HD
ATOM     77  O   UNL A   1      34.156  23.440  26.743  1.00  0.00    -0.272 OA
BRANCH  75  78
ATOM     78  C   UNL A   1      35.432  24.083  24.764  1.00  0.00     0.207 C 
ATOM     79  C   UNL A   1      35.626  23.234  23.521  1.00  0.00     0.045 C 
ATOM     80  O   UNL A   1      34.322  24.961  24.502  1.00  0.00    -0.363 OA
ATOM     81  C   UNL A   1      34.229  23.138  22.971  1.00  0.00     0.037 C 
ATOM     82  C   UNL A   1      33.638  24.496  23.319  1.00  0.00     0.138 C 
BRANCH  82  83
ATOM     83  C   UNL A   1      32.128  24.394  23.562  1.00  0.00     0.148 C 
BRANCH  83  84
ATOM     84  N   UNL A   1      31.768  24.541  24.968  1.00  0.00    -0.349 N 
ATOM     85  C   UNL A   1      31.167  25.598  25.612  1.00  0.00     0.251 C 
ATOM     86  H   UNL A   1      31.986  23.771  25.540  1.00  0.00     0.163 HD
ATOM     87  O   UNL A   1      31.077  25.602  26.836  1.00  0.00    -0.269 OA
BRANCH  85  88
ATOM     88  C   UNL A   1      30.665  26.761  24.841  1.00  0.00     0.039 A 
ATOM     89  C   UNL A   1      31.362  27.969  24.926  1.00  0.00     0.014 A 
ATOM     90  C   UNL A   1      29.513  26.677  24.053  1.00  0.00     0.014 A 
ATOM     91  C   UNL A   1      30.962  29.060  24.150  1.00  0.00     0.007 A 
ATOM     92  C   UNL A   1      29.127  27.762  23.262  1.00  0.00     0.007 A 
ATOM     93  C   UNL A   1      29.864  28.953  23.283  1.00  0.00    -0.023 A 
BRANCH  93  94
ATOM     94  C   UNL A   1      29.478  30.113  22.404  1.00  0.00     0.191 C 
BRANCH  94  95
ATOM     95  O   UNL A   1      30.193  30.077  21.179  1.00  0.00    -0.392 OA
ATOM     96  H   UNL A   1      30.642  29.221  21.091  1.00  0.00     0.211 HD
ENDBRANCH  94  95
ENDBRANCH  93  94
ENDBRANCH  85  88
ENDBRANCH  83  84
ENDBRANCH  82  83
ENDBRANCH  75  78
ENDBRANCH   1  74
TORSDOF 16
ENDMDL
MODEL 2
REMARK VINA RESULT:     -12.6      0.340      1.617
REMARK SMILES O=C(NCCCCNC(=O)[C@H]1CC[C@@H](CNC(=O)c2ccc(CO)cc2)O1)c1ccc(-c2c3nc(c(-c4c(F)c(F)c(F)c(F)c4F)c4ccc([nH]4)c(-c4c(F)c(F)c(F)c(F)c4F)c4nc(c(-c5c(F)c(F)c(F)c(F)c5F)c5ccc2[nH]5)C=C4)C=C3)cc1
REMARK SMILES IDX 7 1 6 2 5 3 4 4 3 5 1 6 2 7 28 9 29 10 90 11 30 12 89 13
REMARK SMILES IDX 31 14 32 15 33 16 83 17 34 18 88 19 82 20 84 21 35 22 87 23
REMARK SMILES IDX 81 24 80 25 36 27 68 28 48 29 67 30 49 31 52 32 66 33 85 34
REMARK SMILES IDX 50 35 51 36 65 38 86 39 53 40 37 41 38 42 46 43 39 44 40 45
REMARK SMILES IDX 44 46 47 47 41 48 42 49 45 50 43 51 69 52 70 53 78 54 71 55
REMARK SMILES IDX 72 56 76 57 79 58 73 59 74 60 77 61 75 62 54 63 55 64 63 65
REMARK SMILES IDX 56 66 57 67 61 68 64 69 58 70 59 71 62 72 60 73 8 74 9 75
REMARK SMILES IDX 10 77 11 78 12 79 27 80 13 81 14 82 15 83 16 84 17 85 18 87
REMARK SMILES IDX 19 88 20 89 26 90 21 91 25 92 22 93 23 94 24 95
REMARK H PARENT 3 8 84 26 52 37 8 76 16 86 24 96
REMARK Flexibility Score: inf
ROOT
ATOM      1  C   UNL A   1      37.151  21.631  25.638  1.00  0.00     0.116 C 
ENDROOT
BRANCH   1   2
ATOM      2  C   UNL A   1      36.956  20.311  24.898  1.00  0.00     0.023 C 
BRANCH   2   3
ATOM      3  C   UNL A   1      38.148  19.356  24.952  1.00  0.00     0.023 C 
BRANCH   3   4
ATOM      4  C   UNL A   1      39.344  19.865  25.745  1.00  0.00     0.116 C 
BRANCH   4   5
ATOM      5  N   UNL A   1      40.417  18.886  25.833  1.00  0.00    -0.352 N 
ATOM      6  O   UNL A   1      42.557  18.171  25.941  1.00  0.00    -0.269 OA
ATOM      7  C   UNL A   1      41.756  19.096  26.052  1.00  0.00     0.251 C 
ATOM      8  H   UNL A   1      40.146  17.947  25.720  1.00  0.00     0.163 HD
BRANCH   7   9
ATOM      9  C   UNL A   1      42.236  20.447  26.411  1.00  0.00     0.039 A 
ATOM     10  C   UNL A   1      42.694  21.321  25.422  1.00  0.00     0.014 A 
ATOM     11  C   UNL A   1      42.210  20.849  27.749  1.00  0.00     0.014 A 
ATOM     12  C   UNL A   1      43.233  22.550  25.780  1.00  0.00     0.010 A 
ATOM     13  C   UNL A   1      42.672  22.120  28.099  1.00  0.00     0.010 A 
ATOM     14  C   UNL A   1      43.195  22.977  27.117  1.00  0.00    -0.014 A 
BRANCH  14  15
ATOM     15  C   UNL A   1      43.577  24.372  27.446  1.00  0.00     0.031 A 
ATOM     16  C   UNL A   1      42.558  25.383  27.881  1.00  0.00     0.074 A 
ATOM     17  C   UNL A   1      44.874  24.717  27.322  1.00  0.00     0.049 A 
ATOM     18  N   UNL A   1      42.727  26.653  28.157  1.00  0.00    -0.248 NA
ATOM     19  C   UNL A   1      41.169  24.920  28.022  1.00  0.00     0.031 C 
ATOM     20  C   UNL A   1      45.945  23.816  26.887  1.00  0.00     0.029 A 
ATOM     21  N   UNL A   1      45.516  25.910  27.539  1.00  0.00    -0.354 N 
ATOM     22  C   UNL A   1      41.469  27.144  28.480  1.00  0.00     0.074 A 
ATOM     23  C   UNL A   1      40.541  26.041  28.358  1.00  0.00     0.031 C 
ATOM     24  C   UNL A   1      47.109  24.479  26.886  1.00  0.00     0.029 A 
ATOM     25  C   UNL A   1      46.857  25.868  27.246  1.00  0.00     0.049 A 
ATOM     26  H   UNL A   1      45.059  26.716  27.871  1.00  0.00     0.167 HD
ATOM     27  C   UNL A   1      41.133  28.405  28.844  1.00  0.00     0.037 A 
ATOM     28  C   UNL A   1      47.777  26.849  27.222  1.00  0.00     0.037 A 
ATOM     29  C   UNL A   1      42.075  29.488  28.983  1.00  0.00     0.049 A 
ATOM     30  C   UNL A   1      47.357  28.244  27.590  1.00  0.00     0.074 A 
ATOM     31  C   UNL A   1      41.843  30.776  29.431  1.00  0.00     0.029 A 
ATOM     32  N   UNL A   1      43.421  29.414  28.657  1.00  0.00    -0.354 N 
ATOM     33  N   UNL A   1      46.183  28.677  27.975  1.00  0.00    -0.248 NA
ATOM     34  C   UNL A   1      48.388  29.288  27.513  1.00  0.00     0.031 C 
ATOM     35  C   UNL A   1      43.031  31.502  29.308  1.00  0.00     0.029 A 
ATOM     36  C   UNL A   1      44.019  30.651  28.843  1.00  0.00     0.049 A 
ATOM     37  H   UNL A   1      43.883  28.604  28.341  1.00  0.00     0.167 HD
ATOM     38  C   UNL A   1      46.333  30.038  28.195  1.00  0.00     0.074 A 
ATOM     39  C   UNL A   1      47.721  30.354  27.933  1.00  0.00     0.031 C 
ATOM     40  C   UNL A   1      45.403  30.948  28.572  1.00  0.00     0.037 A 
BRANCH  27  41
ATOM     41  C   UNL A   1      39.686  28.714  29.101  1.00  0.00     0.064 A 
ATOM     42  C   UNL A   1      39.113  28.578  30.373  1.00  0.00     0.173 A 
ATOM     43  C   UNL A   1      38.892  29.260  28.078  1.00  0.00     0.173 A 
ATOM     44  F   UNL A   1      39.826  28.059  31.384  1.00  0.00    -0.203 F 
ATOM     45  C   UNL A   1      37.797  28.971  30.611  1.00  0.00     0.198 A 
ATOM     46  C   UNL A   1      37.587  29.675  28.326  1.00  0.00     0.198 A 
ATOM     47  F   UNL A   1      39.396  29.419  26.845  1.00  0.00    -0.203 F 
ATOM     48  F   UNL A   1      37.262  28.816  31.830  1.00  0.00    -0.200 F 
ATOM     49  C   UNL A   1      37.041  29.530  29.590  1.00  0.00     0.200 A 
ATOM     50  F   UNL A   1      36.865  30.230  27.343  1.00  0.00    -0.200 F 
ATOM     51  F   UNL A   1      35.783  29.929  29.828  1.00  0.00    -0.200 F 
ENDBRANCH  27  41
BRANCH  28  52
ATOM     52  C   UNL A   1      49.167  26.557  26.784  1.00  0.00     0.064 A 
ATOM     53  C   UNL A   1      50.139  26.117  27.693  1.00  0.00     0.173 A 
ATOM     54  C   UNL A   1      49.557  26.731  25.446  1.00  0.00     0.173 A 
ATOM     55  F   UNL A   1      49.820  25.952  28.986  1.00  0.00    -0.203 F 
ATOM     56  C   UNL A   1      51.453  25.895  27.288  1.00  0.00     0.198 A 
ATOM     57  C   UNL A   1      50.861  26.470  25.035  1.00  0.00     0.198 A 
ATOM     58  F   UNL A   1      48.665  27.143  24.534  1.00  0.00    -0.203 F 
ATOM     59  F   UNL A   1      52.377  25.535  28.189  1.00  0.00    -0.200 F 
ATOM     60  C   UNL A   1      51.812  26.066  25.959  1.00  0.00     0.200 A 
ATOM     61  F   UNL A   1      51.198  26.618  23.747  1.00  0.00    -0.200 F 
ATOM     62  F   UNL A   1      53.077  25.852  25.571  1.00  0.00    -0.200 F 
ENDBRANCH  28  52
BRANCH  40  63
ATOM     63  C   UNL A   1      45.858  32.368  28.732  1.00  0.00     0.064 A 
ATOM     64  C   UNL A   1      46.387  32.834  29.945  1.00  0.00     0.173 A 
ATOM     65  C   UNL A   1      45.806  33.260  27.650  1.00  0.00     0.173 A 
ATOM     66  F   UNL A   1      46.437  32.026  31.014  1.00  0.00    -0.203 F 
ATOM     67  C   UNL A   1      46.832  34.146  30.073  1.00  0.00     0.198 A 
ATOM     68  C   UNL A   1      46.282  34.562  27.773  1.00  0.00     0.198 A 
ATOM     69  F   UNL A   1      45.312  32.862  26.468  1.00  0.00    -0.203 F 
ATOM     70  F   UNL A   1      47.291  34.583  31.254  1.00  0.00    -0.200 F 
ATOM     71  C   UNL A   1      46.788  35.005  28.985  1.00  0.00     0.200 A 
ATOM     72  F   UNL A   1      46.254  35.387  26.717  1.00  0.00    -0.200 F 
ATOM     73  F   UNL A   1      47.230  36.265  29.108  1.00  0.00    -0.200 F 
ENDBRANCH  40  63
ENDBRANCH  14  15
ENDBRANCH   7   9
ENDBRANCH   4   5
ENDBRANCH   3   4
ENDBRANCH   2   3
ENDBRANCH   1   2
BRANCH   1  74
ATOM     74  N   UNL A   1      35.942  22.071  26.310  1.00  0.00    -0.354 N 
ATOM     75  C   UNL A   1      35.112  23.102  25.969  1.00  0.00     0.249 C 
ATOM     76  H   UNL A   1      35.686  21.560  27.112  1.00  0.00     0.163 HD
ATOM     77  O   UNL A   1      34.120  23.309  26.671  1.00  0.00    -0.272 OA
BRANCH  75  78
ATOM     78  C   UNL A   1      35.461  23.958  24.737  1.00  0.00     0.207 C 
ATOM     79  C   UNL A   1      35.614  23.137  23.470  1.00  0.00     0.045 C 
ATOM     80  O   UNL A   1      34.404  24.905  24.497  1.00  0.00    -0.363 OA
ATOM     81  C   UNL A   1      34.218  23.137  22.911  1.00  0.00     0.037 C 
ATOM     82  C   UNL A   1      33.701  24.515  23.297  1.00  0.00     0.138 C 
BRANCH  82  83
ATOM     83  C   UNL A   1      32.187  24.491  23.531  1.00  0.00     0.148 C 
BRANCH  83  84
ATOM     84  N   UNL A   1      31.827  24.632  24.937  1.00  0.00    -0.349 N 
ATOM     85  C   UNL A   1      31.215  25.681  25.584  1.00  0.00     0.251 C 
ATOM     86  H   UNL A   1      32.054  23.864  25.508  1.00  0.00     0.163 HD
ATOM     87  O   UNL A   1      31.126  25.682  26.808  1.00  0.00    -0.269 OA
BRANCH  85  88
ATOM     88  C   UNL A   1      30.699  26.840  24.815  1.00  0.00     0.039 A 
ATOM     89  C   UNL A   1      31.372  28.061  24.916  1.00  0.00     0.014 A 
ATOM     90  C   UNL A   1      29.557  26.740  24.015  1.00  0.00     0.014 A 
ATOM     91  C   UNL A   1      30.960  29.149  24.143  1.00  0.00     0.007 A 
ATOM     92  C   UNL A   1      29.159  27.823  23.227  1.00  0.00     0.007 A 
ATOM     93  C   UNL A   1      29.873  29.027  23.264  1.00  0.00    -0.023 A 
BRANCH  93  94
ATOM     94  C   UNL A   1      29.474  30.185  22.388  1.00  0.00     0.191 C 
BRANCH  94  95
ATOM     95  O   UNL A   1      30.176  30.150  21.154  1.00  0.00    -0.392 OA
ATOM     96  H   UNL A   1      30.266  31.051  20.807  1.00  0.00     0.211 HD
ENDBRANCH  94  95
ENDBRANCH  93  94
ENDBRANCH  85  88
ENDBRANCH  83  84
ENDBRANCH  82  83
ENDBRANCH  75  78
ENDBRANCH   1  74
TORSDOF 16
ENDMDL
MODEL 3
REMARK VINA RESULT:     -12.5      5.634     11.273
REMARK SMILES O=C(NCCCCNC(=O)[C@H]1CC[C@@H](CNC(=O)c2ccc(CO)cc2)O1)c1ccc(-c2c3nc(c(-c4c(F)c(F)c(F)c(F)c4F)c4ccc([nH]4)c(-c4c(F)c(F)c(F)c(F)c4F)c4nc(c(-c5c(F)c(F)c(F)c(F)c5F)c5ccc2[nH]5)C=C4)C=C3)cc1
REMARK SMILES IDX 7 1 6 2 5 3 4 4 3 5 1 6 2 7 28 9 29 10 90 11 30 12 89 13
REMARK SMILES IDX 31 14 32 15 33 16 83 17 34 18 88 19 82 20 84 21 35 22 87 23
REMARK SMILES IDX 81 24 80 25 36 27 68 28 48 29 67 30 49 31 52 32 66 33 85 34
REMARK SMILES IDX 50 35 51 36 65 38 86 39 53 40 37 41 38 42 46 43 39 44 40 45
REMARK SMILES IDX 44 46 47 47 41 48 42 49 45 50 43 51 69 52 70 53 78 54 71 55
REMARK SMILES IDX 72 56 76 57 79 58 73 59 74 60 77 61 75 62 54 63 55 64 63 65
REMARK SMILES IDX 56 66 57 67 61 68 64 69 58 70 59 71 62 72 60 73 8 74 9 75
REMARK SMILES IDX 10 77 11 78 12 79 27 80 13 81 14 82 15 83 16 84 17 85 18 87
REMARK SMILES IDX 19 88 20 89 26 90 21 91 25 92 22 93 23 94 24 95
REMARK H PARENT 3 8 84 26 52 37 8 76 16 86 24 96
REMARK Flexibility Score: inf
ROOT
ATOM      1  C   UNL A   1      32.719  30.252  26.541  1.00  0.00     0.116 C 
ENDROOT
BRANCH   1   2
ATOM      2  C   UNL A   1      31.496  31.001  26.021  1.00  0.00     0.023 C 
BRANCH   2   3
ATOM      3  C   UNL A   1      31.313  32.410  26.584  1.00  0.00     0.023 C 
BRANCH   3   4
ATOM      4  C   UNL A   1      32.538  32.990  27.278  1.00  0.00     0.116 C 
BRANCH   4   5
ATOM      5  N   UNL A   1      32.339  34.364  27.713  1.00  0.00    -0.352 N 
ATOM      6  O   UNL A   1      32.596  36.164  29.053  1.00  0.00    -0.269 OA
ATOM      7  C   UNL A   1      32.993  35.055  28.703  1.00  0.00     0.251 C 
ATOM      8  H   UNL A   1      31.641  34.865  27.233  1.00  0.00     0.163 HD
BRANCH   7   9
ATOM      9  C   UNL A   1      34.173  34.454  29.358  1.00  0.00     0.039 A 
ATOM     10  C   UNL A   1      34.031  33.732  30.546  1.00  0.00     0.014 A 
ATOM     11  C   UNL A   1      35.431  34.599  28.768  1.00  0.00     0.014 A 
ATOM     12  C   UNL A   1      35.157  33.255  31.205  1.00  0.00     0.010 A 
ATOM     13  C   UNL A   1      36.554  34.043  29.387  1.00  0.00     0.010 A 
ATOM     14  C   UNL A   1      36.425  33.374  30.615  1.00  0.00    -0.014 A 
BRANCH  14  15
ATOM     15  C   UNL A   1      37.580  32.673  31.227  1.00  0.00     0.031 A 
ATOM     16  C   UNL A   1      38.237  31.505  30.553  1.00  0.00     0.074 A 
ATOM     17  C   UNL A   1      38.016  33.104  32.427  1.00  0.00     0.049 A 
ATOM     18  N   UNL A   1      39.224  30.758  30.981  1.00  0.00    -0.248 NA
ATOM     19  C   UNL A   1      37.723  31.116  29.231  1.00  0.00     0.031 C 
ATOM     20  C   UNL A   1      37.436  34.220  33.180  1.00  0.00     0.029 A 
ATOM     21  N   UNL A   1      39.035  32.659  33.231  1.00  0.00    -0.354 N 
ATOM     22  C   UNL A   1      39.434  29.800  29.998  1.00  0.00     0.074 A 
ATOM     23  C   UNL A   1      38.466  30.052  28.952  1.00  0.00     0.031 C 
ATOM     24  C   UNL A   1      38.116  34.384  34.323  1.00  0.00     0.029 A 
ATOM     25  C   UNL A   1      39.128  33.341  34.420  1.00  0.00     0.049 A 
ATOM     26  H   UNL A   1      39.639  31.923  32.980  1.00  0.00     0.167 HD
ATOM     27  C   UNL A   1      40.354  28.807  29.982  1.00  0.00     0.037 A 
ATOM     28  C   UNL A   1      39.910  33.124  35.492  1.00  0.00     0.037 A 
ATOM     29  C   UNL A   1      41.327  28.585  31.024  1.00  0.00     0.049 A 
ATOM     30  C   UNL A   1      40.889  31.985  35.456  1.00  0.00     0.074 A 
ATOM     31  C   UNL A   1      42.355  27.660  31.056  1.00  0.00     0.029 A 
ATOM     32  N   UNL A   1      41.377  29.281  32.222  1.00  0.00    -0.354 N 
ATOM     33  N   UNL A   1      41.135  31.140  34.485  1.00  0.00    -0.248 NA
ATOM     34  C   UNL A   1      41.694  31.764  36.664  1.00  0.00     0.031 C 
ATOM     35  C   UNL A   1      42.982  27.747  32.302  1.00  0.00     0.029 A 
ATOM     36  C   UNL A   1      42.386  28.767  33.023  1.00  0.00     0.049 A 
ATOM     37  H   UNL A   1      40.785  30.029  32.467  1.00  0.00     0.167 HD
ATOM     38  C   UNL A   1      42.126  30.294  34.960  1.00  0.00     0.074 A 
ATOM     39  C   UNL A   1      42.461  30.749  36.293  1.00  0.00     0.031 C 
ATOM     40  C   UNL A   1      42.702  29.231  34.350  1.00  0.00     0.037 A 
BRANCH  27  41
ATOM     41  C   UNL A   1      40.359  27.854  28.822  1.00  0.00     0.064 A 
ATOM     42  C   UNL A   1      41.120  28.092  27.669  1.00  0.00     0.173 A 
ATOM     43  C   UNL A   1      39.674  26.630  28.915  1.00  0.00     0.173 A 
ATOM     44  F   UNL A   1      41.790  29.245  27.528  1.00  0.00    -0.203 F 
ATOM     45  C   UNL A   1      41.192  27.144  26.651  1.00  0.00     0.198 A 
ATOM     46  C   UNL A   1      39.769  25.676  27.907  1.00  0.00     0.198 A 
ATOM     47  F   UNL A   1      38.938  26.350  30.001  1.00  0.00    -0.203 F 
ATOM     48  F   UNL A   1      41.912  27.399  25.549  1.00  0.00    -0.200 F 
ATOM     49  C   UNL A   1      40.526  25.933  26.776  1.00  0.00     0.200 A 
ATOM     50  F   UNL A   1      39.139  24.500  28.039  1.00  0.00    -0.200 F 
ATOM     51  F   UNL A   1      40.617  25.013  25.806  1.00  0.00    -0.200 F 
ENDBRANCH  27  41
BRANCH  28  52
ATOM     52  C   UNL A   1      39.760  33.967  36.708  1.00  0.00     0.064 A 
ATOM     53  C   UNL A   1      38.923  33.578  37.762  1.00  0.00     0.173 A 
ATOM     54  C   UNL A   1      40.436  35.192  36.829  1.00  0.00     0.173 A 
ATOM     55  F   UNL A   1      38.242  32.425  37.687  1.00  0.00    -0.203 F 
ATOM     56  C   UNL A   1      38.745  34.396  38.876  1.00  0.00     0.198 A 
ATOM     57  C   UNL A   1      40.287  35.989  37.960  1.00  0.00     0.198 A 
ATOM     58  F   UNL A   1      41.254  35.608  35.851  1.00  0.00    -0.203 F 
ATOM     59  F   UNL A   1      37.891  34.030  39.842  1.00  0.00    -0.200 F 
ATOM     60  C   UNL A   1      39.430  35.598  38.977  1.00  0.00     0.200 A 
ATOM     61  F   UNL A   1      40.966  37.140  38.060  1.00  0.00    -0.200 F 
ATOM     62  F   UNL A   1      39.257  36.384  40.048  1.00  0.00    -0.200 F 
ENDBRANCH  28  52
BRANCH  40  63
ATOM     63  C   UNL A   1      43.760  28.491  35.116  1.00  0.00     0.064 A 
ATOM     64  C   UNL A   1      45.105  28.884  35.069  1.00  0.00     0.173 A 
ATOM     65  C   UNL A   1      43.418  27.406  35.937  1.00  0.00     0.173 A 
ATOM     66  F   UNL A   1      45.484  29.902  34.282  1.00  0.00    -0.203 F 
ATOM     67  C   UNL A   1      46.073  28.208  35.805  1.00  0.00     0.198 A 
ATOM     68  C   UNL A   1      44.383  26.753  36.697  1.00  0.00     0.198 A 
ATOM     69  F   UNL A   1      42.144  26.992  36.018  1.00  0.00    -0.203 F 
ATOM     70  F   UNL A   1      47.359  28.572  35.712  1.00  0.00    -0.200 F 
ATOM     71  C   UNL A   1      45.710  27.150  36.626  1.00  0.00     0.200 A 
ATOM     72  F   UNL A   1      44.029  25.740  37.501  1.00  0.00    -0.200 F 
ATOM     73  F   UNL A   1      46.642  26.508  37.344  1.00  0.00    -0.200 F 
ENDBRANCH  40  63
ENDBRANCH  14  15
ENDBRANCH   7   9
ENDBRANCH   4   5
ENDBRANCH   3   4
ENDBRANCH   2   3
ENDBRANCH   1   2
BRANCH   1  74
ATOM     74  N   UNL A   1      33.316  29.401  25.528  1.00  0.00    -0.354 N 
ATOM     75  C   UNL A   1      32.910  28.162  25.116  1.00  0.00     0.249 C 
ATOM     76  H   UNL A   1      34.115  29.762  25.080  1.00  0.00     0.163 HD
ATOM     77  O   UNL A   1      33.554  27.602  24.227  1.00  0.00    -0.272 OA
BRANCH  75  78
ATOM     78  C   UNL A   1      31.679  27.524  25.789  1.00  0.00     0.207 C 
ATOM     79  C   UNL A   1      30.692  26.949  24.791  1.00  0.00     0.045 C 
ATOM     80  O   UNL A   1      32.103  26.438  26.632  1.00  0.00    -0.363 OA
ATOM     81  C   UNL A   1      31.175  25.533  24.634  1.00  0.00     0.037 C 
ATOM     82  C   UNL A   1      31.685  25.196  26.027  1.00  0.00     0.138 C 
BRANCH  82  83
ATOM     83  C   UNL A   1      32.847  24.198  25.962  1.00  0.00     0.148 C 
BRANCH  83  84
ATOM     84  N   UNL A   1      33.719  24.416  24.813  1.00  0.00    -0.349 N 
ATOM     85  C   UNL A   1      34.174  23.518  23.876  1.00  0.00     0.251 C 
ATOM     86  H   UNL A   1      34.028  25.342  24.690  1.00  0.00     0.163 HD
ATOM     87  O   UNL A   1      35.027  23.857  23.060  1.00  0.00    -0.269 OA
BRANCH  85  88
ATOM     88  C   UNL A   1      33.674  22.121  23.869  1.00  0.00     0.039 A 
ATOM     89  C   UNL A   1      32.570  21.811  23.069  1.00  0.00     0.014 A 
ATOM     90  C   UNL A   1      34.268  21.125  24.650  1.00  0.00     0.014 A 
ATOM     91  C   UNL A   1      32.125  20.490  22.978  1.00  0.00     0.007 A 
ATOM     92  C   UNL A   1      33.835  19.801  24.543  1.00  0.00     0.007 A 
ATOM     93  C   UNL A   1      32.778  19.468  23.685  1.00  0.00    -0.023 A 
BRANCH  93  94
ATOM     94  C   UNL A   1      32.332  18.038  23.533  1.00  0.00     0.191 C 
BRANCH  94  95
ATOM     95  O   UNL A   1      31.915  17.779  22.201  1.00  0.00    -0.392 OA
ATOM     96  H   UNL A   1      32.117  16.857  21.973  1.00  0.00     0.211 HD
ENDBRANCH  94  95
ENDBRANCH  93  94
ENDBRANCH  85  88
ENDBRANCH  83  84
ENDBRANCH  82  83
ENDBRANCH  75  78
ENDBRANCH   1  74
TORSDOF 16
ENDMDL
