MODEL 1
REMARK VINA RESULT:     -13.2      0.000      0.000
REMARK SMILES CC1(C)[C@H](C(=O)NCCCCNC(=O)c2ccc(-c3c4nc(c(-c5c(F)c(F)c(F)c(F)c5F)c5ccc([nH]5)c(-c5c(F)c(F)c(F)c(F)c5F)c5nc(c(-c6c(F)c(F)c(F)c(F)c6F)c6ccc3[nH]6)C=C5)C=C4)cc2)[C@H]1C(=O)Nc1cccc2[nH]ccc12
REMARK SMILES IDX 9 1 8 2 7 3 5 4 6 5 4 7 1 8 2 9 3 10 78 11 79 12 80 13 81 14
REMARK SMILES IDX 82 16 83 17 90 18 84 19 86 20 89 21 85 22 87 23 88 24 10 26
REMARK SMILES IDX 11 27 12 28 13 29 14 31 15 32 16 33 77 34 17 35 76 36 18 37
REMARK SMILES IDX 19 38 20 39 70 40 21 41 75 42 69 43 71 44 22 45 74 46 68 47
REMARK SMILES IDX 67 48 23 50 55 51 35 52 54 53 36 54 39 55 53 56 72 57 37 58
REMARK SMILES IDX 38 59 52 61 73 62 40 63 24 64 25 65 33 66 26 67 27 68 31 69
REMARK SMILES IDX 34 70 28 71 29 72 32 73 30 74 56 75 57 76 65 77 58 78 59 79
REMARK SMILES IDX 63 80 66 81 60 82 61 83 64 84 62 85 41 86 42 87 50 88 43 89
REMARK SMILES IDX 44 90 48 91 51 92 45 93 46 94 49 95 47 96
REMARK H PARENT 7 6 81 15 87 25 12 30 71 49 39 60
REMARK Flexibility Score: inf
ROOT
ATOM      1  C   UNL A   1      31.139  29.317  23.930  1.00  0.00     0.023 C 
ENDROOT
BRANCH   1   2
ATOM      2  C   UNL A   1      30.800  28.321  22.823  1.00  0.00     0.116 C 
BRANCH   2   3
ATOM      3  N   UNL A   1      31.983  27.834  22.167  1.00  0.00    -0.356 N 
ATOM      4  C   UNL A   1      32.748  26.715  22.318  1.00  0.00     0.224 C 
ATOM      5  O   UNL A   1      33.689  26.614  21.527  1.00  0.00    -0.275 OA
ATOM      6  H   UNL A   1      32.310  28.435  21.459  1.00  0.00     0.163 HD
BRANCH   4   7
ATOM      7  C   UNL A   1      32.584  25.619  23.313  1.00  0.00     0.098 C 
ATOM      8  C   UNL A   1      31.568  23.339  23.641  1.00  0.00     0.013 C 
ATOM      9  C   UNL A   1      32.798  24.101  23.215  1.00  0.00    -0.011 C 
ATOM     10  C   UNL A   1      33.629  23.211  22.334  1.00  0.00     0.013 C 
ATOM     11  C   UNL A   1      33.672  25.003  24.112  1.00  0.00     0.098 C 
BRANCH  11  12
ATOM     12  C   UNL A   1      33.830  24.758  25.577  1.00  0.00     0.228 C 
ATOM     13  O   UNL A   1      33.397  25.625  26.336  1.00  0.00    -0.274 OA
ATOM     14  N   UNL A   1      34.155  23.529  26.094  1.00  0.00    -0.325 N 
ATOM     15  H   UNL A   1      33.583  23.205  26.826  1.00  0.00     0.169 HD
BRANCH  14  16
ATOM     16  C   UNL A   1      35.198  22.679  25.712  1.00  0.00     0.050 A 
ATOM     17  C   UNL A   1      36.477  23.228  25.588  1.00  0.00     0.027 A 
ATOM     18  C   UNL A   1      34.991  21.339  25.311  1.00  0.00     0.023 A 
ATOM     19  C   UNL A   1      37.567  22.421  25.265  1.00  0.00     0.004 A 
ATOM     20  C   UNL A   1      36.109  20.541  25.057  1.00  0.00     0.047 A 
ATOM     21  C   UNL A   1      33.852  20.529  25.025  1.00  0.00     0.030 A 
ATOM     22  C   UNL A   1      37.412  21.049  25.052  1.00  0.00     0.027 A 
ATOM     23  N   UNL A   1      35.657  19.257  24.847  1.00  0.00    -0.361 N 
ATOM     24  C   UNL A   1      34.289  19.245  24.786  1.00  0.00     0.083 A 
ATOM     25  H   UNL A   1      36.233  18.463  24.755  1.00  0.00     0.166 HD
ENDBRANCH  14  16
ENDBRANCH  11  12
ENDBRANCH   4   7
ENDBRANCH   2   3
ENDBRANCH   1   2
BRANCH   1  26
ATOM     26  C   UNL A   1      31.791  28.720  25.172  1.00  0.00     0.023 C 
BRANCH  26  27
ATOM     27  C   UNL A   1      32.924  29.543  25.767  1.00  0.00     0.116 C 
BRANCH  27  28
ATOM     28  N   UNL A   1      32.496  30.802  26.368  1.00  0.00    -0.352 N 
ATOM     29  C   UNL A   1      33.197  31.604  27.240  1.00  0.00     0.251 C 
ATOM     30  H   UNL A   1      31.598  31.116  26.119  1.00  0.00     0.163 HD
ATOM     31  O   UNL A   1      32.691  32.610  27.725  1.00  0.00    -0.269 OA
BRANCH  29  32
ATOM     32  C   UNL A   1      34.558  31.190  27.625  1.00  0.00     0.039 A 
ATOM     33  C   UNL A   1      35.552  32.164  27.735  1.00  0.00     0.014 A 
ATOM     34  C   UNL A   1      34.799  29.870  28.013  1.00  0.00     0.014 A 
ATOM     35  C   UNL A   1      36.765  31.834  28.340  1.00  0.00     0.010 A 
ATOM     36  C   UNL A   1      35.973  29.565  28.685  1.00  0.00     0.010 A 
ATOM     37  C   UNL A   1      36.956  30.550  28.876  1.00  0.00    -0.014 A 
BRANCH  37  38
ATOM     38  C   UNL A   1      38.156  30.216  29.682  1.00  0.00     0.031 A 
ATOM     39  C   UNL A   1      39.161  29.237  29.154  1.00  0.00     0.074 A 
ATOM     40  C   UNL A   1      38.277  30.715  30.928  1.00  0.00     0.049 A 
ATOM     41  N   UNL A   1      40.202  28.716  29.752  1.00  0.00    -0.248 NA
ATOM     42  C   UNL A   1      38.949  28.753  27.781  1.00  0.00     0.031 C 
ATOM     43  C   UNL A   1      37.337  31.637  31.567  1.00  0.00     0.029 A 
ATOM     44  N   UNL A   1      39.234  30.499  31.888  1.00  0.00    -0.354 N 
ATOM     45  C   UNL A   1      40.757  27.834  28.835  1.00  0.00     0.074 A 
ATOM     46  C   UNL A   1      39.909  27.849  27.663  1.00  0.00     0.031 C 
ATOM     47  C   UNL A   1      37.772  31.921  32.806  1.00  0.00     0.029 A 
ATOM     48  C   UNL A   1      38.995  31.167  33.065  1.00  0.00     0.049 A 
ATOM     49  H   UNL A   1      40.018  29.920  31.748  1.00  0.00     0.167 HD
ATOM     50  C   UNL A   1      41.886  27.099  28.954  1.00  0.00     0.037 A 
ATOM     51  C   UNL A   1      39.675  31.159  34.226  1.00  0.00     0.037 A 
ATOM     52  C   UNL A   1      42.737  27.109  30.114  1.00  0.00     0.049 A 
ATOM     53  C   UNL A   1      40.911  30.308  34.343  1.00  0.00     0.074 A 
ATOM     54  C   UNL A   1      43.944  26.461  30.305  1.00  0.00     0.029 A 
ATOM     55  N   UNL A   1      42.463  27.799  31.286  1.00  0.00    -0.354 N 
ATOM     56  N   UNL A   1      41.471  29.536  33.444  1.00  0.00    -0.248 NA
ATOM     57  C   UNL A   1      41.606  30.322  35.638  1.00  0.00     0.031 C 
ATOM     58  C   UNL A   1      44.377  26.720  31.609  1.00  0.00     0.029 A 
ATOM     59  C   UNL A   1      43.462  27.566  32.217  1.00  0.00     0.049 A 
ATOM     60  H   UNL A   1      41.676  28.371  31.434  1.00  0.00     0.167 HD
ATOM     61  C   UNL A   1      42.589  28.987  34.055  1.00  0.00     0.074 A 
ATOM     62  C   UNL A   1      42.640  29.528  35.397  1.00  0.00     0.031 C 
ATOM     63  C   UNL A   1      43.493  28.112  33.550  1.00  0.00     0.037 A 
BRANCH  50  64
ATOM     64  C   UNL A   1      42.266  26.224  27.797  1.00  0.00     0.064 A 
ATOM     65  C   UNL A   1      41.680  24.963  27.605  1.00  0.00     0.173 A 
ATOM     66  C   UNL A   1      43.207  26.661  26.852  1.00  0.00     0.173 A 
ATOM     67  F   UNL A   1      40.784  24.495  28.487  1.00  0.00    -0.203 F 
ATOM     68  C   UNL A   1      42.045  24.160  26.529  1.00  0.00     0.198 A 
ATOM     69  C   UNL A   1      43.547  25.866  25.760  1.00  0.00     0.198 A 
ATOM     70  F   UNL A   1      43.794  27.859  26.985  1.00  0.00    -0.203 F 
ATOM     71  F   UNL A   1      41.510  22.938  26.396  1.00  0.00    -0.200 F 
ATOM     72  C   UNL A   1      42.972  24.613  25.604  1.00  0.00     0.200 A 
ATOM     73  F   UNL A   1      44.436  26.311  24.860  1.00  0.00    -0.200 F 
ATOM     74  F   UNL A   1      43.319  23.841  24.566  1.00  0.00    -0.200 F 
ENDBRANCH  50  64
BRANCH  51  75
ATOM     75  C   UNL A   1      39.210  31.989  35.368  1.00  0.00     0.064 A 
ATOM     76  C   UNL A   1      39.546  33.347  35.450  1.00  0.00     0.173 A 
ATOM     77  C   UNL A   1      38.419  31.448  36.393  1.00  0.00     0.173 A 
ATOM     78  F   UNL A   1      40.319  33.903  34.505  1.00  0.00    -0.203 F 
ATOM     79  C   UNL A   1      39.122  34.131  36.521  1.00  0.00     0.198 A 
ATOM     80  C   UNL A   1      37.974  32.239  37.450  1.00  0.00     0.198 A 
ATOM     81  F   UNL A   1      38.067  30.154  36.359  1.00  0.00    -0.203 F 
ATOM     82  F   UNL A   1      39.490  35.416  36.595  1.00  0.00    -0.200 F 
ATOM     83  C   UNL A   1      38.330  33.578  37.517  1.00  0.00     0.200 A 
ATOM     84  F   UNL A   1      37.198  31.705  38.403  1.00  0.00    -0.200 F 
ATOM     85  F   UNL A   1      37.917  34.332  38.543  1.00  0.00    -0.200 F 
ENDBRANCH  51  75
BRANCH  63  86
ATOM     86  C   UNL A   1      44.619  27.691  34.446  1.00  0.00     0.064 A 
ATOM     87  C   UNL A   1      45.835  28.387  34.468  1.00  0.00     0.173 A 
ATOM     88  C   UNL A   1      44.457  26.618  35.337  1.00  0.00     0.173 A 
ATOM     89  F   UNL A   1      46.043  29.408  33.623  1.00  0.00    -0.203 F 
ATOM     90  C   UNL A   1      46.855  28.017  35.340  1.00  0.00     0.198 A 
ATOM     91  C   UNL A   1      45.469  26.269  36.226  1.00  0.00     0.198 A 
ATOM     92  F   UNL A   1      43.309  25.924  35.358  1.00  0.00    -0.203 F 
ATOM     93  F   UNL A   1      48.022  28.674  35.320  1.00  0.00    -0.200 F 
ATOM     94  C   UNL A   1      46.667  26.965  36.224  1.00  0.00     0.200 A 
ATOM     95  F   UNL A   1      45.280  25.260  37.090  1.00  0.00    -0.200 F 
ATOM     96  F   UNL A   1      47.645  26.619  37.073  1.00  0.00    -0.200 F 
ENDBRANCH  63  86
ENDBRANCH  37  38
ENDBRANCH  29  32
ENDBRANCH  27  28
ENDBRANCH  26  27
ENDBRANCH   1  26
TORSDOF 13
ENDMDL
MODEL 2
REMARK VINA RESULT:     -13.2      0.541      2.008
REMARK SMILES CC1(C)[C@H](C(=O)NCCCCNC(=O)c2ccc(-c3c4nc(c(-c5c(F)c(F)c(F)c(F)c5F)c5ccc([nH]5)c(-c5c(F)c(F)c(F)c(F)c5F)c5nc(c(-c6c(F)c(F)c(F)c(F)c6F)c6ccc3[nH]6)C=C5)C=C4)cc2)[C@H]1C(=O)Nc1cccc2[nH]ccc12
REMARK SMILES IDX 9 1 8 2 7 3 5 4 6 5 4 7 1 8 2 9 3 10 78 11 79 12 80 13 81 14
REMARK SMILES IDX 82 16 83 17 90 18 84 19 86 20 89 21 85 22 87 23 88 24 10 26
REMARK SMILES IDX 11 27 12 28 13 29 14 31 15 32 16 33 77 34 17 35 76 36 18 37
REMARK SMILES IDX 19 38 20 39 70 40 21 41 75 42 69 43 71 44 22 45 74 46 68 47
REMARK SMILES IDX 67 48 23 50 55 51 35 52 54 53 36 54 39 55 53 56 72 57 37 58
REMARK SMILES IDX 38 59 52 61 73 62 40 63 24 64 25 65 33 66 26 67 27 68 31 69
REMARK SMILES IDX 34 70 28 71 29 72 32 73 30 74 56 75 57 76 65 77 58 78 59 79
REMARK SMILES IDX 63 80 66 81 60 82 61 83 64 84 62 85 41 86 42 87 50 88 43 89
REMARK SMILES IDX 44 90 48 91 51 92 45 93 46 94 49 95 47 96
REMARK H PARENT 7 6 81 15 87 25 12 30 71 49 39 60
REMARK Flexibility Score: inf
ROOT
ATOM      1  C   UNL A   1      32.555  28.937  24.465  1.00  0.00     0.023 C 
ENDROOT
BRANCH   1   2
ATOM      2  C   UNL A   1      31.988  28.950  23.047  1.00  0.00     0.116 C 
BRANCH   2   3
ATOM      3  N   UNL A   1      32.725  28.079  22.172  1.00  0.00    -0.356 N 
ATOM      4  C   UNL A   1      33.012  26.746  22.198  1.00  0.00     0.224 C 
ATOM      5  O   UNL A   1      33.652  26.330  21.229  1.00  0.00    -0.275 OA
ATOM      6  H   UNL A   1      33.102  28.542  21.389  1.00  0.00     0.163 HD
BRANCH   4   7
ATOM      7  C   UNL A   1      32.651  25.750  23.243  1.00  0.00     0.098 C 
ATOM      8  C   UNL A   1      31.260  23.694  23.664  1.00  0.00     0.013 C 
ATOM      9  C   UNL A   1      32.607  24.214  23.229  1.00  0.00    -0.011 C 
ATOM     10  C   UNL A   1      33.289  23.150  22.416  1.00  0.00     0.013 C 
ATOM     11  C   UNL A   1      33.607  25.005  24.099  1.00  0.00     0.098 C 
BRANCH  11  12
ATOM     12  C   UNL A   1      33.700  24.817  25.578  1.00  0.00     0.228 C 
ATOM     13  O   UNL A   1      33.159  25.670  26.282  1.00  0.00    -0.274 OA
ATOM     14  N   UNL A   1      34.088  23.633  26.155  1.00  0.00    -0.325 N 
ATOM     15  H   UNL A   1      33.502  23.288  26.865  1.00  0.00     0.169 HD
BRANCH  14  16
ATOM     16  C   UNL A   1      35.214  22.857  25.859  1.00  0.00     0.050 A 
ATOM     17  C   UNL A   1      36.461  23.487  25.858  1.00  0.00     0.027 A 
ATOM     18  C   UNL A   1      35.129  21.514  25.426  1.00  0.00     0.023 A 
ATOM     19  C   UNL A   1      37.625  22.755  25.628  1.00  0.00     0.004 A 
ATOM     20  C   UNL A   1      36.315  20.791  25.266  1.00  0.00     0.047 A 
ATOM     21  C   UNL A   1      34.074  20.639  25.028  1.00  0.00     0.030 A 
ATOM     22  C   UNL A   1      37.577  21.379  25.385  1.00  0.00     0.027 A 
ATOM     23  N   UNL A   1      35.966  19.485  25.001  1.00  0.00    -0.361 N 
ATOM     24  C   UNL A   1      34.613  19.389  24.815  1.00  0.00     0.083 A 
ATOM     25  H   UNL A   1      36.597  18.731  24.953  1.00  0.00     0.166 HD
ENDBRANCH  14  16
ENDBRANCH  11  12
ENDBRANCH   4   7
ENDBRANCH   2   3
ENDBRANCH   1   2
BRANCH   1  26
ATOM     26  C   UNL A   1      31.792  29.775  25.485  1.00  0.00     0.023 C 
BRANCH  26  27
ATOM     27  C   UNL A   1      32.610  30.245  26.678  1.00  0.00     0.116 C 
BRANCH  27  28
ATOM     28  N   UNL A   1      32.468  31.665  26.978  1.00  0.00    -0.352 N 
ATOM     29  C   UNL A   1      33.387  32.500  27.571  1.00  0.00     0.251 C 
ATOM     30  H   UNL A   1      31.610  32.076  26.726  1.00  0.00     0.163 HD
ATOM     31  O   UNL A   1      33.114  33.668  27.828  1.00  0.00    -0.269 OA
BRANCH  29  32
ATOM     32  C   UNL A   1      34.698  31.939  27.945  1.00  0.00     0.039 A 
ATOM     33  C   UNL A   1      35.804  32.789  28.001  1.00  0.00     0.014 A 
ATOM     34  C   UNL A   1      34.787  30.613  28.376  1.00  0.00     0.014 A 
ATOM     35  C   UNL A   1      36.982  32.336  28.595  1.00  0.00     0.010 A 
ATOM     36  C   UNL A   1      35.932  30.192  29.037  1.00  0.00     0.010 A 
ATOM     37  C   UNL A   1      37.030  31.058  29.173  1.00  0.00    -0.014 A 
BRANCH  37  38
ATOM     38  C   UNL A   1      38.199  30.609  29.968  1.00  0.00     0.031 A 
ATOM     39  C   UNL A   1      39.140  29.588  29.401  1.00  0.00     0.074 A 
ATOM     40  C   UNL A   1      38.346  31.044  31.235  1.00  0.00     0.049 A 
ATOM     41  N   UNL A   1      40.140  28.973  29.979  1.00  0.00    -0.248 NA
ATOM     42  C   UNL A   1      38.905  29.180  28.008  1.00  0.00     0.031 C 
ATOM     43  C   UNL A   1      37.466  31.998  31.911  1.00  0.00     0.029 A 
ATOM     44  N   UNL A   1      39.279  30.722  32.188  1.00  0.00    -0.354 N 
ATOM     45  C   UNL A   1      40.640  28.096  29.027  1.00  0.00     0.074 A 
ATOM     46  C   UNL A   1      39.803  28.219  27.854  1.00  0.00     0.031 C 
ATOM     47  C   UNL A   1      37.911  32.198  33.162  1.00  0.00     0.029 A 
ATOM     48  C   UNL A   1      39.078  31.353  33.393  1.00  0.00     0.049 A 
ATOM     49  H   UNL A   1      40.024  30.099  32.026  1.00  0.00     0.167 HD
ATOM     50  C   UNL A   1      41.717  27.282  29.118  1.00  0.00     0.037 A 
ATOM     51  C   UNL A   1      39.749  31.249  34.555  1.00  0.00     0.037 A 
ATOM     52  C   UNL A   1      42.559  27.184  30.280  1.00  0.00     0.049 A 
ATOM     53  C   UNL A   1      40.924  30.313  34.639  1.00  0.00     0.074 A 
ATOM     54  C   UNL A   1      43.718  26.449  30.447  1.00  0.00     0.029 A 
ATOM     55  N   UNL A   1      42.324  27.840  31.480  1.00  0.00    -0.354 N 
ATOM     56  N   UNL A   1      41.437  29.544  33.709  1.00  0.00    -0.248 NA
ATOM     57  C   UNL A   1      41.609  30.223  35.936  1.00  0.00     0.031 C 
ATOM     58  C   UNL A   1      44.159  26.622  31.763  1.00  0.00     0.029 A 
ATOM     59  C   UNL A   1      43.300  27.500  32.404  1.00  0.00     0.049 A 
ATOM     60  H   UNL A   1      41.576  28.457  31.651  1.00  0.00     0.167 HD
ATOM     61  C   UNL A   1      42.512  28.896  34.300  1.00  0.00     0.074 A 
ATOM     62  C   UNL A   1      42.590  29.373  35.664  1.00  0.00     0.031 C 
ATOM     63  C   UNL A   1      43.358  27.984  33.759  1.00  0.00     0.037 A 
BRANCH  50  64
ATOM     64  C   UNL A   1      42.045  26.435  27.925  1.00  0.00     0.064 A 
ATOM     65  C   UNL A   1      43.030  26.818  27.000  1.00  0.00     0.173 A 
ATOM     66  C   UNL A   1      41.388  25.213  27.716  1.00  0.00     0.173 A 
ATOM     67  F   UNL A   1      43.678  27.983  27.149  1.00  0.00    -0.203 F 
ATOM     68  C   UNL A   1      43.321  26.025  25.895  1.00  0.00     0.198 A 
ATOM     69  C   UNL A   1      41.704  24.408  26.624  1.00  0.00     0.198 A 
ATOM     70  F   UNL A   1      40.442  24.799  28.571  1.00  0.00    -0.203 F 
ATOM     71  F   UNL A   1      44.227  26.436  24.997  1.00  0.00    -0.200 F 
ATOM     72  C   UNL A   1      42.663  24.818  25.710  1.00  0.00     0.200 A 
ATOM     73  F   UNL A   1      41.075  23.236  26.454  1.00  0.00    -0.200 F 
ATOM     74  F   UNL A   1      42.948  24.053  24.648  1.00  0.00    -0.200 F 
ENDBRANCH  50  64
BRANCH  51  75
ATOM     75  C   UNL A   1      39.332  32.058  35.730  1.00  0.00     0.064 A 
ATOM     76  C   UNL A   1      38.375  31.572  36.631  1.00  0.00     0.173 A 
ATOM     77  C   UNL A   1      39.882  33.324  35.980  1.00  0.00     0.173 A 
ATOM     78  F   UNL A   1      37.805  30.376  36.421  1.00  0.00    -0.203 F 
ATOM     79  C   UNL A   1      37.972  32.327  37.730  1.00  0.00     0.198 A 
ATOM     80  C   UNL A   1      39.497  34.067  37.093  1.00  0.00     0.198 A 
ATOM     81  F   UNL A   1      40.805  33.832  35.150  1.00  0.00    -0.203 F 
ATOM     82  F   UNL A   1      37.027  31.856  38.553  1.00  0.00    -0.200 F 
ATOM     83  C   UNL A   1      38.538  33.572  37.965  1.00  0.00     0.200 A 
ATOM     84  F   UNL A   1      40.057  35.263  37.324  1.00  0.00    -0.200 F 
ATOM     85  F   UNL A   1      38.155  34.295  39.025  1.00  0.00    -0.200 F 
ENDBRANCH  51  75
BRANCH  63  86
ATOM     86  C   UNL A   1      44.447  27.450  34.641  1.00  0.00     0.064 A 
ATOM     87  C   UNL A   1      44.282  26.263  35.368  1.00  0.00     0.173 A 
ATOM     88  C   UNL A   1      45.689  28.099  34.710  1.00  0.00     0.173 A 
ATOM     89  F   UNL A   1      43.107  25.616  35.347  1.00  0.00    -0.203 F 
ATOM     90  C   UNL A   1      45.318  25.751  36.145  1.00  0.00     0.198 A 
ATOM     91  C   UNL A   1      46.731  27.569  35.466  1.00  0.00     0.198 A 
ATOM     92  F   UNL A   1      45.898  29.236  34.028  1.00  0.00    -0.203 F 
ATOM     93  F   UNL A   1      45.127  24.634  36.860  1.00  0.00    -0.200 F 
ATOM     94  C   UNL A   1      46.543  26.399  36.185  1.00  0.00     0.200 A 
ATOM     95  F   UNL A   1      47.919  28.190  35.494  1.00  0.00    -0.200 F 
ATOM     96  F   UNL A   1      47.544  25.897  36.923  1.00  0.00    -0.200 F 
ENDBRANCH  63  86
ENDBRANCH  37  38
ENDBRANCH  29  32
ENDBRANCH  27  28
ENDBRANCH  26  27
ENDBRANCH   1  26
TORSDOF 13
ENDMDL
MODEL 3
REMARK VINA RESULT:     -13.2      3.019      7.808
REMARK SMILES CC1(C)[C@H](C(=O)NCCCCNC(=O)c2ccc(-c3c4nc(c(-c5c(F)c(F)c(F)c(F)c5F)c5ccc([nH]5)c(-c5c(F)c(F)c(F)c(F)c5F)c5nc(c(-c6c(F)c(F)c(F)c(F)c6F)c6ccc3[nH]6)C=C5)C=C4)cc2)[C@H]1C(=O)Nc1cccc2[nH]ccc12
REMARK SMILES IDX 9 1 8 2 7 3 5 4 6 5 4 7 1 8 2 9 3 10 78 11 79 12 80 13 81 14
REMARK SMILES IDX 82 16 83 17 90 18 84 19 86 20 89 21 85 22 87 23 88 24 10 26
REMARK SMILES IDX 11 27 12 28 13 29 14 31 15 32 16 33 77 34 17 35 76 36 18 37
REMARK SMILES IDX 19 38 20 39 70 40 21 41 75 42 69 43 71 44 22 45 74 46 68 47
REMARK SMILES IDX 67 48 23 50 55 51 35 52 54 53 36 54 39 55 53 56 72 57 37 58
REMARK SMILES IDX 38 59 52 61 73 62 40 63 24 64 25 65 33 66 26 67 27 68 31 69
REMARK SMILES IDX 34 70 28 71 29 72 32 73 30 74 56 75 57 76 65 77 58 78 59 79
REMARK SMILES IDX 63 80 66 81 60 82 61 83 64 84 62 85 41 86 42 87 50 88 43 89
REMARK SMILES IDX 44 90 48 91 51 92 45 93 46 94 49 95 47 96
REMARK H PARENT 7 6 81 15 87 25 12 30 71 49 39 60
REMARK Flexibility Score: inf
ROOT
ATOM      1  C   UNL A   1      33.505  28.877  24.147  1.00  0.00     0.023 C 
ENDROOT
BRANCH   1   2
ATOM      2  C   UNL A   1      32.545  28.874  22.960  1.00  0.00     0.116 C 
BRANCH   2   3
ATOM      3  N   UNL A   1      32.912  27.885  21.983  1.00  0.00    -0.356 N 
ATOM      4  C   UNL A   1      32.928  26.522  21.986  1.00  0.00     0.224 C 
ATOM      5  O   UNL A   1      33.274  26.000  20.924  1.00  0.00    -0.275 OA
ATOM      6  H   UNL A   1      33.217  28.275  21.131  1.00  0.00     0.163 HD
BRANCH   4   7
ATOM      7  C   UNL A   1      32.582  25.603  23.106  1.00  0.00     0.098 C 
ATOM      8  C   UNL A   1      31.167  23.609  23.705  1.00  0.00     0.013 C 
ATOM      9  C   UNL A   1      32.508  24.072  23.194  1.00  0.00    -0.011 C 
ATOM     10  C   UNL A   1      33.142  22.943  22.431  1.00  0.00     0.013 C 
ATOM     11  C   UNL A   1      33.551  24.895  23.978  1.00  0.00     0.098 C 
BRANCH  11  12
ATOM     12  C   UNL A   1      33.689  24.803  25.462  1.00  0.00     0.228 C 
ATOM     13  O   UNL A   1      33.145  25.684  26.128  1.00  0.00    -0.274 OA
ATOM     14  N   UNL A   1      34.124  23.667  26.099  1.00  0.00    -0.325 N 
ATOM     15  H   UNL A   1      33.567  23.352  26.846  1.00  0.00     0.169 HD
BRANCH  14  16
ATOM     16  C   UNL A   1      35.262  22.902  25.820  1.00  0.00     0.050 A 
ATOM     17  C   UNL A   1      36.501  23.548  25.822  1.00  0.00     0.027 A 
ATOM     18  C   UNL A   1      35.198  21.554  25.400  1.00  0.00     0.023 A 
ATOM     19  C   UNL A   1      37.675  22.829  25.607  1.00  0.00     0.004 A 
ATOM     20  C   UNL A   1      36.393  20.845  25.256  1.00  0.00     0.047 A 
ATOM     21  C   UNL A   1      34.157  20.661  25.004  1.00  0.00     0.030 A 
ATOM     22  C   UNL A   1      37.647  21.450  25.378  1.00  0.00     0.027 A 
ATOM     23  N   UNL A   1      36.063  19.532  25.002  1.00  0.00    -0.361 N 
ATOM     24  C   UNL A   1      34.713  19.417  24.808  1.00  0.00     0.083 A 
ATOM     25  H   UNL A   1      36.704  18.785  24.966  1.00  0.00     0.166 HD
ENDBRANCH  14  16
ENDBRANCH  11  12
ENDBRANCH   4   7
ENDBRANCH   2   3
ENDBRANCH   1   2
BRANCH   1  26
ATOM     26  C   UNL A   1      32.867  29.146  25.506  1.00  0.00     0.023 C 
BRANCH  26  27
ATOM     27  C   UNL A   1      33.831  29.157  26.683  1.00  0.00     0.116 C 
BRANCH  27  28
ATOM     28  N   UNL A   1      33.823  30.397  27.451  1.00  0.00    -0.352 N 
ATOM     29  C   UNL A   1      34.809  30.887  28.276  1.00  0.00     0.251 C 
ATOM     30  H   UNL A   1      33.014  30.951  27.368  1.00  0.00     0.163 HD
ATOM     31  O   UNL A   1      34.647  31.918  28.919  1.00  0.00    -0.269 OA
BRANCH  29  32
ATOM     32  C   UNL A   1      36.052  30.106  28.415  1.00  0.00     0.039 A 
ATOM     33  C   UNL A   1      37.009  30.176  27.401  1.00  0.00     0.014 A 
ATOM     34  C   UNL A   1      36.318  29.432  29.609  1.00  0.00     0.014 A 
ATOM     35  C   UNL A   1      38.283  29.657  27.629  1.00  0.00     0.010 A 
ATOM     36  C   UNL A   1      37.608  28.989  29.864  1.00  0.00     0.010 A 
ATOM     37  C   UNL A   1      38.607  29.119  28.885  1.00  0.00    -0.014 A 
BRANCH  37  38
ATOM     38  C   UNL A   1      39.996  28.723  29.225  1.00  0.00     0.031 A 
ATOM     39  C   UNL A   1      40.888  29.681  29.956  1.00  0.00     0.074 A 
ATOM     40  C   UNL A   1      40.477  27.546  28.780  1.00  0.00     0.049 A 
ATOM     41  N   UNL A   1      42.163  29.579  30.231  1.00  0.00    -0.248 NA
ATOM     42  C   UNL A   1      40.272  30.938  30.409  1.00  0.00     0.031 C 
ATOM     43  C   UNL A   1      39.719  26.554  28.016  1.00  0.00     0.029 A 
ATOM     44  N   UNL A   1      41.729  26.993  28.888  1.00  0.00    -0.354 N 
ATOM     45  C   UNL A   1      42.503  30.761  30.873  1.00  0.00     0.074 A 
ATOM     46  C   UNL A   1      41.316  31.588  30.899  1.00  0.00     0.031 C 
ATOM     47  C   UNL A   1      40.514  25.507  27.741  1.00  0.00     0.029 A 
ATOM     48  C   UNL A   1      41.849  25.773  28.267  1.00  0.00     0.049 A 
ATOM     49  H   UNL A   1      42.471  27.428  29.367  1.00  0.00     0.167 HD
ATOM     50  C   UNL A   1      43.692  31.112  31.414  1.00  0.00     0.037 A 
ATOM     51  C   UNL A   1      42.919  24.969  28.123  1.00  0.00     0.037 A 
ATOM     52  C   UNL A   1      44.861  30.274  31.405  1.00  0.00     0.049 A 
ATOM     53  C   UNL A   1      44.238  25.397  28.707  1.00  0.00     0.074 A 
ATOM     54  C   UNL A   1      46.092  30.502  31.993  1.00  0.00     0.029 A 
ATOM     55  N   UNL A   1      44.944  29.044  30.768  1.00  0.00    -0.354 N 
ATOM     56  N   UNL A   1      44.531  26.483  29.380  1.00  0.00    -0.248 NA
ATOM     57  C   UNL A   1      45.377  24.491  28.505  1.00  0.00     0.031 C 
ATOM     58  C   UNL A   1      46.934  29.434  31.671  1.00  0.00     0.029 A 
ATOM     59  C   UNL A   1      46.216  28.518  30.919  1.00  0.00     0.049 A 
ATOM     60  H   UNL A   1      44.208  28.610  30.280  1.00  0.00     0.167 HD
ATOM     61  C   UNL A   1      45.878  26.384  29.696  1.00  0.00     0.074 A 
ATOM     62  C   UNL A   1      46.343  25.123  29.158  1.00  0.00     0.031 C 
ATOM     63  C   UNL A   1      46.661  27.261  30.372  1.00  0.00     0.037 A 
BRANCH  50  64
ATOM     64  C   UNL A   1      43.785  32.461  32.062  1.00  0.00     0.064 A 
ATOM     65  C   UNL A   1      44.207  33.593  31.347  1.00  0.00     0.173 A 
ATOM     66  C   UNL A   1      43.422  32.632  33.407  1.00  0.00     0.173 A 
ATOM     67  F   UNL A   1      44.577  33.479  30.063  1.00  0.00    -0.203 F 
ATOM     68  C   UNL A   1      44.294  34.838  31.963  1.00  0.00     0.198 A 
ATOM     69  C   UNL A   1      43.481  33.886  34.010  1.00  0.00     0.198 A 
ATOM     70  F   UNL A   1      43.007  31.585  34.134  1.00  0.00    -0.203 F 
ATOM     71  F   UNL A   1      44.750  35.893  31.274  1.00  0.00    -0.200 F 
ATOM     72  C   UNL A   1      43.924  34.985  33.290  1.00  0.00     0.200 A 
ATOM     73  F   UNL A   1      43.113  34.029  35.292  1.00  0.00    -0.200 F 
ATOM     74  F   UNL A   1      44.003  36.186  33.880  1.00  0.00    -0.200 F 
ENDBRANCH  50  64
BRANCH  51  75
ATOM     75  C   UNL A   1      42.786  23.676  27.404  1.00  0.00     0.064 A 
ATOM     76  C   UNL A   1      43.156  23.564  26.056  1.00  0.00     0.173 A 
ATOM     77  C   UNL A   1      42.295  22.528  28.044  1.00  0.00     0.173 A 
ATOM     78  F   UNL A   1      43.610  24.639  25.395  1.00  0.00    -0.203 F 
ATOM     79  C   UNL A   1      43.027  22.357  25.372  1.00  0.00     0.198 A 
ATOM     80  C   UNL A   1      42.191  21.316  27.366  1.00  0.00     0.198 A 
ATOM     81  F   UNL A   1      41.931  22.582  29.334  1.00  0.00    -0.203 F 
ATOM     82  F   UNL A   1      43.350  22.288  24.074  1.00  0.00    -0.200 F 
ATOM     83  C   UNL A   1      42.550  21.232  26.029  1.00  0.00     0.200 A 
ATOM     84  F   UNL A   1      41.743  20.227  28.007  1.00  0.00    -0.200 F 
ATOM     85  F   UNL A   1      42.432  20.071  25.372  1.00  0.00    -0.200 F 
ENDBRANCH  51  75
BRANCH  63  86
ATOM     86  C   UNL A   1      48.098  26.884  30.577  1.00  0.00     0.064 A 
ATOM     87  C   UNL A   1      48.490  26.038  31.622  1.00  0.00     0.173 A 
ATOM     88  C   UNL A   1      49.083  27.326  29.681  1.00  0.00     0.173 A 
ATOM     89  F   UNL A   1      47.586  25.604  32.514  1.00  0.00    -0.203 F 
ATOM     90  C   UNL A   1      49.820  25.656  31.772  1.00  0.00     0.198 A 
ATOM     91  C   UNL A   1      50.408  26.919  29.818  1.00  0.00     0.198 A 
ATOM     92  F   UNL A   1      48.757  28.134  28.660  1.00  0.00    -0.203 F 
ATOM     93  F   UNL A   1      50.178  24.873  32.799  1.00  0.00    -0.200 F 
ATOM     94  C   UNL A   1      50.775  26.089  30.865  1.00  0.00     0.200 A 
ATOM     95  F   UNL A   1      51.327  27.329  28.932  1.00  0.00    -0.200 F 
ATOM     96  F   UNL A   1      52.053  25.708  31.003  1.00  0.00    -0.200 F 
ENDBRANCH  63  86
ENDBRANCH  37  38
ENDBRANCH  29  32
ENDBRANCH  27  28
ENDBRANCH  26  27
ENDBRANCH   1  26
TORSDOF 13
ENDMDL
