MODEL 1
REMARK VINA RESULT:     -13.9      0.000      0.000
REMARK SMILES O=C(Cn1c2ccccc2c(=O)c2ccccc21)N[C@@H](Cc1ccccc1)C(=O)NCCCCNC(=O)c1ccc(-c2c3nc(c(-c4c(F)c(F)c(F)c(F)c4F)c4ccc([nH]4)c(-c4c(F)c(F)c(F)c(F)c4F)c4nc(c(-c5c(F)c(F)c(F)c(F)c5F)c5ccc2[nH]5)C=C4)C=C3)cc1
REMARK SMILES IDX 32 1 31 2 30 3 28 4 29 5 20 7 19 8 1 9 2 10 3 12 4 13 5 14
REMARK SMILES IDX 18 15 6 16 10 17 13 18 17 19 7 20 9 21 11 22 14 23 16 24
REMARK SMILES IDX 8 25 12 26 15 27 21 28 22 29 23 30 27 31 24 32 26 33 25 34
REMARK SMILES IDX 33 35 34 36 35 37 36 38 37 40 38 41 39 42 100 43 40 44 99 45
REMARK SMILES IDX 41 46 42 47 43 48 93 49 44 50 98 51 92 52 94 53 45 54 97 55
REMARK SMILES IDX 91 56 90 57 46 59 78 60 58 61 77 62 59 63 62 64 76 65 95 66
REMARK SMILES IDX 60 67 61 68 75 70 96 71 63 72 47 73 48 74 56 75 49 76 50 77
REMARK SMILES IDX 54 78 57 79 51 80 52 81 55 82 53 83 79 84 80 85 88 86 81 87
REMARK SMILES IDX 82 88 86 89 89 90 83 91 84 92 87 93 85 94 64 95 65 96 73 97
REMARK SMILES IDX 66 98 67 99 71 100 74 101 68 102 69 103 72 104 70 105
REMARK H PARENT 30 6 19 11 35 39 94 58 62 69
REMARK Flexibility Score: inf
ROOT
ATOM      1  C   UNL A   1      31.738  28.480  27.310  1.00  0.00     0.023 C 
ENDROOT
BRANCH   1   2
ATOM      2  C   UNL A   1      32.079  27.191  26.584  1.00  0.00     0.116 C 
BRANCH   2   3
ATOM      3  N   UNL A   1      31.161  26.102  26.859  1.00  0.00    -0.354 N 
ATOM      4  C   UNL A   1      30.583  25.221  25.985  1.00  0.00     0.242 C 
ATOM      5  O   UNL A   1      30.274  24.110  26.424  1.00  0.00    -0.273 OA
ATOM      6  H   UNL A   1      30.922  25.979  27.806  1.00  0.00     0.163 HD
BRANCH   4   7
ATOM      7  C   UNL A   1      30.398  25.557  24.490  1.00  0.00     0.175 C 
BRANCH   7   8
ATOM      8  N   UNL A   1      30.771  24.418  23.643  1.00  0.00    -0.342 N 
ATOM      9  O   UNL A   1      32.659  25.378  22.783  1.00  0.00    -0.273 OA
ATOM     10  C   UNL A   1      31.982  24.373  22.993  1.00  0.00     0.240 C 
ATOM     11  H   UNL A   1      30.140  23.668  23.539  1.00  0.00     0.164 HD
BRANCH  10  12
ATOM     12  C   UNL A   1      32.430  22.989  22.508  1.00  0.00     0.222 C 
BRANCH  12  13
ATOM     13  N   UNL A   1      32.688  21.955  23.560  1.00  0.00    -0.331 N 
ATOM     14  C   UNL A   1      32.503  20.591  23.186  1.00  0.00     0.053 A 
ATOM     15  C   UNL A   1      33.299  22.293  24.795  1.00  0.00     0.053 A 
ATOM     16  C   UNL A   1      32.213  20.162  21.878  1.00  0.00     0.027 A 
ATOM     17  C   UNL A   1      32.645  19.573  24.151  1.00  0.00     0.046 A 
ATOM     18  C   UNL A   1      33.394  21.325  25.818  1.00  0.00     0.046 A 
ATOM     19  C   UNL A   1      33.819  23.560  25.106  1.00  0.00     0.027 A 
ATOM     20  C   UNL A   1      32.058  18.803  21.559  1.00  0.00     0.002 A 
ATOM     21  C   UNL A   1      32.496  18.212  23.838  1.00  0.00     0.014 A 
ATOM     22  C   UNL A   1      32.980  19.937  25.539  1.00  0.00     0.197 A 
ATOM     23  C   UNL A   1      33.866  21.630  27.105  1.00  0.00     0.014 A 
ATOM     24  C   UNL A   1      34.280  23.877  26.393  1.00  0.00     0.002 A 
ATOM     25  C   UNL A   1      32.199  17.828  22.537  1.00  0.00     0.001 A 
ATOM     26  O   UNL A   1      32.926  19.103  26.438  1.00  0.00    -0.288 OA
ATOM     27  C   UNL A   1      34.289  22.918  27.398  1.00  0.00     0.001 A 
ENDBRANCH  12  13
ENDBRANCH  10  12
ENDBRANCH   7   8
BRANCH   7  28
ATOM     28  C   UNL A   1      29.068  26.257  24.145  1.00  0.00     0.070 C 
BRANCH  28  29
ATOM     29  C   UNL A   1      29.148  27.599  23.456  1.00  0.00    -0.045 A 
ATOM     30  C   UNL A   1      30.387  28.150  23.104  1.00  0.00     0.004 A 
ATOM     31  C   UNL A   1      27.976  28.296  23.122  1.00  0.00     0.004 A 
ATOM     32  C   UNL A   1      30.450  29.346  22.385  1.00  0.00     0.000 A 
ATOM     33  C   UNL A   1      28.042  29.494  22.407  1.00  0.00     0.000 A 
ATOM     34  C   UNL A   1      29.278  30.012  22.026  1.00  0.00     0.000 A 
ENDBRANCH  28  29
ENDBRANCH   7  28
ENDBRANCH   4   7
ENDBRANCH   2   3
ENDBRANCH   1   2
BRANCH   1  35
ATOM     35  C   UNL A   1      31.551  29.693  26.407  1.00  0.00     0.023 C 
BRANCH  35  36
ATOM     36  C   UNL A   1      32.751  30.629  26.321  1.00  0.00     0.116 C 
BRANCH  36  37
ATOM     37  N   UNL A   1      32.519  31.957  26.879  1.00  0.00    -0.352 N 
ATOM     38  C   UNL A   1      33.381  32.724  27.634  1.00  0.00     0.251 C 
ATOM     39  H   UNL A   1      31.638  32.354  26.694  1.00  0.00     0.163 HD
ATOM     40  O   UNL A   1      33.048  33.813  28.071  1.00  0.00    -0.269 OA
BRANCH  38  41
ATOM     41  C   UNL A   1      34.711  32.163  27.942  1.00  0.00     0.039 A 
ATOM     42  C   UNL A   1      34.836  30.805  28.240  1.00  0.00     0.014 A 
ATOM     43  C   UNL A   1      35.798  33.031  28.069  1.00  0.00     0.014 A 
ATOM     44  C   UNL A   1      36.000  30.352  28.845  1.00  0.00     0.010 A 
ATOM     45  C   UNL A   1      36.995  32.551  28.605  1.00  0.00     0.010 A 
ATOM     46  C   UNL A   1      37.080  31.225  29.059  1.00  0.00    -0.014 A 
BRANCH  46  47
ATOM     47  C   UNL A   1      38.265  30.730  29.804  1.00  0.00     0.031 A 
ATOM     48  C   UNL A   1      38.475  31.101  31.248  1.00  0.00     0.074 A 
ATOM     49  C   UNL A   1      39.100  29.864  29.201  1.00  0.00     0.049 A 
ATOM     50  N   UNL A   1      39.407  30.697  32.076  1.00  0.00    -0.248 NA
ATOM     51  C   UNL A   1      37.518  32.047  31.845  1.00  0.00     0.031 C 
ATOM     52  C   UNL A   1      38.986  29.420  27.812  1.00  0.00     0.029 A 
ATOM     53  N   UNL A   1      40.177  29.171  29.688  1.00  0.00    -0.354 N 
ATOM     54  C   UNL A   1      39.159  31.348  33.277  1.00  0.00     0.074 A 
ATOM     55  C   UNL A   1      38.005  32.195  33.070  1.00  0.00     0.031 C 
ATOM     56  C   UNL A   1      39.910  28.478  27.577  1.00  0.00     0.029 A 
ATOM     57  C   UNL A   1      40.714  28.291  28.781  1.00  0.00     0.049 A 
ATOM     58  H   UNL A   1      40.531  29.291  30.598  1.00  0.00     0.167 HD
ATOM     59  C   UNL A   1      39.827  31.238  34.449  1.00  0.00     0.037 A 
ATOM     60  C   UNL A   1      41.739  27.427  28.905  1.00  0.00     0.037 A 
ATOM     61  C   UNL A   1      40.954  30.370  34.667  1.00  0.00     0.049 A 
ATOM     62  C   UNL A   1      42.476  27.344  30.210  1.00  0.00     0.074 A 
ATOM     63  C   UNL A   1      41.679  30.171  35.829  1.00  0.00     0.029 A 
ATOM     64  N   UNL A   1      41.514  29.547  33.700  1.00  0.00    -0.354 N 
ATOM     65  N   UNL A   1      42.232  27.968  31.336  1.00  0.00    -0.248 NA
ATOM     66  C   UNL A   1      43.640  26.450  30.257  1.00  0.00     0.031 C 
ATOM     67  C   UNL A   1      42.699  29.253  35.558  1.00  0.00     0.029 A 
ATOM     68  C   UNL A   1      42.587  28.854  34.236  1.00  0.00     0.049 A 
ATOM     69  H   UNL A   1      41.196  29.469  32.772  1.00  0.00     0.167 HD
ATOM     70  C   UNL A   1      43.206  27.541  32.225  1.00  0.00     0.074 A 
ATOM     71  C   UNL A   1      44.034  26.587  31.516  1.00  0.00     0.031 C 
ATOM     72  C   UNL A   1      43.403  27.915  33.512  1.00  0.00     0.037 A 
BRANCH  59  73
ATOM     73  C   UNL A   1      39.364  32.078  35.603  1.00  0.00     0.064 A 
ATOM     74  C   UNL A   1      38.471  31.576  36.561  1.00  0.00     0.173 A 
ATOM     75  C   UNL A   1      39.880  33.368  35.795  1.00  0.00     0.173 A 
ATOM     76  F   UNL A   1      37.944  30.352  36.416  1.00  0.00    -0.203 F 
ATOM     77  C   UNL A   1      38.105  32.341  37.666  1.00  0.00     0.198 A 
ATOM     78  C   UNL A   1      39.528  34.122  36.911  1.00  0.00     0.198 A 
ATOM     79  F   UNL A   1      40.743  33.889  34.910  1.00  0.00    -0.203 F 
ATOM     80  F   UNL A   1      37.234  31.851  38.559  1.00  0.00    -0.200 F 
ATOM     81  C   UNL A   1      38.640  33.609  37.844  1.00  0.00     0.200 A 
ATOM     82  F   UNL A   1      40.054  35.341  37.088  1.00  0.00    -0.200 F 
ATOM     83  F   UNL A   1      38.299  34.337  38.917  1.00  0.00    -0.200 F 
ENDBRANCH  59  73
BRANCH  60  84
ATOM     84  C   UNL A   1      42.106  26.563  27.758  1.00  0.00     0.064 A 
ATOM     85  C   UNL A   1      43.112  26.949  26.863  1.00  0.00     0.173 A 
ATOM     86  C   UNL A   1      41.491  25.319  27.556  1.00  0.00     0.173 A 
ATOM     87  F   UNL A   1      43.717  28.138  27.006  1.00  0.00    -0.203 F 
ATOM     88  C   UNL A   1      43.488  26.122  25.807  1.00  0.00     0.198 A 
ATOM     89  C   UNL A   1      41.884  24.483  26.515  1.00  0.00     0.198 A 
ATOM     90  F   UNL A   1      40.525  24.906  28.390  1.00  0.00    -0.203 F 
ATOM     91  F   UNL A   1      44.438  26.523  24.950  1.00  0.00    -0.200 F 
ATOM     92  C   UNL A   1      42.881  24.886  25.639  1.00  0.00     0.200 A 
ATOM     93  F   UNL A   1      41.304  23.285  26.366  1.00  0.00    -0.200 F 
ATOM     94  F   UNL A   1      43.254  24.085  24.633  1.00  0.00    -0.200 F 
ENDBRANCH  60  84
BRANCH  72  95
ATOM     95  C   UNL A   1      44.559  27.297  34.239  1.00  0.00     0.064 A 
ATOM     96  C   UNL A   1      45.810  27.928  34.279  1.00  0.00     0.173 A 
ATOM     97  C   UNL A   1      44.397  26.101  34.953  1.00  0.00     0.173 A 
ATOM     98  F   UNL A   1      46.013  29.066  33.599  1.00  0.00    -0.203 F 
ATOM     99  C   UNL A   1      46.864  27.377  35.002  1.00  0.00     0.198 A 
ATOM    100  C   UNL A   1      45.447  25.563  35.691  1.00  0.00     0.198 A 
ATOM    101  F   UNL A   1      43.216  25.464  34.948  1.00  0.00    -0.203 F 
ATOM    102  F   UNL A   1      48.059  27.981  35.005  1.00  0.00    -0.200 F 
ATOM    103  C   UNL A   1      46.680  26.200  35.713  1.00  0.00     0.200 A 
ATOM    104  F   UNL A   1      45.266  24.432  36.386  1.00  0.00    -0.200 F 
ATOM    105  F   UNL A   1      47.692  25.676  36.417  1.00  0.00    -0.200 F 
ENDBRANCH  72  95
ENDBRANCH  46  47
ENDBRANCH  38  41
ENDBRANCH  36  37
ENDBRANCH  35  36
ENDBRANCH   1  35
TORSDOF 16
ENDMDL
MODEL 2
REMARK VINA RESULT:     -13.9      1.610      2.315
REMARK SMILES O=C(Cn1c2ccccc2c(=O)c2ccccc21)N[C@@H](Cc1ccccc1)C(=O)NCCCCNC(=O)c1ccc(-c2c3nc(c(-c4c(F)c(F)c(F)c(F)c4F)c4ccc([nH]4)c(-c4c(F)c(F)c(F)c(F)c4F)c4nc(c(-c5c(F)c(F)c(F)c(F)c5F)c5ccc2[nH]5)C=C4)C=C3)cc1
REMARK SMILES IDX 32 1 31 2 30 3 28 4 29 5 20 7 19 8 1 9 2 10 3 12 4 13 5 14
REMARK SMILES IDX 18 15 6 16 10 17 13 18 17 19 7 20 9 21 11 22 14 23 16 24
REMARK SMILES IDX 8 25 12 26 15 27 21 28 22 29 23 30 27 31 24 32 26 33 25 34
REMARK SMILES IDX 33 35 34 36 35 37 36 38 37 40 38 41 39 42 100 43 40 44 99 45
REMARK SMILES IDX 41 46 42 47 43 48 93 49 44 50 98 51 92 52 94 53 45 54 97 55
REMARK SMILES IDX 91 56 90 57 46 59 78 60 58 61 77 62 59 63 62 64 76 65 95 66
REMARK SMILES IDX 60 67 61 68 75 70 96 71 63 72 47 73 48 74 56 75 49 76 50 77
REMARK SMILES IDX 54 78 57 79 51 80 52 81 55 82 53 83 79 84 80 85 88 86 81 87
REMARK SMILES IDX 82 88 86 89 89 90 83 91 84 92 87 93 85 94 64 95 65 96 73 97
REMARK SMILES IDX 66 98 67 99 71 100 74 101 68 102 69 103 72 104 70 105
REMARK H PARENT 30 6 19 11 35 39 94 58 62 69
REMARK Flexibility Score: inf
ROOT
ATOM      1  C   UNL A   1      32.432  28.183  27.205  1.00  0.00     0.023 C 
ENDROOT
BRANCH   1   2
ATOM      2  C   UNL A   1      32.571  27.257  26.010  1.00  0.00     0.116 C 
BRANCH   2   3
ATOM      3  N   UNL A   1      33.354  27.813  24.923  1.00  0.00    -0.354 N 
ATOM      4  C   UNL A   1      32.936  28.243  23.693  1.00  0.00     0.242 C 
ATOM      5  O   UNL A   1      33.611  29.118  23.141  1.00  0.00    -0.273 OA
ATOM      6  H   UNL A   1      34.320  27.894  25.096  1.00  0.00     0.163 HD
BRANCH   4   7
ATOM      7  C   UNL A   1      31.632  27.729  23.048  1.00  0.00     0.175 C 
BRANCH   7   8
ATOM      8  N   UNL A   1      31.687  26.279  22.829  1.00  0.00    -0.342 N 
ATOM      9  O   UNL A   1      33.591  26.310  21.565  1.00  0.00    -0.273 OA
ATOM     10  C   UNL A   1      32.779  25.683  22.243  1.00  0.00     0.240 C 
ATOM     11  H   UNL A   1      30.925  25.720  23.109  1.00  0.00     0.164 HD
BRANCH  10  12
ATOM     12  C   UNL A   1      32.910  24.170  22.457  1.00  0.00     0.222 C 
BRANCH  12  13
ATOM     13  N   UNL A   1      33.370  23.716  23.807  1.00  0.00    -0.331 N 
ATOM     14  C   UNL A   1      32.375  23.593  24.822  1.00  0.00     0.053 A 
ATOM     15  C   UNL A   1      34.682  23.218  24.014  1.00  0.00     0.053 A 
ATOM     16  C   UNL A   1      30.994  23.757  24.599  1.00  0.00     0.027 A 
ATOM     17  C   UNL A   1      32.751  23.254  26.137  1.00  0.00     0.046 A 
ATOM     18  C   UNL A   1      35.127  22.937  25.324  1.00  0.00     0.046 A 
ATOM     19  C   UNL A   1      35.617  22.991  22.992  1.00  0.00     0.027 A 
ATOM     20  C   UNL A   1      30.053  23.608  25.631  1.00  0.00     0.002 A 
ATOM     21  C   UNL A   1      31.814  23.099  27.173  1.00  0.00     0.014 A 
ATOM     22  C   UNL A   1      34.174  23.034  26.446  1.00  0.00     0.197 A 
ATOM     23  C   UNL A   1      36.451  22.569  25.609  1.00  0.00     0.014 A 
ATOM     24  C   UNL A   1      36.947  22.637  23.268  1.00  0.00     0.002 A 
ATOM     25  C   UNL A   1      30.461  23.278  26.917  1.00  0.00     0.001 A 
ATOM     26  O   UNL A   1      34.556  22.925  27.607  1.00  0.00    -0.288 OA
ATOM     27  C   UNL A   1      37.369  22.441  24.577  1.00  0.00     0.001 A 
ENDBRANCH  12  13
ENDBRANCH  10  12
ENDBRANCH   7   8
BRANCH   7  28
ATOM     28  C   UNL A   1      30.338  28.275  23.686  1.00  0.00     0.070 C 
BRANCH  28  29
ATOM     29  C   UNL A   1      29.801  29.583  23.157  1.00  0.00    -0.045 A 
ATOM     30  C   UNL A   1      29.518  29.742  21.794  1.00  0.00     0.004 A 
ATOM     31  C   UNL A   1      29.542  30.650  24.033  1.00  0.00     0.004 A 
ATOM     32  C   UNL A   1      28.935  30.923  21.327  1.00  0.00     0.000 A 
ATOM     33  C   UNL A   1      28.963  31.831  23.562  1.00  0.00     0.000 A 
ATOM     34  C   UNL A   1      28.647  31.962  22.211  1.00  0.00     0.000 A 
ENDBRANCH  28  29
ENDBRANCH   7  28
ENDBRANCH   4   7
ENDBRANCH   2   3
ENDBRANCH   1   2
BRANCH   1  35
ATOM     35  C   UNL A   1      31.757  29.517  26.905  1.00  0.00     0.023 C 
BRANCH  35  36
ATOM     36  C   UNL A   1      32.673  30.596  26.339  1.00  0.00     0.116 C 
BRANCH  36  37
ATOM     37  N   UNL A   1      32.458  31.924  26.903  1.00  0.00    -0.352 N 
ATOM     38  C   UNL A   1      33.331  32.680  27.655  1.00  0.00     0.251 C 
ATOM     39  H   UNL A   1      31.580  32.330  26.724  1.00  0.00     0.163 HD
ATOM     40  O   UNL A   1      33.011  33.771  28.098  1.00  0.00    -0.269 OA
BRANCH  38  41
ATOM     41  C   UNL A   1      34.657  32.105  27.955  1.00  0.00     0.039 A 
ATOM     42  C   UNL A   1      34.759  30.767  28.338  1.00  0.00     0.014 A 
ATOM     43  C   UNL A   1      35.769  32.950  27.987  1.00  0.00     0.014 A 
ATOM     44  C   UNL A   1      35.933  30.324  28.931  1.00  0.00     0.010 A 
ATOM     45  C   UNL A   1      36.972  32.475  28.513  1.00  0.00     0.010 A 
ATOM     46  C   UNL A   1      37.041  31.180  29.051  1.00  0.00    -0.014 A 
BRANCH  46  47
ATOM     47  C   UNL A   1      38.239  30.703  29.787  1.00  0.00     0.031 A 
ATOM     48  C   UNL A   1      38.459  31.085  31.226  1.00  0.00     0.074 A 
ATOM     49  C   UNL A   1      39.078  29.844  29.180  1.00  0.00     0.049 A 
ATOM     50  N   UNL A   1      39.404  30.696  32.046  1.00  0.00    -0.248 NA
ATOM     51  C   UNL A   1      37.497  32.023  31.828  1.00  0.00     0.031 C 
ATOM     52  C   UNL A   1      38.955  29.391  27.795  1.00  0.00     0.029 A 
ATOM     53  N   UNL A   1      40.168  29.166  29.660  1.00  0.00    -0.354 N 
ATOM     54  C   UNL A   1      39.160  31.352  33.247  1.00  0.00     0.074 A 
ATOM     55  C   UNL A   1      37.994  32.184  33.047  1.00  0.00     0.031 C 
ATOM     56  C   UNL A   1      39.889  28.458  27.556  1.00  0.00     0.029 A 
ATOM     57  C   UNL A   1      40.707  28.288  28.752  1.00  0.00     0.049 A 
ATOM     58  H   UNL A   1      40.530  29.296  30.565  1.00  0.00     0.167 HD
ATOM     59  C   UNL A   1      39.841  31.257  34.413  1.00  0.00     0.037 A 
ATOM     60  C   UNL A   1      41.743  27.437  28.871  1.00  0.00     0.037 A 
ATOM     61  C   UNL A   1      40.981  30.403  34.624  1.00  0.00     0.049 A 
ATOM     62  C   UNL A   1      42.494  27.370  30.169  1.00  0.00     0.074 A 
ATOM     63  C   UNL A   1      41.720  30.219  35.780  1.00  0.00     0.029 A 
ATOM     64  N   UNL A   1      41.541  29.582  33.656  1.00  0.00    -0.354 N 
ATOM     65  N   UNL A   1      42.254  27.998  31.293  1.00  0.00    -0.248 NA
ATOM     66  C   UNL A   1      43.669  26.490  30.208  1.00  0.00     0.031 C 
ATOM     67  C   UNL A   1      42.748  29.313  35.504  1.00  0.00     0.029 A 
ATOM     68  C   UNL A   1      42.628  28.904  34.185  1.00  0.00     0.049 A 
ATOM     69  H   UNL A   1      41.215  29.494  32.731  1.00  0.00     0.167 HD
ATOM     70  C   UNL A   1      43.242  27.588  32.175  1.00  0.00     0.074 A 
ATOM     71  C   UNL A   1      44.074  26.640  31.463  1.00  0.00     0.031 C 
ATOM     72  C   UNL A   1      43.447  27.971  33.458  1.00  0.00     0.037 A 
BRANCH  59  73
ATOM     73  C   UNL A   1      39.380  32.097  35.566  1.00  0.00     0.064 A 
ATOM     74  C   UNL A   1      38.476  31.602  36.517  1.00  0.00     0.173 A 
ATOM     75  C   UNL A   1      39.908  33.381  35.766  1.00  0.00     0.173 A 
ATOM     76  F   UNL A   1      37.937  30.384  36.365  1.00  0.00    -0.203 F 
ATOM     77  C   UNL A   1      38.111  32.367  37.622  1.00  0.00     0.198 A 
ATOM     78  C   UNL A   1      39.557  34.135  36.882  1.00  0.00     0.198 A 
ATOM     79  F   UNL A   1      40.782  33.896  34.888  1.00  0.00    -0.203 F 
ATOM     80  F   UNL A   1      37.229  31.883  38.508  1.00  0.00    -0.200 F 
ATOM     81  C   UNL A   1      38.657  33.628  37.808  1.00  0.00     0.200 A 
ATOM     82  F   UNL A   1      40.095  35.348  37.067  1.00  0.00    -0.200 F 
ATOM     83  F   UNL A   1      38.318  34.356  38.882  1.00  0.00    -0.200 F 
ENDBRANCH  59  73
BRANCH  60  84
ATOM     84  C   UNL A   1      42.109  26.571  27.724  1.00  0.00     0.064 A 
ATOM     85  C   UNL A   1      43.111  26.958  26.825  1.00  0.00     0.173 A 
ATOM     86  C   UNL A   1      41.497  25.325  27.529  1.00  0.00     0.173 A 
ATOM     87  F   UNL A   1      43.711  28.150  26.963  1.00  0.00    -0.203 F 
ATOM     88  C   UNL A   1      43.486  26.129  25.770  1.00  0.00     0.198 A 
ATOM     89  C   UNL A   1      41.889  24.487  26.488  1.00  0.00     0.198 A 
ATOM     90  F   UNL A   1      40.536  24.911  28.367  1.00  0.00    -0.203 F 
ATOM     91  F   UNL A   1      44.431  26.531  24.909  1.00  0.00    -0.200 F 
ATOM     92  C   UNL A   1      42.882  24.891  25.608  1.00  0.00     0.200 A 
ATOM     93  F   UNL A   1      41.314  23.286  26.345  1.00  0.00    -0.200 F 
ATOM     94  F   UNL A   1      43.254  24.088  24.603  1.00  0.00    -0.200 F 
ENDBRANCH  60  84
BRANCH  72  95
ATOM     95  C   UNL A   1      44.618  27.371  34.176  1.00  0.00     0.064 A 
ATOM     96  C   UNL A   1      44.479  26.201  34.935  1.00  0.00     0.173 A 
ATOM     97  C   UNL A   1      45.897  27.934  34.053  1.00  0.00     0.173 A 
ATOM     98  F   UNL A   1      43.273  25.637  35.092  1.00  0.00    -0.203 F 
ATOM     99  C   UNL A   1      45.582  25.618  35.554  1.00  0.00     0.198 A 
ATOM    100  C   UNL A   1      46.999  27.337  34.657  1.00  0.00     0.198 A 
ATOM    101  F   UNL A   1      46.078  29.051  33.332  1.00  0.00    -0.203 F 
ATOM    102  F   UNL A   1      45.424  24.515  36.298  1.00  0.00    -0.200 F 
ATOM    103  C   UNL A   1      46.840  26.182  35.409  1.00  0.00     0.200 A 
ATOM    104  F   UNL A   1      48.217  27.876  34.508  1.00  0.00    -0.200 F 
ATOM    105  F   UNL A   1      47.902  25.614  35.997  1.00  0.00    -0.200 F 
ENDBRANCH  72  95
ENDBRANCH  46  47
ENDBRANCH  38  41
ENDBRANCH  36  37
ENDBRANCH  35  36
ENDBRANCH   1  35
TORSDOF 16
ENDMDL
MODEL 3
REMARK VINA RESULT:     -13.7      2.066      3.112
REMARK SMILES O=C(Cn1c2ccccc2c(=O)c2ccccc21)N[C@@H](Cc1ccccc1)C(=O)NCCCCNC(=O)c1ccc(-c2c3nc(c(-c4c(F)c(F)c(F)c(F)c4F)c4ccc([nH]4)c(-c4c(F)c(F)c(F)c(F)c4F)c4nc(c(-c5c(F)c(F)c(F)c(F)c5F)c5ccc2[nH]5)C=C4)C=C3)cc1
REMARK SMILES IDX 32 1 31 2 30 3 28 4 29 5 20 7 19 8 1 9 2 10 3 12 4 13 5 14
REMARK SMILES IDX 18 15 6 16 10 17 13 18 17 19 7 20 9 21 11 22 14 23 16 24
REMARK SMILES IDX 8 25 12 26 15 27 21 28 22 29 23 30 27 31 24 32 26 33 25 34
REMARK SMILES IDX 33 35 34 36 35 37 36 38 37 40 38 41 39 42 100 43 40 44 99 45
REMARK SMILES IDX 41 46 42 47 43 48 93 49 44 50 98 51 92 52 94 53 45 54 97 55
REMARK SMILES IDX 91 56 90 57 46 59 78 60 58 61 77 62 59 63 62 64 76 65 95 66
REMARK SMILES IDX 60 67 61 68 75 70 96 71 63 72 47 73 48 74 56 75 49 76 50 77
REMARK SMILES IDX 54 78 57 79 51 80 52 81 55 82 53 83 79 84 80 85 88 86 81 87
REMARK SMILES IDX 82 88 86 89 89 90 83 91 84 92 87 93 85 94 64 95 65 96 73 97
REMARK SMILES IDX 66 98 67 99 71 100 74 101 68 102 69 103 72 104 70 105
REMARK H PARENT 30 6 19 11 35 39 94 58 62 69
REMARK Flexibility Score: inf
ROOT
ATOM      1  C   UNL A   1      32.881  30.147  27.006  1.00  0.00     0.023 C 
ENDROOT
BRANCH   1   2
ATOM      2  C   UNL A   1      32.676  29.434  25.681  1.00  0.00     0.116 C 
BRANCH   2   3
ATOM      3  N   UNL A   1      31.411  28.730  25.584  1.00  0.00    -0.354 N 
ATOM      4  C   UNL A   1      30.962  27.902  24.591  1.00  0.00     0.242 C 
ATOM      5  O   UNL A   1      30.144  27.033  24.908  1.00  0.00    -0.273 OA
ATOM      6  H   UNL A   1      30.792  28.867  26.336  1.00  0.00     0.163 HD
BRANCH   4   7
ATOM      7  C   UNL A   1      31.510  27.981  23.151  1.00  0.00     0.175 C 
BRANCH   7   8
ATOM      8  N   UNL A   1      31.974  26.667  22.690  1.00  0.00    -0.342 N 
ATOM      9  O   UNL A   1      33.994  26.750  23.756  1.00  0.00    -0.273 OA
ATOM     10  C   UNL A   1      33.121  26.096  23.189  1.00  0.00     0.240 C 
ATOM     11  H   UNL A   1      31.452  26.183  22.009  1.00  0.00     0.164 HD
BRANCH  10  12
ATOM     12  C   UNL A   1      33.267  24.585  22.968  1.00  0.00     0.222 C 
BRANCH  12  13
ATOM     13  N   UNL A   1      33.582  23.753  24.172  1.00  0.00    -0.331 N 
ATOM     14  C   UNL A   1      32.516  23.510  25.087  1.00  0.00     0.053 A 
ATOM     15  C   UNL A   1      34.812  23.055  24.288  1.00  0.00     0.053 A 
ATOM     16  C   UNL A   1      31.181  23.900  24.868  1.00  0.00     0.027 A 
ATOM     17  C   UNL A   1      32.764  22.807  26.284  1.00  0.00     0.046 A 
ATOM     18  C   UNL A   1      35.136  22.402  25.497  1.00  0.00     0.046 A 
ATOM     19  C   UNL A   1      35.779  22.973  23.274  1.00  0.00     0.027 A 
ATOM     20  C   UNL A   1      30.164  23.619  25.795  1.00  0.00     0.002 A 
ATOM     21  C   UNL A   1      31.750  22.520  27.214  1.00  0.00     0.014 A 
ATOM     22  C   UNL A   1      34.130  22.337  26.574  1.00  0.00     0.197 A 
ATOM     23  C   UNL A   1      36.387  21.807  25.722  1.00  0.00     0.014 A 
ATOM     24  C   UNL A   1      37.038  22.393  23.495  1.00  0.00     0.002 A 
ATOM     25  C   UNL A   1      30.447  22.930  26.967  1.00  0.00     0.001 A 
ATOM     26  O   UNL A   1      34.420  21.893  27.681  1.00  0.00    -0.288 OA
ATOM     27  C   UNL A   1      37.349  21.824  24.724  1.00  0.00     0.001 A 
ENDBRANCH  12  13
ENDBRANCH  10  12
ENDBRANCH   7   8
BRANCH   7  28
ATOM     28  C   UNL A   1      30.627  28.776  22.168  1.00  0.00     0.070 C 
BRANCH  28  29
ATOM     29  C   UNL A   1      29.500  29.593  22.752  1.00  0.00    -0.045 A 
ATOM     30  C   UNL A   1      29.722  30.901  23.203  1.00  0.00     0.004 A 
ATOM     31  C   UNL A   1      28.200  29.065  22.817  1.00  0.00     0.004 A 
ATOM     32  C   UNL A   1      28.657  31.683  23.656  1.00  0.00     0.000 A 
ATOM     33  C   UNL A   1      27.138  29.848  23.275  1.00  0.00     0.000 A 
ATOM     34  C   UNL A   1      27.364  31.161  23.682  1.00  0.00     0.000 A 
ENDBRANCH  28  29
ENDBRANCH   7  28
ENDBRANCH   4   7
ENDBRANCH   2   3
ENDBRANCH   1   2
BRANCH   1  35
ATOM     35  C   UNL A   1      32.270  31.540  27.085  1.00  0.00     0.023 C 
BRANCH  35  36
ATOM     36  C   UNL A   1      33.253  32.665  27.386  1.00  0.00     0.116 C 
BRANCH  36  37
ATOM     37  N   UNL A   1      32.626  33.946  27.694  1.00  0.00    -0.352 N 
ATOM     38  C   UNL A   1      33.019  34.882  28.627  1.00  0.00     0.251 C 
ATOM     39  H   UNL A   1      31.822  34.169  27.172  1.00  0.00     0.163 HD
ATOM     40  O   UNL A   1      32.381  35.906  28.810  1.00  0.00    -0.269 OA
BRANCH  38  41
ATOM     41  C   UNL A   1      34.216  34.585  29.438  1.00  0.00     0.039 A 
ATOM     42  C   UNL A   1      35.485  34.803  28.901  1.00  0.00     0.014 A 
ATOM     43  C   UNL A   1      34.056  33.957  30.676  1.00  0.00     0.014 A 
ATOM     44  C   UNL A   1      36.586  34.224  29.517  1.00  0.00     0.010 A 
ATOM     45  C   UNL A   1      35.177  33.445  31.331  1.00  0.00     0.010 A 
ATOM     46  C   UNL A   1      36.440  33.516  30.723  1.00  0.00    -0.014 A 
BRANCH  46  47
ATOM     47  C   UNL A   1      37.621  32.821  31.293  1.00  0.00     0.031 A 
ATOM     48  C   UNL A   1      38.095  33.129  32.688  1.00  0.00     0.074 A 
ATOM     49  C   UNL A   1      38.207  31.840  30.581  1.00  0.00     0.049 A 
ATOM     50  N   UNL A   1      39.056  32.563  33.375  1.00  0.00    -0.248 NA
ATOM     51  C   UNL A   1      37.402  34.208  33.410  1.00  0.00     0.031 C 
ATOM     52  C   UNL A   1      37.823  31.443  29.227  1.00  0.00     0.029 A 
ATOM     53  N   UNL A   1      39.214  30.971  30.913  1.00  0.00    -0.354 N 
ATOM     54  C   UNL A   1      39.094  33.226  34.595  1.00  0.00     0.074 A 
ATOM     55  C   UNL A   1      38.078  34.254  34.551  1.00  0.00     0.031 C 
ATOM     56  C   UNL A   1      38.537  30.367  28.868  1.00  0.00     0.029 A 
ATOM     57  C   UNL A   1      39.464  30.031  29.944  1.00  0.00     0.049 A 
ATOM     58  H   UNL A   1      39.711  31.017  31.761  1.00  0.00     0.167 HD
ATOM     59  C   UNL A   1      39.897  32.989  35.660  1.00  0.00     0.037 A 
ATOM     60  C   UNL A   1      40.340  29.009  29.925  1.00  0.00     0.037 A 
ATOM     61  C   UNL A   1      40.885  31.944  35.719  1.00  0.00     0.049 A 
ATOM     62  C   UNL A   1      41.233  28.785  31.111  1.00  0.00     0.074 A 
ATOM     63  C   UNL A   1      41.726  31.610  36.765  1.00  0.00     0.029 A 
ATOM     64  N   UNL A   1      41.157  31.057  34.687  1.00  0.00    -0.354 N 
ATOM     65  N   UNL A   1      41.259  29.421  32.255  1.00  0.00    -0.248 NA
ATOM     66  C   UNL A   1      42.228  27.711  30.995  1.00  0.00     0.031 C 
ATOM     67  C   UNL A   1      42.532  30.542  36.357  1.00  0.00     0.029 A 
ATOM     68  C   UNL A   1      42.167  30.189  35.067  1.00  0.00     0.049 A 
ATOM     69  H   UNL A   1      40.701  31.047  33.815  1.00  0.00     0.167 HD
ATOM     70  C   UNL A   1      42.267  28.826  32.998  1.00  0.00     0.074 A 
ATOM     71  C   UNL A   1      42.816  27.761  32.184  1.00  0.00     0.031 C 
ATOM     72  C   UNL A   1      42.705  29.141  34.240  1.00  0.00     0.037 A 
BRANCH  59  73
ATOM     73  C   UNL A   1      39.748  33.874  36.862  1.00  0.00     0.064 A 
ATOM     74  C   UNL A   1      40.360  35.134  36.922  1.00  0.00     0.173 A 
ATOM     75  C   UNL A   1      38.921  33.490  37.928  1.00  0.00     0.173 A 
ATOM     76  F   UNL A   1      41.166  35.541  35.932  1.00  0.00    -0.203 F 
ATOM     77  C   UNL A   1      40.155  35.976  38.013  1.00  0.00     0.198 A 
ATOM     78  C   UNL A   1      38.703  34.343  39.007  1.00  0.00     0.198 A 
ATOM     79  F   UNL A   1      38.308  32.298  37.913  1.00  0.00    -0.203 F 
ATOM     80  F   UNL A   1      40.766  37.168  38.061  1.00  0.00    -0.200 F 
ATOM     81  C   UNL A   1      39.321  35.583  39.050  1.00  0.00     0.200 A 
ATOM     82  F   UNL A   1      37.887  33.967  40.002  1.00  0.00    -0.200 F 
ATOM     83  F   UNL A   1      39.112  36.402  40.091  1.00  0.00    -0.200 F 
ENDBRANCH  59  73
BRANCH  60  84
ATOM     84  C   UNL A   1      40.392  28.116  28.743  1.00  0.00     0.064 A 
ATOM     85  C   UNL A   1      41.167  28.449  27.626  1.00  0.00     0.173 A 
ATOM     86  C   UNL A   1      39.702  26.895  28.722  1.00  0.00     0.173 A 
ATOM     87  F   UNL A   1      41.830  29.615  27.594  1.00  0.00    -0.203 F 
ATOM     88  C   UNL A   1      41.251  27.594  26.530  1.00  0.00     0.198 A 
ATOM     89  C   UNL A   1      39.805  26.030  27.636  1.00  0.00     0.198 A 
ATOM     90  F   UNL A   1      38.950  26.531  29.771  1.00  0.00    -0.203 F 
ATOM     91  F   UNL A   1      41.982  27.945  25.462  1.00  0.00    -0.200 F 
ATOM     92  C   UNL A   1      40.577  26.381  26.539  1.00  0.00     0.200 A 
ATOM     93  F   UNL A   1      39.165  24.854  27.657  1.00  0.00    -0.200 F 
ATOM     94  F   UNL A   1      40.670  25.552  25.492  1.00  0.00    -0.200 F 
ENDBRANCH  60  84
BRANCH  72  95
ATOM     95  C   UNL A   1      43.836  28.330  34.797  1.00  0.00     0.064 A 
ATOM     96  C   UNL A   1      43.598  27.131  35.483  1.00  0.00     0.173 A 
ATOM     97  C   UNL A   1      45.166  28.721  34.587  1.00  0.00     0.173 A 
ATOM     98  F   UNL A   1      42.341  26.726  35.718  1.00  0.00    -0.203 F 
ATOM     99  C   UNL A   1      44.655  26.355  35.949  1.00  0.00     0.198 A 
ATOM    100  C   UNL A   1      46.221  27.932  35.037  1.00  0.00     0.198 A 
ATOM    101  F   UNL A   1      45.442  29.859  33.931  1.00  0.00    -0.203 F 
ATOM    102  F   UNL A   1      44.407  25.226  36.626  1.00  0.00    -0.200 F 
ATOM    103  C   UNL A   1      45.964  26.752  35.720  1.00  0.00     0.200 A 
ATOM    104  F   UNL A   1      47.485  28.311  34.807  1.00  0.00    -0.200 F 
ATOM    105  F   UNL A   1      46.981  25.998  36.160  1.00  0.00    -0.200 F 
ENDBRANCH  72  95
ENDBRANCH  46  47
ENDBRANCH  38  41
ENDBRANCH  36  37
ENDBRANCH  35  36
ENDBRANCH   1  35
TORSDOF 16
ENDMDL
