MODEL 1
REMARK VINA RESULT:     -11.1      0.000      0.000
REMARK SMILES C[NH2+][C@@]1(C(=O)NCCCCNC(=O)c2ccc(-c3c4nc(c(-c5c(F)c(F)c(F)c(F)c5F)c5ccc([nH]5)c(-c5c(F)c(F)c(F)c(F)c5F)c5nc(c(-c6c(F)c(F)c(F)c(F)c6F)c6ccc3[nH]6)C=C5)C=C4)cc2)CCC[C@H]1CCOC
REMARK SMILES IDX 8 1 7 2 6 3 4 4 5 5 3 7 77 8 80 9 78 10 79 11 2 12 1 13
REMARK SMILES IDX 81 16 82 17 83 18 84 19 9 20 10 21 11 22 12 23 13 25 14 26
REMARK SMILES IDX 15 27 76 28 16 29 75 30 17 31 18 32 19 33 69 34 20 35 74 36
REMARK SMILES IDX 68 37 70 38 21 39 73 40 67 41 66 42 22 44 54 45 34 46 53 47
REMARK SMILES IDX 35 48 38 49 52 50 71 51 36 52 37 53 51 55 72 56 39 57 23 58
REMARK SMILES IDX 24 59 32 60 25 61 26 62 30 63 33 64 27 65 28 66 31 67 29 68
REMARK SMILES IDX 55 69 56 70 64 71 57 72 58 73 62 74 65 75 59 76 60 77 63 78
REMARK SMILES IDX 61 79 40 80 41 81 49 82 42 83 43 84 47 85 50 86 44 87 45 88
REMARK SMILES IDX 48 89 46 90
REMARK H PARENT 6 6 2 14 2 15 11 24 70 43 38 54
REMARK Flexibility Score: inf
ROOT
ATOM      1  C   UNL A   1      31.695  30.477  26.559  1.00  0.00     0.023 C 
ENDROOT
BRANCH   1   2
ATOM      2  C   UNL A   1      33.099  29.991  26.228  1.00  0.00     0.116 C 
BRANCH   2   3
ATOM      3  N   UNL A   1      33.323  29.790  24.819  1.00  0.00    -0.351 N 
ATOM      4  C   UNL A   1      33.035  28.774  23.962  1.00  0.00     0.281 C 
ATOM      5  O   UNL A   1      33.091  29.144  22.780  1.00  0.00    -0.268 OA
ATOM      6  H   UNL A   1      33.780  30.547  24.386  1.00  0.00     0.163 HD
BRANCH   4   7
ATOM      7  C   UNL A   1      32.606  27.286  24.378  1.00  0.00     0.178 C 
ATOM      8  C   UNL A   1      32.609  26.396  23.107  1.00  0.00     0.079 C 
ATOM      9  C   UNL A   1      31.151  27.151  24.957  1.00  0.00     0.063 C 
ATOM     10  C   UNL A   1      31.181  26.166  22.658  1.00  0.00     0.008 C 
ATOM     11  C   UNL A   1      30.291  26.494  23.841  1.00  0.00     0.011 C 
BRANCH   7  12
ATOM     12  N   UNL A   1      33.607  26.641  25.297  1.00  0.00    -0.336 N 
ATOM     13  C   UNL A   1      34.321  25.451  24.853  1.00  0.00     0.331 C 
ATOM     14  H   UNL A   1      34.311  27.347  25.513  1.00  0.00     0.346 HD
ATOM     15  H   UNL A   1      33.038  26.305  26.073  1.00  0.00     0.346 HD
ENDBRANCH   7  12
BRANCH   9  16
ATOM     16  C   UNL A   1      30.919  26.272  26.218  1.00  0.00     0.039 C 
BRANCH  16  17
ATOM     17  C   UNL A   1      29.916  25.124  26.171  1.00  0.00     0.160 C 
BRANCH  17  18
ATOM     18  O   UNL A   1      30.343  23.991  26.922  1.00  0.00    -0.385 OA
ATOM     19  C   UNL A   1      31.739  23.748  26.874  1.00  0.00     0.194 C 
ENDBRANCH  17  18
ENDBRANCH  16  17
ENDBRANCH   9  16
ENDBRANCH   4   7
ENDBRANCH   2   3
ENDBRANCH   1   2
BRANCH   1  20
ATOM     20  C   UNL A   1      31.528  31.993  26.616  1.00  0.00     0.023 C 
BRANCH  20  21
ATOM     21  C   UNL A   1      32.681  32.766  27.249  1.00  0.00     0.116 C 
BRANCH  21  22
ATOM     22  N   UNL A   1      32.348  34.132  27.623  1.00  0.00    -0.352 N 
ATOM     23  C   UNL A   1      32.965  34.941  28.551  1.00  0.00     0.251 C 
ATOM     24  H   UNL A   1      31.581  34.531  27.150  1.00  0.00     0.163 HD
ATOM     25  O   UNL A   1      32.534  36.058  28.796  1.00  0.00    -0.269 OA
BRANCH  23  26
ATOM     26  C   UNL A   1      34.133  34.416  29.289  1.00  0.00     0.039 A 
ATOM     27  C   UNL A   1      33.921  33.771  30.508  1.00  0.00     0.014 A 
ATOM     28  C   UNL A   1      35.414  34.501  28.741  1.00  0.00     0.014 A 
ATOM     29  C   UNL A   1      34.987  33.133  31.142  1.00  0.00     0.010 A 
ATOM     30  C   UNL A   1      36.460  33.805  29.336  1.00  0.00     0.010 A 
ATOM     31  C   UNL A   1      36.255  33.108  30.537  1.00  0.00    -0.014 A 
BRANCH  31  32
ATOM     32  C   UNL A   1      37.377  32.348  31.139  1.00  0.00     0.031 A 
ATOM     33  C   UNL A   1      37.864  32.694  32.517  1.00  0.00     0.074 A 
ATOM     34  C   UNL A   1      38.007  31.403  30.415  1.00  0.00     0.049 A 
ATOM     35  N   UNL A   1      38.878  32.204  33.184  1.00  0.00    -0.248 NA
ATOM     36  C   UNL A   1      37.134  33.756  33.226  1.00  0.00     0.031 C 
ATOM     37  C   UNL A   1      37.666  31.019  29.043  1.00  0.00     0.029 A 
ATOM     38  N   UNL A   1      39.075  30.600  30.726  1.00  0.00    -0.354 N 
ATOM     39  C   UNL A   1      38.918  32.910  34.380  1.00  0.00     0.074 A 
ATOM     40  C   UNL A   1      37.860  33.896  34.325  1.00  0.00     0.031 C 
ATOM     41  C   UNL A   1      38.493  30.041  28.640  1.00  0.00     0.029 A 
ATOM     42  C   UNL A   1      39.442  29.750  29.711  1.00  0.00     0.049 A 
ATOM     43  H   UNL A   1      39.536  30.631  31.596  1.00  0.00     0.167 HD
ATOM     44  C   UNL A   1      39.745  32.733  35.436  1.00  0.00     0.037 A 
ATOM     45  C   UNL A   1      40.432  28.841  29.653  1.00  0.00     0.037 A 
ATOM     46  C   UNL A   1      40.771  31.728  35.501  1.00  0.00     0.049 A 
ATOM     47  C   UNL A   1      41.322  28.647  30.851  1.00  0.00     0.074 A 
ATOM     48  C   UNL A   1      41.617  31.424  36.552  1.00  0.00     0.029 A 
ATOM     49  N   UNL A   1      41.087  30.858  34.467  1.00  0.00    -0.354 N 
ATOM     50  N   UNL A   1      41.304  29.272  32.002  1.00  0.00    -0.248 NA
ATOM     51  C   UNL A   1      42.363  27.616  30.742  1.00  0.00     0.031 C 
ATOM     52  C   UNL A   1      42.468  30.391  36.143  1.00  0.00     0.029 A 
ATOM     53  C   UNL A   1      42.126  30.026  34.850  1.00  0.00     0.049 A 
ATOM     54  H   UNL A   1      40.639  30.836  33.590  1.00  0.00     0.167 HD
ATOM     55  C   UNL A   1      42.310  28.694  32.766  1.00  0.00     0.074 A 
ATOM     56  C   UNL A   1      42.911  27.659  31.950  1.00  0.00     0.031 C 
ATOM     57  C   UNL A   1      42.702  28.994  34.027  1.00  0.00     0.037 A 
BRANCH  44  58
ATOM     58  C   UNL A   1      39.563  33.646  36.614  1.00  0.00     0.064 A 
ATOM     59  C   UNL A   1      38.750  33.287  37.700  1.00  0.00     0.173 A 
ATOM     60  C   UNL A   1      40.228  34.879  36.669  1.00  0.00     0.173 A 
ATOM     61  F   UNL A   1      38.081  32.124  37.688  1.00  0.00    -0.203 F 
ATOM     62  C   UNL A   1      38.585  34.145  38.784  1.00  0.00     0.198 A 
ATOM     63  C   UNL A   1      40.082  35.722  37.769  1.00  0.00     0.198 A 
ATOM     64  F   UNL A   1      41.020  35.268  35.659  1.00  0.00    -0.203 F 
ATOM     65  F   UNL A   1      37.762  33.804  39.786  1.00  0.00    -0.200 F 
ATOM     66  C   UNL A   1      39.256  35.357  38.820  1.00  0.00     0.200 A 
ATOM     67  F   UNL A   1      40.740  36.890  37.808  1.00  0.00    -0.200 F 
ATOM     68  F   UNL A   1      39.098  36.181  39.866  1.00  0.00    -0.200 F 
ENDBRANCH  44  58
BRANCH  45  69
ATOM     69  C   UNL A   1      40.612  28.015  28.431  1.00  0.00     0.064 A 
ATOM     70  C   UNL A   1      40.006  26.755  28.321  1.00  0.00     0.173 A 
ATOM     71  C   UNL A   1      41.390  28.463  27.354  1.00  0.00     0.173 A 
ATOM     72  F   UNL A   1      39.269  26.278  29.334  1.00  0.00    -0.203 F 
ATOM     73  C   UNL A   1      40.187  25.966  27.188  1.00  0.00     0.198 A 
ATOM     74  C   UNL A   1      41.550  27.682  26.210  1.00  0.00     0.198 A 
ATOM     75  F   UNL A   1      41.986  29.662  27.407  1.00  0.00    -0.203 F 
ATOM     76  F   UNL A   1      39.631  24.749  27.127  1.00  0.00    -0.200 F 
ATOM     77  C   UNL A   1      40.955  26.432  26.131  1.00  0.00     0.200 A 
ATOM     78  F   UNL A   1      42.282  28.141  25.185  1.00  0.00    -0.200 F 
ATOM     79  F   UNL A   1      41.127  25.673  25.040  1.00  0.00    -0.200 F 
ENDBRANCH  45  69
BRANCH  57  80
ATOM     80  C   UNL A   1      43.810  28.172  34.616  1.00  0.00     0.064 A 
ATOM     81  C   UNL A   1      45.147  28.590  34.551  1.00  0.00     0.173 A 
ATOM     82  C   UNL A   1      43.524  26.974  35.287  1.00  0.00     0.173 A 
ATOM     83  F   UNL A   1      45.471  29.720  33.904  1.00  0.00    -0.203 F 
ATOM     84  C   UNL A   1      46.161  27.825  35.119  1.00  0.00     0.198 A 
ATOM     85  C   UNL A   1      44.538  26.226  35.878  1.00  0.00     0.198 A 
ATOM     86  F   UNL A   1      42.260  26.536  35.381  1.00  0.00    -0.203 F 
ATOM     87  F   UNL A   1      47.437  28.219  35.009  1.00  0.00    -0.200 F 
ATOM     88  C   UNL A   1      45.856  26.648  35.788  1.00  0.00     0.200 A 
ATOM     89  F   UNL A   1      44.239  25.096  36.533  1.00  0.00    -0.200 F 
ATOM     90  F   UNL A   1      46.833  25.917  36.341  1.00  0.00    -0.200 F 
ENDBRANCH  57  80
ENDBRANCH  31  32
ENDBRANCH  23  26
ENDBRANCH  21  22
ENDBRANCH  20  21
ENDBRANCH   1  20
TORSDOF 15
ENDMDL
MODEL 2
REMARK VINA RESULT:     -11.1      0.678      7.463
REMARK SMILES C[NH2+][C@@]1(C(=O)NCCCCNC(=O)c2ccc(-c3c4nc(c(-c5c(F)c(F)c(F)c(F)c5F)c5ccc([nH]5)c(-c5c(F)c(F)c(F)c(F)c5F)c5nc(c(-c6c(F)c(F)c(F)c(F)c6F)c6ccc3[nH]6)C=C5)C=C4)cc2)CCC[C@H]1CCOC
REMARK SMILES IDX 8 1 7 2 6 3 4 4 5 5 3 7 77 8 80 9 78 10 79 11 2 12 1 13
REMARK SMILES IDX 81 16 82 17 83 18 84 19 9 20 10 21 11 22 12 23 13 25 14 26
REMARK SMILES IDX 15 27 76 28 16 29 75 30 17 31 18 32 19 33 69 34 20 35 74 36
REMARK SMILES IDX 68 37 70 38 21 39 73 40 67 41 66 42 22 44 54 45 34 46 53 47
REMARK SMILES IDX 35 48 38 49 52 50 71 51 36 52 37 53 51 55 72 56 39 57 23 58
REMARK SMILES IDX 24 59 32 60 25 61 26 62 30 63 33 64 27 65 28 66 31 67 29 68
REMARK SMILES IDX 55 69 56 70 64 71 57 72 58 73 62 74 65 75 59 76 60 77 63 78
REMARK SMILES IDX 61 79 40 80 41 81 49 82 42 83 43 84 47 85 50 86 44 87 45 88
REMARK SMILES IDX 48 89 46 90
REMARK H PARENT 6 6 2 14 2 15 11 24 70 43 38 54
REMARK Flexibility Score: inf
ROOT
ATOM      1  C   UNL A   1      31.931  30.304  26.888  1.00  0.00     0.023 C 
ENDROOT
BRANCH   1   2
ATOM      2  C   UNL A   1      33.317  29.765  26.564  1.00  0.00     0.116 C 
BRANCH   2   3
ATOM      3  N   UNL A   1      33.585  29.674  25.151  1.00  0.00    -0.351 N 
ATOM      4  C   UNL A   1      33.260  28.763  24.195  1.00  0.00     0.281 C 
ATOM      5  O   UNL A   1      33.392  29.232  23.055  1.00  0.00    -0.268 OA
ATOM      6  H   UNL A   1      34.113  30.430  24.805  1.00  0.00     0.163 HD
BRANCH   4   7
ATOM      7  C   UNL A   1      32.707  27.281  24.457  1.00  0.00     0.178 C 
ATOM      8  C   UNL A   1      32.637  26.531  23.100  1.00  0.00     0.079 C 
ATOM      9  C   UNL A   1      31.246  27.208  25.030  1.00  0.00     0.063 C 
ATOM     10  C   UNL A   1      31.196  26.470  22.640  1.00  0.00     0.008 C 
ATOM     11  C   UNL A   1      30.334  26.746  23.858  1.00  0.00     0.011 C 
BRANCH   7  12
ATOM     12  N   UNL A   1      33.649  26.462  25.296  1.00  0.00    -0.336 N 
ATOM     13  C   UNL A   1      34.343  25.330  24.694  1.00  0.00     0.331 C 
ATOM     14  H   UNL A   1      34.366  27.099  25.645  1.00  0.00     0.346 HD
ATOM     15  H   UNL A   1      33.039  26.030  25.989  1.00  0.00     0.346 HD
ENDBRANCH   7  12
BRANCH   9  16
ATOM     16  C   UNL A   1      30.939  26.225  26.193  1.00  0.00     0.039 C 
BRANCH  16  17
ATOM     17  C   UNL A   1      30.853  24.726  25.922  1.00  0.00     0.160 C 
BRANCH  17  18
ATOM     18  O   UNL A   1      30.774  23.956  27.118  1.00  0.00    -0.385 OA
ATOM     19  C   UNL A   1      29.740  22.986  27.123  1.00  0.00     0.194 C 
ENDBRANCH  17  18
ENDBRANCH  16  17
ENDBRANCH   9  16
ENDBRANCH   4   7
ENDBRANCH   2   3
ENDBRANCH   1   2
BRANCH   1  20
ATOM     20  C   UNL A   1      31.772  31.815  26.745  1.00  0.00     0.023 C 
BRANCH  20  21
ATOM     21  C   UNL A   1      32.850  32.664  27.411  1.00  0.00     0.116 C 
BRANCH  21  22
ATOM     22  N   UNL A   1      32.450  34.038  27.673  1.00  0.00    -0.352 N 
ATOM     23  C   UNL A   1      33.009  34.941  28.550  1.00  0.00     0.251 C 
ATOM     24  H   UNL A   1      31.679  34.366  27.156  1.00  0.00     0.163 HD
ATOM     25  O   UNL A   1      32.524  36.053  28.701  1.00  0.00    -0.269 OA
BRANCH  23  26
ATOM     26  C   UNL A   1      34.180  34.525  29.350  1.00  0.00     0.039 A 
ATOM     27  C   UNL A   1      33.966  33.954  30.606  1.00  0.00     0.014 A 
ATOM     28  C   UNL A   1      35.470  34.635  28.829  1.00  0.00     0.014 A 
ATOM     29  C   UNL A   1      35.044  33.414  31.307  1.00  0.00     0.010 A 
ATOM     30  C   UNL A   1      36.532  34.034  29.495  1.00  0.00     0.010 A 
ATOM     31  C   UNL A   1      36.328  33.411  30.736  1.00  0.00    -0.014 A 
BRANCH  31  32
ATOM     32  C   UNL A   1      37.468  32.749  31.415  1.00  0.00     0.031 A 
ATOM     33  C   UNL A   1      38.176  31.604  30.748  1.00  0.00     0.074 A 
ATOM     34  C   UNL A   1      37.813  33.127  32.661  1.00  0.00     0.049 A 
ATOM     35  N   UNL A   1      39.139  30.846  31.207  1.00  0.00    -0.248 NA
ATOM     36  C   UNL A   1      37.717  31.243  29.398  1.00  0.00     0.031 C 
ATOM     37  C   UNL A   1      37.161  34.184  33.436  1.00  0.00     0.029 A 
ATOM     38  N   UNL A   1      38.790  32.655  33.501  1.00  0.00    -0.354 N 
ATOM     39  C   UNL A   1      39.387  29.909  30.213  1.00  0.00     0.074 A 
ATOM     40  C   UNL A   1      38.439  30.161  29.148  1.00  0.00     0.031 C 
ATOM     41  C   UNL A   1      37.771  34.296  34.628  1.00  0.00     0.029 A 
ATOM     42  C   UNL A   1      38.834  33.300  34.714  1.00  0.00     0.049 A 
ATOM     43  H   UNL A   1      39.403  31.924  33.257  1.00  0.00     0.167 HD
ATOM     44  C   UNL A   1      40.335  28.944  30.181  1.00  0.00     0.037 A 
ATOM     45  C   UNL A   1      39.640  33.104  35.774  1.00  0.00     0.037 A 
ATOM     46  C   UNL A   1      41.298  28.721  31.226  1.00  0.00     0.049 A 
ATOM     47  C   UNL A   1      40.702  32.041  35.702  1.00  0.00     0.074 A 
ATOM     48  C   UNL A   1      42.341  27.814  31.259  1.00  0.00     0.029 A 
ATOM     49  N   UNL A   1      41.335  29.420  32.423  1.00  0.00    -0.354 N 
ATOM     50  N   UNL A   1      40.973  31.208  34.727  1.00  0.00    -0.248 NA
ATOM     51  C   UNL A   1      41.575  31.898  36.875  1.00  0.00     0.031 C 
ATOM     52  C   UNL A   1      42.991  27.940  32.492  1.00  0.00     0.029 A 
ATOM     53  C   UNL A   1      42.376  28.954  33.210  1.00  0.00     0.049 A 
ATOM     54  H   UNL A   1      40.714  30.140  32.677  1.00  0.00     0.167 HD
ATOM     55  C   UNL A   1      42.061  30.461  35.155  1.00  0.00     0.074 A 
ATOM     56  C   UNL A   1      42.410  30.948  36.474  1.00  0.00     0.031 C 
ATOM     57  C   UNL A   1      42.713  29.460  34.515  1.00  0.00     0.037 A 
BRANCH  44  58
ATOM     58  C   UNL A   1      40.380  28.062  28.967  1.00  0.00     0.064 A 
ATOM     59  C   UNL A   1      39.666  26.856  28.911  1.00  0.00     0.173 A 
ATOM     60  C   UNL A   1      41.122  28.439  27.839  1.00  0.00     0.173 A 
ATOM     61  F   UNL A   1      38.952  26.444  29.970  1.00  0.00    -0.203 F 
ATOM     62  C   UNL A   1      39.721  26.043  27.783  1.00  0.00     0.198 A 
ATOM     63  C   UNL A   1      41.151  27.638  26.700  1.00  0.00     0.198 A 
ATOM     64  F   UNL A   1      41.819  29.586  27.839  1.00  0.00    -0.203 F 
ATOM     65  F   UNL A   1      39.073  24.870  27.772  1.00  0.00    -0.200 F 
ATOM     66  C   UNL A   1      40.457  26.438  26.676  1.00  0.00     0.200 A 
ATOM     67  F   UNL A   1      41.855  28.025  25.627  1.00  0.00    -0.200 F 
ATOM     68  F   UNL A   1      40.506  25.656  25.588  1.00  0.00    -0.200 F 
ENDBRANCH  44  58
BRANCH  45  69
ATOM     69  C   UNL A   1      39.501  33.960  36.980  1.00  0.00     0.064 A 
ATOM     70  C   UNL A   1      38.741  33.533  38.079  1.00  0.00     0.173 A 
ATOM     71  C   UNL A   1      40.118  35.217  37.061  1.00  0.00     0.173 A 
ATOM     72  F   UNL A   1      38.117  32.347  38.038  1.00  0.00    -0.203 F 
ATOM     73  C   UNL A   1      38.587  34.338  39.204  1.00  0.00     0.198 A 
ATOM     74  C   UNL A   1      39.983  36.011  38.198  1.00  0.00     0.198 A 
ATOM     75  F   UNL A   1      40.859  35.669  36.039  1.00  0.00    -0.203 F 
ATOM     76  F   UNL A   1      37.821  33.923  40.222  1.00  0.00    -0.200 F 
ATOM     77  C   UNL A   1      39.212  35.574  39.265  1.00  0.00     0.200 A 
ATOM     78  F   UNL A   1      40.599  37.200  38.259  1.00  0.00    -0.200 F 
ATOM     79  F   UNL A   1      39.066  36.348  40.350  1.00  0.00    -0.200 F 
ENDBRANCH  45  69
BRANCH  57  80
ATOM     80  C   UNL A   1      43.890  28.848  35.217  1.00  0.00     0.064 A 
ATOM     81  C   UNL A   1      45.188  29.347  35.042  1.00  0.00     0.173 A 
ATOM     82  C   UNL A   1      43.707  27.777  36.104  1.00  0.00     0.173 A 
ATOM     83  F   UNL A   1      45.414  30.360  34.190  1.00  0.00    -0.203 F 
ATOM     84  C   UNL A   1      46.266  28.780  35.715  1.00  0.00     0.198 A 
ATOM     85  C   UNL A   1      44.784  27.231  36.796  1.00  0.00     0.198 A 
ATOM     86  F   UNL A   1      42.483  27.269  36.308  1.00  0.00    -0.203 F 
ATOM     87  F   UNL A   1      47.506  29.243  35.502  1.00  0.00    -0.200 F 
ATOM     88  C   UNL A   1      46.063  27.728  36.596  1.00  0.00     0.200 A 
ATOM     89  F   UNL A   1      44.583  26.222  37.655  1.00  0.00    -0.200 F 
ATOM     90  F   UNL A   1      47.102  27.188  37.249  1.00  0.00    -0.200 F 
ENDBRANCH  57  80
ENDBRANCH  31  32
ENDBRANCH  23  26
ENDBRANCH  21  22
ENDBRANCH  20  21
ENDBRANCH   1  20
TORSDOF 15
ENDMDL
MODEL 3
REMARK VINA RESULT:     -11.1      0.313      2.032
REMARK SMILES C[NH2+][C@@]1(C(=O)NCCCCNC(=O)c2ccc(-c3c4nc(c(-c5c(F)c(F)c(F)c(F)c5F)c5ccc([nH]5)c(-c5c(F)c(F)c(F)c(F)c5F)c5nc(c(-c6c(F)c(F)c(F)c(F)c6F)c6ccc3[nH]6)C=C5)C=C4)cc2)CCC[C@H]1CCOC
REMARK SMILES IDX 8 1 7 2 6 3 4 4 5 5 3 7 77 8 80 9 78 10 79 11 2 12 1 13
REMARK SMILES IDX 81 16 82 17 83 18 84 19 9 20 10 21 11 22 12 23 13 25 14 26
REMARK SMILES IDX 15 27 76 28 16 29 75 30 17 31 18 32 19 33 69 34 20 35 74 36
REMARK SMILES IDX 68 37 70 38 21 39 73 40 67 41 66 42 22 44 54 45 34 46 53 47
REMARK SMILES IDX 35 48 38 49 52 50 71 51 36 52 37 53 51 55 72 56 39 57 23 58
REMARK SMILES IDX 24 59 32 60 25 61 26 62 30 63 33 64 27 65 28 66 31 67 29 68
REMARK SMILES IDX 55 69 56 70 64 71 57 72 58 73 62 74 65 75 59 76 60 77 63 78
REMARK SMILES IDX 61 79 40 80 41 81 49 82 42 83 43 84 47 85 50 86 44 87 45 88
REMARK SMILES IDX 48 89 46 90
REMARK H PARENT 6 6 2 14 2 15 11 24 70 43 38 54
REMARK Flexibility Score: inf
ROOT
ATOM      1  C   UNL A   1      31.800  30.675  25.951  1.00  0.00     0.023 C 
ENDROOT
BRANCH   1   2
ATOM      2  C   UNL A   1      33.112  29.948  26.211  1.00  0.00     0.116 C 
BRANCH   2   3
ATOM      3  N   UNL A   1      33.760  29.482  25.011  1.00  0.00    -0.351 N 
ATOM      4  C   UNL A   1      33.609  28.374  24.237  1.00  0.00     0.281 C 
ATOM      5  O   UNL A   1      34.123  28.526  23.119  1.00  0.00    -0.268 OA
ATOM      6  H   UNL A   1      34.459  30.094  24.683  1.00  0.00     0.163 HD
BRANCH   4   7
ATOM      7  C   UNL A   1      32.818  27.041  24.646  1.00  0.00     0.178 C 
ATOM      8  C   UNL A   1      32.956  26.009  23.495  1.00  0.00     0.079 C 
ATOM      9  C   UNL A   1      31.269  27.221  24.839  1.00  0.00     0.063 C 
ATOM     10  C   UNL A   1      31.660  25.962  22.713  1.00  0.00     0.008 C 
ATOM     11  C   UNL A   1      30.592  26.579  23.596  1.00  0.00     0.011 C 
BRANCH   7  12
ATOM     12  N   UNL A   1      33.428  26.362  25.841  1.00  0.00    -0.336 N 
ATOM     13  C   UNL A   1      34.324  25.231  25.641  1.00  0.00     0.331 C 
ATOM     14  H   UNL A   1      33.954  27.072  26.351  1.00  0.00     0.346 HD
ATOM     15  H   UNL A   1      32.626  25.952  26.319  1.00  0.00     0.346 HD
ENDBRANCH   7  12
BRANCH   9  16
ATOM     16  C   UNL A   1      30.578  26.558  26.063  1.00  0.00     0.039 C 
BRANCH  16  17
ATOM     17  C   UNL A   1      30.247  25.069  26.037  1.00  0.00     0.160 C 
BRANCH  17  18
ATOM     18  O   UNL A   1      31.150  24.292  26.821  1.00  0.00    -0.385 OA
ATOM     19  C   UNL A   1      31.252  22.935  26.424  1.00  0.00     0.194 C 
ENDBRANCH  17  18
ENDBRANCH  16  17
ENDBRANCH   9  16
ENDBRANCH   4   7
ENDBRANCH   2   3
ENDBRANCH   1   2
BRANCH   1  20
ATOM     20  C   UNL A   1      31.516  31.853  26.879  1.00  0.00     0.023 C 
BRANCH  20  21
ATOM     21  C   UNL A   1      32.722  32.705  27.263  1.00  0.00     0.116 C 
BRANCH  21  22
ATOM     22  N   UNL A   1      32.395  34.078  27.615  1.00  0.00    -0.352 N 
ATOM     23  C   UNL A   1      33.005  34.894  28.541  1.00  0.00     0.251 C 
ATOM     24  H   UNL A   1      31.637  34.476  27.128  1.00  0.00     0.163 HD
ATOM     25  O   UNL A   1      32.579  36.017  28.767  1.00  0.00    -0.269 OA
BRANCH  23  26
ATOM     26  C   UNL A   1      34.159  34.370  29.301  1.00  0.00     0.039 A 
ATOM     27  C   UNL A   1      33.919  33.590  30.433  1.00  0.00     0.014 A 
ATOM     28  C   UNL A   1      35.463  34.591  28.852  1.00  0.00     0.014 A 
ATOM     29  C   UNL A   1      34.986  32.958  31.071  1.00  0.00     0.010 A 
ATOM     30  C   UNL A   1      36.517  33.904  29.444  1.00  0.00     0.010 A 
ATOM     31  C   UNL A   1      36.288  33.076  30.554  1.00  0.00    -0.014 A 
BRANCH  31  32
ATOM     32  C   UNL A   1      37.421  32.330  31.152  1.00  0.00     0.031 A 
ATOM     33  C   UNL A   1      37.919  32.692  32.522  1.00  0.00     0.074 A 
ATOM     34  C   UNL A   1      38.051  31.383  30.430  1.00  0.00     0.049 A 
ATOM     35  N   UNL A   1      38.942  32.216  33.184  1.00  0.00    -0.248 NA
ATOM     36  C   UNL A   1      37.187  33.755  33.228  1.00  0.00     0.031 C 
ATOM     37  C   UNL A   1      37.700  30.984  29.065  1.00  0.00     0.029 A 
ATOM     38  N   UNL A   1      39.129  30.591  30.739  1.00  0.00    -0.354 N 
ATOM     39  C   UNL A   1      38.988  32.932  34.373  1.00  0.00     0.074 A 
ATOM     40  C   UNL A   1      37.922  33.910  34.319  1.00  0.00     0.031 C 
ATOM     41  C   UNL A   1      38.531  30.009  28.664  1.00  0.00     0.029 A 
ATOM     42  C   UNL A   1      39.492  29.734  29.728  1.00  0.00     0.049 A 
ATOM     43  H   UNL A   1      39.597  30.633  31.604  1.00  0.00     0.167 HD
ATOM     44  C   UNL A   1      39.826  32.771  35.423  1.00  0.00     0.037 A 
ATOM     45  C   UNL A   1      40.489  28.832  29.669  1.00  0.00     0.037 A 
ATOM     46  C   UNL A   1      40.861  31.775  35.487  1.00  0.00     0.049 A 
ATOM     47  C   UNL A   1      41.391  28.656  30.860  1.00  0.00     0.074 A 
ATOM     48  C   UNL A   1      41.718  31.486  36.532  1.00  0.00     0.029 A 
ATOM     49  N   UNL A   1      41.173  30.898  34.458  1.00  0.00    -0.354 N 
ATOM     50  N   UNL A   1      41.379  29.291  32.006  1.00  0.00    -0.248 NA
ATOM     51  C   UNL A   1      42.439  27.632  30.751  1.00  0.00     0.031 C 
ATOM     52  C   UNL A   1      42.574  30.457  36.125  1.00  0.00     0.029 A 
ATOM     53  C   UNL A   1      42.222  30.077  34.839  1.00  0.00     0.049 A 
ATOM     54  H   UNL A   1      40.717  30.865  33.586  1.00  0.00     0.167 HD
ATOM     55  C   UNL A   1      42.396  28.728  32.764  1.00  0.00     0.074 A 
ATOM     56  C   UNL A   1      42.998  27.690  31.952  1.00  0.00     0.031 C 
ATOM     57  C   UNL A   1      42.798  29.042  34.019  1.00  0.00     0.037 A 
BRANCH  44  58
ATOM     58  C   UNL A   1      39.648  33.694  36.594  1.00  0.00     0.064 A 
ATOM     59  C   UNL A   1      40.269  34.951  36.637  1.00  0.00     0.173 A 
ATOM     60  C   UNL A   1      38.829  33.328  37.671  1.00  0.00     0.173 A 
ATOM     61  F   UNL A   1      41.075  35.341  35.637  1.00  0.00    -0.203 F 
ATOM     62  C   UNL A   1      40.102  35.794  37.732  1.00  0.00     0.198 A 
ATOM     63  C   UNL A   1      38.640  34.187  38.751  1.00  0.00     0.198 A 
ATOM     64  F   UNL A   1      38.208  32.138  37.677  1.00  0.00    -0.203 F 
ATOM     65  F   UNL A   1      40.747  36.969  37.775  1.00  0.00    -0.200 F 
ATOM     66  C   UNL A   1      39.283  35.415  38.784  1.00  0.00     0.200 A 
ATOM     67  F   UNL A   1      37.840  33.823  39.763  1.00  0.00    -0.200 F 
ATOM     68  F   UNL A   1      39.120  36.230  39.835  1.00  0.00    -0.200 F 
ENDBRANCH  44  58
BRANCH  45  69
ATOM     69  C   UNL A   1      40.663  27.997  28.452  1.00  0.00     0.064 A 
ATOM     70  C   UNL A   1      41.446  28.448  27.380  1.00  0.00     0.173 A 
ATOM     71  C   UNL A   1      40.054  26.739  28.334  1.00  0.00     0.173 A 
ATOM     72  F   UNL A   1      42.033  29.652  27.440  1.00  0.00    -0.203 F 
ATOM     73  C   UNL A   1      41.597  27.681  26.227  1.00  0.00     0.198 A 
ATOM     74  C   UNL A   1      40.226  25.963  27.190  1.00  0.00     0.198 A 
ATOM     75  F   UNL A   1      39.300  26.261  29.334  1.00  0.00    -0.203 F 
ATOM     76  F   UNL A   1      42.316  28.154  25.200  1.00  0.00    -0.200 F 
ATOM     77  C   UNL A   1      40.991  26.437  26.135  1.00  0.00     0.200 A 
ATOM     78  F   UNL A   1      39.650  24.755  27.110  1.00  0.00    -0.200 F 
ATOM     79  F   UNL A   1      41.139  25.698  25.027  1.00  0.00    -0.200 F 
ENDBRANCH  45  69
BRANCH  57  80
ATOM     80  C   UNL A   1      43.918  28.234  34.605  1.00  0.00     0.064 A 
ATOM     81  C   UNL A   1      43.676  27.033  35.287  1.00  0.00     0.173 A 
ATOM     82  C   UNL A   1      45.249  28.647  34.445  1.00  0.00     0.173 A 
ATOM     83  F   UNL A   1      42.418  26.607  35.480  1.00  0.00    -0.203 F 
ATOM     84  C   UNL A   1      44.728  26.285  35.808  1.00  0.00     0.198 A 
ATOM     85  C   UNL A   1      46.299  27.881  34.943  1.00  0.00     0.198 A 
ATOM     86  F   UNL A   1      45.531  29.785  33.795  1.00  0.00    -0.203 F 
ATOM     87  F   UNL A   1      44.474  25.162  36.494  1.00  0.00    -0.200 F 
ATOM     88  C   UNL A   1      46.038  26.705  35.630  1.00  0.00     0.200 A 
ATOM     89  F   UNL A   1      47.564  28.284  34.760  1.00  0.00    -0.200 F 
ATOM     90  F   UNL A   1      47.050  25.979  36.126  1.00  0.00    -0.200 F 
ENDBRANCH  57  80
ENDBRANCH  31  32
ENDBRANCH  23  26
ENDBRANCH  21  22
ENDBRANCH  20  21
ENDBRANCH   1  20
TORSDOF 15
ENDMDL
