MODEL 1
REMARK VINA RESULT:     -11.6      0.000      0.000
REMARK SMILES O=C(COCc1ccccc1)NC[C@H]1CC[C@@H](C(=O)NCCCCNC(=O)c2ccc(-c3c4nc(c(-c5c(F)c(F)c(F)c(F)c5F)c5ccc([nH]5)c(-c5c(F)c(F)c(F)c(F)c5F)c5nc(c(-c6c(F)c(F)c(F)c(F)c6F)c6ccc3[nH]6)C=C5)C=C4)cc2)O1
REMARK SMILES IDX 18 1 19 2 20 3 17 5 14 6 15 7 91 8 16 9 13 10 12 11 1 12
REMARK SMILES IDX 2 13 3 15 4 16 5 17 6 18 7 19 11 20 8 21 10 22 9 23 21 24
REMARK SMILES IDX 22 25 23 26 24 27 25 28 26 29 27 31 28 32 29 33 90 34 30 35
REMARK SMILES IDX 89 36 31 37 32 38 33 39 83 40 34 41 88 42 82 43 84 44 35 45
REMARK SMILES IDX 87 46 81 47 80 48 36 50 68 51 48 52 67 53 49 54 52 55 66 56
REMARK SMILES IDX 85 57 50 58 51 59 65 61 86 62 53 63 37 64 38 65 46 66 39 67
REMARK SMILES IDX 40 68 44 69 47 70 41 71 42 72 45 73 43 74 69 75 70 76 78 77
REMARK SMILES IDX 71 78 72 79 76 80 79 81 73 82 74 83 77 84 75 85 54 86 55 87
REMARK SMILES IDX 63 88 56 89 57 90 61 91 64 92 58 93 59 94 62 95 60 96
REMARK H PARENT 20 4 12 14 25 30 84 49 52 60
REMARK Flexibility Score: inf
ROOT
ATOM      1  C   UNL A   1      33.622  28.287  24.823  1.00  0.00     0.249 C 
ATOM      2  O   UNL A   1      33.975  27.999  23.678  1.00  0.00    -0.272 OA
ATOM      3  N   UNL A   1      33.667  29.600  25.211  1.00  0.00    -0.354 N 
ATOM      4  H   UNL A   1      34.014  30.239  24.546  1.00  0.00     0.163 HD
ENDROOT
BRANCH   1   5
ATOM      5  C   UNL A   1      33.234  27.224  25.869  1.00  0.00     0.207 C 
ATOM      6  C   UNL A   1      31.551  25.591  25.980  1.00  0.00     0.138 C 
ATOM      7  C   UNL A   1      32.889  24.926  26.256  1.00  0.00     0.037 C 
ATOM      8  O   UNL A   1      31.818  27.000  25.967  1.00  0.00    -0.363 OA
ATOM      9  C   UNL A   1      33.865  25.868  25.597  1.00  0.00     0.045 C 
BRANCH   6  10
ATOM     10  C   UNL A   1      30.940  25.159  24.637  1.00  0.00     0.147 C 
BRANCH  10  11
ATOM     11  N   UNL A   1      31.174  23.756  24.337  1.00  0.00    -0.351 N 
ATOM     12  O   UNL A   1      32.561  24.094  22.525  1.00  0.00    -0.272 OA
ATOM     13  C   UNL A   1      32.003  23.339  23.315  1.00  0.00     0.246 C 
ATOM     14  H   UNL A   1      30.723  23.074  24.885  1.00  0.00     0.163 HD
BRANCH  13  15
ATOM     15  C   UNL A   1      32.196  21.817  23.275  1.00  0.00     0.260 C 
BRANCH  15  16
ATOM     16  O   UNL A   1      32.637  21.228  24.495  1.00  0.00    -0.367 OA
BRANCH  16  17
ATOM     17  C   UNL A   1      33.980  20.737  24.465  1.00  0.00     0.196 C 
BRANCH  17  18
ATOM     18  C   UNL A   1      35.025  21.787  24.751  1.00  0.00    -0.022 A 
ATOM     19  C   UNL A   1      35.313  22.166  26.072  1.00  0.00     0.006 A 
ATOM     20  C   UNL A   1      35.735  22.393  23.705  1.00  0.00     0.006 A 
ATOM     21  C   UNL A   1      36.284  23.133  26.339  1.00  0.00     0.000 A 
ATOM     22  C   UNL A   1      36.718  23.347  23.975  1.00  0.00     0.000 A 
ATOM     23  C   UNL A   1      36.988  23.720  25.291  1.00  0.00     0.000 A 
ENDBRANCH  17  18
ENDBRANCH  16  17
ENDBRANCH  15  16
ENDBRANCH  13  15
ENDBRANCH  10  11
ENDBRANCH   6  10
ENDBRANCH   1   5
BRANCH   3  24
ATOM     24  C   UNL A   1      33.262  30.158  26.486  1.00  0.00     0.116 C 
BRANCH  24  25
ATOM     25  C   UNL A   1      31.795  30.573  26.501  1.00  0.00     0.023 C 
BRANCH  25  26
ATOM     26  C   UNL A   1      31.540  32.052  26.781  1.00  0.00     0.023 C 
BRANCH  26  27
ATOM     27  C   UNL A   1      32.729  32.822  27.340  1.00  0.00     0.116 C 
BRANCH  27  28
ATOM     28  N   UNL A   1      32.410  34.201  27.679  1.00  0.00    -0.352 N 
ATOM     29  C   UNL A   1      32.980  35.027  28.617  1.00  0.00     0.251 C 
ATOM     30  H   UNL A   1      31.676  34.602  27.158  1.00  0.00     0.163 HD
ATOM     31  O   UNL A   1      32.494  36.130  28.851  1.00  0.00    -0.269 OA
BRANCH  29  32
ATOM     32  C   UNL A   1      34.163  34.568  29.374  1.00  0.00     0.039 A 
ATOM     33  C   UNL A   1      33.985  34.057  30.662  1.00  0.00     0.014 A 
ATOM     34  C   UNL A   1      35.438  34.615  28.804  1.00  0.00     0.014 A 
ATOM     35  C   UNL A   1      35.074  33.513  31.345  1.00  0.00     0.010 A 
ATOM     36  C   UNL A   1      36.504  33.999  29.451  1.00  0.00     0.010 A 
ATOM     37  C   UNL A   1      36.333  33.437  30.726  1.00  0.00    -0.014 A 
BRANCH  37  38
ATOM     38  C   UNL A   1      37.481  32.767  31.387  1.00  0.00     0.031 A 
ATOM     39  C   UNL A   1      38.145  31.588  30.734  1.00  0.00     0.074 A 
ATOM     40  C   UNL A   1      37.873  33.169  32.612  1.00  0.00     0.049 A 
ATOM     41  N   UNL A   1      39.096  30.814  31.191  1.00  0.00    -0.248 NA
ATOM     42  C   UNL A   1      37.653  31.211  29.400  1.00  0.00     0.031 C 
ATOM     43  C   UNL A   1      37.274  34.265  33.375  1.00  0.00     0.029 A 
ATOM     44  N   UNL A   1      38.856  32.689  33.440  1.00  0.00    -0.354 N 
ATOM     45  C   UNL A   1      39.300  29.849  30.213  1.00  0.00     0.074 A 
ATOM     46  C   UNL A   1      38.341  30.104  29.160  1.00  0.00     0.031 C 
ATOM     47  C   UNL A   1      37.913  34.387  34.549  1.00  0.00     0.029 A 
ATOM     48  C   UNL A   1      38.940  33.353  34.640  1.00  0.00     0.049 A 
ATOM     49  H   UNL A   1      39.447  31.939  33.197  1.00  0.00     0.167 HD
ATOM     50  C   UNL A   1      40.219  28.856  30.186  1.00  0.00     0.037 A 
ATOM     51  C   UNL A   1      39.746  33.145  35.699  1.00  0.00     0.037 A 
ATOM     52  C   UNL A   1      41.192  28.624  31.221  1.00  0.00     0.049 A 
ATOM     53  C   UNL A   1      40.761  32.035  35.641  1.00  0.00     0.074 A 
ATOM     54  C   UNL A   1      42.211  27.689  31.254  1.00  0.00     0.029 A 
ATOM     55  N   UNL A   1      41.263  29.336  32.410  1.00  0.00    -0.354 N 
ATOM     56  N   UNL A   1      40.996  31.176  34.680  1.00  0.00    -0.248 NA
ATOM     57  C   UNL A   1      41.629  31.870  36.816  1.00  0.00     0.031 C 
ATOM     58  C   UNL A   1      42.870  27.803  32.483  1.00  0.00     0.029 A 
ATOM     59  C   UNL A   1      42.295  28.844  33.194  1.00  0.00     0.049 A 
ATOM     60  H   UNL A   1      40.668  30.080  32.660  1.00  0.00     0.167 HD
ATOM     61  C   UNL A   1      42.051  30.390  35.119  1.00  0.00     0.074 A 
ATOM     62  C   UNL A   1      42.422  30.881  36.429  1.00  0.00     0.031 C 
ATOM     63  C   UNL A   1      42.658  29.352  34.493  1.00  0.00     0.037 A 
BRANCH  50  64
ATOM     64  C   UNL A   1      40.221  27.943  28.994  1.00  0.00     0.064 A 
ATOM     65  C   UNL A   1      40.945  28.251  27.832  1.00  0.00     0.173 A 
ATOM     66  C   UNL A   1      39.519  26.728  29.028  1.00  0.00     0.173 A 
ATOM     67  F   UNL A   1      41.623  29.405  27.745  1.00  0.00    -0.203 F 
ATOM     68  C   UNL A   1      40.943  27.391  26.737  1.00  0.00     0.198 A 
ATOM     69  C   UNL A   1      39.546  25.856  27.943  1.00  0.00     0.198 A 
ATOM     70  F   UNL A   1      38.816  26.382  30.116  1.00  0.00    -0.203 F 
ATOM     71  F   UNL A   1      41.602  27.729  25.620  1.00  0.00    -0.200 F 
ATOM     72  C   UNL A   1      40.251  26.191  26.796  1.00  0.00     0.200 A 
ATOM     73  F   UNL A   1      38.887  24.691  28.006  1.00  0.00    -0.200 F 
ATOM     74  F   UNL A   1      40.257  25.360  25.745  1.00  0.00    -0.200 F 
ENDBRANCH  50  64
BRANCH  51  75
ATOM     75  C   UNL A   1      39.642  34.020  36.895  1.00  0.00     0.064 A 
ATOM     76  C   UNL A   1      40.348  35.229  36.965  1.00  0.00     0.173 A 
ATOM     77  C   UNL A   1      38.840  33.669  37.991  1.00  0.00     0.173 A 
ATOM     78  F   UNL A   1      41.145  35.598  35.951  1.00  0.00    -0.203 F 
ATOM     79  C   UNL A   1      40.273  36.044  38.093  1.00  0.00     0.198 A 
ATOM     80  C   UNL A   1      38.742  34.498  39.106  1.00  0.00     0.198 A 
ATOM     81  F   UNL A   1      38.140  32.526  37.972  1.00  0.00    -0.203 F 
ATOM     82  F   UNL A   1      40.994  37.171  38.151  1.00  0.00    -0.200 F 
ATOM     83  C   UNL A   1      39.465  35.681  39.160  1.00  0.00     0.200 A 
ATOM     84  F   UNL A   1      37.951  34.152  40.130  1.00  0.00    -0.200 F 
ATOM     85  F   UNL A   1      39.390  36.466  40.243  1.00  0.00    -0.200 F 
ENDBRANCH  51  75
BRANCH  63  86
ATOM     86  C   UNL A   1      43.812  28.700  35.198  1.00  0.00     0.064 A 
ATOM     87  C   UNL A   1      43.628  27.601  36.050  1.00  0.00     0.173 A 
ATOM     88  C   UNL A   1      45.122  29.151  34.980  1.00  0.00     0.173 A 
ATOM     89  F   UNL A   1      42.393  27.142  36.304  1.00  0.00    -0.203 F 
ATOM     90  C   UNL A   1      44.713  26.992  36.675  1.00  0.00     0.198 A 
ATOM     91  C   UNL A   1      46.206  28.521  35.582  1.00  0.00     0.198 A 
ATOM     92  F   UNL A   1      45.351  30.194  34.168  1.00  0.00    -0.203 F 
ATOM     93  F   UNL A   1      44.511  25.972  37.520  1.00  0.00    -0.200 F 
ATOM     94  C   UNL A   1      46.001  27.447  36.434  1.00  0.00     0.200 A 
ATOM     95  F   UNL A   1      47.451  28.953  35.337  1.00  0.00    -0.200 F 
ATOM     96  F   UNL A   1      47.045  26.853  37.029  1.00  0.00    -0.200 F 
ENDBRANCH  63  86
ENDBRANCH  37  38
ENDBRANCH  29  32
ENDBRANCH  27  28
ENDBRANCH  26  27
ENDBRANCH  25  26
ENDBRANCH  24  25
ENDBRANCH   3  24
TORSDOF 17
ENDMDL
MODEL 2
REMARK VINA RESULT:     -11.3      1.054      2.119
REMARK SMILES O=C(COCc1ccccc1)NC[C@H]1CC[C@@H](C(=O)NCCCCNC(=O)c2ccc(-c3c4nc(c(-c5c(F)c(F)c(F)c(F)c5F)c5ccc([nH]5)c(-c5c(F)c(F)c(F)c(F)c5F)c5nc(c(-c6c(F)c(F)c(F)c(F)c6F)c6ccc3[nH]6)C=C5)C=C4)cc2)O1
REMARK SMILES IDX 18 1 19 2 20 3 17 5 14 6 15 7 91 8 16 9 13 10 12 11 1 12
REMARK SMILES IDX 2 13 3 15 4 16 5 17 6 18 7 19 11 20 8 21 10 22 9 23 21 24
REMARK SMILES IDX 22 25 23 26 24 27 25 28 26 29 27 31 28 32 29 33 90 34 30 35
REMARK SMILES IDX 89 36 31 37 32 38 33 39 83 40 34 41 88 42 82 43 84 44 35 45
REMARK SMILES IDX 87 46 81 47 80 48 36 50 68 51 48 52 67 53 49 54 52 55 66 56
REMARK SMILES IDX 85 57 50 58 51 59 65 61 86 62 53 63 37 64 38 65 46 66 39 67
REMARK SMILES IDX 40 68 44 69 47 70 41 71 42 72 45 73 43 74 69 75 70 76 78 77
REMARK SMILES IDX 71 78 72 79 76 80 79 81 73 82 74 83 77 84 75 85 54 86 55 87
REMARK SMILES IDX 63 88 56 89 57 90 61 91 64 92 58 93 59 94 62 95 60 96
REMARK H PARENT 20 4 12 14 25 30 84 49 52 60
REMARK Flexibility Score: inf
ROOT
ATOM      1  C   UNL A   1      33.027  27.407  25.679  1.00  0.00     0.249 C 
ATOM      2  O   UNL A   1      33.217  26.262  26.092  1.00  0.00    -0.272 OA
ATOM      3  N   UNL A   1      33.201  28.453  26.547  1.00  0.00    -0.354 N 
ATOM      4  H   UNL A   1      33.444  28.216  27.472  1.00  0.00     0.163 HD
ENDROOT
BRANCH   1   5
ATOM      5  C   UNL A   1      32.499  27.707  24.264  1.00  0.00     0.207 C 
ATOM      6  C   UNL A   1      31.764  26.362  22.484  1.00  0.00     0.138 C 
ATOM      7  C   UNL A   1      30.704  27.414  22.766  1.00  0.00     0.037 C 
ATOM      8  O   UNL A   1      32.896  26.736  23.281  1.00  0.00    -0.363 OA
ATOM      9  C   UNL A   1      30.982  27.784  24.201  1.00  0.00     0.045 C 
BRANCH   6  10
ATOM     10  C   UNL A   1      31.303  24.943  22.856  1.00  0.00     0.147 C 
BRANCH  10  11
ATOM     11  N   UNL A   1      32.281  24.227  23.659  1.00  0.00    -0.351 N 
ATOM     12  O   UNL A   1      32.908  22.712  22.035  1.00  0.00    -0.272 OA
ATOM     13  C   UNL A   1      33.033  23.181  23.163  1.00  0.00     0.246 C 
ATOM     14  H   UNL A   1      32.412  24.497  24.597  1.00  0.00     0.163 HD
BRANCH  13  15
ATOM     15  C   UNL A   1      34.087  22.670  24.154  1.00  0.00     0.260 C 
BRANCH  15  16
ATOM     16  O   UNL A   1      33.606  21.752  25.132  1.00  0.00    -0.367 OA
BRANCH  16  17
ATOM     17  C   UNL A   1      32.573  20.879  24.669  1.00  0.00     0.196 C 
BRANCH  17  18
ATOM     18  C   UNL A   1      33.070  19.538  24.191  1.00  0.00    -0.022 A 
ATOM     19  C   UNL A   1      32.375  18.832  23.196  1.00  0.00     0.006 A 
ATOM     20  C   UNL A   1      34.241  18.979  24.721  1.00  0.00     0.006 A 
ATOM     21  C   UNL A   1      32.837  17.593  22.748  1.00  0.00     0.000 A 
ATOM     22  C   UNL A   1      34.712  17.748  24.259  1.00  0.00     0.000 A 
ATOM     23  C   UNL A   1      34.007  17.054  23.277  1.00  0.00     0.000 A 
ENDBRANCH  17  18
ENDBRANCH  16  17
ENDBRANCH  15  16
ENDBRANCH  13  15
ENDBRANCH  10  11
ENDBRANCH   6  10
ENDBRANCH   1   5
BRANCH   3  24
ATOM     24  C   UNL A   1      33.072  29.868  26.261  1.00  0.00     0.116 C 
BRANCH  24  25
ATOM     25  C   UNL A   1      31.719  30.427  26.688  1.00  0.00     0.023 C 
BRANCH  25  26
ATOM     26  C   UNL A   1      31.608  31.949  26.666  1.00  0.00     0.023 C 
BRANCH  26  27
ATOM     27  C   UNL A   1      32.751  32.694  27.344  1.00  0.00     0.116 C 
BRANCH  27  28
ATOM     28  N   UNL A   1      32.426  34.079  27.656  1.00  0.00    -0.352 N 
ATOM     29  C   UNL A   1      32.990  34.923  28.581  1.00  0.00     0.251 C 
ATOM     30  H   UNL A   1      31.694  34.468  27.125  1.00  0.00     0.163 HD
ATOM     31  O   UNL A   1      32.501  36.029  28.793  1.00  0.00    -0.269 OA
BRANCH  29  32
ATOM     32  C   UNL A   1      34.171  34.482  29.352  1.00  0.00     0.039 A 
ATOM     33  C   UNL A   1      33.981  33.920  30.616  1.00  0.00     0.014 A 
ATOM     34  C   UNL A   1      35.456  34.594  28.816  1.00  0.00     0.014 A 
ATOM     35  C   UNL A   1      35.073  33.392  31.308  1.00  0.00     0.010 A 
ATOM     36  C   UNL A   1      36.529  33.996  29.468  1.00  0.00     0.010 A 
ATOM     37  C   UNL A   1      36.348  33.383  30.719  1.00  0.00    -0.014 A 
BRANCH  37  38
ATOM     38  C   UNL A   1      37.505  32.733  31.386  1.00  0.00     0.031 A 
ATOM     39  C   UNL A   1      38.196  31.571  30.732  1.00  0.00     0.074 A 
ATOM     40  C   UNL A   1      37.879  33.137  32.616  1.00  0.00     0.049 A 
ATOM     41  N   UNL A   1      39.159  30.812  31.193  1.00  0.00    -0.248 NA
ATOM     42  C   UNL A   1      37.722  31.190  29.392  1.00  0.00     0.031 C 
ATOM     43  C   UNL A   1      37.253  34.217  33.378  1.00  0.00     0.029 A 
ATOM     44  N   UNL A   1      38.866  32.672  33.449  1.00  0.00    -0.354 N 
ATOM     45  C   UNL A   1      39.389  29.857  30.212  1.00  0.00     0.074 A 
ATOM     46  C   UNL A   1      38.433  30.098  29.152  1.00  0.00     0.031 C 
ATOM     47  C   UNL A   1      37.881  34.346  34.558  1.00  0.00     0.029 A 
ATOM     48  C   UNL A   1      38.927  33.332  34.652  1.00  0.00     0.049 A 
ATOM     49  H   UNL A   1      39.472  31.935  33.207  1.00  0.00     0.167 HD
ATOM     50  C   UNL A   1      40.328  28.882  30.188  1.00  0.00     0.037 A 
ATOM     51  C   UNL A   1      39.729  33.135  35.716  1.00  0.00     0.037 A 
ATOM     52  C   UNL A   1      41.297  28.664  31.229  1.00  0.00     0.049 A 
ATOM     53  C   UNL A   1      40.766  32.045  35.661  1.00  0.00     0.074 A 
ATOM     54  C   UNL A   1      42.334  27.749  31.265  1.00  0.00     0.029 A 
ATOM     55  N   UNL A   1      41.345  29.371  32.422  1.00  0.00    -0.354 N 
ATOM     56  N   UNL A   1      41.025  31.195  34.698  1.00  0.00    -0.248 NA
ATOM     57  C   UNL A   1      41.629  31.891  36.842  1.00  0.00     0.031 C 
ATOM     58  C   UNL A   1      42.981  27.870  32.500  1.00  0.00     0.029 A 
ATOM     59  C   UNL A   1      42.381  28.897  33.211  1.00  0.00     0.049 A 
ATOM     60  H   UNL A   1      40.734  30.103  32.670  1.00  0.00     0.167 HD
ATOM     61  C   UNL A   1      42.092  30.428  35.141  1.00  0.00     0.074 A 
ATOM     62  C   UNL A   1      42.444  30.920  36.456  1.00  0.00     0.031 C 
ATOM     63  C   UNL A   1      42.724  29.405  34.515  1.00  0.00     0.037 A 
BRANCH  50  64
ATOM     64  C   UNL A   1      40.356  27.975  28.991  1.00  0.00     0.064 A 
ATOM     65  C   UNL A   1      41.114  28.284  27.852  1.00  0.00     0.173 A 
ATOM     66  C   UNL A   1      39.646  26.765  28.999  1.00  0.00     0.173 A 
ATOM     67  F   UNL A   1      41.802  29.433  27.789  1.00  0.00    -0.203 F 
ATOM     68  C   UNL A   1      41.137  27.429  26.752  1.00  0.00     0.198 A 
ATOM     69  C   UNL A   1      39.696  25.898  27.911  1.00  0.00     0.198 A 
ATOM     70  F   UNL A   1      38.910  26.418  30.066  1.00  0.00    -0.203 F 
ATOM     71  F   UNL A   1      41.829  27.768  25.656  1.00  0.00    -0.200 F 
ATOM     72  C   UNL A   1      40.435  26.233  26.786  1.00  0.00     0.200 A 
ATOM     73  F   UNL A   1      39.029  24.736  27.950  1.00  0.00    -0.200 F 
ATOM     74  F   UNL A   1      40.465  25.408  25.731  1.00  0.00    -0.200 F 
ENDBRANCH  50  64
BRANCH  51  75
ATOM     75  C   UNL A   1      39.599  34.002  36.915  1.00  0.00     0.064 A 
ATOM     76  C   UNL A   1      40.257  35.238  36.984  1.00  0.00     0.173 A 
ATOM     77  C   UNL A   1      38.820  33.617  38.016  1.00  0.00     0.173 A 
ATOM     78  F   UNL A   1      41.031  35.641  35.965  1.00  0.00    -0.203 F 
ATOM     79  C   UNL A   1      40.157  36.046  38.114  1.00  0.00     0.198 A 
ATOM     80  C   UNL A   1      38.697  34.438  39.134  1.00  0.00     0.198 A 
ATOM     81  F   UNL A   1      38.165  32.447  37.999  1.00  0.00    -0.203 F 
ATOM     82  F   UNL A   1      40.833  37.201  38.171  1.00  0.00    -0.200 F 
ATOM     83  C   UNL A   1      39.372  35.649  39.186  1.00  0.00     0.200 A 
ATOM     84  F   UNL A   1      37.927  34.058  40.162  1.00  0.00    -0.200 F 
ATOM     85  F   UNL A   1      39.274  36.427  40.272  1.00  0.00    -0.200 F 
ENDBRANCH  51  75
BRANCH  63  86
ATOM     86  C   UNL A   1      43.885  28.772  35.225  1.00  0.00     0.064 A 
ATOM     87  C   UNL A   1      45.200  29.215  35.025  1.00  0.00     0.173 A 
ATOM     88  C   UNL A   1      43.672  27.741  36.153  1.00  0.00     0.173 A 
ATOM     89  F   UNL A   1      45.458  30.188  34.137  1.00  0.00    -0.203 F 
ATOM     90  C   UNL A   1      46.263  28.635  35.713  1.00  0.00     0.198 A 
ATOM     91  C   UNL A   1      44.732  27.184  36.860  1.00  0.00     0.198 A 
ATOM     92  F   UNL A   1      42.432  27.286  36.385  1.00  0.00    -0.203 F 
ATOM     93  F   UNL A   1      47.517  29.043  35.474  1.00  0.00    -0.200 F 
ATOM     94  C   UNL A   1      46.027  27.625  36.635  1.00  0.00     0.200 A 
ATOM     95  F   UNL A   1      44.501  26.218  37.761  1.00  0.00    -0.200 F 
ATOM     96  F   UNL A   1      47.050  27.074  37.303  1.00  0.00    -0.200 F 
ENDBRANCH  63  86
ENDBRANCH  37  38
ENDBRANCH  29  32
ENDBRANCH  27  28
ENDBRANCH  26  27
ENDBRANCH  25  26
ENDBRANCH  24  25
ENDBRANCH   3  24
TORSDOF 17
ENDMDL
MODEL 3
REMARK VINA RESULT:     -11.3      0.641      7.269
REMARK SMILES O=C(COCc1ccccc1)NC[C@H]1CC[C@@H](C(=O)NCCCCNC(=O)c2ccc(-c3c4nc(c(-c5c(F)c(F)c(F)c(F)c5F)c5ccc([nH]5)c(-c5c(F)c(F)c(F)c(F)c5F)c5nc(c(-c6c(F)c(F)c(F)c(F)c6F)c6ccc3[nH]6)C=C5)C=C4)cc2)O1
REMARK SMILES IDX 18 1 19 2 20 3 17 5 14 6 15 7 91 8 16 9 13 10 12 11 1 12
REMARK SMILES IDX 2 13 3 15 4 16 5 17 6 18 7 19 11 20 8 21 10 22 9 23 21 24
REMARK SMILES IDX 22 25 23 26 24 27 25 28 26 29 27 31 28 32 29 33 90 34 30 35
REMARK SMILES IDX 89 36 31 37 32 38 33 39 83 40 34 41 88 42 82 43 84 44 35 45
REMARK SMILES IDX 87 46 81 47 80 48 36 50 68 51 48 52 67 53 49 54 52 55 66 56
REMARK SMILES IDX 85 57 50 58 51 59 65 61 86 62 53 63 37 64 38 65 46 66 39 67
REMARK SMILES IDX 40 68 44 69 47 70 41 71 42 72 45 73 43 74 69 75 70 76 78 77
REMARK SMILES IDX 71 78 72 79 76 80 79 81 73 82 74 83 77 84 75 85 54 86 55 87
REMARK SMILES IDX 63 88 56 89 57 90 61 91 64 92 58 93 59 94 62 95 60 96
REMARK H PARENT 20 4 12 14 25 30 84 49 52 60
REMARK Flexibility Score: inf
ROOT
ATOM      1  C   UNL A   1      33.415  28.456  24.781  1.00  0.00     0.249 C 
ATOM      2  O   UNL A   1      34.136  28.161  23.826  1.00  0.00    -0.272 OA
ATOM      3  N   UNL A   1      33.704  29.591  25.492  1.00  0.00    -0.354 N 
ATOM      4  H   UNL A   1      34.502  30.092  25.207  1.00  0.00     0.163 HD
ENDROOT
BRANCH   1   5
ATOM      5  C   UNL A   1      32.271  27.550  25.274  1.00  0.00     0.207 C 
ATOM      6  C   UNL A   1      31.009  25.838  24.280  1.00  0.00     0.138 C 
ATOM      7  C   UNL A   1      31.567  25.324  25.596  1.00  0.00     0.037 C 
ATOM      8  O   UNL A   1      31.300  27.242  24.261  1.00  0.00    -0.363 OA
ATOM      9  C   UNL A   1      32.763  26.216  25.815  1.00  0.00     0.045 C 
BRANCH   6  10
ATOM     10  C   UNL A   1      31.644  25.152  23.059  1.00  0.00     0.147 C 
BRANCH  10  11
ATOM     11  N   UNL A   1      31.653  23.703  23.168  1.00  0.00    -0.351 N 
ATOM     12  O   UNL A   1      33.582  23.350  21.954  1.00  0.00    -0.272 OA
ATOM     13  C   UNL A   1      32.652  22.918  22.628  1.00  0.00     0.246 C 
ATOM     14  H   UNL A   1      30.914  23.261  23.646  1.00  0.00     0.163 HD
BRANCH  13  15
ATOM     15  C   UNL A   1      32.514  21.432  22.983  1.00  0.00     0.260 C 
BRANCH  15  16
ATOM     16  O   UNL A   1      32.595  21.129  24.373  1.00  0.00    -0.367 OA
BRANCH  16  17
ATOM     17  C   UNL A   1      33.870  20.641  24.800  1.00  0.00     0.196 C 
BRANCH  17  18
ATOM     18  C   UNL A   1      34.915  21.717  24.967  1.00  0.00    -0.022 A 
ATOM     19  C   UNL A   1      36.136  21.638  24.279  1.00  0.00     0.006 A 
ATOM     20  C   UNL A   1      34.680  22.819  25.800  1.00  0.00     0.006 A 
ATOM     21  C   UNL A   1      37.102  22.635  24.428  1.00  0.00     0.000 A 
ATOM     22  C   UNL A   1      35.639  23.824  25.934  1.00  0.00     0.000 A 
ATOM     23  C   UNL A   1      36.852  23.730  25.252  1.00  0.00     0.000 A 
ENDBRANCH  17  18
ENDBRANCH  16  17
ENDBRANCH  15  16
ENDBRANCH  13  15
ENDBRANCH  10  11
ENDBRANCH   6  10
ENDBRANCH   1   5
BRANCH   3  24
ATOM     24  C   UNL A   1      32.969  30.139  26.614  1.00  0.00     0.116 C 
BRANCH  24  25
ATOM     25  C   UNL A   1      31.659  30.795  26.189  1.00  0.00     0.023 C 
BRANCH  25  26
ATOM     26  C   UNL A   1      31.427  32.201  26.736  1.00  0.00     0.023 C 
BRANCH  26  27
ATOM     27  C   UNL A   1      32.674  32.914  27.244  1.00  0.00     0.116 C 
BRANCH  27  28
ATOM     28  N   UNL A   1      32.415  34.279  27.680  1.00  0.00    -0.352 N 
ATOM     29  C   UNL A   1      32.998  34.999  28.694  1.00  0.00     0.251 C 
ATOM     30  H   UNL A   1      31.718  34.756  27.174  1.00  0.00     0.163 HD
ATOM     31  O   UNL A   1      32.562  36.105  29.001  1.00  0.00    -0.269 OA
BRANCH  29  32
ATOM     32  C   UNL A   1      34.133  34.422  29.444  1.00  0.00     0.039 A 
ATOM     33  C   UNL A   1      33.870  33.576  30.523  1.00  0.00     0.014 A 
ATOM     34  C   UNL A   1      35.450  34.691  29.064  1.00  0.00     0.014 A 
ATOM     35  C   UNL A   1      34.927  32.931  31.168  1.00  0.00     0.010 A 
ATOM     36  C   UNL A   1      36.495  33.986  29.653  1.00  0.00     0.010 A 
ATOM     37  C   UNL A   1      36.244  33.095  30.708  1.00  0.00    -0.014 A 
BRANCH  37  38
ATOM     38  C   UNL A   1      37.373  32.338  31.307  1.00  0.00     0.031 A 
ATOM     39  C   UNL A   1      37.906  32.724  32.657  1.00  0.00     0.074 A 
ATOM     40  C   UNL A   1      37.970  31.360  30.599  1.00  0.00     0.049 A 
ATOM     41  N   UNL A   1      38.940  32.251  33.306  1.00  0.00    -0.248 NA
ATOM     42  C   UNL A   1      37.201  33.807  33.360  1.00  0.00     0.031 C 
ATOM     43  C   UNL A   1      37.581  30.929  29.256  1.00  0.00     0.029 A 
ATOM     44  N   UNL A   1      39.044  30.562  30.904  1.00  0.00    -0.354 N 
ATOM     45  C   UNL A   1      39.020  32.990  34.479  1.00  0.00     0.074 A 
ATOM     46  C   UNL A   1      37.962  33.977  34.431  1.00  0.00     0.031 C 
ATOM     47  C   UNL A   1      38.391  29.933  28.860  1.00  0.00     0.029 A 
ATOM     48  C   UNL A   1      39.381  29.682  29.904  1.00  0.00     0.049 A 
ATOM     49  H   UNL A   1      39.528  30.614  31.760  1.00  0.00     0.167 HD
ATOM     50  C   UNL A   1      39.882  32.844  35.512  1.00  0.00     0.037 A 
ATOM     51  C   UNL A   1      40.381  28.784  29.831  1.00  0.00     0.037 A 
ATOM     52  C   UNL A   1      40.913  31.842  35.570  1.00  0.00     0.049 A 
ATOM     53  C   UNL A   1      41.324  28.640  30.994  1.00  0.00     0.074 A 
ATOM     54  C   UNL A   1      41.792  31.566  36.603  1.00  0.00     0.029 A 
ATOM     55  N   UNL A   1      41.206  30.951  34.548  1.00  0.00    -0.354 N 
ATOM     56  N   UNL A   1      41.345  29.293  32.130  1.00  0.00    -0.248 NA
ATOM     57  C   UNL A   1      42.382  27.626  30.868  1.00  0.00     0.031 C 
ATOM     58  C   UNL A   1      42.647  30.539  36.188  1.00  0.00     0.029 A 
ATOM     59  C   UNL A   1      42.268  30.139  34.917  1.00  0.00     0.049 A 
ATOM     60  H   UNL A   1      40.729  30.902  33.688  1.00  0.00     0.167 HD
ATOM     61  C   UNL A   1      42.393  28.755  32.863  1.00  0.00     0.074 A 
ATOM     62  C   UNL A   1      42.979  27.710  32.049  1.00  0.00     0.031 C 
ATOM     63  C   UNL A   1      42.832  29.097  34.099  1.00  0.00     0.037 A 
BRANCH  50  64
ATOM     64  C   UNL A   1      39.746  33.790  36.670  1.00  0.00     0.064 A 
ATOM     65  C   UNL A   1      40.399  35.032  36.686  1.00  0.00     0.173 A 
ATOM     66  C   UNL A   1      38.925  33.465  37.760  1.00  0.00     0.173 A 
ATOM     67  F   UNL A   1      41.204  35.385  35.673  1.00  0.00    -0.203 F 
ATOM     68  C   UNL A   1      40.257  35.902  37.764  1.00  0.00     0.198 A 
ATOM     69  C   UNL A   1      38.761  34.351  38.822  1.00  0.00     0.198 A 
ATOM     70  F   UNL A   1      38.274  32.293  37.793  1.00  0.00    -0.203 F 
ATOM     71  F   UNL A   1      40.929  37.062  37.780  1.00  0.00    -0.200 F 
ATOM     72  C   UNL A   1      39.432  35.565  38.827  1.00  0.00     0.200 A 
ATOM     73  F   UNL A   1      37.953  34.031  39.842  1.00  0.00    -0.200 F 
ATOM     74  F   UNL A   1      39.290  36.406  39.860  1.00  0.00    -0.200 F 
ENDBRANCH  50  64
BRANCH  51  75
ATOM     75  C   UNL A   1      40.529  27.934  28.621  1.00  0.00     0.064 A 
ATOM     76  C   UNL A   1      41.295  28.363  27.529  1.00  0.00     0.173 A 
ATOM     77  C   UNL A   1      39.908  26.680  28.528  1.00  0.00     0.173 A 
ATOM     78  F   UNL A   1      41.891  29.564  27.562  1.00  0.00    -0.203 F 
ATOM     79  C   UNL A   1      41.420  27.581  26.383  1.00  0.00     0.198 A 
ATOM     80  C   UNL A   1      40.056  25.885  27.393  1.00  0.00     0.198 A 
ATOM     81  F   UNL A   1      39.168  26.219  29.547  1.00  0.00    -0.203 F 
ATOM     82  F   UNL A   1      42.121  28.037  25.337  1.00  0.00    -0.200 F 
ATOM     83  C   UNL A   1      40.805  26.340  26.318  1.00  0.00     0.200 A 
ATOM     84  F   UNL A   1      39.472  24.681  27.339  1.00  0.00    -0.200 F 
ATOM     85  F   UNL A   1      40.927  25.587  25.217  1.00  0.00    -0.200 F 
ENDBRANCH  51  75
BRANCH  63  86
ATOM     86  C   UNL A   1      43.979  28.311  34.666  1.00  0.00     0.064 A 
ATOM     87  C   UNL A   1      45.307  28.734  34.516  1.00  0.00     0.173 A 
ATOM     88  C   UNL A   1      43.740  27.144  35.408  1.00  0.00     0.173 A 
ATOM     89  F   UNL A   1      45.589  29.835  33.802  1.00  0.00    -0.203 F 
ATOM     90  C   UNL A   1      46.357  28.007  35.071  1.00  0.00     0.198 A 
ATOM     91  C   UNL A   1      44.788  26.436  35.986  1.00  0.00     0.198 A 
ATOM     92  F   UNL A   1      42.486  26.701  35.585  1.00  0.00    -0.203 F 
ATOM     93  F   UNL A   1      47.622  28.405  34.879  1.00  0.00    -0.200 F 
ATOM     94  C   UNL A   1      46.096  26.863  35.813  1.00  0.00     0.200 A 
ATOM     95  F   UNL A   1      44.533  25.340  36.714  1.00  0.00    -0.200 F 
ATOM     96  F   UNL A   1      47.106  26.170  36.354  1.00  0.00    -0.200 F 
ENDBRANCH  63  86
ENDBRANCH  37  38
ENDBRANCH  29  32
ENDBRANCH  27  28
ENDBRANCH  26  27
ENDBRANCH  25  26
ENDBRANCH  24  25
ENDBRANCH   3  24
TORSDOF 17
ENDMDL
