MODEL 1
REMARK VINA RESULT:     -12.3      0.000      0.000
REMARK SMILES C[C@H](NC(=O)C(=O)c1ccccc1)C(=O)NCCCCNC(=O)c1ccc(-c2c3nc(c(-c4c(F)c(F)c(F)c(F)c4F)c4ccc([nH]4)c(-c4c(F)c(F)c(F)c(F)c4F)c4nc(c(-c5c(F)c(F)c(F)c(F)c5F)c5ccc2[nH]5)C=C4)C=C3)cc1
REMARK SMILES IDX 18 1 17 2 16 3 14 4 15 5 2 7 1 8 3 9 4 10 5 12 6 13 7 14
REMARK SMILES IDX 8 15 9 16 13 17 10 18 12 19 11 20 19 21 20 22 21 23 22 24
REMARK SMILES IDX 23 26 24 27 25 28 86 29 26 30 85 31 27 32 28 33 29 34 79 35
REMARK SMILES IDX 30 36 84 37 78 38 80 39 31 40 83 41 77 42 76 43 32 45 64 46
REMARK SMILES IDX 44 47 63 48 45 49 48 50 62 51 81 52 46 53 47 54 61 56 82 57
REMARK SMILES IDX 49 58 33 59 34 60 42 61 35 62 36 63 40 64 43 65 37 66 38 67
REMARK SMILES IDX 41 68 39 69 65 70 66 71 74 72 67 73 68 74 72 75 75 76 69 77
REMARK SMILES IDX 70 78 73 79 71 80 50 81 51 82 59 83 52 84 53 85 57 86 60 87
REMARK SMILES IDX 54 88 55 89 58 90 56 91
REMARK H PARENT 16 6 3 11 21 25 80 44 48 55
REMARK Flexibility Score: inf
ROOT
ATOM      1  C   UNL A   1      37.199  21.339  24.476  1.00  0.00     0.023 C 
ENDROOT
BRANCH   1   2
ATOM      2  C   UNL A   1      36.877  22.383  25.542  1.00  0.00     0.116 C 
BRANCH   2   3
ATOM      3  N   UNL A   1      35.927  21.881  26.502  1.00  0.00    -0.354 N 
ATOM      4  C   UNL A   1      34.643  22.266  26.734  1.00  0.00     0.242 C 
ATOM      5  O   UNL A   1      34.006  21.600  27.558  1.00  0.00    -0.273 OA
ATOM      6  H   UNL A   1      36.257  21.151  27.076  1.00  0.00     0.163 HD
BRANCH   4   7
ATOM      7  C   UNL A   1      33.938  23.371  25.910  1.00  0.00     0.168 C 
ATOM      8  C   UNL A   1      32.937  24.115  26.776  1.00  0.00     0.041 C 
BRANCH   7   9
ATOM      9  N   UNL A   1      33.566  23.019  24.528  1.00  0.00    -0.338 N 
ATOM     10  C   UNL A   1      32.961  21.992  23.850  1.00  0.00     0.293 C 
ATOM     11  H   UNL A   1      33.830  23.736  23.907  1.00  0.00     0.164 HD
ATOM     12  O   UNL A   1      32.808  22.126  22.637  1.00  0.00    -0.265 OA
BRANCH  10  13
ATOM     13  C   UNL A   1      32.475  20.700  24.504  1.00  0.00     0.250 C 
ATOM     14  O   UNL A   1      31.612  20.738  25.372  1.00  0.00    -0.283 OA
BRANCH  13  15
ATOM     15  C   UNL A   1      33.017  19.374  24.063  1.00  0.00     0.028 A 
ATOM     16  C   UNL A   1      34.227  18.935  24.626  1.00  0.00     0.012 A 
ATOM     17  C   UNL A   1      32.381  18.556  23.120  1.00  0.00     0.012 A 
ATOM     18  C   UNL A   1      34.779  17.703  24.263  1.00  0.00     0.001 A 
ATOM     19  C   UNL A   1      32.942  17.328  22.749  1.00  0.00     0.001 A 
ATOM     20  C   UNL A   1      34.136  16.901  23.324  1.00  0.00     0.000 A 
ENDBRANCH  13  15
ENDBRANCH  10  13
ENDBRANCH   7   9
ENDBRANCH   4   7
ENDBRANCH   2   3
ENDBRANCH   1   2
BRANCH   1  21
ATOM     21  C   UNL A   1      37.923  20.097  25.001  1.00  0.00     0.023 C 
BRANCH  21  22
ATOM     22  C   UNL A   1      39.225  20.374  25.748  1.00  0.00     0.116 C 
BRANCH  22  23
ATOM     23  N   UNL A   1      40.102  19.216  25.854  1.00  0.00    -0.352 N 
ATOM     24  C   UNL A   1      41.451  19.190  26.127  1.00  0.00     0.251 C 
ATOM     25  H   UNL A   1      39.676  18.340  25.712  1.00  0.00     0.163 HD
ATOM     26  O   UNL A   1      42.076  18.139  26.092  1.00  0.00    -0.269 OA
BRANCH  24  27
ATOM     27  C   UNL A   1      42.148  20.461  26.416  1.00  0.00     0.039 A 
ATOM     28  C   UNL A   1      42.640  21.216  25.349  1.00  0.00     0.014 A 
ATOM     29  C   UNL A   1      42.264  20.929  27.727  1.00  0.00     0.014 A 
ATOM     30  C   UNL A   1      43.174  22.484  25.591  1.00  0.00     0.010 A 
ATOM     31  C   UNL A   1      42.730  22.218  27.959  1.00  0.00     0.010 A 
ATOM     32  C   UNL A   1      43.181  23.012  26.893  1.00  0.00    -0.014 A 
BRANCH  32  33
ATOM     33  C   UNL A   1      43.637  24.398  27.161  1.00  0.00     0.031 A 
ATOM     34  C   UNL A   1      42.668  25.423  27.676  1.00  0.00     0.074 A 
ATOM     35  C   UNL A   1      44.902  24.752  26.862  1.00  0.00     0.049 A 
ATOM     36  N   UNL A   1      42.850  26.703  27.887  1.00  0.00    -0.248 NA
ATOM     37  C   UNL A   1      41.302  24.956  27.962  1.00  0.00     0.031 C 
ATOM     38  C   UNL A   1      45.921  23.863  26.303  1.00  0.00     0.029 A 
ATOM     39  N   UNL A   1      45.543  25.961  26.972  1.00  0.00    -0.354 N 
ATOM     40  C   UNL A   1      41.621  27.194  28.306  1.00  0.00     0.074 A 
ATOM     41  C   UNL A   1      40.690  26.087  28.276  1.00  0.00     0.031 C 
ATOM     42  C   UNL A   1      47.064  24.549  26.142  1.00  0.00     0.029 A 
ATOM     43  C   UNL A   1      46.849  25.933  26.551  1.00  0.00     0.049 A 
ATOM     44  H   UNL A   1      45.105  26.773  27.319  1.00  0.00     0.167 HD
ATOM     45  C   UNL A   1      41.306  28.450  28.701  1.00  0.00     0.037 A 
ATOM     46  C   UNL A   1      47.769  26.915  26.500  1.00  0.00     0.037 A 
ATOM     47  C   UNL A   1      42.244  29.539  28.768  1.00  0.00     0.049 A 
ATOM     48  C   UNL A   1      47.396  28.297  26.963  1.00  0.00     0.074 A 
ATOM     49  C   UNL A   1      42.039  30.827  29.231  1.00  0.00     0.029 A 
ATOM     50  N   UNL A   1      43.569  29.463  28.366  1.00  0.00    -0.354 N 
ATOM     51  N   UNL A   1      46.251  28.733  27.427  1.00  0.00    -0.248 NA
ATOM     52  C   UNL A   1      48.447  29.322  26.900  1.00  0.00     0.031 C 
ATOM     53  C   UNL A   1      43.230  31.543  29.073  1.00  0.00     0.029 A 
ATOM     54  C   UNL A   1      44.189  30.688  28.551  1.00  0.00     0.049 A 
ATOM     55  H   UNL A   1      44.004  28.659  28.001  1.00  0.00     0.167 HD
ATOM     56  C   UNL A   1      46.449  30.070  27.737  1.00  0.00     0.074 A 
ATOM     57  C   UNL A   1      47.829  30.374  27.420  1.00  0.00     0.031 C 
ATOM     58  C   UNL A   1      45.567  30.968  28.241  1.00  0.00     0.037 A 
BRANCH  45  59
ATOM     59  C   UNL A   1      39.883  28.714  29.099  1.00  0.00     0.064 A 
ATOM     60  C   UNL A   1      38.926  29.140  28.165  1.00  0.00     0.173 A 
ATOM     61  C   UNL A   1      39.464  28.505  30.421  1.00  0.00     0.173 A 
ATOM     62  F   UNL A   1      39.281  29.366  26.890  1.00  0.00    -0.203 F 
ATOM     63  C   UNL A   1      37.608  29.374  28.547  1.00  0.00     0.198 A 
ATOM     64  C   UNL A   1      38.138  28.713  30.793  1.00  0.00     0.198 A 
ATOM     65  F   UNL A   1      40.338  28.094  31.351  1.00  0.00    -0.203 F 
ATOM     66  F   UNL A   1      36.723  29.826  27.648  1.00  0.00    -0.200 F 
ATOM     67  C   UNL A   1      37.214  29.154  29.858  1.00  0.00     0.200 A 
ATOM     68  F   UNL A   1      37.756  28.491  32.058  1.00  0.00    -0.200 F 
ATOM     69  F   UNL A   1      35.943  29.376  30.223  1.00  0.00    -0.200 F 
ENDBRANCH  45  59
BRANCH  46  70
ATOM     70  C   UNL A   1      49.144  26.621  26.023  1.00  0.00     0.064 A 
ATOM     71  C   UNL A   1      49.524  26.919  24.707  1.00  0.00     0.173 A 
ATOM     72  C   UNL A   1      50.103  26.035  26.862  1.00  0.00     0.173 A 
ATOM     73  F   UNL A   1      48.635  27.461  23.861  1.00  0.00    -0.203 F 
ATOM     74  C   UNL A   1      50.803  26.623  24.241  1.00  0.00     0.198 A 
ATOM     75  C   UNL A   1      51.390  25.763  26.404  1.00  0.00     0.198 A 
ATOM     76  F   UNL A   1      49.791  25.736  28.132  1.00  0.00    -0.203 F 
ATOM     77  F   UNL A   1      51.125  26.879  22.967  1.00  0.00    -0.200 F 
ATOM     78  C   UNL A   1      51.737  26.050  25.091  1.00  0.00     0.200 A 
ATOM     79  F   UNL A   1      52.293  25.220  27.231  1.00  0.00    -0.200 F 
ATOM     80  F   UNL A   1      52.967  25.767  24.644  1.00  0.00    -0.200 F 
ENDBRANCH  46  70
BRANCH  58  81
ATOM     81  C   UNL A   1      46.076  32.351  28.514  1.00  0.00     0.064 A 
ATOM     82  C   UNL A   1      45.997  33.367  27.550  1.00  0.00     0.173 A 
ATOM     83  C   UNL A   1      46.610  32.675  29.771  1.00  0.00     0.173 A 
ATOM     84  F   UNL A   1      45.509  33.101  26.329  1.00  0.00    -0.203 F 
ATOM     85  C   UNL A   1      46.454  34.652  27.828  1.00  0.00     0.198 A 
ATOM     86  C   UNL A   1      47.041  33.968  30.053  1.00  0.00     0.198 A 
ATOM     87  F   UNL A   1      46.701  31.740  30.728  1.00  0.00    -0.203 F 
ATOM     88  F   UNL A   1      46.408  35.597  26.878  1.00  0.00    -0.200 F 
ATOM     89  C   UNL A   1      46.969  34.953  29.080  1.00  0.00     0.200 A 
ATOM     90  F   UNL A   1      47.527  34.260  31.268  1.00  0.00    -0.200 F 
ATOM     91  F   UNL A   1      47.401  36.193  29.347  1.00  0.00    -0.200 F 
ENDBRANCH  58  81
ENDBRANCH  32  33
ENDBRANCH  24  27
ENDBRANCH  22  23
ENDBRANCH  21  22
ENDBRANCH   1  21
TORSDOF 14
ENDMDL
MODEL 2
REMARK VINA RESULT:     -12.3      6.502     11.808
REMARK SMILES C[C@H](NC(=O)C(=O)c1ccccc1)C(=O)NCCCCNC(=O)c1ccc(-c2c3nc(c(-c4c(F)c(F)c(F)c(F)c4F)c4ccc([nH]4)c(-c4c(F)c(F)c(F)c(F)c4F)c4nc(c(-c5c(F)c(F)c(F)c(F)c5F)c5ccc2[nH]5)C=C4)C=C3)cc1
REMARK SMILES IDX 18 1 17 2 16 3 14 4 15 5 2 7 1 8 3 9 4 10 5 12 6 13 7 14
REMARK SMILES IDX 8 15 9 16 13 17 10 18 12 19 11 20 19 21 20 22 21 23 22 24
REMARK SMILES IDX 23 26 24 27 25 28 86 29 26 30 85 31 27 32 28 33 29 34 79 35
REMARK SMILES IDX 30 36 84 37 78 38 80 39 31 40 83 41 77 42 76 43 32 45 64 46
REMARK SMILES IDX 44 47 63 48 45 49 48 50 62 51 81 52 46 53 47 54 61 56 82 57
REMARK SMILES IDX 49 58 33 59 34 60 42 61 35 62 36 63 40 64 43 65 37 66 38 67
REMARK SMILES IDX 41 68 39 69 65 70 66 71 74 72 67 73 68 74 72 75 75 76 69 77
REMARK SMILES IDX 70 78 73 79 71 80 50 81 51 82 59 83 52 84 53 85 57 86 60 87
REMARK SMILES IDX 54 88 55 89 58 90 56 91
REMARK H PARENT 16 6 3 11 21 25 80 44 48 55
REMARK Flexibility Score: inf
ROOT
ATOM      1  C   UNL A   1      31.913  30.281  26.881  1.00  0.00     0.023 C 
ENDROOT
BRANCH   1   2
ATOM      2  C   UNL A   1      33.253  29.749  26.378  1.00  0.00     0.116 C 
BRANCH   2   3
ATOM      3  N   UNL A   1      33.333  29.799  24.940  1.00  0.00    -0.354 N 
ATOM      4  C   UNL A   1      33.317  28.782  24.036  1.00  0.00     0.242 C 
ATOM      5  O   UNL A   1      33.301  29.104  22.842  1.00  0.00    -0.273 OA
ATOM      6  H   UNL A   1      33.411  30.702  24.556  1.00  0.00     0.163 HD
BRANCH   4   7
ATOM      7  C   UNL A   1      33.165  27.298  24.447  1.00  0.00     0.168 C 
ATOM      8  C   UNL A   1      34.045  26.418  23.576  1.00  0.00     0.041 C 
BRANCH   7   9
ATOM      9  N   UNL A   1      31.800  26.846  24.771  1.00  0.00    -0.338 N 
ATOM     10  C   UNL A   1      30.526  26.968  24.278  1.00  0.00     0.293 C 
ATOM     11  H   UNL A   1      31.804  26.291  25.583  1.00  0.00     0.164 HD
ATOM     12  O   UNL A   1      29.630  26.366  24.866  1.00  0.00    -0.265 OA
BRANCH  10  13
ATOM     13  C   UNL A   1      30.156  27.805  23.054  1.00  0.00     0.250 C 
ATOM     14  O   UNL A   1      30.531  27.463  21.940  1.00  0.00    -0.283 OA
BRANCH  13  15
ATOM     15  C   UNL A   1      29.297  29.025  23.199  1.00  0.00     0.028 A 
ATOM     16  C   UNL A   1      29.885  30.187  23.725  1.00  0.00     0.012 A 
ATOM     17  C   UNL A   1      27.943  29.063  22.839  1.00  0.00     0.012 A 
ATOM     18  C   UNL A   1      29.140  31.360  23.877  1.00  0.00     0.001 A 
ATOM     19  C   UNL A   1      27.196  30.235  23.003  1.00  0.00     0.001 A 
ATOM     20  C   UNL A   1      27.796  31.383  23.516  1.00  0.00     0.000 A 
ENDBRANCH  13  15
ENDBRANCH  10  13
ENDBRANCH   7   9
ENDBRANCH   4   7
ENDBRANCH   2   3
ENDBRANCH   1   2
BRANCH   1  21
ATOM     21  C   UNL A   1      31.729  31.792  26.724  1.00  0.00     0.023 C 
BRANCH  21  22
ATOM     22  C   UNL A   1      32.832  32.646  27.343  1.00  0.00     0.116 C 
BRANCH  22  23
ATOM     23  N   UNL A   1      32.429  34.017  27.623  1.00  0.00    -0.352 N 
ATOM     24  C   UNL A   1      32.971  34.897  28.534  1.00  0.00     0.251 C 
ATOM     25  H   UNL A   1      31.673  34.359  27.094  1.00  0.00     0.163 HD
ATOM     26  O   UNL A   1      32.463  35.993  28.722  1.00  0.00    -0.269 OA
BRANCH  24  27
ATOM     27  C   UNL A   1      34.151  34.478  29.319  1.00  0.00     0.039 A 
ATOM     28  C   UNL A   1      33.951  33.896  30.573  1.00  0.00     0.014 A 
ATOM     29  C   UNL A   1      35.439  34.609  28.796  1.00  0.00     0.014 A 
ATOM     30  C   UNL A   1      35.041  33.366  31.268  1.00  0.00     0.010 A 
ATOM     31  C   UNL A   1      36.512  34.019  29.455  1.00  0.00     0.010 A 
ATOM     32  C   UNL A   1      36.323  33.384  30.692  1.00  0.00    -0.014 A 
BRANCH  32  33
ATOM     33  C   UNL A   1      37.476  32.728  31.356  1.00  0.00     0.031 A 
ATOM     34  C   UNL A   1      38.178  31.580  30.687  1.00  0.00     0.074 A 
ATOM     35  C   UNL A   1      37.837  33.112  32.596  1.00  0.00     0.049 A 
ATOM     36  N   UNL A   1      39.143  30.822  31.142  1.00  0.00    -0.248 NA
ATOM     37  C   UNL A   1      37.710  31.215  29.341  1.00  0.00     0.031 C 
ATOM     38  C   UNL A   1      37.198  34.175  33.374  1.00  0.00     0.029 A 
ATOM     39  N   UNL A   1      38.822  32.641  33.428  1.00  0.00    -0.354 N 
ATOM     40  C   UNL A   1      39.381  29.880  30.151  1.00  0.00     0.074 A 
ATOM     41  C   UNL A   1      38.429  30.132  29.090  1.00  0.00     0.031 C 
ATOM     42  C   UNL A   1      37.822  34.290  34.557  1.00  0.00     0.029 A 
ATOM     43  C   UNL A   1      38.880  33.289  34.637  1.00  0.00     0.049 A 
ATOM     44  H   UNL A   1      39.430  31.907  33.180  1.00  0.00     0.167 HD
ATOM     45  C   UNL A   1      40.323  28.907  30.119  1.00  0.00     0.037 A 
ATOM     46  C   UNL A   1      39.693  33.094  35.692  1.00  0.00     0.037 A 
ATOM     47  C   UNL A   1      41.294  28.686  31.157  1.00  0.00     0.049 A 
ATOM     48  C   UNL A   1      40.743  32.018  35.622  1.00  0.00     0.074 A 
ATOM     49  C   UNL A   1      42.338  27.778  31.182  1.00  0.00     0.029 A 
ATOM     50  N   UNL A   1      41.342  29.385  32.354  1.00  0.00    -0.354 N 
ATOM     51  N   UNL A   1      41.007  31.182  34.648  1.00  0.00    -0.248 NA
ATOM     52  C   UNL A   1      41.613  31.865  36.797  1.00  0.00     0.031 C 
ATOM     53  C   UNL A   1      42.996  27.902  32.410  1.00  0.00     0.029 A 
ATOM     54  C   UNL A   1      42.387  28.916  33.133  1.00  0.00     0.049 A 
ATOM     55  H   UNL A   1      40.724  30.107  32.612  1.00  0.00     0.167 HD
ATOM     56  C   UNL A   1      42.086  30.424  35.079  1.00  0.00     0.074 A 
ATOM     57  C   UNL A   1      42.438  30.907  36.398  1.00  0.00     0.031 C 
ATOM     58  C   UNL A   1      42.730  29.418  34.439  1.00  0.00     0.037 A 
BRANCH  45  59
ATOM     59  C   UNL A   1      40.352  28.011  28.916  1.00  0.00     0.064 A 
ATOM     60  C   UNL A   1      41.100  28.338  27.775  1.00  0.00     0.173 A 
ATOM     61  C   UNL A   1      39.652  26.796  28.917  1.00  0.00     0.173 A 
ATOM     62  F   UNL A   1      41.777  29.496  27.721  1.00  0.00    -0.203 F 
ATOM     63  C   UNL A   1      41.124  27.494  26.668  1.00  0.00     0.198 A 
ATOM     64  C   UNL A   1      39.701  25.941  27.819  1.00  0.00     0.198 A 
ATOM     65  F   UNL A   1      38.926  26.434  29.984  1.00  0.00    -0.203 F 
ATOM     66  F   UNL A   1      41.808  27.850  25.572  1.00  0.00    -0.200 F 
ATOM     67  C   UNL A   1      40.431  26.294  26.694  1.00  0.00     0.200 A 
ATOM     68  F   UNL A   1      39.039  24.776  27.849  1.00  0.00    -0.200 F 
ATOM     69  F   UNL A   1      40.459  25.480  25.629  1.00  0.00    -0.200 F 
ENDBRANCH  45  59
BRANCH  46  70
ATOM     70  C   UNL A   1      39.572  33.958  36.894  1.00  0.00     0.064 A 
ATOM     71  C   UNL A   1      38.794  33.556  37.988  1.00  0.00     0.173 A 
ATOM     72  C   UNL A   1      40.220  35.199  36.974  1.00  0.00     0.173 A 
ATOM     73  F   UNL A   1      38.139  32.386  37.949  1.00  0.00    -0.203 F 
ATOM     74  C   UNL A   1      38.652  34.370  39.109  1.00  0.00     0.198 A 
ATOM     75  C   UNL A   1      40.099  36.001  38.106  1.00  0.00     0.198 A 
ATOM     76  F   UNL A   1      40.981  35.627  35.955  1.00  0.00    -0.203 F 
ATOM     77  F   UNL A   1      37.868  33.980  40.123  1.00  0.00    -0.200 F 
ATOM     78  C   UNL A   1      39.309  35.590  39.170  1.00  0.00     0.200 A 
ATOM     79  F   UNL A   1      40.744  37.174  38.166  1.00  0.00    -0.200 F 
ATOM     80  F   UNL A   1      39.174  36.372  40.249  1.00  0.00    -0.200 F 
ENDBRANCH  46  70
BRANCH  58  81
ATOM     81  C   UNL A   1      43.901  28.796  35.138  1.00  0.00     0.064 A 
ATOM     82  C   UNL A   1      43.750  27.682  35.976  1.00  0.00     0.173 A 
ATOM     83  C   UNL A   1      45.196  29.297  34.934  1.00  0.00     0.173 A 
ATOM     84  F   UNL A   1      42.529  27.179  36.216  1.00  0.00    -0.203 F 
ATOM     85  C   UNL A   1      44.851  27.104  36.602  1.00  0.00     0.198 A 
ATOM     86  C   UNL A   1      46.298  28.699  35.539  1.00  0.00     0.198 A 
ATOM     87  F   UNL A   1      45.393  30.357  34.137  1.00  0.00    -0.203 F 
ATOM     88  F   UNL A   1      44.679  26.066  37.432  1.00  0.00    -0.200 F 
ATOM     89  C   UNL A   1      46.123  27.608  36.377  1.00  0.00     0.200 A 
ATOM     90  F   UNL A   1      47.528  29.180  35.313  1.00  0.00    -0.200 F 
ATOM     91  F   UNL A   1      47.183  27.045  36.974  1.00  0.00    -0.200 F 
ENDBRANCH  58  81
ENDBRANCH  32  33
ENDBRANCH  24  27
ENDBRANCH  22  23
ENDBRANCH  21  22
ENDBRANCH   1  21
TORSDOF 14
ENDMDL
MODEL 3
REMARK VINA RESULT:     -12.3      6.522     11.781
REMARK SMILES C[C@H](NC(=O)C(=O)c1ccccc1)C(=O)NCCCCNC(=O)c1ccc(-c2c3nc(c(-c4c(F)c(F)c(F)c(F)c4F)c4ccc([nH]4)c(-c4c(F)c(F)c(F)c(F)c4F)c4nc(c(-c5c(F)c(F)c(F)c(F)c5F)c5ccc2[nH]5)C=C4)C=C3)cc1
REMARK SMILES IDX 18 1 17 2 16 3 14 4 15 5 2 7 1 8 3 9 4 10 5 12 6 13 7 14
REMARK SMILES IDX 8 15 9 16 13 17 10 18 12 19 11 20 19 21 20 22 21 23 22 24
REMARK SMILES IDX 23 26 24 27 25 28 86 29 26 30 85 31 27 32 28 33 29 34 79 35
REMARK SMILES IDX 30 36 84 37 78 38 80 39 31 40 83 41 77 42 76 43 32 45 64 46
REMARK SMILES IDX 44 47 63 48 45 49 48 50 62 51 81 52 46 53 47 54 61 56 82 57
REMARK SMILES IDX 49 58 33 59 34 60 42 61 35 62 36 63 40 64 43 65 37 66 38 67
REMARK SMILES IDX 41 68 39 69 65 70 66 71 74 72 67 73 68 74 72 75 75 76 69 77
REMARK SMILES IDX 70 78 73 79 71 80 50 81 51 82 59 83 52 84 53 85 57 86 60 87
REMARK SMILES IDX 54 88 55 89 58 90 56 91
REMARK H PARENT 16 6 3 11 21 25 80 44 48 55
REMARK Flexibility Score: inf
ROOT
ATOM      1  C   UNL A   1      31.889  30.282  26.866  1.00  0.00     0.023 C 
ENDROOT
BRANCH   1   2
ATOM      2  C   UNL A   1      33.235  29.748  26.382  1.00  0.00     0.116 C 
BRANCH   2   3
ATOM      3  N   UNL A   1      33.332  29.791  24.944  1.00  0.00    -0.354 N 
ATOM      4  C   UNL A   1      33.324  28.771  24.044  1.00  0.00     0.242 C 
ATOM      5  O   UNL A   1      33.323  29.088  22.849  1.00  0.00    -0.273 OA
ATOM      6  H   UNL A   1      33.417  30.693  24.557  1.00  0.00     0.163 HD
BRANCH   4   7
ATOM      7  C   UNL A   1      33.164  27.289  24.459  1.00  0.00     0.168 C 
ATOM      8  C   UNL A   1      34.038  26.402  23.591  1.00  0.00     0.041 C 
BRANCH   7   9
ATOM      9  N   UNL A   1      31.796  26.846  24.784  1.00  0.00    -0.338 N 
ATOM     10  C   UNL A   1      30.523  26.972  24.290  1.00  0.00     0.293 C 
ATOM     11  H   UNL A   1      31.797  26.294  25.599  1.00  0.00     0.164 HD
ATOM     12  O   UNL A   1      29.623  26.377  24.881  1.00  0.00    -0.265 OA
BRANCH  10  13
ATOM     13  C   UNL A   1      30.157  27.807  23.063  1.00  0.00     0.250 C 
ATOM     14  O   UNL A   1      30.535  27.461  21.952  1.00  0.00    -0.283 OA
BRANCH  13  15
ATOM     15  C   UNL A   1      29.300  29.029  23.202  1.00  0.00     0.028 A 
ATOM     16  C   UNL A   1      29.888  30.191  23.729  1.00  0.00     0.012 A 
ATOM     17  C   UNL A   1      27.948  29.068  22.837  1.00  0.00     0.012 A 
ATOM     18  C   UNL A   1      29.144  31.365  23.875  1.00  0.00     0.001 A 
ATOM     19  C   UNL A   1      27.203  30.242  22.995  1.00  0.00     0.001 A 
ATOM     20  C   UNL A   1      27.802  31.390  23.508  1.00  0.00     0.000 A 
ENDBRANCH  13  15
ENDBRANCH  10  13
ENDBRANCH   7   9
ENDBRANCH   4   7
ENDBRANCH   2   3
ENDBRANCH   1   2
BRANCH   1  21
ATOM     21  C   UNL A   1      31.712  31.794  26.710  1.00  0.00     0.023 C 
BRANCH  21  22
ATOM     22  C   UNL A   1      32.806  32.644  27.349  1.00  0.00     0.116 C 
BRANCH  22  23
ATOM     23  N   UNL A   1      32.402  34.016  27.624  1.00  0.00    -0.352 N 
ATOM     24  C   UNL A   1      32.942  34.898  28.534  1.00  0.00     0.251 C 
ATOM     25  H   UNL A   1      31.647  34.356  27.093  1.00  0.00     0.163 HD
ATOM     26  O   UNL A   1      32.433  35.994  28.718  1.00  0.00    -0.269 OA
BRANCH  24  27
ATOM     27  C   UNL A   1      34.120  34.482  29.322  1.00  0.00     0.039 A 
ATOM     28  C   UNL A   1      33.919  33.905  30.579  1.00  0.00     0.014 A 
ATOM     29  C   UNL A   1      35.409  34.609  28.800  1.00  0.00     0.014 A 
ATOM     30  C   UNL A   1      35.008  33.377  31.276  1.00  0.00     0.010 A 
ATOM     31  C   UNL A   1      36.481  34.022  29.463  1.00  0.00     0.010 A 
ATOM     32  C   UNL A   1      36.290  33.392  30.702  1.00  0.00    -0.014 A 
BRANCH  32  33
ATOM     33  C   UNL A   1      37.442  32.738  31.371  1.00  0.00     0.031 A 
ATOM     34  C   UNL A   1      38.147  31.590  30.705  1.00  0.00     0.074 A 
ATOM     35  C   UNL A   1      37.799  33.124  32.611  1.00  0.00     0.049 A 
ATOM     36  N   UNL A   1      39.112  30.833  31.164  1.00  0.00    -0.248 NA
ATOM     37  C   UNL A   1      37.684  31.223  29.358  1.00  0.00     0.031 C 
ATOM     38  C   UNL A   1      37.156  34.187  33.386  1.00  0.00     0.029 A 
ATOM     39  N   UNL A   1      38.782  32.655  33.447  1.00  0.00    -0.354 N 
ATOM     40  C   UNL A   1      39.354  29.890  30.174  1.00  0.00     0.074 A 
ATOM     41  C   UNL A   1      38.405  30.140  29.110  1.00  0.00     0.031 C 
ATOM     42  C   UNL A   1      37.776  34.304  34.571  1.00  0.00     0.029 A 
ATOM     43  C   UNL A   1      38.835  33.304  34.655  1.00  0.00     0.049 A 
ATOM     44  H   UNL A   1      39.392  31.921  33.202  1.00  0.00     0.167 HD
ATOM     45  C   UNL A   1      40.296  28.919  30.147  1.00  0.00     0.037 A 
ATOM     46  C   UNL A   1      39.645  33.111  35.713  1.00  0.00     0.037 A 
ATOM     47  C   UNL A   1      41.265  28.700  31.188  1.00  0.00     0.049 A 
ATOM     48  C   UNL A   1      40.696  32.037  35.647  1.00  0.00     0.074 A 
ATOM     49  C   UNL A   1      42.310  27.793  31.217  1.00  0.00     0.029 A 
ATOM     50  N   UNL A   1      41.308  29.401  32.384  1.00  0.00    -0.354 N 
ATOM     51  N   UNL A   1      40.964  31.200  34.675  1.00  0.00    -0.248 NA
ATOM     52  C   UNL A   1      41.563  31.886  36.825  1.00  0.00     0.031 C 
ATOM     53  C   UNL A   1      42.964  27.919  32.447  1.00  0.00     0.029 A 
ATOM     54  C   UNL A   1      42.351  28.933  33.167  1.00  0.00     0.049 A 
ATOM     55  H   UNL A   1      40.689  30.122  32.639  1.00  0.00     0.167 HD
ATOM     56  C   UNL A   1      42.043  30.444  35.110  1.00  0.00     0.074 A 
ATOM     57  C   UNL A   1      42.390  30.929  36.429  1.00  0.00     0.031 C 
ATOM     58  C   UNL A   1      42.690  29.437  34.473  1.00  0.00     0.037 A 
BRANCH  45  59
ATOM     59  C   UNL A   1      40.331  28.022  28.945  1.00  0.00     0.064 A 
ATOM     60  C   UNL A   1      41.087  28.345  27.808  1.00  0.00     0.173 A 
ATOM     61  C   UNL A   1      39.627  26.808  28.943  1.00  0.00     0.173 A 
ATOM     62  F   UNL A   1      41.767  29.501  27.756  1.00  0.00    -0.203 F 
ATOM     63  C   UNL A   1      41.115  27.500  26.702  1.00  0.00     0.198 A 
ATOM     64  C   UNL A   1      39.680  25.952  27.846  1.00  0.00     0.198 A 
ATOM     65  F   UNL A   1      38.893  26.450  30.006  1.00  0.00    -0.203 F 
ATOM     66  F   UNL A   1      41.806  27.853  25.610  1.00  0.00    -0.200 F 
ATOM     67  C   UNL A   1      40.418  26.302  26.725  1.00  0.00     0.200 A 
ATOM     68  F   UNL A   1      39.015  24.790  27.873  1.00  0.00    -0.200 F 
ATOM     69  F   UNL A   1      40.450  25.487  25.661  1.00  0.00    -0.200 F 
ENDBRANCH  45  59
BRANCH  46  70
ATOM     70  C   UNL A   1      39.520  33.976  36.913  1.00  0.00     0.064 A 
ATOM     71  C   UNL A   1      40.179  35.212  36.977  1.00  0.00     0.173 A 
ATOM     72  C   UNL A   1      38.750  33.589  38.020  1.00  0.00     0.173 A 
ATOM     73  F   UNL A   1      40.943  35.615  35.952  1.00  0.00    -0.203 F 
ATOM     74  C   UNL A   1      40.089  36.019  38.109  1.00  0.00     0.198 A 
ATOM     75  C   UNL A   1      38.640  34.407  39.141  1.00  0.00     0.198 A 
ATOM     76  F   UNL A   1      38.095  32.417  38.006  1.00  0.00    -0.203 F 
ATOM     77  F   UNL A   1      40.764  37.174  38.160  1.00  0.00    -0.200 F 
ATOM     78  C   UNL A   1      39.316  35.618  39.189  1.00  0.00     0.200 A 
ATOM     79  F   UNL A   1      37.882  34.023  40.177  1.00  0.00    -0.200 F 
ATOM     80  F   UNL A   1      39.229  36.395  40.276  1.00  0.00    -0.200 F 
ENDBRANCH  46  70
BRANCH  58  81
ATOM     81  C   UNL A   1      43.860  28.818  35.177  1.00  0.00     0.064 A 
ATOM     82  C   UNL A   1      45.161  29.319  35.020  1.00  0.00     0.173 A 
ATOM     83  C   UNL A   1      43.670  27.737  36.051  1.00  0.00     0.173 A 
ATOM     84  F   UNL A   1      45.394  30.340  34.181  1.00  0.00    -0.203 F 
ATOM     85  C   UNL A   1      46.233  28.745  35.697  1.00  0.00     0.198 A 
ATOM     86  C   UNL A   1      44.741  27.185  36.748  1.00  0.00     0.198 A 
ATOM     87  F   UNL A   1      42.444  27.226  36.239  1.00  0.00    -0.203 F 
ATOM     88  F   UNL A   1      47.474  29.212  35.501  1.00  0.00    -0.200 F 
ATOM     89  C   UNL A   1      46.021  27.684  36.565  1.00  0.00     0.200 A 
ATOM     90  F   UNL A   1      44.534  26.167  37.595  1.00  0.00    -0.200 F 
ATOM     91  F   UNL A   1      47.054  27.139  37.222  1.00  0.00    -0.200 F 
ENDBRANCH  58  81
ENDBRANCH  32  33
ENDBRANCH  24  27
ENDBRANCH  22  23
ENDBRANCH  21  22
ENDBRANCH   1  21
TORSDOF 14
ENDMDL
