MODEL 1
REMARK VINA RESULT:     -12.0      0.000      0.000
REMARK SMILES C[C@H]1CC[C@@](NC(=O)N[C@H]2CCOC2)(C(=O)NCCCCNC(=O)c2ccc(-c3c4nc(c(-c5c(F)c(F)c(F)c(F)c5F)c5ccc([nH]5)c(-c5c(F)c(F)c(F)c(F)c5F)c5nc(c(-c6c(F)c(F)c(F)c(F)c6F)c6ccc3[nH]6)C=C5)C=C4)cc2)CC1
REMARK SMILES IDX 19 1 18 2 17 3 15 4 16 5 5 7 1 8 2 9 89 10 3 11 88 12 4 13
REMARK SMILES IDX 6 14 7 15 8 17 9 18 10 20 11 21 14 22 12 23 13 24 20 25
REMARK SMILES IDX 21 26 22 27 23 28 24 30 25 31 26 32 87 33 27 34 86 35 28 36
REMARK SMILES IDX 29 37 30 38 80 39 31 40 85 41 79 42 81 43 32 44 84 45 78 46
REMARK SMILES IDX 77 47 33 49 65 50 45 51 64 52 46 53 49 54 63 55 82 56 47 57
REMARK SMILES IDX 48 58 62 60 83 61 50 62 34 63 35 64 43 65 36 66 37 67 41 68
REMARK SMILES IDX 44 69 38 70 39 71 42 72 40 73 66 74 67 75 75 76 68 77 69 78
REMARK SMILES IDX 73 79 76 80 70 81 71 82 74 83 72 84 51 85 52 86 60 87 53 88
REMARK SMILES IDX 54 89 58 90 61 91 55 92 56 93 59 94 57 95
REMARK H PARENT 17 6 6 16 9 19 22 29 81 48 49 59
REMARK Flexibility Score: inf
ROOT
ATOM      1  C   UNL A   1      31.507  28.410  27.115  1.00  0.00     0.023 C 
ENDROOT
BRANCH   1   2
ATOM      2  C   UNL A   1      31.255  26.905  27.087  1.00  0.00     0.116 C 
BRANCH   2   3
ATOM      3  N   UNL A   1      32.373  26.204  26.487  1.00  0.00    -0.354 N 
ATOM      4  C   UNL A   1      32.404  25.305  25.465  1.00  0.00     0.245 C 
ATOM      5  O   UNL A   1      33.526  24.895  25.149  1.00  0.00    -0.272 OA
ATOM      6  H   UNL A   1      33.251  26.412  26.882  1.00  0.00     0.163 HD
BRANCH   4   7
ATOM      7  C   UNL A   1      31.094  24.734  24.841  1.00  0.00     0.120 C 
ATOM      8  C   UNL A   1      32.903  26.517  21.426  1.00  0.00     0.007 C 
ATOM      9  C   UNL A   1      31.805  25.648  22.049  1.00  0.00    -0.014 C 
ATOM     10  C   UNL A   1      30.934  26.514  22.977  1.00  0.00     0.006 C 
ATOM     11  C   UNL A   1      32.441  24.411  22.698  1.00  0.00     0.006 C 
ATOM     12  C   UNL A   1      30.219  25.761  24.098  1.00  0.00     0.039 C 
ATOM     13  C   UNL A   1      31.546  23.735  23.736  1.00  0.00     0.039 C 
BRANCH   7  14
ATOM     14  N   UNL A   1      30.269  24.020  25.846  1.00  0.00    -0.324 N 
ATOM     15  C   UNL A   1      30.467  23.081  26.775  1.00  0.00     0.315 C 
ATOM     16  H   UNL A   1      29.330  24.315  25.821  1.00  0.00     0.166 HD
ATOM     17  O   UNL A   1      29.581  22.953  27.626  1.00  0.00    -0.249 OA
ATOM     18  N   UNL A   1      31.509  22.251  26.864  1.00  0.00    -0.333 N 
ATOM     19  H   UNL A   1      31.520  21.763  27.718  1.00  0.00     0.165 HD
BRANCH  18  20
ATOM     20  C   UNL A   1      32.629  21.889  26.018  1.00  0.00     0.112 C 
ATOM     21  C   UNL A   1      33.956  21.770  26.730  1.00  0.00     0.056 C 
ATOM     22  C   UNL A   1      32.528  20.505  25.376  1.00  0.00     0.185 C 
ATOM     23  C   UNL A   1      34.769  21.044  25.681  1.00  0.00     0.162 C 
ATOM     24  O   UNL A   1      33.875  20.097  25.071  1.00  0.00    -0.379 OA
ENDBRANCH  18  20
ENDBRANCH   7  14
ENDBRANCH   4   7
ENDBRANCH   2   3
ENDBRANCH   1   2
BRANCH   1  25
ATOM     25  C   UNL A   1      31.932  28.990  25.765  1.00  0.00     0.023 C 
BRANCH  25  26
ATOM     26  C   UNL A   1      33.221  29.804  25.817  1.00  0.00     0.116 C 
BRANCH  26  27
ATOM     27  N   UNL A   1      32.966  31.182  26.209  1.00  0.00    -0.352 N 
ATOM     28  C   UNL A   1      33.504  31.893  27.250  1.00  0.00     0.251 C 
ATOM     29  H   UNL A   1      32.319  31.670  25.650  1.00  0.00     0.163 HD
ATOM     30  O   UNL A   1      32.986  32.947  27.618  1.00  0.00    -0.269 OA
BRANCH  28  31
ATOM     31  C   UNL A   1      34.708  31.387  27.934  1.00  0.00     0.039 A 
ATOM     32  C   UNL A   1      35.818  32.225  28.075  1.00  0.00     0.014 A 
ATOM     33  C   UNL A   1      34.744  30.076  28.418  1.00  0.00     0.014 A 
ATOM     34  C   UNL A   1      36.950  31.761  28.748  1.00  0.00     0.010 A 
ATOM     35  C   UNL A   1      35.846  29.638  29.146  1.00  0.00     0.010 A 
ATOM     36  C   UNL A   1      36.962  30.472  29.308  1.00  0.00    -0.014 A 
BRANCH  36  37
ATOM     37  C   UNL A   1      38.143  29.967  30.049  1.00  0.00     0.031 A 
ATOM     38  C   UNL A   1      38.405  30.441  31.450  1.00  0.00     0.074 A 
ATOM     39  C   UNL A   1      39.010  29.139  29.438  1.00  0.00     0.049 A 
ATOM     40  N   UNL A   1      39.420  30.182  32.235  1.00  0.00    -0.248 NA
ATOM     41  C   UNL A   1      37.408  31.350  32.037  1.00  0.00     0.031 C 
ATOM     42  C   UNL A   1      38.887  28.648  28.065  1.00  0.00     0.029 A 
ATOM     43  N   UNL A   1      40.177  28.576  29.890  1.00  0.00    -0.354 N 
ATOM     44  C   UNL A   1      39.192  30.908  33.397  1.00  0.00     0.074 A 
ATOM     45  C   UNL A   1      37.968  31.655  33.198  1.00  0.00     0.031 C 
ATOM     46  C   UNL A   1      39.928  27.844  27.792  1.00  0.00     0.029 A 
ATOM     47  C   UNL A   1      40.805  27.789  28.956  1.00  0.00     0.049 A 
ATOM     48  H   UNL A   1      40.530  28.722  30.797  1.00  0.00     0.167 HD
ATOM     49  C   UNL A   1      39.926  30.932  34.535  1.00  0.00     0.037 A 
ATOM     50  C   UNL A   1      41.963  27.106  29.034  1.00  0.00     0.037 A 
ATOM     51  C   UNL A   1      41.124  30.164  34.741  1.00  0.00     0.049 A 
ATOM     52  C   UNL A   1      42.754  27.142  30.313  1.00  0.00     0.074 A 
ATOM     53  C   UNL A   1      41.904  30.069  35.880  1.00  0.00     0.029 A 
ATOM     54  N   UNL A   1      41.716  29.355  33.782  1.00  0.00    -0.354 N 
ATOM     55  N   UNL A   1      42.495  27.780  31.428  1.00  0.00    -0.248 NA
ATOM     56  C   UNL A   1      43.995  26.356  30.346  1.00  0.00     0.031 C 
ATOM     57  C   UNL A   1      42.988  29.230  35.599  1.00  0.00     0.029 A 
ATOM     58  C   UNL A   1      42.860  28.770  34.298  1.00  0.00     0.049 A 
ATOM     59  H   UNL A   1      41.372  29.218  32.870  1.00  0.00     0.167 HD
ATOM     60  C   UNL A   1      43.522  27.453  32.302  1.00  0.00     0.074 A 
ATOM     61  C   UNL A   1      44.403  26.549  31.592  1.00  0.00     0.031 C 
ATOM     62  C   UNL A   1      43.719  27.866  33.578  1.00  0.00     0.037 A 
BRANCH  49  63
ATOM     63  C   UNL A   1      39.446  31.815  35.649  1.00  0.00     0.064 A 
ATOM     64  C   UNL A   1      39.881  33.144  35.772  1.00  0.00     0.173 A 
ATOM     65  C   UNL A   1      38.516  31.339  36.586  1.00  0.00     0.173 A 
ATOM     66  F   UNL A   1      40.780  33.642  34.910  1.00  0.00    -0.203 F 
ATOM     67  C   UNL A   1      39.423  33.954  36.807  1.00  0.00     0.198 A 
ATOM     68  C   UNL A   1      38.039  32.162  37.603  1.00  0.00     0.198 A 
ATOM     69  F   UNL A   1      38.065  30.078  36.510  1.00  0.00    -0.203 F 
ATOM     70  F   UNL A   1      39.888  35.205  36.932  1.00  0.00    -0.200 F 
ATOM     71  C   UNL A   1      38.498  33.465  37.717  1.00  0.00     0.200 A 
ATOM     72  F   UNL A   1      37.137  31.692  38.476  1.00  0.00    -0.200 F 
ATOM     73  F   UNL A   1      38.054  34.249  38.710  1.00  0.00    -0.200 F 
ENDBRANCH  49  63
BRANCH  50  74
ATOM     74  C   UNL A   1      42.428  26.306  27.873  1.00  0.00     0.064 A 
ATOM     75  C   UNL A   1      43.362  26.830  26.970  1.00  0.00     0.173 A 
ATOM     76  C   UNL A   1      41.955  25.006  27.645  1.00  0.00     0.173 A 
ATOM     77  F   UNL A   1      43.827  28.077  27.136  1.00  0.00    -0.203 F 
ATOM     78  C   UNL A   1      43.793  26.091  25.870  1.00  0.00     0.198 A 
ATOM     79  C   UNL A   1      42.406  24.258  26.559  1.00  0.00     0.198 A 
ATOM     80  F   UNL A   1      41.064  24.457  28.484  1.00  0.00    -0.203 F 
ATOM     81  F   UNL A   1      44.657  26.631  25.000  1.00  0.00    -0.200 F 
ATOM     82  C   UNL A   1      43.319  24.803  25.669  1.00  0.00     0.200 A 
ATOM     83  F   UNL A   1      41.955  23.010  26.374  1.00  0.00    -0.200 F 
ATOM     84  F   UNL A   1      43.736  24.091  24.614  1.00  0.00    -0.200 F 
ENDBRANCH  50  74
BRANCH  62  85
ATOM     85  C   UNL A   1      44.915  27.318  34.299  1.00  0.00     0.064 A 
ATOM     86  C   UNL A   1      44.854  26.109  35.007  1.00  0.00     0.173 A 
ATOM     87  C   UNL A   1      46.144  27.992  34.247  1.00  0.00     0.173 A 
ATOM     88  F   UNL A   1      43.697  25.438  35.098  1.00  0.00    -0.203 F 
ATOM     89  C   UNL A   1      45.978  25.605  35.655  1.00  0.00     0.198 A 
ATOM     90  C   UNL A   1      47.272  27.472  34.874  1.00  0.00     0.198 A 
ATOM     91  F   UNL A   1      46.253  29.150  33.578  1.00  0.00    -0.203 F 
ATOM     92  F   UNL A   1      45.890  24.470  36.361  1.00  0.00    -0.200 F 
ATOM     93  C   UNL A   1      47.187  26.282  35.582  1.00  0.00     0.200 A 
ATOM     94  F   UNL A   1      48.442  28.120  34.793  1.00  0.00    -0.200 F 
ATOM     95  F   UNL A   1      48.269  25.792  36.202  1.00  0.00    -0.200 F 
ENDBRANCH  62  85
ENDBRANCH  36  37
ENDBRANCH  28  31
ENDBRANCH  26  27
ENDBRANCH  25  26
ENDBRANCH   1  25
TORSDOF 13
ENDMDL
MODEL 2
REMARK VINA RESULT:     -12.0      0.161      1.601
REMARK SMILES C[C@H]1CC[C@@](NC(=O)N[C@H]2CCOC2)(C(=O)NCCCCNC(=O)c2ccc(-c3c4nc(c(-c5c(F)c(F)c(F)c(F)c5F)c5ccc([nH]5)c(-c5c(F)c(F)c(F)c(F)c5F)c5nc(c(-c6c(F)c(F)c(F)c(F)c6F)c6ccc3[nH]6)C=C5)C=C4)cc2)CC1
REMARK SMILES IDX 19 1 18 2 17 3 15 4 16 5 5 7 1 8 2 9 89 10 3 11 88 12 4 13
REMARK SMILES IDX 6 14 7 15 8 17 9 18 10 20 11 21 14 22 12 23 13 24 20 25
REMARK SMILES IDX 21 26 22 27 23 28 24 30 25 31 26 32 87 33 27 34 86 35 28 36
REMARK SMILES IDX 29 37 30 38 80 39 31 40 85 41 79 42 81 43 32 44 84 45 78 46
REMARK SMILES IDX 77 47 33 49 65 50 45 51 64 52 46 53 49 54 63 55 82 56 47 57
REMARK SMILES IDX 48 58 62 60 83 61 50 62 34 63 35 64 43 65 36 66 37 67 41 68
REMARK SMILES IDX 44 69 38 70 39 71 42 72 40 73 66 74 67 75 75 76 68 77 69 78
REMARK SMILES IDX 73 79 76 80 70 81 71 82 74 83 72 84 51 85 52 86 60 87 53 88
REMARK SMILES IDX 54 89 58 90 61 91 55 92 56 93 59 94 57 95
REMARK H PARENT 17 6 6 16 9 19 22 29 81 48 49 59
REMARK Flexibility Score: inf
ROOT
ATOM      1  C   UNL A   1      31.543  28.370  27.218  1.00  0.00     0.023 C 
ENDROOT
BRANCH   1   2
ATOM      2  C   UNL A   1      31.262  26.875  27.102  1.00  0.00     0.116 C 
BRANCH   2   3
ATOM      3  N   UNL A   1      32.379  26.184  26.489  1.00  0.00    -0.354 N 
ATOM      4  C   UNL A   1      32.407  25.295  25.457  1.00  0.00     0.245 C 
ATOM      5  O   UNL A   1      33.529  24.893  25.130  1.00  0.00    -0.272 OA
ATOM      6  H   UNL A   1      33.259  26.391  26.880  1.00  0.00     0.163 HD
BRANCH   4   7
ATOM      7  C   UNL A   1      31.096  24.725  24.835  1.00  0.00     0.120 C 
ATOM      8  C   UNL A   1      32.903  26.501  21.415  1.00  0.00     0.007 C 
ATOM      9  C   UNL A   1      31.804  25.634  22.042  1.00  0.00    -0.014 C 
ATOM     10  C   UNL A   1      30.936  26.503  22.969  1.00  0.00     0.006 C 
ATOM     11  C   UNL A   1      32.439  24.397  22.691  1.00  0.00     0.006 C 
ATOM     12  C   UNL A   1      30.222  25.752  24.092  1.00  0.00     0.039 C 
ATOM     13  C   UNL A   1      31.545  23.724  23.732  1.00  0.00     0.039 C 
BRANCH   7  14
ATOM     14  N   UNL A   1      30.271  24.013  25.842  1.00  0.00    -0.324 N 
ATOM     15  C   UNL A   1      30.470  23.078  26.775  1.00  0.00     0.315 C 
ATOM     16  H   UNL A   1      29.331  24.308  25.816  1.00  0.00     0.166 HD
ATOM     17  O   UNL A   1      29.583  22.952  27.626  1.00  0.00    -0.249 OA
ATOM     18  N   UNL A   1      31.512  22.250  26.867  1.00  0.00    -0.333 N 
ATOM     19  H   UNL A   1      31.523  21.764  27.723  1.00  0.00     0.165 HD
BRANCH  18  20
ATOM     20  C   UNL A   1      32.633  21.886  26.024  1.00  0.00     0.112 C 
ATOM     21  C   UNL A   1      33.957  21.758  26.739  1.00  0.00     0.056 C 
ATOM     22  C   UNL A   1      32.528  20.505  25.376  1.00  0.00     0.185 C 
ATOM     23  C   UNL A   1      34.770  21.033  25.689  1.00  0.00     0.162 C 
ATOM     24  O   UNL A   1      33.874  20.093  25.074  1.00  0.00    -0.379 OA
ENDBRANCH  18  20
ENDBRANCH   7  14
ENDBRANCH   4   7
ENDBRANCH   2   3
ENDBRANCH   1   2
BRANCH   1  25
ATOM     25  C   UNL A   1      31.778  29.060  25.872  1.00  0.00     0.023 C 
BRANCH  25  26
ATOM     26  C   UNL A   1      33.056  29.891  25.815  1.00  0.00     0.116 C 
BRANCH  26  27
ATOM     27  N   UNL A   1      32.812  31.272  26.205  1.00  0.00    -0.352 N 
ATOM     28  C   UNL A   1      33.357  31.981  27.243  1.00  0.00     0.251 C 
ATOM     29  H   UNL A   1      32.167  31.763  25.646  1.00  0.00     0.163 HD
ATOM     30  O   UNL A   1      32.848  33.041  27.608  1.00  0.00    -0.269 OA
BRANCH  28  31
ATOM     31  C   UNL A   1      34.559  31.469  27.925  1.00  0.00     0.039 A 
ATOM     32  C   UNL A   1      35.663  32.310  28.090  1.00  0.00     0.014 A 
ATOM     33  C   UNL A   1      34.600  30.149  28.382  1.00  0.00     0.014 A 
ATOM     34  C   UNL A   1      36.793  31.840  28.762  1.00  0.00     0.010 A 
ATOM     35  C   UNL A   1      35.699  29.703  29.109  1.00  0.00     0.010 A 
ATOM     36  C   UNL A   1      36.809  30.540  29.296  1.00  0.00    -0.014 A 
BRANCH  36  37
ATOM     37  C   UNL A   1      37.987  30.027  30.036  1.00  0.00     0.031 A 
ATOM     38  C   UNL A   1      38.243  30.484  31.443  1.00  0.00     0.074 A 
ATOM     39  C   UNL A   1      38.858  29.208  29.417  1.00  0.00     0.049 A 
ATOM     40  N   UNL A   1      39.255  30.216  32.230  1.00  0.00    -0.248 NA
ATOM     41  C   UNL A   1      37.242  31.383  32.038  1.00  0.00     0.031 C 
ATOM     42  C   UNL A   1      38.741  28.735  28.038  1.00  0.00     0.029 A 
ATOM     43  N   UNL A   1      40.024  28.641  29.867  1.00  0.00    -0.354 N 
ATOM     44  C   UNL A   1      39.021  30.926  33.399  1.00  0.00     0.074 A 
ATOM     45  C   UNL A   1      37.797  31.674  33.205  1.00  0.00     0.031 C 
ATOM     46  C   UNL A   1      39.784  27.936  27.758  1.00  0.00     0.029 A 
ATOM     47  C   UNL A   1      40.657  27.867  28.926  1.00  0.00     0.049 A 
ATOM     48  H   UNL A   1      40.373  28.776  30.778  1.00  0.00     0.167 HD
ATOM     49  C   UNL A   1      39.750  30.937  34.541  1.00  0.00     0.037 A 
ATOM     50  C   UNL A   1      41.815  27.185  28.999  1.00  0.00     0.037 A 
ATOM     51  C   UNL A   1      40.949  30.167  34.742  1.00  0.00     0.049 A 
ATOM     52  C   UNL A   1      42.601  27.205  30.282  1.00  0.00     0.074 A 
ATOM     53  C   UNL A   1      41.724  30.059  35.883  1.00  0.00     0.029 A 
ATOM     54  N   UNL A   1      41.546  29.371  33.775  1.00  0.00    -0.354 N 
ATOM     55  N   UNL A   1      42.337  27.828  31.404  1.00  0.00    -0.248 NA
ATOM     56  C   UNL A   1      43.843  26.420  30.310  1.00  0.00     0.031 C 
ATOM     57  C   UNL A   1      42.811  29.225  35.595  1.00  0.00     0.029 A 
ATOM     58  C   UNL A   1      42.688  28.782  34.288  1.00  0.00     0.049 A 
ATOM     59  H   UNL A   1      41.206  29.245  32.860  1.00  0.00     0.167 HD
ATOM     60  C   UNL A   1      43.361  27.492  32.278  1.00  0.00     0.074 A 
ATOM     61  C   UNL A   1      44.246  26.598  31.560  1.00  0.00     0.031 C 
ATOM     62  C   UNL A   1      43.552  27.888  33.560  1.00  0.00     0.037 A 
BRANCH  49  63
ATOM     63  C   UNL A   1      39.265  31.805  35.664  1.00  0.00     0.064 A 
ATOM     64  C   UNL A   1      38.362  31.325  36.626  1.00  0.00     0.173 A 
ATOM     65  C   UNL A   1      39.732  33.121  35.800  1.00  0.00     0.173 A 
ATOM     66  F   UNL A   1      37.877  30.078  36.532  1.00  0.00    -0.203 F 
ATOM     67  C   UNL A   1      37.926  32.139  37.667  1.00  0.00     0.198 A 
ATOM     68  C   UNL A   1      39.313  33.923  36.859  1.00  0.00     0.198 A 
ATOM     69  F   UNL A   1      40.599  33.627  34.910  1.00  0.00    -0.203 F 
ATOM     70  F   UNL A   1      37.028  31.674  38.547  1.00  0.00    -0.200 F 
ATOM     71  C   UNL A   1      38.406  33.435  37.786  1.00  0.00     0.200 A 
ATOM     72  F   UNL A   1      39.786  35.171  36.981  1.00  0.00    -0.200 F 
ATOM     73  F   UNL A   1      37.988  34.215  38.793  1.00  0.00    -0.200 F 
ENDBRANCH  49  63
BRANCH  50  74
ATOM     74  C   UNL A   1      42.287  26.400  27.830  1.00  0.00     0.064 A 
ATOM     75  C   UNL A   1      43.242  26.927  26.952  1.00  0.00     0.173 A 
ATOM     76  C   UNL A   1      41.798  25.112  27.570  1.00  0.00     0.173 A 
ATOM     77  F   UNL A   1      43.723  28.163  27.150  1.00  0.00    -0.203 F 
ATOM     78  C   UNL A   1      43.679  26.203  25.845  1.00  0.00     0.198 A 
ATOM     79  C   UNL A   1      42.254  24.378  26.476  1.00  0.00     0.198 A 
ATOM     80  F   UNL A   1      40.885  24.561  28.384  1.00  0.00    -0.203 F 
ATOM     81  F   UNL A   1      44.564  26.747  24.998  1.00  0.00    -0.200 F 
ATOM     82  C   UNL A   1      43.189  24.926  25.611  1.00  0.00     0.200 A 
ATOM     83  F   UNL A   1      41.787  23.141  26.260  1.00  0.00    -0.200 F 
ATOM     84  F   UNL A   1      43.612  24.229  24.548  1.00  0.00    -0.200 F 
ENDBRANCH  50  74
BRANCH  62  85
ATOM     85  C   UNL A   1      44.745  27.333  34.279  1.00  0.00     0.064 A 
ATOM     86  C   UNL A   1      45.971  28.014  34.302  1.00  0.00     0.173 A 
ATOM     87  C   UNL A   1      44.648  26.125  34.986  1.00  0.00     0.173 A 
ATOM     88  F   UNL A   1      46.116  29.164  33.627  1.00  0.00    -0.203 F 
ATOM     89  C   UNL A   1      47.064  27.495  34.990  1.00  0.00     0.198 A 
ATOM     90  C   UNL A   1      45.735  25.622  35.695  1.00  0.00     0.198 A 
ATOM     91  F   UNL A   1      43.496  25.439  34.998  1.00  0.00    -0.203 F 
ATOM     92  F   UNL A   1      48.238  28.140  34.964  1.00  0.00    -0.200 F 
ATOM     93  C   UNL A   1      46.943  26.304  35.691  1.00  0.00     0.200 A 
ATOM     94  F   UNL A   1      45.615  24.477  36.381  1.00  0.00    -0.200 F 
ATOM     95  F   UNL A   1      47.995  25.808  36.357  1.00  0.00    -0.200 F 
ENDBRANCH  62  85
ENDBRANCH  36  37
ENDBRANCH  28  31
ENDBRANCH  26  27
ENDBRANCH  25  26
ENDBRANCH   1  25
TORSDOF 13
ENDMDL
MODEL 3
REMARK VINA RESULT:     -12.0      0.482      7.494
REMARK SMILES C[C@H]1CC[C@@](NC(=O)N[C@H]2CCOC2)(C(=O)NCCCCNC(=O)c2ccc(-c3c4nc(c(-c5c(F)c(F)c(F)c(F)c5F)c5ccc([nH]5)c(-c5c(F)c(F)c(F)c(F)c5F)c5nc(c(-c6c(F)c(F)c(F)c(F)c6F)c6ccc3[nH]6)C=C5)C=C4)cc2)CC1
REMARK SMILES IDX 19 1 18 2 17 3 15 4 16 5 5 7 1 8 2 9 89 10 3 11 88 12 4 13
REMARK SMILES IDX 6 14 7 15 8 17 9 18 10 20 11 21 14 22 12 23 13 24 20 25
REMARK SMILES IDX 21 26 22 27 23 28 24 30 25 31 26 32 87 33 27 34 86 35 28 36
REMARK SMILES IDX 29 37 30 38 80 39 31 40 85 41 79 42 81 43 32 44 84 45 78 46
REMARK SMILES IDX 77 47 33 49 65 50 45 51 64 52 46 53 49 54 63 55 82 56 47 57
REMARK SMILES IDX 48 58 62 60 83 61 50 62 34 63 35 64 43 65 36 66 37 67 41 68
REMARK SMILES IDX 44 69 38 70 39 71 42 72 40 73 66 74 67 75 75 76 68 77 69 78
REMARK SMILES IDX 73 79 76 80 70 81 71 82 74 83 72 84 51 85 52 86 60 87 53 88
REMARK SMILES IDX 54 89 58 90 61 91 55 92 56 93 59 94 57 95
REMARK H PARENT 17 6 6 16 9 19 22 29 81 48 49 59
REMARK Flexibility Score: inf
ROOT
ATOM      1  C   UNL A   1      31.618  28.243  26.692  1.00  0.00     0.023 C 
ENDROOT
BRANCH   1   2
ATOM      2  C   UNL A   1      31.469  26.749  26.964  1.00  0.00     0.116 C 
BRANCH   2   3
ATOM      3  N   UNL A   1      32.530  25.998  26.322  1.00  0.00    -0.354 N 
ATOM      4  C   UNL A   1      32.479  25.098  25.300  1.00  0.00     0.245 C 
ATOM      5  O   UNL A   1      33.568  24.638  24.941  1.00  0.00    -0.272 OA
ATOM      6  H   UNL A   1      33.431  26.166  26.681  1.00  0.00     0.163 HD
BRANCH   4   7
ATOM      7  C   UNL A   1      31.121  24.587  24.730  1.00  0.00     0.120 C 
ATOM      8  C   UNL A   1      32.869  26.292  21.244  1.00  0.00     0.007 C 
ATOM      9  C   UNL A   1      31.759  25.473  21.911  1.00  0.00    -0.014 C 
ATOM     10  C   UNL A   1      30.966  26.375  22.873  1.00  0.00     0.006 C 
ATOM     11  C   UNL A   1      32.364  24.207  22.535  1.00  0.00     0.006 C 
ATOM     12  C   UNL A   1      30.264  25.653  24.022  1.00  0.00     0.039 C 
ATOM     13  C   UNL A   1      31.483  23.571  23.608  1.00  0.00     0.039 C 
BRANCH   7  14
ATOM     14  N   UNL A   1      30.306  23.909  25.767  1.00  0.00    -0.324 N 
ATOM     15  C   UNL A   1      30.515  23.010  26.734  1.00  0.00     0.315 C 
ATOM     16  H   UNL A   1      29.364  24.197  25.735  1.00  0.00     0.166 HD
ATOM     17  O   UNL A   1      29.634  22.912  27.593  1.00  0.00    -0.249 OA
ATOM     18  N   UNL A   1      31.563  22.192  26.850  1.00  0.00    -0.333 N 
ATOM     19  H   UNL A   1      31.581  21.739  27.724  1.00  0.00     0.165 HD
BRANCH  18  20
ATOM     20  C   UNL A   1      32.681  21.804  26.014  1.00  0.00     0.112 C 
ATOM     21  C   UNL A   1      33.987  21.601  26.746  1.00  0.00     0.056 C 
ATOM     22  C   UNL A   1      32.529  20.446  25.329  1.00  0.00     0.185 C 
ATOM     23  C   UNL A   1      34.786  20.870  25.690  1.00  0.00     0.162 C 
ATOM     24  O   UNL A   1      33.861  19.984  25.036  1.00  0.00    -0.379 OA
ENDBRANCH  18  20
ENDBRANCH   7  14
ENDBRANCH   4   7
ENDBRANCH   2   3
ENDBRANCH   1   2
BRANCH   1  25
ATOM     25  C   UNL A   1      32.270  28.564  25.346  1.00  0.00     0.023 C 
BRANCH  25  26
ATOM     26  C   UNL A   1      33.405  29.579  25.431  1.00  0.00     0.116 C 
BRANCH  26  27
ATOM     27  N   UNL A   1      32.924  30.882  25.868  1.00  0.00    -0.352 N 
ATOM     28  C   UNL A   1      33.295  31.611  26.967  1.00  0.00     0.251 C 
ATOM     29  H   UNL A   1      32.239  31.294  25.295  1.00  0.00     0.163 HD
ATOM     30  O   UNL A   1      32.606  32.555  27.350  1.00  0.00    -0.269 OA
BRANCH  28  31
ATOM     31  C   UNL A   1      34.529  31.258  27.695  1.00  0.00     0.039 A 
ATOM     32  C   UNL A   1      35.513  32.230  27.885  1.00  0.00     0.014 A 
ATOM     33  C   UNL A   1      34.716  29.957  28.170  1.00  0.00     0.014 A 
ATOM     34  C   UNL A   1      36.669  31.909  28.599  1.00  0.00     0.010 A 
ATOM     35  C   UNL A   1      35.836  29.657  28.939  1.00  0.00     0.010 A 
ATOM     36  C   UNL A   1      36.827  30.626  29.150  1.00  0.00    -0.014 A 
BRANCH  36  37
ATOM     37  C   UNL A   1      38.035  30.270  29.934  1.00  0.00     0.031 A 
ATOM     38  C   UNL A   1      39.044  29.317  29.360  1.00  0.00     0.074 A 
ATOM     39  C   UNL A   1      38.185  30.749  31.183  1.00  0.00     0.049 A 
ATOM     40  N   UNL A   1      40.121  28.819  29.914  1.00  0.00    -0.248 NA
ATOM     41  C   UNL A   1      38.797  28.839  27.991  1.00  0.00     0.031 C 
ATOM     42  C   UNL A   1      37.248  31.643  31.864  1.00  0.00     0.029 A 
ATOM     43  N   UNL A   1      39.176  30.537  32.107  1.00  0.00    -0.354 N 
ATOM     44  C   UNL A   1      40.666  27.959  28.971  1.00  0.00     0.074 A 
ATOM     45  C   UNL A   1      39.778  27.964  27.828  1.00  0.00     0.031 C 
ATOM     46  C   UNL A   1      37.717  31.916  33.093  1.00  0.00     0.029 A 
ATOM     47  C   UNL A   1      38.969  31.193  33.296  1.00  0.00     0.049 A 
ATOM     48  H   UNL A   1      39.962  29.970  31.935  1.00  0.00     0.167 HD
ATOM     49  C   UNL A   1      41.814  27.244  29.044  1.00  0.00     0.037 A 
ATOM     50  C   UNL A   1      39.705  31.202  34.423  1.00  0.00     0.037 A 
ATOM     51  C   UNL A   1      42.710  27.266  30.169  1.00  0.00     0.049 A 
ATOM     52  C   UNL A   1      40.982  30.408  34.474  1.00  0.00     0.074 A 
ATOM     53  C   UNL A   1      43.930  26.629  30.313  1.00  0.00     0.029 A 
ATOM     54  N   UNL A   1      42.481  27.965  31.345  1.00  0.00    -0.354 N 
ATOM     55  N   UNL A   1      41.522  29.650  33.551  1.00  0.00    -0.248 NA
ATOM     56  C   UNL A   1      41.756  30.479  35.721  1.00  0.00     0.031 C 
ATOM     57  C   UNL A   1      44.423  26.914  31.592  1.00  0.00     0.029 A 
ATOM     58  C   UNL A   1      43.529  27.762  32.227  1.00  0.00     0.049 A 
ATOM     59  H   UNL A   1      41.690  28.522  31.525  1.00  0.00     0.167 HD
ATOM     60  C   UNL A   1      42.707  29.174  34.093  1.00  0.00     0.074 A 
ATOM     61  C   UNL A   1      42.815  29.741  35.422  1.00  0.00     0.031 C 
ATOM     62  C   UNL A   1      43.623  28.342  33.542  1.00  0.00     0.037 A 
BRANCH  49  63
ATOM     63  C   UNL A   1      42.170  26.384  27.867  1.00  0.00     0.064 A 
ATOM     64  C   UNL A   1      41.612  25.107  27.696  1.00  0.00     0.173 A 
ATOM     65  C   UNL A   1      43.053  26.853  26.882  1.00  0.00     0.173 A 
ATOM     66  F   UNL A   1      40.773  24.609  28.616  1.00  0.00    -0.203 F 
ATOM     67  C   UNL A   1      41.946  24.322  26.596  1.00  0.00     0.198 A 
ATOM     68  C   UNL A   1      43.363  26.074  25.770  1.00  0.00     0.198 A 
ATOM     69  F   UNL A   1      43.611  28.067  26.997  1.00  0.00    -0.203 F 
ATOM     70  F   UNL A   1      41.437  23.088  26.477  1.00  0.00    -0.200 F 
ATOM     71  C   UNL A   1      42.815  24.809  25.631  1.00  0.00     0.200 A 
ATOM     72  F   UNL A   1      44.194  26.550  24.832  1.00  0.00    -0.200 F 
ATOM     73  F   UNL A   1      43.130  24.053  24.570  1.00  0.00    -0.200 F 
ENDBRANCH  49  63
BRANCH  50  74
ATOM     74  C   UNL A   1      39.267  32.016  35.586  1.00  0.00     0.064 A 
ATOM     75  C   UNL A   1      38.414  31.475  36.557  1.00  0.00     0.173 A 
ATOM     76  C   UNL A   1      39.693  33.341  35.752  1.00  0.00     0.173 A 
ATOM     77  F   UNL A   1      37.966  30.218  36.429  1.00  0.00    -0.203 F 
ATOM     78  C   UNL A   1      37.988  32.236  37.643  1.00  0.00     0.198 A 
ATOM     79  C   UNL A   1      39.285  34.094  36.852  1.00  0.00     0.198 A 
ATOM     80  F   UNL A   1      40.514  33.902  34.852  1.00  0.00    -0.203 F 
ATOM     81  F   UNL A   1      37.141  31.708  38.537  1.00  0.00    -0.200 F 
ATOM     82  C   UNL A   1      38.429  33.543  37.793  1.00  0.00     0.200 A 
ATOM     83  F   UNL A   1      39.722  35.351  37.000  1.00  0.00    -0.200 F 
ATOM     84  F   UNL A   1      38.021  34.273  38.840  1.00  0.00    -0.200 F 
ENDBRANCH  50  74
BRANCH  62  85
ATOM     85  C   UNL A   1      44.838  28.020  34.360  1.00  0.00     0.064 A 
ATOM     86  C   UNL A   1      45.981  28.832  34.326  1.00  0.00     0.173 A 
ATOM     87  C   UNL A   1      44.842  26.910  35.216  1.00  0.00     0.173 A 
ATOM     88  F   UNL A   1      46.030  29.895  33.510  1.00  0.00    -0.203 F 
ATOM     89  C   UNL A   1      47.094  28.530  35.106  1.00  0.00     0.198 A 
ATOM     90  C   UNL A   1      45.947  26.626  36.015  1.00  0.00     0.198 A 
ATOM     91  F   UNL A   1      43.771  26.106  35.288  1.00  0.00    -0.203 F 
ATOM     92  F   UNL A   1      48.192  29.294  35.028  1.00  0.00    -0.200 F 
ATOM     93  C   UNL A   1      47.073  27.433  35.954  1.00  0.00     0.200 A 
ATOM     94  F   UNL A   1      45.922  25.572  36.842  1.00  0.00    -0.200 F 
ATOM     95  F   UNL A   1      48.144  27.147  36.708  1.00  0.00    -0.200 F 
ENDBRANCH  62  85
ENDBRANCH  36  37
ENDBRANCH  28  31
ENDBRANCH  26  27
ENDBRANCH  25  26
ENDBRANCH   1  25
TORSDOF 13
ENDMDL
