MODEL 1
REMARK VINA RESULT:     -13.0      0.000      0.000
REMARK SMILES O=C(NCCCCNC(=O)[C@@H]1CCC(=O)N1C(=O)/C=C/c1ccccc1)c1ccc(-c2c3nc(c(-c4c(F)c(F)c(F)c(F)c4F)c4ccc([nH]4)c(-c4c(F)c(F)c(F)c(F)c4F)c4nc(c(-c5c(F)c(F)c(F)c(F)c5F)c5ccc2[nH]5)C=C4)C=C3)cc1
REMARK SMILES IDX 6 1 5 2 4 3 3 4 1 5 2 6 27 8 28 9 89 10 29 11 88 12 30 13
REMARK SMILES IDX 31 14 32 15 82 16 33 17 87 18 81 19 83 20 34 21 86 22 80 23
REMARK SMILES IDX 79 24 35 26 67 27 47 28 66 29 48 30 51 31 65 32 84 33 49 34
REMARK SMILES IDX 50 35 64 37 85 38 52 39 36 40 37 41 45 42 38 43 39 44 43 45
REMARK SMILES IDX 46 46 40 47 41 48 44 49 42 50 68 51 69 52 77 53 70 54 71 55
REMARK SMILES IDX 75 56 78 57 72 58 73 59 76 60 74 61 53 62 54 63 62 64 55 65
REMARK SMILES IDX 56 66 60 67 63 68 57 69 58 70 61 71 59 72 7 73 8 74 9 75
REMARK SMILES IDX 10 77 11 78 12 79 16 80 13 81 14 82 15 83 17 84 18 85 19 86
REMARK SMILES IDX 20 87 21 88 22 89 26 90 23 91 25 92 24 93
REMARK H PARENT 3 7 83 25 51 36 8 76
REMARK Flexibility Score: inf
ROOT
ATOM      1  C   UNL A   1      36.841  20.855  24.634  1.00  0.00     0.023 C 
ENDROOT
BRANCH   1   2
ATOM      2  C   UNL A   1      37.815  19.731  24.993  1.00  0.00     0.023 C 
BRANCH   2   3
ATOM      3  C   UNL A   1      39.071  20.187  25.717  1.00  0.00     0.116 C 
BRANCH   3   4
ATOM      4  N   UNL A   1      40.085  19.150  25.814  1.00  0.00    -0.352 N 
ATOM      5  O   UNL A   1      42.188  18.352  26.037  1.00  0.00    -0.269 OA
ATOM      6  C   UNL A   1      41.420  19.306  26.086  1.00  0.00     0.251 C 
ATOM      7  H   UNL A   1      39.776  18.226  25.667  1.00  0.00     0.163 HD
BRANCH   6   8
ATOM      8  C   UNL A   1      41.922  20.654  26.406  1.00  0.00     0.039 A 
ATOM      9  C   UNL A   1      42.190  21.567  25.382  1.00  0.00     0.014 A 
ATOM     10  C   UNL A   1      42.136  20.996  27.743  1.00  0.00     0.014 A 
ATOM     11  C   UNL A   1      42.759  22.796  25.689  1.00  0.00     0.010 A 
ATOM     12  C   UNL A   1      42.645  22.255  28.055  1.00  0.00     0.010 A 
ATOM     13  C   UNL A   1      42.964  23.160  27.030  1.00  0.00    -0.014 A 
BRANCH  13  14
ATOM     14  C   UNL A   1      43.389  24.540  27.350  1.00  0.00     0.031 A 
ATOM     15  C   UNL A   1      42.417  25.553  27.870  1.00  0.00     0.074 A 
ATOM     16  C   UNL A   1      44.678  24.866  27.132  1.00  0.00     0.049 A 
ATOM     17  N   UNL A   1      42.618  26.818  28.143  1.00  0.00    -0.248 NA
ATOM     18  C   UNL A   1      41.038  25.098  28.109  1.00  0.00     0.031 C 
ATOM     19  C   UNL A   1      45.696  23.952  26.606  1.00  0.00     0.029 A 
ATOM     20  N   UNL A   1      45.350  26.045  27.312  1.00  0.00    -0.354 N 
ATOM     21  C   UNL A   1      41.392  27.315  28.562  1.00  0.00     0.074 A 
ATOM     22  C   UNL A   1      40.447  26.220  28.502  1.00  0.00     0.031 C 
ATOM     23  C   UNL A   1      46.865  24.601  26.516  1.00  0.00     0.029 A 
ATOM     24  C   UNL A   1      46.664  25.988  26.918  1.00  0.00     0.049 A 
ATOM     25  H   UNL A   1      44.934  26.854  27.686  1.00  0.00     0.167 HD
ATOM     26  C   UNL A   1      41.096  28.574  28.961  1.00  0.00     0.037 A 
ATOM     27  C   UNL A   1      47.596  26.956  26.847  1.00  0.00     0.037 A 
ATOM     28  C   UNL A   1      42.057  29.644  29.043  1.00  0.00     0.049 A 
ATOM     29  C   UNL A   1      47.224  28.346  27.270  1.00  0.00     0.074 A 
ATOM     30  C   UNL A   1      41.881  30.926  29.530  1.00  0.00     0.029 A 
ATOM     31  N   UNL A   1      43.374  29.557  28.613  1.00  0.00    -0.354 N 
ATOM     32  N   UNL A   1      46.081  28.788  27.734  1.00  0.00    -0.248 NA
ATOM     33  C   UNL A   1      48.265  29.374  27.150  1.00  0.00     0.031 C 
ATOM     34  C   UNL A   1      43.073  31.633  29.346  1.00  0.00     0.029 A 
ATOM     35  C   UNL A   1      44.008  30.778  28.783  1.00  0.00     0.049 A 
ATOM     36  H   UNL A   1      43.795  28.748  28.243  1.00  0.00     0.167 HD
ATOM     37  C   UNL A   1      46.262  30.143  27.962  1.00  0.00     0.074 A 
ATOM     38  C   UNL A   1      47.636  30.445  27.613  1.00  0.00     0.031 C 
ATOM     39  C   UNL A   1      45.370  31.057  28.412  1.00  0.00     0.037 A 
BRANCH  26  40
ATOM     40  C   UNL A   1      39.677  28.889  29.328  1.00  0.00     0.064 A 
ATOM     41  C   UNL A   1      38.750  29.339  28.376  1.00  0.00     0.173 A 
ATOM     42  C   UNL A   1      39.215  28.640  30.630  1.00  0.00     0.173 A 
ATOM     43  F   UNL A   1      39.145  29.598  27.121  1.00  0.00    -0.203 F 
ATOM     44  C   UNL A   1      37.414  29.531  28.716  1.00  0.00     0.198 A 
ATOM     45  C   UNL A   1      37.874  28.815  30.961  1.00  0.00     0.198 A 
ATOM     46  F   UNL A   1      40.061  28.203  31.574  1.00  0.00    -0.203 F 
ATOM     47  F   UNL A   1      36.547  29.977  27.795  1.00  0.00    -0.200 F 
ATOM     48  C   UNL A   1      36.974  29.260  30.004  1.00  0.00     0.200 A 
ATOM     49  F   UNL A   1      37.450  28.541  32.202  1.00  0.00    -0.200 F 
ATOM     50  F   UNL A   1      35.683  29.428  30.323  1.00  0.00    -0.200 F 
ENDBRANCH  26  40
BRANCH  27  51
ATOM     51  C   UNL A   1      48.945  26.642  26.316  1.00  0.00     0.064 A 
ATOM     52  C   UNL A   1      49.928  26.065  27.129  1.00  0.00     0.173 A 
ATOM     53  C   UNL A   1      49.275  26.906  24.978  1.00  0.00     0.173 A 
ATOM     54  F   UNL A   1      49.666  25.812  28.419  1.00  0.00    -0.203 F 
ATOM     55  C   UNL A   1      51.196  25.777  26.628  1.00  0.00     0.198 A 
ATOM     56  C   UNL A   1      50.532  26.590  24.470  1.00  0.00     0.198 A 
ATOM     57  F   UNL A   1      48.366  27.454  24.156  1.00  0.00    -0.203 F 
ATOM     58  F   UNL A   1      52.132  25.261  27.437  1.00  0.00    -0.200 F 
ATOM     59  C   UNL A   1      51.494  26.033  25.297  1.00  0.00     0.200 A 
ATOM     60  F   UNL A   1      50.809  26.823  23.180  1.00  0.00    -0.200 F 
ATOM     61  F   UNL A   1      52.712  25.749  24.815  1.00  0.00    -0.200 F 
ENDBRANCH  27  51
BRANCH  39  62
ATOM     62  C   UNL A   1      45.854  32.469  28.540  1.00  0.00     0.064 A 
ATOM     63  C   UNL A   1      45.696  33.388  27.492  1.00  0.00     0.173 A 
ATOM     64  C   UNL A   1      46.449  32.917  29.728  1.00  0.00     0.173 A 
ATOM     65  F   UNL A   1      45.150  32.998  26.330  1.00  0.00    -0.203 F 
ATOM     66  C   UNL A   1      46.133  34.702  27.624  1.00  0.00     0.198 A 
ATOM     67  C   UNL A   1      46.862  34.238  29.865  1.00  0.00     0.198 A 
ATOM     68  F   UNL A   1      46.620  32.075  30.757  1.00  0.00    -0.203 F 
ATOM     69  F   UNL A   1      46.010  35.553  26.596  1.00  0.00    -0.200 F 
ATOM     70  C   UNL A   1      46.708  35.128  28.812  1.00  0.00     0.200 A 
ATOM     71  F   UNL A   1      47.409  34.651  31.016  1.00  0.00    -0.200 F 
ATOM     72  F   UNL A   1      47.124  36.395  28.939  1.00  0.00    -0.200 F 
ENDBRANCH  39  62
ENDBRANCH  13  14
ENDBRANCH   6   8
ENDBRANCH   3   4
ENDBRANCH   2   3
ENDBRANCH   1   2
BRANCH   1  73
ATOM     73  C   UNL A   1      36.840  22.036  25.613  1.00  0.00     0.116 C 
BRANCH  73  74
ATOM     74  N   UNL A   1      35.762  21.905  26.567  1.00  0.00    -0.354 N 
ATOM     75  C   UNL A   1      34.630  22.627  26.779  1.00  0.00     0.243 C 
ATOM     76  H   UNL A   1      35.868  21.145  27.184  1.00  0.00     0.163 HD
ATOM     77  O   UNL A   1      34.110  22.428  27.884  1.00  0.00    -0.273 OA
BRANCH  75  78
ATOM     78  C   UNL A   1      33.960  23.574  25.741  1.00  0.00     0.183 C 
ATOM     79  C   UNL A   1      34.411  25.024  25.653  1.00  0.00     0.046 C 
ATOM     80  N   UNL A   1      32.538  23.674  26.071  1.00  0.00    -0.266 N 
ATOM     81  C   UNL A   1      33.156  25.798  25.333  1.00  0.00     0.103 C 
ATOM     82  C   UNL A   1      32.141  25.015  26.109  1.00  0.00     0.230 C 
ATOM     83  O   UNL A   1      31.182  25.519  26.670  1.00  0.00    -0.274 OA
BRANCH  80  84
ATOM     84  C   UNL A   1      31.681  22.631  25.745  1.00  0.00     0.253 C 
ATOM     85  O   UNL A   1      30.576  22.469  26.255  1.00  0.00    -0.269 OA
BRANCH  84  86
ATOM     86  C   UNL A   1      32.196  21.621  24.791  1.00  0.00     0.072 C 
ATOM     87  C   UNL A   1      32.245  20.333  25.162  1.00  0.00     0.014 C 
BRANCH  87  88
ATOM     88  C   UNL A   1      32.819  19.224  24.385  1.00  0.00    -0.025 A 
ATOM     89  C   UNL A   1      33.971  18.595  24.886  1.00  0.00     0.008 A 
ATOM     90  C   UNL A   1      32.286  18.768  23.173  1.00  0.00     0.008 A 
ATOM     91  C   UNL A   1      34.573  17.541  24.195  1.00  0.00     0.001 A 
ATOM     92  C   UNL A   1      32.891  17.713  22.480  1.00  0.00     0.001 A 
ATOM     93  C   UNL A   1      34.031  17.100  22.992  1.00  0.00     0.000 A 
ENDBRANCH  87  88
ENDBRANCH  84  86
ENDBRANCH  80  84
ENDBRANCH  75  78
ENDBRANCH  73  74
ENDBRANCH   1  73
TORSDOF 14
ENDMDL
MODEL 2
REMARK VINA RESULT:     -12.9      0.192      1.959
REMARK SMILES O=C(NCCCCNC(=O)[C@@H]1CCC(=O)N1C(=O)/C=C/c1ccccc1)c1ccc(-c2c3nc(c(-c4c(F)c(F)c(F)c(F)c4F)c4ccc([nH]4)c(-c4c(F)c(F)c(F)c(F)c4F)c4nc(c(-c5c(F)c(F)c(F)c(F)c5F)c5ccc2[nH]5)C=C4)C=C3)cc1
REMARK SMILES IDX 6 1 5 2 4 3 3 4 1 5 2 6 27 8 28 9 89 10 29 11 88 12 30 13
REMARK SMILES IDX 31 14 32 15 82 16 33 17 87 18 81 19 83 20 34 21 86 22 80 23
REMARK SMILES IDX 79 24 35 26 67 27 47 28 66 29 48 30 51 31 65 32 84 33 49 34
REMARK SMILES IDX 50 35 64 37 85 38 52 39 36 40 37 41 45 42 38 43 39 44 43 45
REMARK SMILES IDX 46 46 40 47 41 48 44 49 42 50 68 51 69 52 77 53 70 54 71 55
REMARK SMILES IDX 75 56 78 57 72 58 73 59 76 60 74 61 53 62 54 63 62 64 55 65
REMARK SMILES IDX 56 66 60 67 63 68 57 69 58 70 61 71 59 72 7 73 8 74 9 75
REMARK SMILES IDX 10 77 11 78 12 79 16 80 13 81 14 82 15 83 17 84 18 85 19 86
REMARK SMILES IDX 20 87 21 88 22 89 26 90 23 91 25 92 24 93
REMARK H PARENT 3 7 83 25 51 36 8 76
REMARK Flexibility Score: inf
ROOT
ATOM      1  C   UNL A   1      36.748  20.835  24.704  1.00  0.00     0.023 C 
ENDROOT
BRANCH   1   2
ATOM      2  C   UNL A   1      37.776  19.728  24.947  1.00  0.00     0.023 C 
BRANCH   2   3
ATOM      3  C   UNL A   1      39.011  20.167  25.717  1.00  0.00     0.116 C 
BRANCH   3   4
ATOM      4  N   UNL A   1      40.034  19.137  25.794  1.00  0.00    -0.352 N 
ATOM      5  O   UNL A   1      42.144  18.354  25.998  1.00  0.00    -0.269 OA
ATOM      6  C   UNL A   1      41.368  19.300  26.065  1.00  0.00     0.251 C 
ATOM      7  H   UNL A   1      39.733  18.213  25.632  1.00  0.00     0.163 HD
BRANCH   6   8
ATOM      8  C   UNL A   1      41.860  20.647  26.407  1.00  0.00     0.039 A 
ATOM      9  C   UNL A   1      42.117  21.579  25.399  1.00  0.00     0.014 A 
ATOM     10  C   UNL A   1      42.074  20.967  27.749  1.00  0.00     0.014 A 
ATOM     11  C   UNL A   1      42.676  22.808  25.726  1.00  0.00     0.010 A 
ATOM     12  C   UNL A   1      42.572  22.225  28.082  1.00  0.00     0.010 A 
ATOM     13  C   UNL A   1      42.881  23.150  27.072  1.00  0.00    -0.014 A 
BRANCH  13  14
ATOM     14  C   UNL A   1      43.295  24.529  27.415  1.00  0.00     0.031 A 
ATOM     15  C   UNL A   1      42.316  25.522  27.961  1.00  0.00     0.074 A 
ATOM     16  C   UNL A   1      44.579  24.871  27.194  1.00  0.00     0.049 A 
ATOM     17  N   UNL A   1      42.507  26.783  28.256  1.00  0.00    -0.248 NA
ATOM     18  C   UNL A   1      40.944  25.049  28.200  1.00  0.00     0.031 C 
ATOM     19  C   UNL A   1      45.602  23.978  26.643  1.00  0.00     0.029 A 
ATOM     20  N   UNL A   1      45.240  26.054  27.391  1.00  0.00    -0.354 N 
ATOM     21  C   UNL A   1      41.279  27.260  28.693  1.00  0.00     0.074 A 
ATOM     22  C   UNL A   1      40.344  26.158  28.619  1.00  0.00     0.031 C 
ATOM     23  C   UNL A   1      46.764  24.639  26.557  1.00  0.00     0.029 A 
ATOM     24  C   UNL A   1      46.552  26.017  26.986  1.00  0.00     0.049 A 
ATOM     25  H   UNL A   1      44.819  26.852  27.783  1.00  0.00     0.167 HD
ATOM     26  C   UNL A   1      40.974  28.509  29.117  1.00  0.00     0.037 A 
ATOM     27  C   UNL A   1      47.474  26.995  26.928  1.00  0.00     0.037 A 
ATOM     28  C   UNL A   1      41.925  29.586  29.212  1.00  0.00     0.049 A 
ATOM     29  C   UNL A   1      47.091  28.373  27.379  1.00  0.00     0.074 A 
ATOM     30  C   UNL A   1      41.739  30.858  29.725  1.00  0.00     0.029 A 
ATOM     31  N   UNL A   1      43.240  29.521  28.772  1.00  0.00    -0.354 N 
ATOM     32  N   UNL A   1      45.947  28.795  27.859  1.00  0.00    -0.248 NA
ATOM     33  C   UNL A   1      48.121  29.414  27.270  1.00  0.00     0.031 C 
ATOM     34  C   UNL A   1      42.924  31.579  29.546  1.00  0.00     0.029 A 
ATOM     35  C   UNL A   1      43.862  30.745  28.960  1.00  0.00     0.049 A 
ATOM     36  H   UNL A   1      43.666  28.723  28.383  1.00  0.00     0.167 HD
ATOM     37  C   UNL A   1      46.117  30.147  28.111  1.00  0.00     0.074 A 
ATOM     38  C   UNL A   1      47.485  30.470  27.758  1.00  0.00     0.031 C 
ATOM     39  C   UNL A   1      45.219  31.044  28.584  1.00  0.00     0.037 A 
BRANCH  26  40
ATOM     40  C   UNL A   1      39.554  28.803  29.500  1.00  0.00     0.064 A 
ATOM     41  C   UNL A   1      39.084  28.599  30.804  1.00  0.00     0.173 A 
ATOM     42  C   UNL A   1      38.682  29.393  28.570  1.00  0.00     0.173 A 
ATOM     43  F   UNL A   1      39.877  28.032  31.726  1.00  0.00    -0.203 F 
ATOM     44  C   UNL A   1      37.791  28.970  31.164  1.00  0.00     0.198 A 
ATOM     45  C   UNL A   1      37.397  29.780  28.939  1.00  0.00     0.198 A 
ATOM     46  F   UNL A   1      39.087  29.614  27.311  1.00  0.00    -0.203 F 
ATOM     47  F   UNL A   1      37.355  28.751  32.413  1.00  0.00    -0.200 F 
ATOM     48  C   UNL A   1      36.952  29.569  30.235  1.00  0.00     0.200 A 
ATOM     49  F   UNL A   1      36.593  30.369  28.043  1.00  0.00    -0.200 F 
ATOM     50  F   UNL A   1      35.715  29.943  30.590  1.00  0.00    -0.200 F 
ENDBRANCH  26  40
BRANCH  27  51
ATOM     51  C   UNL A   1      48.822  26.705  26.381  1.00  0.00     0.064 A 
ATOM     52  C   UNL A   1      49.121  26.927  25.032  1.00  0.00     0.173 A 
ATOM     53  C   UNL A   1      49.845  26.207  27.204  1.00  0.00     0.173 A 
ATOM     54  F   UNL A   1      48.171  27.385  24.203  1.00  0.00    -0.203 F 
ATOM     55  C   UNL A   1      50.387  26.648  24.521  1.00  0.00     0.198 A 
ATOM     56  C   UNL A   1      51.118  25.957  26.700  1.00  0.00     0.198 A 
ATOM     57  F   UNL A   1      49.610  25.982  28.506  1.00  0.00    -0.203 F 
ATOM     58  F   UNL A   1      50.635  26.832  23.217  1.00  0.00    -0.200 F 
ATOM     59  C   UNL A   1      51.386  26.170  25.357  1.00  0.00     0.200 A 
ATOM     60  F   UNL A   1      52.084  25.513  27.515  1.00  0.00    -0.200 F 
ATOM     61  F   UNL A   1      52.605  25.910  24.866  1.00  0.00    -0.200 F 
ENDBRANCH  27  51
BRANCH  39  62
ATOM     62  C   UNL A   1      45.690  32.458  28.736  1.00  0.00     0.064 A 
ATOM     63  C   UNL A   1      46.336  32.886  29.905  1.00  0.00     0.173 A 
ATOM     64  C   UNL A   1      45.525  33.384  27.695  1.00  0.00     0.173 A 
ATOM     65  F   UNL A   1      46.496  32.039  30.934  1.00  0.00    -0.203 F 
ATOM     66  C   UNL A   1      46.785  34.195  30.034  1.00  0.00     0.198 A 
ATOM     67  C   UNL A   1      45.998  34.686  27.819  1.00  0.00     0.198 A 
ATOM     68  F   UNL A   1      44.915  33.021  26.558  1.00  0.00    -0.203 F 
ATOM     69  F   UNL A   1      47.362  34.595  31.176  1.00  0.00    -0.200 F 
ATOM     70  C   UNL A   1      46.623  35.093  28.989  1.00  0.00     0.200 A 
ATOM     71  F   UNL A   1      45.851  35.549  26.804  1.00  0.00    -0.200 F 
ATOM     72  F   UNL A   1      47.062  36.352  29.112  1.00  0.00    -0.200 F 
ENDBRANCH  39  62
ENDBRANCH  13  14
ENDBRANCH   6   8
ENDBRANCH   3   4
ENDBRANCH   2   3
ENDBRANCH   1   2
BRANCH   1  73
ATOM     73  C   UNL A   1      36.797  21.985  25.718  1.00  0.00     0.116 C 
BRANCH  73  74
ATOM     74  N   UNL A   1      35.695  21.889  26.649  1.00  0.00    -0.354 N 
ATOM     75  C   UNL A   1      34.566  22.628  26.815  1.00  0.00     0.243 C 
ATOM     76  H   UNL A   1      35.778  21.144  27.287  1.00  0.00     0.163 HD
ATOM     77  O   UNL A   1      34.017  22.463  27.912  1.00  0.00    -0.273 OA
BRANCH  75  78
ATOM     78  C   UNL A   1      33.931  23.555  25.737  1.00  0.00     0.183 C 
ATOM     79  C   UNL A   1      34.379  25.006  25.643  1.00  0.00     0.046 C 
ATOM     80  N   UNL A   1      32.497  23.653  26.012  1.00  0.00    -0.266 N 
ATOM     81  C   UNL A   1      33.133  25.768  25.263  1.00  0.00     0.103 C 
ATOM     82  C   UNL A   1      32.093  24.993  26.013  1.00  0.00     0.230 C 
ATOM     83  O   UNL A   1      31.112  25.501  26.531  1.00  0.00    -0.274 OA
BRANCH  80  84
ATOM     84  C   UNL A   1      31.658  22.601  25.671  1.00  0.00     0.253 C 
ATOM     85  O   UNL A   1      30.539  22.435  26.151  1.00  0.00    -0.269 OA
BRANCH  84  86
ATOM     86  C   UNL A   1      32.207  21.587  24.742  1.00  0.00     0.072 C 
ATOM     87  C   UNL A   1      32.214  20.296  25.109  1.00  0.00     0.014 C 
BRANCH  87  88
ATOM     88  C   UNL A   1      32.811  19.180  24.359  1.00  0.00    -0.025 A 
ATOM     89  C   UNL A   1      33.968  18.580  24.881  1.00  0.00     0.008 A 
ATOM     90  C   UNL A   1      32.295  18.692  23.152  1.00  0.00     0.008 A 
ATOM     91  C   UNL A   1      34.592  17.521  24.217  1.00  0.00     0.001 A 
ATOM     92  C   UNL A   1      32.921  17.633  22.485  1.00  0.00     0.001 A 
ATOM     93  C   UNL A   1      34.067  17.048  23.019  1.00  0.00     0.000 A 
ENDBRANCH  87  88
ENDBRANCH  84  86
ENDBRANCH  80  84
ENDBRANCH  75  78
ENDBRANCH  73  74
ENDBRANCH   1  73
TORSDOF 14
ENDMDL
MODEL 3
REMARK VINA RESULT:     -12.6      5.711     11.237
REMARK SMILES O=C(NCCCCNC(=O)[C@@H]1CCC(=O)N1C(=O)/C=C/c1ccccc1)c1ccc(-c2c3nc(c(-c4c(F)c(F)c(F)c(F)c4F)c4ccc([nH]4)c(-c4c(F)c(F)c(F)c(F)c4F)c4nc(c(-c5c(F)c(F)c(F)c(F)c5F)c5ccc2[nH]5)C=C4)C=C3)cc1
REMARK SMILES IDX 6 1 5 2 4 3 3 4 1 5 2 6 27 8 28 9 89 10 29 11 88 12 30 13
REMARK SMILES IDX 31 14 32 15 82 16 33 17 87 18 81 19 83 20 34 21 86 22 80 23
REMARK SMILES IDX 79 24 35 26 67 27 47 28 66 29 48 30 51 31 65 32 84 33 49 34
REMARK SMILES IDX 50 35 64 37 85 38 52 39 36 40 37 41 45 42 38 43 39 44 43 45
REMARK SMILES IDX 46 46 40 47 41 48 44 49 42 50 68 51 69 52 77 53 70 54 71 55
REMARK SMILES IDX 75 56 78 57 72 58 73 59 76 60 74 61 53 62 54 63 62 64 55 65
REMARK SMILES IDX 56 66 60 67 63 68 57 69 58 70 61 71 59 72 7 73 8 74 9 75
REMARK SMILES IDX 10 77 11 78 12 79 16 80 13 81 14 82 15 83 17 84 18 85 19 86
REMARK SMILES IDX 20 87 21 88 22 89 26 90 23 91 25 92 24 93
REMARK H PARENT 3 7 83 25 51 36 8 76
REMARK Flexibility Score: inf
ROOT
ATOM      1  C   UNL A   1      31.580  30.729  25.972  1.00  0.00     0.023 C 
ENDROOT
BRANCH   1   2
ATOM      2  C   UNL A   1      31.444  31.954  26.879  1.00  0.00     0.023 C 
BRANCH   2   3
ATOM      3  C   UNL A   1      32.692  32.817  26.971  1.00  0.00     0.116 C 
BRANCH   3   4
ATOM      4  N   UNL A   1      32.447  34.116  27.576  1.00  0.00    -0.352 N 
ATOM      5  O   UNL A   1      32.746  35.757  29.100  1.00  0.00    -0.269 OA
ATOM      6  C   UNL A   1      33.124  34.696  28.618  1.00  0.00     0.251 C 
ATOM      7  H   UNL A   1      31.707  34.641  27.191  1.00  0.00     0.163 HD
BRANCH   6   8
ATOM      8  C   UNL A   1      34.298  33.998  29.172  1.00  0.00     0.039 A 
ATOM      9  C   UNL A   1      35.588  34.397  28.814  1.00  0.00     0.014 A 
ATOM     10  C   UNL A   1      34.097  32.930  30.048  1.00  0.00     0.014 A 
ATOM     11  C   UNL A   1      36.682  33.668  29.263  1.00  0.00     0.010 A 
ATOM     12  C   UNL A   1      35.199  32.240  30.551  1.00  0.00     0.010 A 
ATOM     13  C   UNL A   1      36.497  32.602  30.157  1.00  0.00    -0.014 A 
BRANCH  13  14
ATOM     14  C   UNL A   1      37.677  31.960  30.775  1.00  0.00     0.031 A 
ATOM     15  C   UNL A   1      38.473  30.924  30.042  1.00  0.00     0.074 A 
ATOM     16  C   UNL A   1      37.998  32.317  32.033  1.00  0.00     0.049 A 
ATOM     17  N   UNL A   1      39.496  30.226  30.464  1.00  0.00    -0.248 NA
ATOM     18  C   UNL A   1      38.068  30.622  28.660  1.00  0.00     0.031 C 
ATOM     19  C   UNL A   1      37.269  33.302  32.837  1.00  0.00     0.029 A 
ATOM     20  N   UNL A   1      39.004  31.892  32.860  1.00  0.00    -0.354 N 
ATOM     21  C   UNL A   1      39.843  29.388  29.414  1.00  0.00     0.074 A 
ATOM     22  C   UNL A   1      38.919  29.656  28.334  1.00  0.00     0.031 C 
ATOM     23  C   UNL A   1      37.857  33.414  34.036  1.00  0.00     0.029 A 
ATOM     24  C   UNL A   1      38.963  32.467  34.106  1.00  0.00     0.049 A 
ATOM     25  H   UNL A   1      39.689  31.240  32.588  1.00  0.00     0.167 HD
ATOM     26  C   UNL A   1      40.848  28.482  29.369  1.00  0.00     0.037 A 
ATOM     27  C   UNL A   1      39.709  32.228  35.200  1.00  0.00     0.037 A 
ATOM     28  C   UNL A   1      41.778  28.250  30.445  1.00  0.00     0.049 A 
ATOM     29  C   UNL A   1      40.795  31.196  35.122  1.00  0.00     0.074 A 
ATOM     30  C   UNL A   1      42.891  27.429  30.460  1.00  0.00     0.029 A 
ATOM     31  N   UNL A   1      41.693  28.832  31.702  1.00  0.00    -0.354 N 
ATOM     32  N   UNL A   1      41.161  30.462  34.100  1.00  0.00    -0.248 NA
ATOM     33  C   UNL A   1      41.563  30.951  36.348  1.00  0.00     0.031 C 
ATOM     34  C   UNL A   1      43.449  27.472  31.742  1.00  0.00     0.029 A 
ATOM     35  C   UNL A   1      42.708  28.353  32.514  1.00  0.00     0.049 A 
ATOM     36  H   UNL A   1      41.013  29.489  31.975  1.00  0.00     0.167 HD
ATOM     37  C   UNL A   1      42.201  29.668  34.557  1.00  0.00     0.074 A 
ATOM     38  C   UNL A   1      42.428  30.032  35.941  1.00  0.00     0.031 C 
ATOM     39  C   UNL A   1      42.901  28.717  33.893  1.00  0.00     0.037 A 
BRANCH  26  40
ATOM     40  C   UNL A   1      41.002  27.652  28.130  1.00  0.00     0.064 A 
ATOM     41  C   UNL A   1      41.785  28.077  27.049  1.00  0.00     0.173 A 
ATOM     42  C   UNL A   1      40.438  26.367  28.069  1.00  0.00     0.173 A 
ATOM     43  F   UNL A   1      42.340  29.299  27.057  1.00  0.00    -0.203 F 
ATOM     44  C   UNL A   1      41.995  27.250  25.948  1.00  0.00     0.198 A 
ATOM     45  C   UNL A   1      40.666  25.535  26.977  1.00  0.00     0.198 A 
ATOM     46  F   UNL A   1      39.685  25.912  29.081  1.00  0.00    -0.203 F 
ATOM     47  F   UNL A   1      42.735  27.682  24.918  1.00  0.00    -0.200 F 
ATOM     48  C   UNL A   1      41.444  25.976  25.917  1.00  0.00     0.200 A 
ATOM     49  F   UNL A   1      40.142  24.302  26.954  1.00  0.00    -0.200 F 
ATOM     50  F   UNL A   1      41.664  25.174  24.866  1.00  0.00    -0.200 F 
ENDBRANCH  26  40
BRANCH  27  51
ATOM     51  C   UNL A   1      39.416  32.950  36.463  1.00  0.00     0.064 A 
ATOM     52  C   UNL A   1      38.532  32.422  37.412  1.00  0.00     0.173 A 
ATOM     53  C   UNL A   1      40.023  34.182  36.750  1.00  0.00     0.173 A 
ATOM     54  F   UNL A   1      37.913  31.256  37.174  1.00  0.00    -0.203 F 
ATOM     55  C   UNL A   1      38.255  33.105  38.594  1.00  0.00     0.198 A 
ATOM     56  C   UNL A   1      39.770  34.850  37.945  1.00  0.00     0.198 A 
ATOM     57  F   UNL A   1      40.882  34.728  35.876  1.00  0.00    -0.203 F 
ATOM     58  F   UNL A   1      37.375  32.597  39.468  1.00  0.00    -0.200 F 
ATOM     59  C   UNL A   1      38.879  34.315  38.862  1.00  0.00     0.200 A 
ATOM     60  F   UNL A   1      40.389  36.008  38.207  1.00  0.00    -0.200 F 
ATOM     61  F   UNL A   1      38.618  34.967  40.003  1.00  0.00    -0.200 F 
ENDBRANCH  27  51
BRANCH  39  62
ATOM     62  C   UNL A   1      43.968  28.001  34.663  1.00  0.00     0.064 A 
ATOM     63  C   UNL A   1      45.258  28.539  34.786  1.00  0.00     0.173 A 
ATOM     64  C   UNL A   1      43.693  26.787  35.308  1.00  0.00     0.173 A 
ATOM     65  F   UNL A   1      45.571  29.688  34.167  1.00  0.00    -0.203 F 
ATOM     66  C   UNL A   1      46.240  27.877  35.515  1.00  0.00     0.198 A 
ATOM     67  C   UNL A   1      44.671  26.141  36.057  1.00  0.00     0.198 A 
ATOM     68  F   UNL A   1      42.474  26.235  35.220  1.00  0.00    -0.203 F 
ATOM     69  F   UNL A   1      47.477  28.387  35.586  1.00  0.00    -0.200 F 
ATOM     70  C   UNL A   1      45.944  26.683  36.157  1.00  0.00     0.200 A 
ATOM     71  F   UNL A   1      44.382  24.992  36.685  1.00  0.00    -0.200 F 
ATOM     72  F   UNL A   1      46.890  26.050  36.863  1.00  0.00    -0.200 F 
ENDBRANCH  39  62
ENDBRANCH  13  14
ENDBRANCH   6   8
ENDBRANCH   3   4
ENDBRANCH   2   3
ENDBRANCH   1   2
BRANCH   1  73
ATOM     73  C   UNL A   1      32.950  30.042  26.028  1.00  0.00     0.116 C 
BRANCH  73  74
ATOM     74  N   UNL A   1      33.421  29.737  24.695  1.00  0.00    -0.354 N 
ATOM     75  C   UNL A   1      33.721  28.568  24.072  1.00  0.00     0.243 C 
ATOM     76  H   UNL A   1      33.549  30.532  24.129  1.00  0.00     0.163 HD
ATOM     77  O   UNL A   1      34.405  28.707  23.050  1.00  0.00    -0.273 OA
BRANCH  75  78
ATOM     78  C   UNL A   1      33.220  27.161  24.510  1.00  0.00     0.183 C 
ATOM     79  C   UNL A   1      34.036  26.355  25.511  1.00  0.00     0.046 C 
ATOM     80  N   UNL A   1      33.183  26.303  23.325  1.00  0.00    -0.266 N 
ATOM     81  C   UNL A   1      33.874  24.921  25.070  1.00  0.00     0.103 C 
ATOM     82  C   UNL A   1      33.829  25.089  23.582  1.00  0.00     0.230 C 
ATOM     83  O   UNL A   1      34.311  24.291  22.795  1.00  0.00    -0.274 OA
BRANCH  80  84
ATOM     84  C   UNL A   1      32.148  26.440  22.409  1.00  0.00     0.253 C 
ATOM     85  O   UNL A   1      32.227  26.098  21.232  1.00  0.00    -0.269 OA
BRANCH  84  86
ATOM     86  C   UNL A   1      30.925  27.125  22.886  1.00  0.00     0.072 C 
ATOM     87  C   UNL A   1      30.598  28.320  22.371  1.00  0.00     0.014 C 
BRANCH  87  88
ATOM     88  C   UNL A   1      29.484  29.179  22.801  1.00  0.00    -0.025 A 
ATOM     89  C   UNL A   1      28.202  28.610  22.869  1.00  0.00     0.008 A 
ATOM     90  C   UNL A   1      29.630  30.530  23.136  1.00  0.00     0.008 A 
ATOM     91  C   UNL A   1      27.097  29.370  23.262  1.00  0.00     0.001 A 
ATOM     92  C   UNL A   1      28.524  31.292  23.527  1.00  0.00     0.001 A 
ATOM     93  C   UNL A   1      27.259  30.711  23.592  1.00  0.00     0.000 A 
ENDBRANCH  87  88
ENDBRANCH  84  86
ENDBRANCH  80  84
ENDBRANCH  75  78
ENDBRANCH  73  74
ENDBRANCH   1  73
TORSDOF 14
ENDMDL
