MODEL 1
REMARK VINA RESULT:     -12.7      0.000      0.000
REMARK SMILES Cc1cc(C(=O)NCCCCNC(=O)c2ccc(-c3c4nc(c(-c5c(F)c(F)c(F)c(F)c5F)c5ccc([nH]5)c(-c5c(F)c(F)c(F)c(F)c5F)c5nc(c(-c6c(F)c(F)c(F)c(F)c6F)c6ccc3[nH]6)C=C5)C=C4)cc2)ccc1NC(=O)CCl
REMARK SMILES IDX 9 1 8 2 7 3 5 4 6 5 4 7 1 8 2 9 3 10 80 11 79 12 78 13 81 14
REMARK SMILES IDX 82 15 83 17 84 18 85 19 10 20 11 21 12 22 13 23 14 25 15 26
REMARK SMILES IDX 16 27 77 28 17 29 76 30 18 31 19 32 20 33 70 34 21 35 75 36
REMARK SMILES IDX 69 37 71 38 22 39 74 40 68 41 67 42 23 44 55 45 35 46 54 47
REMARK SMILES IDX 36 48 39 49 53 50 72 51 37 52 38 53 52 55 73 56 40 57 24 58
REMARK SMILES IDX 25 59 33 60 26 61 27 62 31 63 34 64 28 65 29 66 32 67 30 68
REMARK SMILES IDX 56 69 57 70 65 71 58 72 59 73 63 74 66 75 60 76 61 77 64 78
REMARK SMILES IDX 62 79 41 80 42 81 50 82 43 83 44 84 48 85 51 86 45 87 46 88
REMARK SMILES IDX 49 89 47 90
REMARK H PARENT 7 6 81 16 12 24 71 43 39 54
REMARK Flexibility Score: inf
ROOT
ATOM      1  C   UNL A   1      31.959  30.500  26.562  1.00  0.00     0.023 C 
ENDROOT
BRANCH   1   2
ATOM      2  C   UNL A   1      31.795  29.407  25.490  1.00  0.00     0.116 C 
BRANCH   2   3
ATOM      3  N   UNL A   1      32.794  29.499  24.439  1.00  0.00    -0.352 N 
ATOM      4  C   UNL A   1      33.570  28.571  23.788  1.00  0.00     0.251 C 
ATOM      5  O   UNL A   1      34.260  28.991  22.857  1.00  0.00    -0.269 OA
ATOM      6  H   UNL A   1      32.946  30.419  24.128  1.00  0.00     0.163 HD
BRANCH   4   7
ATOM      7  C   UNL A   1      33.627  27.115  24.126  1.00  0.00     0.040 A 
ATOM      8  C   UNL A   1      33.135  23.950  22.086  1.00  0.00     0.046 C 
ATOM      9  C   UNL A   1      33.415  24.791  23.308  1.00  0.00    -0.027 A 
ATOM     10  C   UNL A   1      33.350  26.194  23.106  1.00  0.00     0.019 A 
ATOM     11  C   UNL A   1      33.762  24.284  24.580  1.00  0.00     0.044 A 
ATOM     12  C   UNL A   1      34.049  25.210  25.579  1.00  0.00     0.027 A 
ATOM     13  C   UNL A   1      33.992  26.591  25.356  1.00  0.00     0.016 A 
BRANCH  11  14
ATOM     14  N   UNL A   1      33.816  22.890  24.787  1.00  0.00    -0.325 N 
ATOM     15  C   UNL A   1      34.796  21.943  24.840  1.00  0.00     0.239 C 
ATOM     16  H   UNL A   1      32.921  22.505  24.928  1.00  0.00     0.169 HD
ATOM     17  O   UNL A   1      34.418  20.782  25.050  1.00  0.00    -0.273 OA
BRANCH  15  18
ATOM     18  C   UNL A   1      36.271  22.223  24.695  1.00  0.00     0.209 C 
ATOM     19  Cl  UNL A   1      36.611  22.826  23.061  1.00  0.00    -0.116 Cl
ENDBRANCH  15  18
ENDBRANCH  11  14
ENDBRANCH   4   7
ENDBRANCH   2   3
ENDBRANCH   1   2
BRANCH   1  20
ATOM     20  C   UNL A   1      33.137  30.286  27.515  1.00  0.00     0.023 C 
BRANCH  20  21
ATOM     21  C   UNL A   1      34.317  31.204  27.228  1.00  0.00     0.116 C 
BRANCH  21  22
ATOM     22  N   UNL A   1      34.877  31.875  28.396  1.00  0.00    -0.352 N 
ATOM     23  C   UNL A   1      35.771  31.400  29.347  1.00  0.00     0.251 C 
ATOM     24  H   UNL A   1      34.576  32.802  28.529  1.00  0.00     0.163 HD
ATOM     25  O   UNL A   1      36.045  32.079  30.320  1.00  0.00    -0.269 OA
BRANCH  23  26
ATOM     26  C   UNL A   1      36.510  30.132  29.096  1.00  0.00     0.039 A 
ATOM     27  C   UNL A   1      36.736  29.286  30.190  1.00  0.00     0.014 A 
ATOM     28  C   UNL A   1      37.180  29.911  27.898  1.00  0.00     0.014 A 
ATOM     29  C   UNL A   1      37.833  28.430  30.174  1.00  0.00     0.010 A 
ATOM     30  C   UNL A   1      38.337  29.160  27.922  1.00  0.00     0.010 A 
ATOM     31  C   UNL A   1      38.709  28.488  29.092  1.00  0.00    -0.014 A 
BRANCH  31  32
ATOM     32  C   UNL A   1      40.101  28.056  29.169  1.00  0.00     0.031 A 
ATOM     33  C   UNL A   1      40.515  26.720  28.695  1.00  0.00     0.074 A 
ATOM     34  C   UNL A   1      41.036  28.964  29.532  1.00  0.00     0.049 A 
ATOM     35  N   UNL A   1      41.635  26.151  28.998  1.00  0.00    -0.248 NA
ATOM     36  C   UNL A   1      39.659  25.884  27.867  1.00  0.00     0.031 C 
ATOM     37  C   UNL A   1      42.481  28.880  29.336  1.00  0.00     0.029 A 
ATOM     38  N   UNL A   1      40.862  30.104  30.339  1.00  0.00    -0.354 N 
ATOM     39  C   UNL A   1      41.779  25.041  28.193  1.00  0.00     0.074 A 
ATOM     40  C   UNL A   1      40.482  24.872  27.583  1.00  0.00     0.031 C 
ATOM     41  C   UNL A   1      43.086  29.708  30.201  1.00  0.00     0.029 A 
ATOM     42  C   UNL A   1      42.057  30.227  31.084  1.00  0.00     0.049 A 
ATOM     43  H   UNL A   1      40.073  30.692  30.376  1.00  0.00     0.167 HD
ATOM     44  C   UNL A   1      43.024  24.498  28.039  1.00  0.00     0.037 A 
ATOM     45  C   UNL A   1      42.064  30.100  32.443  1.00  0.00     0.037 A 
ATOM     46  C   UNL A   1      43.982  25.124  28.957  1.00  0.00     0.049 A 
ATOM     47  C   UNL A   1      42.941  28.981  32.955  1.00  0.00     0.074 A 
ATOM     48  C   UNL A   1      44.962  26.089  28.785  1.00  0.00     0.029 A 
ATOM     49  N   UNL A   1      43.809  24.984  30.331  1.00  0.00    -0.354 N 
ATOM     50  N   UNL A   1      43.367  27.998  32.213  1.00  0.00    -0.248 NA
ATOM     51  C   UNL A   1      43.368  28.856  34.346  1.00  0.00     0.031 C 
ATOM     52  C   UNL A   1      45.337  26.570  30.064  1.00  0.00     0.029 A 
ATOM     53  C   UNL A   1      44.600  25.886  31.015  1.00  0.00     0.049 A 
ATOM     54  H   UNL A   1      43.207  24.331  30.756  1.00  0.00     0.167 HD
ATOM     55  C   UNL A   1      44.069  27.111  32.987  1.00  0.00     0.074 A 
ATOM     56  C   UNL A   1      44.062  27.705  34.310  1.00  0.00     0.031 C 
ATOM     57  C   UNL A   1      44.576  25.954  32.469  1.00  0.00     0.037 A 
BRANCH  44  58
ATOM     58  C   UNL A   1      43.459  23.631  26.861  1.00  0.00     0.064 A 
ATOM     59  C   UNL A   1      43.086  22.267  26.797  1.00  0.00     0.173 A 
ATOM     60  C   UNL A   1      44.310  24.036  25.816  1.00  0.00     0.173 A 
ATOM     61  F   UNL A   1      42.177  21.748  27.633  1.00  0.00    -0.203 F 
ATOM     62  C   UNL A   1      43.627  21.373  25.865  1.00  0.00     0.198 A 
ATOM     63  C   UNL A   1      44.884  23.138  24.908  1.00  0.00     0.198 A 
ATOM     64  F   UNL A   1      44.572  25.323  25.578  1.00  0.00    -0.203 F 
ATOM     65  F   UNL A   1      43.249  20.087  25.878  1.00  0.00    -0.200 F 
ATOM     66  C   UNL A   1      44.558  21.802  24.943  1.00  0.00     0.200 A 
ATOM     67  F   UNL A   1      45.755  23.589  23.993  1.00  0.00    -0.200 F 
ATOM     68  F   UNL A   1      45.108  20.942  24.076  1.00  0.00    -0.200 F 
ENDBRANCH  44  58
BRANCH  45  69
ATOM     69  C   UNL A   1      40.802  30.550  33.083  1.00  0.00     0.064 A 
ATOM     70  C   UNL A   1      40.571  31.933  33.208  1.00  0.00     0.173 A 
ATOM     71  C   UNL A   1      39.701  29.695  33.213  1.00  0.00     0.173 A 
ATOM     72  F   UNL A   1      41.594  32.796  33.082  1.00  0.00    -0.203 F 
ATOM     73  C   UNL A   1      39.284  32.445  33.346  1.00  0.00     0.198 A 
ATOM     74  C   UNL A   1      38.411  30.212  33.363  1.00  0.00     0.198 A 
ATOM     75  F   UNL A   1      39.849  28.371  33.076  1.00  0.00    -0.203 F 
ATOM     76  F   UNL A   1      39.090  33.772  33.353  1.00  0.00    -0.200 F 
ATOM     77  C   UNL A   1      38.202  31.584  33.397  1.00  0.00     0.200 A 
ATOM     78  F   UNL A   1      37.359  29.382  33.372  1.00  0.00    -0.200 F 
ATOM     79  F   UNL A   1      36.954  32.074  33.430  1.00  0.00    -0.200 F 
ENDBRANCH  45  69
BRANCH  57  80
ATOM     80  C   UNL A   1      45.166  24.816  33.263  1.00  0.00     0.064 A 
ATOM     81  C   UNL A   1      44.477  23.630  33.562  1.00  0.00     0.173 A 
ATOM     82  C   UNL A   1      46.536  24.833  33.622  1.00  0.00     0.173 A 
ATOM     83  F   UNL A   1      43.206  23.447  33.174  1.00  0.00    -0.203 F 
ATOM     84  C   UNL A   1      45.094  22.563  34.221  1.00  0.00     0.198 A 
ATOM     85  C   UNL A   1      47.163  23.746  34.229  1.00  0.00     0.198 A 
ATOM     86  F   UNL A   1      47.310  25.898  33.370  1.00  0.00    -0.203 F 
ATOM     87  F   UNL A   1      44.382  21.466  34.518  1.00  0.00    -0.200 F 
ATOM     88  C   UNL A   1      46.437  22.615  34.541  1.00  0.00     0.200 A 
ATOM     89  F   UNL A   1      48.476  23.793  34.487  1.00  0.00    -0.200 F 
ATOM     90  F   UNL A   1      47.036  21.571  35.130  1.00  0.00    -0.200 F 
ENDBRANCH  57  80
ENDBRANCH  31  32
ENDBRANCH  23  26
ENDBRANCH  21  22
ENDBRANCH  20  21
ENDBRANCH   1  20
TORSDOF 13
ENDMDL
MODEL 2
REMARK VINA RESULT:     -12.7      2.445      3.608
REMARK SMILES Cc1cc(C(=O)NCCCCNC(=O)c2ccc(-c3c4nc(c(-c5c(F)c(F)c(F)c(F)c5F)c5ccc([nH]5)c(-c5c(F)c(F)c(F)c(F)c5F)c5nc(c(-c6c(F)c(F)c(F)c(F)c6F)c6ccc3[nH]6)C=C5)C=C4)cc2)ccc1NC(=O)CCl
REMARK SMILES IDX 9 1 8 2 7 3 5 4 6 5 4 7 1 8 2 9 3 10 80 11 79 12 78 13 81 14
REMARK SMILES IDX 82 15 83 17 84 18 85 19 10 20 11 21 12 22 13 23 14 25 15 26
REMARK SMILES IDX 16 27 77 28 17 29 76 30 18 31 19 32 20 33 70 34 21 35 75 36
REMARK SMILES IDX 69 37 71 38 22 39 74 40 68 41 67 42 23 44 55 45 35 46 54 47
REMARK SMILES IDX 36 48 39 49 53 50 72 51 37 52 38 53 52 55 73 56 40 57 24 58
REMARK SMILES IDX 25 59 33 60 26 61 27 62 31 63 34 64 28 65 29 66 32 67 30 68
REMARK SMILES IDX 56 69 57 70 65 71 58 72 59 73 63 74 66 75 60 76 61 77 64 78
REMARK SMILES IDX 62 79 41 80 42 81 50 82 43 83 44 84 48 85 51 86 45 87 46 88
REMARK SMILES IDX 49 89 47 90
REMARK H PARENT 7 6 81 16 12 24 71 43 39 54
REMARK Flexibility Score: inf
ROOT
ATOM      1  C   UNL A   1      33.482  28.657  26.237  1.00  0.00     0.023 C 
ENDROOT
BRANCH   1   2
ATOM      2  C   UNL A   1      32.242  27.923  26.777  1.00  0.00     0.116 C 
BRANCH   2   3
ATOM      3  N   UNL A   1      31.953  26.700  26.049  1.00  0.00    -0.352 N 
ATOM      4  C   UNL A   1      31.401  26.439  24.819  1.00  0.00     0.251 C 
ATOM      5  O   UNL A   1      31.391  25.259  24.461  1.00  0.00    -0.269 OA
ATOM      6  H   UNL A   1      32.207  25.886  26.541  1.00  0.00     0.163 HD
BRANCH   4   7
ATOM      7  C   UNL A   1      30.828  27.473  23.901  1.00  0.00     0.040 A 
ATOM      8  C   UNL A   1      27.281  28.585  23.126  1.00  0.00     0.046 C 
ATOM      9  C   UNL A   1      28.788  28.566  23.031  1.00  0.00    -0.027 A 
ATOM     10  C   UNL A   1      29.434  27.593  23.839  1.00  0.00     0.019 A 
ATOM     11  C   UNL A   1      29.563  29.449  22.248  1.00  0.00     0.044 A 
ATOM     12  C   UNL A   1      30.948  29.328  22.332  1.00  0.00     0.027 A 
ATOM     13  C   UNL A   1      31.565  28.370  23.145  1.00  0.00     0.016 A 
BRANCH  11  14
ATOM     14  N   UNL A   1      28.925  30.409  21.437  1.00  0.00    -0.325 N 
ATOM     15  C   UNL A   1      28.271  31.588  21.641  1.00  0.00     0.239 C 
ATOM     16  H   UNL A   1      28.960  30.166  20.483  1.00  0.00     0.169 HD
ATOM     17  O   UNL A   1      27.835  32.151  20.627  1.00  0.00    -0.273 OA
BRANCH  15  18
ATOM     18  C   UNL A   1      28.080  32.245  22.986  1.00  0.00     0.209 C 
ATOM     19  Cl  UNL A   1      29.153  33.651  23.126  1.00  0.00    -0.116 Cl
ENDBRANCH  15  18
ENDBRANCH  11  14
ENDBRANCH   4   7
ENDBRANCH   2   3
ENDBRANCH   1   2
BRANCH   1  20
ATOM     20  C   UNL A   1      33.369  30.184  26.242  1.00  0.00     0.023 C 
BRANCH  20  21
ATOM     21  C   UNL A   1      33.144  30.767  27.630  1.00  0.00     0.116 C 
BRANCH  21  22
ATOM     22  N   UNL A   1      34.052  31.846  28.003  1.00  0.00    -0.352 N 
ATOM     23  C   UNL A   1      35.343  31.782  28.510  1.00  0.00     0.251 C 
ATOM     24  H   UNL A   1      33.695  32.754  27.877  1.00  0.00     0.163 HD
ATOM     25  O   UNL A   1      35.911  32.799  28.865  1.00  0.00    -0.269 OA
BRANCH  23  26
ATOM     26  C   UNL A   1      36.088  30.493  28.472  1.00  0.00     0.039 A 
ATOM     27  C   UNL A   1      36.322  29.844  29.692  1.00  0.00     0.014 A 
ATOM     28  C   UNL A   1      36.753  30.076  27.326  1.00  0.00     0.014 A 
ATOM     29  C   UNL A   1      37.423  29.002  29.815  1.00  0.00     0.010 A 
ATOM     30  C   UNL A   1      37.913  29.344  27.470  1.00  0.00     0.010 A 
ATOM     31  C   UNL A   1      38.293  28.880  28.734  1.00  0.00    -0.014 A 
BRANCH  31  32
ATOM     32  C   UNL A   1      39.688  28.473  28.876  1.00  0.00     0.031 A 
ATOM     33  C   UNL A   1      40.126  27.107  28.524  1.00  0.00     0.074 A 
ATOM     34  C   UNL A   1      40.606  29.419  29.181  1.00  0.00     0.049 A 
ATOM     35  N   UNL A   1      41.245  26.579  28.896  1.00  0.00    -0.248 NA
ATOM     36  C   UNL A   1      39.296  26.194  27.751  1.00  0.00     0.031 C 
ATOM     37  C   UNL A   1      42.055  29.336  29.022  1.00  0.00     0.029 A 
ATOM     38  N   UNL A   1      40.403  30.620  29.886  1.00  0.00    -0.354 N 
ATOM     39  C   UNL A   1      41.418  25.407  28.190  1.00  0.00     0.074 A 
ATOM     40  C   UNL A   1      40.135  25.172  27.570  1.00  0.00     0.031 C 
ATOM     41  C   UNL A   1      42.633  30.240  29.827  1.00  0.00     0.029 A 
ATOM     42  C   UNL A   1      41.580  30.819  30.642  1.00  0.00     0.049 A 
ATOM     43  H   UNL A   1      39.607  31.200  29.858  1.00  0.00     0.167 HD
ATOM     44  C   UNL A   1      42.671  24.868  28.108  1.00  0.00     0.037 A 
ATOM     45  C   UNL A   1      41.560  30.806  32.007  1.00  0.00     0.037 A 
ATOM     46  C   UNL A   1      43.602  25.580  28.990  1.00  0.00     0.049 A 
ATOM     47  C   UNL A   1      42.437  29.744  32.629  1.00  0.00     0.074 A 
ATOM     48  C   UNL A   1      44.576  26.538  28.758  1.00  0.00     0.029 A 
ATOM     49  N   UNL A   1      43.402  25.552  30.367  1.00  0.00    -0.354 N 
ATOM     50  N   UNL A   1      42.888  28.708  31.981  1.00  0.00    -0.248 NA
ATOM     51  C   UNL A   1      42.834  29.741  34.035  1.00  0.00     0.031 C 
ATOM     52  C   UNL A   1      44.918  27.129  30.000  1.00  0.00     0.029 A 
ATOM     53  C   UNL A   1      44.168  26.518  30.990  1.00  0.00     0.049 A 
ATOM     54  H   UNL A   1      42.797  24.930  30.833  1.00  0.00     0.167 HD
ATOM     55  C   UNL A   1      43.582  27.897  32.841  1.00  0.00     0.074 A 
ATOM     56  C   UNL A   1      43.541  28.599  34.109  1.00  0.00     0.031 C 
ATOM     57  C   UNL A   1      44.112  26.707  32.432  1.00  0.00     0.037 A 
BRANCH  44  58
ATOM     58  C   UNL A   1      43.140  23.911  27.016  1.00  0.00     0.064 A 
ATOM     59  C   UNL A   1      42.760  22.548  27.044  1.00  0.00     0.173 A 
ATOM     60  C   UNL A   1      44.029  24.231  25.973  1.00  0.00     0.173 A 
ATOM     61  F   UNL A   1      41.820  22.098  27.886  1.00  0.00    -0.203 F 
ATOM     62  C   UNL A   1      43.327  21.582  26.203  1.00  0.00     0.198 A 
ATOM     63  C   UNL A   1      44.627  23.263  25.157  1.00  0.00     0.198 A 
ATOM     64  F   UNL A   1      44.307  25.494  25.646  1.00  0.00    -0.203 F 
ATOM     65  F   UNL A   1      42.940  20.303  26.302  1.00  0.00    -0.200 F 
ATOM     66  C   UNL A   1      44.291  21.935  25.284  1.00  0.00     0.200 A 
ATOM     67  F   UNL A   1      45.532  23.639  24.240  1.00  0.00    -0.200 F 
ATOM     68  F   UNL A   1      44.865  21.009  24.504  1.00  0.00    -0.200 F 
ENDBRANCH  44  58
BRANCH  45  69
ATOM     69  C   UNL A   1      40.279  31.293  32.581  1.00  0.00     0.064 A 
ATOM     70  C   UNL A   1      40.025  32.677  32.572  1.00  0.00     0.173 A 
ATOM     71  C   UNL A   1      39.189  30.436  32.774  1.00  0.00     0.173 A 
ATOM     72  F   UNL A   1      41.037  33.541  32.382  1.00  0.00    -0.203 F 
ATOM     73  C   UNL A   1      38.728  33.178  32.640  1.00  0.00     0.198 A 
ATOM     74  C   UNL A   1      37.889  30.942  32.852  1.00  0.00     0.198 A 
ATOM     75  F   UNL A   1      39.360  29.107  32.764  1.00  0.00    -0.203 F 
ATOM     76  F   UNL A   1      38.514  34.496  32.518  1.00  0.00    -0.200 F 
ATOM     77  C   UNL A   1      37.658  32.307  32.753  1.00  0.00     0.200 A 
ATOM     78  F   UNL A   1      36.850  30.099  32.922  1.00  0.00    -0.200 F 
ATOM     79  F   UNL A   1      36.403  32.777  32.720  1.00  0.00    -0.200 F 
ENDBRANCH  45  69
BRANCH  57  80
ATOM     80  C   UNL A   1      44.696  25.646  33.330  1.00  0.00     0.064 A 
ATOM     81  C   UNL A   1      43.926  24.777  34.120  1.00  0.00     0.173 A 
ATOM     82  C   UNL A   1      46.085  25.372  33.298  1.00  0.00     0.173 A 
ATOM     83  F   UNL A   1      42.588  24.863  34.147  1.00  0.00    -0.203 F 
ATOM     84  C   UNL A   1      44.506  23.748  34.867  1.00  0.00     0.198 A 
ATOM     85  C   UNL A   1      46.653  24.309  33.999  1.00  0.00     0.198 A 
ATOM     86  F   UNL A   1      46.926  26.114  32.563  1.00  0.00    -0.203 F 
ATOM     87  F   UNL A   1      43.731  22.969  35.636  1.00  0.00    -0.200 F 
ATOM     88  C   UNL A   1      45.865  23.506  34.796  1.00  0.00     0.200 A 
ATOM     89  F   UNL A   1      47.964  24.057  33.880  1.00  0.00    -0.200 F 
ATOM     90  F   UNL A   1      46.409  22.488  35.476  1.00  0.00    -0.200 F 
ENDBRANCH  57  80
ENDBRANCH  31  32
ENDBRANCH  23  26
ENDBRANCH  21  22
ENDBRANCH  20  21
ENDBRANCH   1  20
TORSDOF 13
ENDMDL
MODEL 3
REMARK VINA RESULT:     -12.3      3.809     10.202
REMARK SMILES Cc1cc(C(=O)NCCCCNC(=O)c2ccc(-c3c4nc(c(-c5c(F)c(F)c(F)c(F)c5F)c5ccc([nH]5)c(-c5c(F)c(F)c(F)c(F)c5F)c5nc(c(-c6c(F)c(F)c(F)c(F)c6F)c6ccc3[nH]6)C=C5)C=C4)cc2)ccc1NC(=O)CCl
REMARK SMILES IDX 9 1 8 2 7 3 5 4 6 5 4 7 1 8 2 9 3 10 80 11 79 12 78 13 81 14
REMARK SMILES IDX 82 15 83 17 84 18 85 19 10 20 11 21 12 22 13 23 14 25 15 26
REMARK SMILES IDX 16 27 77 28 17 29 76 30 18 31 19 32 20 33 70 34 21 35 75 36
REMARK SMILES IDX 69 37 71 38 22 39 74 40 68 41 67 42 23 44 55 45 35 46 54 47
REMARK SMILES IDX 36 48 39 49 53 50 72 51 37 52 38 53 52 55 73 56 40 57 24 58
REMARK SMILES IDX 25 59 33 60 26 61 27 62 31 63 34 64 28 65 29 66 32 67 30 68
REMARK SMILES IDX 56 69 57 70 65 71 58 72 59 73 63 74 66 75 60 76 61 77 64 78
REMARK SMILES IDX 62 79 41 80 42 81 50 82 43 83 44 84 48 85 51 86 45 87 46 88
REMARK SMILES IDX 49 89 47 90
REMARK H PARENT 7 6 81 16 12 24 71 43 39 54
REMARK Flexibility Score: inf
ROOT
ATOM      1  C   UNL A   1      37.326  23.287  26.087  1.00  0.00     0.023 C 
ENDROOT
BRANCH   1   2
ATOM      2  C   UNL A   1      36.012  22.585  25.697  1.00  0.00     0.116 C 
BRANCH   2   3
ATOM      3  N   UNL A   1      35.116  22.407  26.826  1.00  0.00    -0.352 N 
ATOM      4  C   UNL A   1      33.840  22.838  27.099  1.00  0.00     0.251 C 
ATOM      5  O   UNL A   1      33.328  22.413  28.137  1.00  0.00    -0.269 OA
ATOM      6  H   UNL A   1      35.504  21.863  27.548  1.00  0.00     0.163 HD
BRANCH   4   7
ATOM      7  C   UNL A   1      33.047  23.765  26.234  1.00  0.00     0.040 A 
ATOM      8  C   UNL A   1      33.461  27.414  25.265  1.00  0.00     0.046 C 
ATOM      9  C   UNL A   1      32.825  26.045  25.301  1.00  0.00    -0.027 A 
ATOM     10  C   UNL A   1      33.482  25.093  26.125  1.00  0.00     0.019 A 
ATOM     11  C   UNL A   1      31.684  25.660  24.563  1.00  0.00     0.044 A 
ATOM     12  C   UNL A   1      31.273  24.334  24.669  1.00  0.00     0.027 A 
ATOM     13  C   UNL A   1      31.942  23.408  25.478  1.00  0.00     0.016 A 
BRANCH  11  14
ATOM     14  N   UNL A   1      31.023  26.606  23.752  1.00  0.00    -0.325 N 
ATOM     15  C   UNL A   1      31.040  26.951  22.433  1.00  0.00     0.239 C 
ATOM     16  H   UNL A   1      30.392  27.156  24.270  1.00  0.00     0.169 HD
ATOM     17  O   UNL A   1      30.282  27.874  22.102  1.00  0.00    -0.273 OA
BRANCH  15  18
ATOM     18  C   UNL A   1      31.878  26.273  21.377  1.00  0.00     0.209 C 
ATOM     19  Cl  UNL A   1      33.600  26.548  21.709  1.00  0.00    -0.116 Cl
ENDBRANCH  15  18
ENDBRANCH  11  14
ENDBRANCH   4   7
ENDBRANCH   2   3
ENDBRANCH   1   2
BRANCH   1  20
ATOM     20  C   UNL A   1      38.593  22.496  25.753  1.00  0.00     0.023 C 
BRANCH  20  21
ATOM     21  C   UNL A   1      39.550  22.367  26.931  1.00  0.00     0.116 C 
BRANCH  21  22
ATOM     22  N   UNL A   1      40.917  22.801  26.668  1.00  0.00    -0.352 N 
ATOM     23  C   UNL A   1      41.420  24.082  26.484  1.00  0.00     0.251 C 
ATOM     24  H   UNL A   1      41.581  22.077  26.612  1.00  0.00     0.163 HD
ATOM     25  O   UNL A   1      42.585  24.241  26.166  1.00  0.00    -0.269 OA
BRANCH  23  26
ATOM     26  C   UNL A   1      40.579  25.262  26.828  1.00  0.00     0.039 A 
ATOM     27  C   UNL A   1      40.777  26.436  26.090  1.00  0.00     0.014 A 
ATOM     28  C   UNL A   1      39.821  25.293  27.993  1.00  0.00     0.014 A 
ATOM     29  C   UNL A   1      40.477  27.665  26.672  1.00  0.00     0.010 A 
ATOM     30  C   UNL A   1      39.638  26.506  28.624  1.00  0.00     0.010 A 
ATOM     31  C   UNL A   1      40.048  27.688  27.997  1.00  0.00    -0.014 A 
BRANCH  31  32
ATOM     32  C   UNL A   1      40.188  28.857  28.860  1.00  0.00     0.031 A 
ATOM     33  C   UNL A   1      39.120  29.874  28.951  1.00  0.00     0.074 A 
ATOM     34  C   UNL A   1      41.246  28.911  29.703  1.00  0.00     0.049 A 
ATOM     35  N   UNL A   1      39.280  31.061  29.435  1.00  0.00    -0.248 NA
ATOM     36  C   UNL A   1      37.775  29.644  28.445  1.00  0.00     0.031 C 
ATOM     37  C   UNL A   1      41.404  29.763  30.878  1.00  0.00     0.029 A 
ATOM     38  N   UNL A   1      42.504  28.301  29.544  1.00  0.00    -0.354 N 
ATOM     39  C   UNL A   1      38.034  31.632  29.580  1.00  0.00     0.074 A 
ATOM     40  C   UNL A   1      37.150  30.747  28.861  1.00  0.00     0.031 C 
ATOM     41  C   UNL A   1      42.709  29.863  31.169  1.00  0.00     0.029 A 
ATOM     42  C   UNL A   1      43.436  29.209  30.096  1.00  0.00     0.049 A 
ATOM     43  H   UNL A   1      42.694  27.426  29.135  1.00  0.00     0.167 HD
ATOM     44  C   UNL A   1      37.896  32.705  30.416  1.00  0.00     0.037 A 
ATOM     45  C   UNL A   1      44.386  29.811  29.323  1.00  0.00     0.037 A 
ATOM     46  C   UNL A   1      39.206  33.179  30.875  1.00  0.00     0.049 A 
ATOM     47  C   UNL A   1      44.309  31.320  29.312  1.00  0.00     0.074 A 
ATOM     48  C   UNL A   1      39.905  33.020  32.060  1.00  0.00     0.029 A 
ATOM     49  N   UNL A   1      40.115  33.689  29.951  1.00  0.00    -0.354 N 
ATOM     50  N   UNL A   1      43.257  31.994  29.683  1.00  0.00    -0.248 NA
ATOM     51  C   UNL A   1      45.388  32.184  28.840  1.00  0.00     0.031 C 
ATOM     52  C   UNL A   1      41.256  33.382  31.828  1.00  0.00     0.029 A 
ATOM     53  C   UNL A   1      41.375  33.780  30.508  1.00  0.00     0.049 A 
ATOM     54  H   UNL A   1      39.889  33.950  29.029  1.00  0.00     0.167 HD
ATOM     55  C   UNL A   1      43.476  33.331  29.481  1.00  0.00     0.074 A 
ATOM     56  C   UNL A   1      44.833  33.402  28.975  1.00  0.00     0.031 C 
ATOM     57  C   UNL A   1      42.508  34.261  29.730  1.00  0.00     0.037 A 
BRANCH  44  58
ATOM     58  C   UNL A   1      36.588  33.140  31.070  1.00  0.00     0.064 A 
ATOM     59  C   UNL A   1      35.626  33.874  30.337  1.00  0.00     0.173 A 
ATOM     60  C   UNL A   1      36.249  32.956  32.424  1.00  0.00     0.173 A 
ATOM     61  F   UNL A   1      35.723  34.028  29.010  1.00  0.00    -0.203 F 
ATOM     62  C   UNL A   1      34.515  34.483  30.933  1.00  0.00     0.198 A 
ATOM     63  C   UNL A   1      35.162  33.595  33.032  1.00  0.00     0.198 A 
ATOM     64  F   UNL A   1      36.907  32.097  33.206  1.00  0.00    -0.203 F 
ATOM     65  F   UNL A   1      33.658  35.188  30.182  1.00  0.00    -0.200 F 
ATOM     66  C   UNL A   1      34.304  34.375  32.291  1.00  0.00     0.200 A 
ATOM     67  F   UNL A   1      34.954  33.438  34.348  1.00  0.00    -0.200 F 
ATOM     68  F   UNL A   1      33.265  34.988  32.873  1.00  0.00    -0.200 F 
ENDBRANCH  44  58
BRANCH  45  69
ATOM     69  C   UNL A   1      44.830  28.975  28.178  1.00  0.00     0.064 A 
ATOM     70  C   UNL A   1      45.757  27.944  28.422  1.00  0.00     0.173 A 
ATOM     71  C   UNL A   1      44.103  28.923  26.983  1.00  0.00     0.173 A 
ATOM     72  F   UNL A   1      46.473  27.944  29.559  1.00  0.00    -0.203 F 
ATOM     73  C   UNL A   1      45.871  26.853  27.566  1.00  0.00     0.198 A 
ATOM     74  C   UNL A   1      44.228  27.831  26.120  1.00  0.00     0.198 A 
ATOM     75  F   UNL A   1      43.185  29.858  26.705  1.00  0.00    -0.203 F 
ATOM     76  F   UNL A   1      46.685  25.835  27.885  1.00  0.00    -0.200 F 
ATOM     77  C   UNL A   1      45.087  26.785  26.428  1.00  0.00     0.200 A 
ATOM     78  F   UNL A   1      43.440  27.745  25.038  1.00  0.00    -0.200 F 
ATOM     79  F   UNL A   1      45.121  25.692  25.652  1.00  0.00    -0.200 F 
ENDBRANCH  45  69
BRANCH  57  80
ATOM     80  C   UNL A   1      42.560  35.717  29.342  1.00  0.00     0.064 A 
ATOM     81  C   UNL A   1      43.323  36.681  30.020  1.00  0.00     0.173 A 
ATOM     82  C   UNL A   1      41.942  36.158  28.147  1.00  0.00     0.173 A 
ATOM     83  F   UNL A   1      44.046  36.361  31.102  1.00  0.00    -0.203 F 
ATOM     84  C   UNL A   1      43.414  38.001  29.570  1.00  0.00     0.198 A 
ATOM     85  C   UNL A   1      42.080  37.460  27.670  1.00  0.00     0.198 A 
ATOM     86  F   UNL A   1      41.204  35.327  27.394  1.00  0.00    -0.203 F 
ATOM     87  F   UNL A   1      44.125  38.894  30.274  1.00  0.00    -0.200 F 
ATOM     88  C   UNL A   1      42.806  38.387  28.390  1.00  0.00     0.200 A 
ATOM     89  F   UNL A   1      41.526  37.804  26.500  1.00  0.00    -0.200 F 
ATOM     90  F   UNL A   1      42.936  39.642  27.937  1.00  0.00    -0.200 F 
ENDBRANCH  57  80
ENDBRANCH  31  32
ENDBRANCH  23  26
ENDBRANCH  21  22
ENDBRANCH  20  21
ENDBRANCH   1  20
TORSDOF 13
ENDMDL
