MODEL 1
REMARK VINA RESULT:     -12.1      0.000      0.000
REMARK SMILES C[C@H](C(=O)NCCCCNC(=O)c1ccc(-c2c3nc(c(-c4c(F)c(F)c(F)c(F)c4F)c4ccc([nH]4)c(-c4c(F)c(F)c(F)c(F)c4F)c4nc(c(-c5c(F)c(F)c(F)c(F)c5F)c5ccc2[nH]5)C=C4)C=C3)cc1)n1ccc(C(=O)N(C)Cc2cnn(C)c2)n1
REMARK SMILES IDX 6 1 5 2 3 3 4 4 2 6 1 7 76 8 77 9 91 10 78 11 79 12 80 13
REMARK SMILES IDX 81 14 82 15 83 16 84 17 85 18 86 19 90 20 87 21 88 22 89 23
REMARK SMILES IDX 7 24 8 25 9 26 10 27 11 28 12 30 13 31 14 32 75 33 15 34
REMARK SMILES IDX 74 35 16 36 17 37 18 38 68 39 19 40 73 41 67 42 69 43 20 44
REMARK SMILES IDX 72 45 66 46 65 47 21 49 53 50 33 51 52 52 34 53 37 54 51 55
REMARK SMILES IDX 70 56 35 57 36 58 50 60 71 61 38 62 22 63 23 64 31 65 24 66
REMARK SMILES IDX 25 67 29 68 32 69 26 70 27 71 30 72 28 73 54 74 55 75 63 76
REMARK SMILES IDX 56 77 57 78 61 79 64 80 58 81 59 82 62 83 60 84 39 85 40 86
REMARK SMILES IDX 48 87 41 88 42 89 46 90 49 91 43 92 44 93 47 94 45 95
REMARK H PARENT 5 5 10 29 69 48 37 59
REMARK Flexibility Score: inf
ROOT
ATOM      1  C   UNL A   1      33.330  29.551  26.613  1.00  0.00     0.116 C 
ENDROOT
BRANCH   1   2
ATOM      2  N   UNL A   1      33.539  29.654  25.186  1.00  0.00    -0.354 N 
ATOM      3  C   UNL A   1      32.889  29.089  24.136  1.00  0.00     0.244 C 
ATOM      4  O   UNL A   1      33.517  29.181  23.069  1.00  0.00    -0.273 OA
ATOM      5  H   UNL A   1      34.289  30.239  24.929  1.00  0.00     0.163 HD
BRANCH   3   6
ATOM      6  C   UNL A   1      31.442  28.548  24.149  1.00  0.00     0.193 C 
ATOM      7  C   UNL A   1      30.848  28.868  22.755  1.00  0.00     0.044 C 
BRANCH   6   8
ATOM      8  N   UNL A   1      31.238  27.128  24.502  1.00  0.00    -0.260 N 
ATOM      9  C   UNL A   1      30.154  26.346  24.181  1.00  0.00     0.110 A 
ATOM     10  N   UNL A   1      31.988  26.541  25.464  1.00  0.00    -0.167 NA
ATOM     11  C   UNL A   1      30.296  25.165  24.863  1.00  0.00     0.056 A 
ATOM     12  C   UNL A   1      31.480  25.305  25.626  1.00  0.00     0.150 A 
BRANCH  12  13
ATOM     13  C   UNL A   1      32.098  24.208  26.408  1.00  0.00     0.274 C 
ATOM     14  O   UNL A   1      31.528  23.815  27.429  1.00  0.00    -0.267 OA
BRANCH  13  15
ATOM     15  N   UNL A   1      33.285  23.604  25.982  1.00  0.00    -0.336 N 
ATOM     16  C   UNL A   1      34.490  23.469  26.793  1.00  0.00     0.147 C 
BRANCH  15  17
ATOM     17  C   UNL A   1      33.303  23.035  24.635  1.00  0.00     0.158 C 
BRANCH  17  18
ATOM     18  C   UNL A   1      33.176  21.558  24.681  1.00  0.00     0.009 A 
ATOM     19  C   UNL A   1      32.025  20.795  24.973  1.00  0.00     0.140 A 
ATOM     20  C   UNL A   1      34.154  20.612  24.445  1.00  0.00     0.113 A 
ATOM     21  N   UNL A   1      32.260  19.480  24.948  1.00  0.00    -0.181 NA
ATOM     22  N   UNL A   1      33.561  19.398  24.617  1.00  0.00    -0.275 N 
ATOM     23  C   UNL A   1      34.179  18.103  24.483  1.00  0.00     0.173 C 
ENDBRANCH  17  18
ENDBRANCH  15  17
ENDBRANCH  13  15
ENDBRANCH  12  13
ENDBRANCH   6   8
ENDBRANCH   3   6
ENDBRANCH   1   2
BRANCH   1  24
ATOM     24  C   UNL A   1      31.992  30.201  26.993  1.00  0.00     0.023 C 
BRANCH  24  25
ATOM     25  C   UNL A   1      31.885  31.693  26.677  1.00  0.00     0.023 C 
BRANCH  25  26
ATOM     26  C   UNL A   1      32.939  32.573  27.341  1.00  0.00     0.116 C 
BRANCH  26  27
ATOM     27  N   UNL A   1      32.472  33.907  27.690  1.00  0.00    -0.352 N 
ATOM     28  C   UNL A   1      33.018  34.816  28.562  1.00  0.00     0.251 C 
ATOM     29  H   UNL A   1      31.647  34.198  27.237  1.00  0.00     0.163 HD
ATOM     30  O   UNL A   1      32.513  35.921  28.735  1.00  0.00    -0.269 OA
BRANCH  28  31
ATOM     31  C   UNL A   1      34.186  34.436  29.368  1.00  0.00     0.039 A 
ATOM     32  C   UNL A   1      33.954  33.857  30.618  1.00  0.00     0.014 A 
ATOM     33  C   UNL A   1      35.482  34.590  28.876  1.00  0.00     0.014 A 
ATOM     34  C   UNL A   1      35.025  33.342  31.338  1.00  0.00     0.010 A 
ATOM     35  C   UNL A   1      36.539  34.003  29.556  1.00  0.00     0.010 A 
ATOM     36  C   UNL A   1      36.313  33.362  30.782  1.00  0.00    -0.014 A 
BRANCH  36  37
ATOM     37  C   UNL A   1      37.430  32.675  31.462  1.00  0.00     0.031 A 
ATOM     38  C   UNL A   1      38.127  31.536  30.787  1.00  0.00     0.074 A 
ATOM     39  C   UNL A   1      37.760  33.063  32.709  1.00  0.00     0.049 A 
ATOM     40  N   UNL A   1      39.100  30.785  31.231  1.00  0.00    -0.248 NA
ATOM     41  C   UNL A   1      37.648  31.168  29.443  1.00  0.00     0.031 C 
ATOM     42  C   UNL A   1      37.088  34.119  33.471  1.00  0.00     0.029 A 
ATOM     43  N   UNL A   1      38.739  32.616  33.556  1.00  0.00    -0.354 N 
ATOM     44  C   UNL A   1      39.347  29.859  30.227  1.00  0.00     0.074 A 
ATOM     45  C   UNL A   1      38.382  30.099  29.177  1.00  0.00     0.031 C 
ATOM     46  C   UNL A   1      37.693  34.260  34.660  1.00  0.00     0.029 A 
ATOM     47  C   UNL A   1      38.773  33.285  34.757  1.00  0.00     0.049 A 
ATOM     48  H   UNL A   1      39.359  31.887  33.328  1.00  0.00     0.167 HD
ATOM     49  C   UNL A   1      40.314  28.914  30.180  1.00  0.00     0.037 A 
ATOM     50  C   UNL A   1      39.591  33.122  35.812  1.00  0.00     0.037 A 
ATOM     51  C   UNL A   1      41.271  28.701  31.233  1.00  0.00     0.049 A 
ATOM     52  C   UNL A   1      40.673  32.082  35.718  1.00  0.00     0.074 A 
ATOM     53  C   UNL A   1      42.309  27.789  31.291  1.00  0.00     0.029 A 
ATOM     54  N   UNL A   1      41.304  29.422  32.420  1.00  0.00    -0.354 N 
ATOM     55  N   UNL A   1      40.935  31.248  34.739  1.00  0.00    -0.248 NA
ATOM     56  C   UNL A   1      41.583  31.971  36.864  1.00  0.00     0.031 C 
ATOM     57  C   UNL A   1      42.951  27.938  32.525  1.00  0.00     0.029 A 
ATOM     58  C   UNL A   1      42.342  28.972  33.219  1.00  0.00     0.049 A 
ATOM     59  H   UNL A   1      40.682  30.147  32.658  1.00  0.00     0.167 HD
ATOM     60  C   UNL A   1      42.046  30.522  35.144  1.00  0.00     0.074 A 
ATOM     61  C   UNL A   1      42.429  31.042  36.442  1.00  0.00     0.031 C 
ATOM     62  C   UNL A   1      42.689  29.512  34.508  1.00  0.00     0.037 A 
BRANCH  49  63
ATOM     63  C   UNL A   1      40.386  28.058  28.949  1.00  0.00     0.064 A 
ATOM     64  C   UNL A   1      41.157  28.438  27.838  1.00  0.00     0.173 A 
ATOM     65  C   UNL A   1      39.699  26.838  28.882  1.00  0.00     0.173 A 
ATOM     66  F   UNL A   1      41.818  29.605  27.843  1.00  0.00    -0.203 F 
ATOM     67  C   UNL A   1      41.216  27.641  26.698  1.00  0.00     0.198 A 
ATOM     68  C   UNL A   1      39.783  26.029  27.751  1.00  0.00     0.198 A 
ATOM     69  F   UNL A   1      38.946  26.427  29.913  1.00  0.00    -0.203 F 
ATOM     70  F   UNL A   1      41.917  28.050  25.633  1.00  0.00    -0.200 F 
ATOM     71  C   UNL A   1      40.535  26.433  26.658  1.00  0.00     0.200 A 
ATOM     72  F   UNL A   1      39.131  24.859  27.716  1.00  0.00    -0.200 F 
ATOM     73  F   UNL A   1      40.596  25.664  25.563  1.00  0.00    -0.200 F 
ENDBRANCH  49  63
BRANCH  50  74
ATOM     74  C   UNL A   1      39.435  33.974  37.021  1.00  0.00     0.064 A 
ATOM     75  C   UNL A   1      40.003  35.254  37.081  1.00  0.00     0.173 A 
ATOM     76  C   UNL A   1      38.720  33.527  38.142  1.00  0.00     0.173 A 
ATOM     77  F   UNL A   1      40.707  35.724  36.040  1.00  0.00    -0.203 F 
ATOM     78  C   UNL A   1      39.888  36.042  38.225  1.00  0.00     0.198 A 
ATOM     79  C   UNL A   1      38.580  34.328  39.274  1.00  0.00     0.198 A 
ATOM     80  F   UNL A   1      38.146  32.315  38.134  1.00  0.00    -0.203 F 
ATOM     81  F   UNL A   1      40.487  37.240  38.274  1.00  0.00    -0.200 F 
ATOM     82  C   UNL A   1      39.173  35.579  39.319  1.00  0.00     0.200 A 
ATOM     83  F   UNL A   1      37.872  33.884  40.322  1.00  0.00    -0.200 F 
ATOM     84  F   UNL A   1      39.062  36.338  40.419  1.00  0.00    -0.200 F 
ENDBRANCH  50  74
BRANCH  62  85
ATOM     85  C   UNL A   1      43.872  28.923  35.215  1.00  0.00     0.064 A 
ATOM     86  C   UNL A   1      43.727  27.885  36.148  1.00  0.00     0.173 A 
ATOM     87  C   UNL A   1      45.166  29.395  34.949  1.00  0.00     0.173 A 
ATOM     88  F   UNL A   1      42.507  27.413  36.446  1.00  0.00    -0.203 F 
ATOM     89  C   UNL A   1      44.831  27.369  36.819  1.00  0.00     0.198 A 
ATOM     90  C   UNL A   1      46.271  28.854  35.598  1.00  0.00     0.198 A 
ATOM     91  F   UNL A   1      45.358  30.381  34.060  1.00  0.00    -0.203 F 
ATOM     92  F   UNL A   1      44.661  26.421  37.751  1.00  0.00    -0.200 F 
ATOM     93  C   UNL A   1      46.101  27.849  36.539  1.00  0.00     0.200 A 
ATOM     94  F   UNL A   1      47.499  29.309  35.318  1.00  0.00    -0.200 F 
ATOM     95  F   UNL A   1      47.163  27.351  37.188  1.00  0.00    -0.200 F 
ENDBRANCH  62  85
ENDBRANCH  36  37
ENDBRANCH  28  31
ENDBRANCH  26  27
ENDBRANCH  25  26
ENDBRANCH  24  25
ENDBRANCH   1  24
TORSDOF 16
ENDMDL
MODEL 2
REMARK VINA RESULT:     -12.0      1.248      2.118
REMARK SMILES C[C@H](C(=O)NCCCCNC(=O)c1ccc(-c2c3nc(c(-c4c(F)c(F)c(F)c(F)c4F)c4ccc([nH]4)c(-c4c(F)c(F)c(F)c(F)c4F)c4nc(c(-c5c(F)c(F)c(F)c(F)c5F)c5ccc2[nH]5)C=C4)C=C3)cc1)n1ccc(C(=O)N(C)Cc2cnn(C)c2)n1
REMARK SMILES IDX 6 1 5 2 3 3 4 4 2 6 1 7 76 8 77 9 91 10 78 11 79 12 80 13
REMARK SMILES IDX 81 14 82 15 83 16 84 17 85 18 86 19 90 20 87 21 88 22 89 23
REMARK SMILES IDX 7 24 8 25 9 26 10 27 11 28 12 30 13 31 14 32 75 33 15 34
REMARK SMILES IDX 74 35 16 36 17 37 18 38 68 39 19 40 73 41 67 42 69 43 20 44
REMARK SMILES IDX 72 45 66 46 65 47 21 49 53 50 33 51 52 52 34 53 37 54 51 55
REMARK SMILES IDX 70 56 35 57 36 58 50 60 71 61 38 62 22 63 23 64 31 65 24 66
REMARK SMILES IDX 25 67 29 68 32 69 26 70 27 71 30 72 28 73 54 74 55 75 63 76
REMARK SMILES IDX 56 77 57 78 61 79 64 80 58 81 59 82 62 83 60 84 39 85 40 86
REMARK SMILES IDX 48 87 41 88 42 89 46 90 49 91 43 92 44 93 47 94 45 95
REMARK H PARENT 5 5 10 29 69 48 37 59
REMARK Flexibility Score: inf
ROOT
ATOM      1  C   UNL A   1      32.492  29.799  25.183  1.00  0.00     0.116 C 
ENDROOT
BRANCH   1   2
ATOM      2  N   UNL A   1      31.292  29.772  24.377  1.00  0.00    -0.354 N 
ATOM      3  C   UNL A   1      30.652  28.752  23.747  1.00  0.00     0.244 C 
ATOM      4  O   UNL A   1      29.812  29.144  22.921  1.00  0.00    -0.273 OA
ATOM      5  H   UNL A   1      30.862  30.650  24.263  1.00  0.00     0.163 HD
BRANCH   3   6
ATOM      6  C   UNL A   1      30.761  27.253  24.104  1.00  0.00     0.193 C 
ATOM      7  C   UNL A   1      29.323  26.685  24.030  1.00  0.00     0.044 C 
BRANCH   6   8
ATOM      8  N   UNL A   1      31.702  26.424  23.324  1.00  0.00    -0.260 N 
ATOM      9  C   UNL A   1      32.065  26.602  22.010  1.00  0.00     0.110 A 
ATOM     10  N   UNL A   1      32.067  25.195  23.762  1.00  0.00    -0.167 NA
ATOM     11  C   UNL A   1      32.804  25.505  21.646  1.00  0.00     0.056 A 
ATOM     12  C   UNL A   1      32.821  24.662  22.782  1.00  0.00     0.150 A 
BRANCH  12  13
ATOM     13  C   UNL A   1      33.630  23.425  22.886  1.00  0.00     0.274 C 
ATOM     14  O   UNL A   1      34.843  23.491  22.668  1.00  0.00    -0.267 OA
BRANCH  13  15
ATOM     15  N   UNL A   1      33.041  22.212  23.256  1.00  0.00    -0.336 N 
ATOM     16  C   UNL A   1      32.167  21.414  22.403  1.00  0.00     0.147 C 
BRANCH  15  17
ATOM     17  C   UNL A   1      33.356  21.691  24.585  1.00  0.00     0.158 C 
BRANCH  17  18
ATOM     18  C   UNL A   1      32.435  22.250  25.606  1.00  0.00     0.009 A 
ATOM     19  C   UNL A   1      32.759  23.058  26.717  1.00  0.00     0.140 A 
ATOM     20  C   UNL A   1      31.065  22.104  25.687  1.00  0.00     0.113 A 
ATOM     21  N   UNL A   1      31.690  23.375  27.452  1.00  0.00    -0.181 NA
ATOM     22  N   UNL A   1      30.672  22.788  26.797  1.00  0.00    -0.275 N 
ATOM     23  C   UNL A   1      29.329  22.924  27.303  1.00  0.00     0.173 C 
ENDBRANCH  17  18
ENDBRANCH  15  17
ENDBRANCH  13  15
ENDBRANCH  12  13
ENDBRANCH   6   8
ENDBRANCH   3   6
ENDBRANCH   1   2
BRANCH   1  24
ATOM     24  C   UNL A   1      32.144  30.192  26.625  1.00  0.00     0.023 C 
BRANCH  24  25
ATOM     25  C   UNL A   1      31.758  31.659  26.821  1.00  0.00     0.023 C 
BRANCH  25  26
ATOM     26  C   UNL A   1      32.858  32.546  27.396  1.00  0.00     0.116 C 
BRANCH  26  27
ATOM     27  N   UNL A   1      32.431  33.903  27.706  1.00  0.00    -0.352 N 
ATOM     28  C   UNL A   1      33.013  34.825  28.541  1.00  0.00     0.251 C 
ATOM     29  H   UNL A   1      31.608  34.201  27.255  1.00  0.00     0.163 HD
ATOM     30  O   UNL A   1      32.540  35.948  28.685  1.00  0.00    -0.269 OA
BRANCH  28  31
ATOM     31  C   UNL A   1      34.182  34.440  29.344  1.00  0.00     0.039 A 
ATOM     32  C   UNL A   1      33.951  33.876  30.601  1.00  0.00     0.014 A 
ATOM     33  C   UNL A   1      35.477  34.575  28.844  1.00  0.00     0.014 A 
ATOM     34  C   UNL A   1      35.020  33.356  31.320  1.00  0.00     0.010 A 
ATOM     35  C   UNL A   1      36.531  33.982  29.523  1.00  0.00     0.010 A 
ATOM     36  C   UNL A   1      36.305  33.356  30.757  1.00  0.00    -0.014 A 
BRANCH  36  37
ATOM     37  C   UNL A   1      37.418  32.664  31.437  1.00  0.00     0.031 A 
ATOM     38  C   UNL A   1      38.105  31.517  30.765  1.00  0.00     0.074 A 
ATOM     39  C   UNL A   1      37.753  33.053  32.683  1.00  0.00     0.049 A 
ATOM     40  N   UNL A   1      39.073  30.760  31.210  1.00  0.00    -0.248 NA
ATOM     41  C   UNL A   1      37.622  31.148  29.423  1.00  0.00     0.031 C 
ATOM     42  C   UNL A   1      37.089  34.116  33.442  1.00  0.00     0.029 A 
ATOM     43  N   UNL A   1      38.729  32.602  33.530  1.00  0.00    -0.354 N 
ATOM     44  C   UNL A   1      39.313  29.830  30.209  1.00  0.00     0.074 A 
ATOM     45  C   UNL A   1      38.347  30.073  29.160  1.00  0.00     0.031 C 
ATOM     46  C   UNL A   1      37.698  34.257  34.630  1.00  0.00     0.029 A 
ATOM     47  C   UNL A   1      38.770  33.274  34.728  1.00  0.00     0.049 A 
ATOM     48  H   UNL A   1      39.344  31.868  33.303  1.00  0.00     0.167 HD
ATOM     49  C   UNL A   1      40.273  28.877  30.163  1.00  0.00     0.037 A 
ATOM     50  C   UNL A   1      39.589  33.109  35.782  1.00  0.00     0.037 A 
ATOM     51  C   UNL A   1      41.230  28.661  31.215  1.00  0.00     0.049 A 
ATOM     52  C   UNL A   1      40.664  32.061  35.690  1.00  0.00     0.074 A 
ATOM     53  C   UNL A   1      42.262  27.742  31.274  1.00  0.00     0.029 A 
ATOM     54  N   UNL A   1      41.270  29.386  32.400  1.00  0.00    -0.354 N 
ATOM     55  N   UNL A   1      40.918  31.222  34.714  1.00  0.00    -0.248 NA
ATOM     56  C   UNL A   1      41.574  31.948  36.835  1.00  0.00     0.031 C 
ATOM     57  C   UNL A   1      42.906  27.891  32.507  1.00  0.00     0.029 A 
ATOM     58  C   UNL A   1      42.306  28.931  33.198  1.00  0.00     0.049 A 
ATOM     59  H   UNL A   1      40.653  30.116  32.637  1.00  0.00     0.167 HD
ATOM     60  C   UNL A   1      42.024  30.490  35.119  1.00  0.00     0.074 A 
ATOM     61  C   UNL A   1      42.413  31.012  36.414  1.00  0.00     0.031 C 
ATOM     62  C   UNL A   1      42.659  29.473  34.486  1.00  0.00     0.037 A 
BRANCH  49  63
ATOM     63  C   UNL A   1      40.337  28.017  28.935  1.00  0.00     0.064 A 
ATOM     64  C   UNL A   1      41.094  28.397  27.814  1.00  0.00     0.173 A 
ATOM     65  C   UNL A   1      39.655  26.793  28.880  1.00  0.00     0.173 A 
ATOM     66  F   UNL A   1      41.748  29.567  27.808  1.00  0.00    -0.203 F 
ATOM     67  C   UNL A   1      41.145  27.595  26.677  1.00  0.00     0.198 A 
ATOM     68  C   UNL A   1      39.732  25.980  27.751  1.00  0.00     0.198 A 
ATOM     69  F   UNL A   1      38.916  26.382  29.920  1.00  0.00    -0.203 F 
ATOM     70  F   UNL A   1      41.832  28.004  25.602  1.00  0.00    -0.200 F 
ATOM     71  C   UNL A   1      40.471  26.384  26.649  1.00  0.00     0.200 A 
ATOM     72  F   UNL A   1      39.087  24.806  27.728  1.00  0.00    -0.200 F 
ATOM     73  F   UNL A   1      40.525  25.611  25.556  1.00  0.00    -0.200 F 
ENDBRANCH  49  63
BRANCH  50  74
ATOM     74  C   UNL A   1      39.441  33.966  36.989  1.00  0.00     0.064 A 
ATOM     75  C   UNL A   1      38.740  33.514  38.115  1.00  0.00     0.173 A 
ATOM     76  C   UNL A   1      39.992  35.255  37.041  1.00  0.00     0.173 A 
ATOM     77  F   UNL A   1      38.182  32.294  38.111  1.00  0.00    -0.203 F 
ATOM     78  C   UNL A   1      38.569  34.327  39.234  1.00  0.00     0.198 A 
ATOM     79  C   UNL A   1      39.849  36.056  38.172  1.00  0.00     0.198 A 
ATOM     80  F   UNL A   1      40.684  35.733  35.996  1.00  0.00    -0.203 F 
ATOM     81  F   UNL A   1      37.848  33.888  40.275  1.00  0.00    -0.200 F 
ATOM     82  C   UNL A   1      39.128  35.595  39.263  1.00  0.00     0.200 A 
ATOM     83  F   UNL A   1      40.406  37.274  38.203  1.00  0.00    -0.200 F 
ATOM     84  F   UNL A   1      38.965  36.377  40.340  1.00  0.00    -0.200 F 
ENDBRANCH  50  74
BRANCH  62  85
ATOM     85  C   UNL A   1      43.839  28.878  35.192  1.00  0.00     0.064 A 
ATOM     86  C   UNL A   1      43.687  27.848  36.133  1.00  0.00     0.173 A 
ATOM     87  C   UNL A   1      45.136  29.337  34.919  1.00  0.00     0.173 A 
ATOM     88  F   UNL A   1      42.465  27.389  36.438  1.00  0.00    -0.203 F 
ATOM     89  C   UNL A   1      44.789  27.326  36.803  1.00  0.00     0.198 A 
ATOM     90  C   UNL A   1      46.239  28.790  35.568  1.00  0.00     0.198 A 
ATOM     91  F   UNL A   1      45.334  30.315  34.022  1.00  0.00    -0.203 F 
ATOM     92  F   UNL A   1      44.614  26.386  37.742  1.00  0.00    -0.200 F 
ATOM     93  C   UNL A   1      46.063  27.793  36.516  1.00  0.00     0.200 A 
ATOM     94  F   UNL A   1      47.470  29.232  35.281  1.00  0.00    -0.200 F 
ATOM     95  F   UNL A   1      47.122  27.290  37.165  1.00  0.00    -0.200 F 
ENDBRANCH  62  85
ENDBRANCH  36  37
ENDBRANCH  28  31
ENDBRANCH  26  27
ENDBRANCH  25  26
ENDBRANCH  24  25
ENDBRANCH   1  24
TORSDOF 16
ENDMDL
MODEL 3
REMARK VINA RESULT:     -12.0      1.254      2.337
REMARK SMILES C[C@H](C(=O)NCCCCNC(=O)c1ccc(-c2c3nc(c(-c4c(F)c(F)c(F)c(F)c4F)c4ccc([nH]4)c(-c4c(F)c(F)c(F)c(F)c4F)c4nc(c(-c5c(F)c(F)c(F)c(F)c5F)c5ccc2[nH]5)C=C4)C=C3)cc1)n1ccc(C(=O)N(C)Cc2cnn(C)c2)n1
REMARK SMILES IDX 6 1 5 2 3 3 4 4 2 6 1 7 76 8 77 9 91 10 78 11 79 12 80 13
REMARK SMILES IDX 81 14 82 15 83 16 84 17 85 18 86 19 90 20 87 21 88 22 89 23
REMARK SMILES IDX 7 24 8 25 9 26 10 27 11 28 12 30 13 31 14 32 75 33 15 34
REMARK SMILES IDX 74 35 16 36 17 37 18 38 68 39 19 40 73 41 67 42 69 43 20 44
REMARK SMILES IDX 72 45 66 46 65 47 21 49 53 50 33 51 52 52 34 53 37 54 51 55
REMARK SMILES IDX 70 56 35 57 36 58 50 60 71 61 38 62 22 63 23 64 31 65 24 66
REMARK SMILES IDX 25 67 29 68 32 69 26 70 27 71 30 72 28 73 54 74 55 75 63 76
REMARK SMILES IDX 56 77 57 78 61 79 64 80 58 81 59 82 62 83 60 84 39 85 40 86
REMARK SMILES IDX 48 87 41 88 42 89 46 90 49 91 43 92 44 93 47 94 45 95
REMARK H PARENT 5 5 10 29 69 48 37 59
REMARK Flexibility Score: inf
ROOT
ATOM      1  C   UNL A   1      32.369  29.720  25.099  1.00  0.00     0.116 C 
ENDROOT
BRANCH   1   2
ATOM      2  N   UNL A   1      31.103  29.771  24.405  1.00  0.00    -0.354 N 
ATOM      3  C   UNL A   1      30.361  28.801  23.810  1.00  0.00     0.244 C 
ATOM      4  O   UNL A   1      29.470  29.254  23.073  1.00  0.00    -0.273 OA
ATOM      5  H   UNL A   1      30.707  30.671  24.353  1.00  0.00     0.163 HD
BRANCH   3   6
ATOM      6  C   UNL A   1      30.429  27.289  24.118  1.00  0.00     0.193 C 
ATOM      7  C   UNL A   1      29.020  26.722  23.818  1.00  0.00     0.044 C 
BRANCH   6   8
ATOM      8  N   UNL A   1      31.477  26.493  23.446  1.00  0.00    -0.260 N 
ATOM      9  C   UNL A   1      32.229  26.871  22.358  1.00  0.00     0.110 A 
ATOM     10  N   UNL A   1      31.578  25.160  23.662  1.00  0.00    -0.167 NA
ATOM     11  C   UNL A   1      32.936  25.766  21.958  1.00  0.00     0.056 A 
ATOM     12  C   UNL A   1      32.535  24.721  22.823  1.00  0.00     0.150 A 
BRANCH  12  13
ATOM     13  C   UNL A   1      33.156  23.376  22.844  1.00  0.00     0.274 C 
ATOM     14  O   UNL A   1      32.868  22.577  21.950  1.00  0.00    -0.267 OA
BRANCH  13  15
ATOM     15  N   UNL A   1      34.078  23.027  23.837  1.00  0.00    -0.336 N 
ATOM     16  C   UNL A   1      35.375  23.667  24.033  1.00  0.00     0.147 C 
BRANCH  15  17
ATOM     17  C   UNL A   1      33.695  21.966  24.766  1.00  0.00     0.158 C 
BRANCH  17  18
ATOM     18  C   UNL A   1      32.643  22.435  25.702  1.00  0.00     0.009 A 
ATOM     19  C   UNL A   1      32.781  23.336  26.781  1.00  0.00     0.140 A 
ATOM     20  C   UNL A   1      31.305  22.097  25.718  1.00  0.00     0.113 A 
ATOM     21  N   UNL A   1      31.635  23.531  27.437  1.00  0.00    -0.181 NA
ATOM     22  N   UNL A   1      30.752  22.770  26.765  1.00  0.00    -0.275 N 
ATOM     23  C   UNL A   1      29.375  22.736  27.189  1.00  0.00     0.173 C 
ENDBRANCH  17  18
ENDBRANCH  15  17
ENDBRANCH  13  15
ENDBRANCH  12  13
ENDBRANCH   6   8
ENDBRANCH   3   6
ENDBRANCH   1   2
BRANCH   1  24
ATOM     24  C   UNL A   1      32.187  30.180  26.553  1.00  0.00     0.023 C 
BRANCH  24  25
ATOM     25  C   UNL A   1      31.831  31.658  26.724  1.00  0.00     0.023 C 
BRANCH  25  26
ATOM     26  C   UNL A   1      32.893  32.504  27.420  1.00  0.00     0.116 C 
BRANCH  26  27
ATOM     27  N   UNL A   1      32.475  33.867  27.712  1.00  0.00    -0.352 N 
ATOM     28  C   UNL A   1      33.066  34.797  28.533  1.00  0.00     0.251 C 
ATOM     29  H   UNL A   1      31.653  34.163  27.260  1.00  0.00     0.163 HD
ATOM     30  O   UNL A   1      32.600  35.925  28.662  1.00  0.00    -0.269 OA
BRANCH  28  31
ATOM     31  C   UNL A   1      34.235  34.416  29.336  1.00  0.00     0.039 A 
ATOM     32  C   UNL A   1      34.005  33.862  30.598  1.00  0.00     0.014 A 
ATOM     33  C   UNL A   1      35.529  34.546  28.833  1.00  0.00     0.014 A 
ATOM     34  C   UNL A   1      35.074  33.346  31.320  1.00  0.00     0.010 A 
ATOM     35  C   UNL A   1      36.584  33.957  29.516  1.00  0.00     0.010 A 
ATOM     36  C   UNL A   1      36.359  33.341  30.755  1.00  0.00    -0.014 A 
BRANCH  36  37
ATOM     37  C   UNL A   1      37.472  32.652  31.438  1.00  0.00     0.031 A 
ATOM     38  C   UNL A   1      38.171  31.513  30.764  1.00  0.00     0.074 A 
ATOM     39  C   UNL A   1      37.797  33.037  32.687  1.00  0.00     0.049 A 
ATOM     40  N   UNL A   1      39.141  30.760  31.212  1.00  0.00    -0.248 NA
ATOM     41  C   UNL A   1      37.698  31.148  29.418  1.00  0.00     0.031 C 
ATOM     42  C   UNL A   1      37.122  34.093  33.448  1.00  0.00     0.029 A 
ATOM     43  N   UNL A   1      38.771  32.588  33.538  1.00  0.00    -0.354 N 
ATOM     44  C   UNL A   1      39.392  29.836  30.208  1.00  0.00     0.074 A 
ATOM     45  C   UNL A   1      38.432  30.078  29.154  1.00  0.00     0.031 C 
ATOM     46  C   UNL A   1      37.722  34.232  34.640  1.00  0.00     0.029 A 
ATOM     47  C   UNL A   1      38.800  33.255  34.740  1.00  0.00     0.049 A 
ATOM     48  H   UNL A   1      39.391  31.859  33.312  1.00  0.00     0.167 HD
ATOM     49  C   UNL A   1      40.359  28.890  30.163  1.00  0.00     0.037 A 
ATOM     50  C   UNL A   1      39.613  33.090  35.799  1.00  0.00     0.037 A 
ATOM     51  C   UNL A   1      41.311  28.674  31.221  1.00  0.00     0.049 A 
ATOM     52  C   UNL A   1      40.696  32.050  35.708  1.00  0.00     0.074 A 
ATOM     53  C   UNL A   1      42.348  27.762  31.281  1.00  0.00     0.029 A 
ATOM     54  N   UNL A   1      41.339  29.394  32.409  1.00  0.00    -0.354 N 
ATOM     55  N   UNL A   1      40.961  31.216  34.729  1.00  0.00    -0.248 NA
ATOM     56  C   UNL A   1      41.600  31.936  36.858  1.00  0.00     0.031 C 
ATOM     57  C   UNL A   1      42.984  27.908  32.519  1.00  0.00     0.029 A 
ATOM     58  C   UNL A   1      42.373  28.942  33.212  1.00  0.00     0.049 A 
ATOM     59  H   UNL A   1      40.716  30.119  32.645  1.00  0.00     0.167 HD
ATOM     60  C   UNL A   1      42.069  30.489  35.137  1.00  0.00     0.074 A 
ATOM     61  C   UNL A   1      42.447  31.007  36.438  1.00  0.00     0.031 C 
ATOM     62  C   UNL A   1      42.714  29.479  34.503  1.00  0.00     0.037 A 
BRANCH  49  63
ATOM     63  C   UNL A   1      40.436  28.036  28.932  1.00  0.00     0.064 A 
ATOM     64  C   UNL A   1      39.742  26.818  28.843  1.00  0.00     0.173 A 
ATOM     65  C   UNL A   1      41.189  28.443  27.822  1.00  0.00     0.173 A 
ATOM     66  F   UNL A   1      39.023  26.373  29.883  1.00  0.00    -0.203 F 
ATOM     67  C   UNL A   1      39.822  26.028  27.698  1.00  0.00     0.198 A 
ATOM     68  C   UNL A   1      41.243  27.664  26.667  1.00  0.00     0.198 A 
ATOM     69  F   UNL A   1      41.873  29.596  27.853  1.00  0.00    -0.203 F 
ATOM     70  F   UNL A   1      39.192  24.847  27.657  1.00  0.00    -0.200 F 
ATOM     71  C   UNL A   1      40.566  26.456  26.609  1.00  0.00     0.200 A 
ATOM     72  F   UNL A   1      41.956  28.082  25.612  1.00  0.00    -0.200 F 
ATOM     73  F   UNL A   1      40.637  25.698  25.506  1.00  0.00    -0.200 F 
ENDBRANCH  49  63
BRANCH  50  74
ATOM     74  C   UNL A   1      39.453  33.940  37.008  1.00  0.00     0.064 A 
ATOM     75  C   UNL A   1      40.011  35.224  37.068  1.00  0.00     0.173 A 
ATOM     76  C   UNL A   1      38.743  33.487  38.130  1.00  0.00     0.173 A 
ATOM     77  F   UNL A   1      40.711  35.700  36.027  1.00  0.00    -0.203 F 
ATOM     78  C   UNL A   1      39.892  36.011  38.212  1.00  0.00     0.198 A 
ATOM     79  C   UNL A   1      38.598  34.287  39.262  1.00  0.00     0.198 A 
ATOM     80  F   UNL A   1      38.178  32.271  38.122  1.00  0.00    -0.203 F 
ATOM     81  F   UNL A   1      40.482  37.213  38.261  1.00  0.00    -0.200 F 
ATOM     82  C   UNL A   1      39.183  35.543  39.307  1.00  0.00     0.200 A 
ATOM     83  F   UNL A   1      37.895  33.837  40.311  1.00  0.00    -0.200 F 
ATOM     84  F   UNL A   1      39.067  36.300  40.408  1.00  0.00    -0.200 F 
ENDBRANCH  50  74
BRANCH  62  85
ATOM     85  C   UNL A   1      43.894  28.888  35.215  1.00  0.00     0.064 A 
ATOM     86  C   UNL A   1      45.198  29.352  34.980  1.00  0.00     0.173 A 
ATOM     87  C   UNL A   1      43.718  27.855  36.146  1.00  0.00     0.173 A 
ATOM     88  F   UNL A   1      45.416  30.327  34.086  1.00  0.00    -0.203 F 
ATOM     89  C   UNL A   1      46.287  28.774  35.626  1.00  0.00     0.198 A 
ATOM     90  C   UNL A   1      44.807  27.302  36.813  1.00  0.00     0.198 A 
ATOM     91  F   UNL A   1      42.490  27.383  36.411  1.00  0.00    -0.203 F 
ATOM     92  F   UNL A   1      47.528  29.190  35.340  1.00  0.00    -0.200 F 
ATOM     93  C   UNL A   1      46.090  27.754  36.544  1.00  0.00     0.200 A 
ATOM     94  F   UNL A   1      44.614  26.326  37.711  1.00  0.00    -0.200 F 
ATOM     95  F   UNL A   1      47.141  27.198  37.163  1.00  0.00    -0.200 F 
ENDBRANCH  62  85
ENDBRANCH  36  37
ENDBRANCH  28  31
ENDBRANCH  26  27
ENDBRANCH  25  26
ENDBRANCH  24  25
ENDBRANCH   1  24
TORSDOF 16
ENDMDL
