MODEL 1
REMARK VINA RESULT:     -13.1      0.000      0.000
REMARK SMILES C#Cc1cc(Cl)cc2c1O[C@H](C(F)(F)F)C(C(=O)NCCCCNC(=O)c1ccc(-c3c4nc(c(-c5c(F)c(F)c(F)c(F)c5F)c5ccc([nH]5)c(-c5c(F)c(F)c(F)c(F)c5F)c5nc(c(-c6c(F)c(F)c(F)c(F)c6F)c6ccc3[nH]6)C=C5)C=C4)cc1)=C2
REMARK SMILES IDX 22 1 21 2 20 3 19 4 17 5 18 6 16 8 3 9 4 10 9 11 5 12 8 13
REMARK SMILES IDX 10 14 6 15 7 16 90 17 11 18 2 19 1 20 12 21 13 22 14 23
REMARK SMILES IDX 15 24 23 25 24 26 25 27 26 29 27 30 28 31 89 32 29 33 88 34
REMARK SMILES IDX 30 35 31 36 32 37 82 38 33 39 87 40 81 41 83 42 34 43 86 44
REMARK SMILES IDX 80 45 79 46 35 48 67 49 47 50 66 51 48 52 51 53 65 54 84 55
REMARK SMILES IDX 49 56 50 57 64 59 85 60 52 61 36 62 37 63 45 64 38 65 39 66
REMARK SMILES IDX 43 67 46 68 40 69 41 70 44 71 42 72 68 73 69 74 77 75 70 76
REMARK SMILES IDX 71 77 75 78 78 79 72 80 73 81 76 82 74 83 53 84 54 85 62 86
REMARK SMILES IDX 55 87 56 88 60 89 63 90 57 91 58 92 61 93 59 94
REMARK H PARENT 19 7 24 28 83 47 51 58
REMARK Flexibility Score: inf
ROOT
ATOM      1  C   UNL A   1      31.567  31.894  26.830  1.00  0.00     0.023 C 
ENDROOT
BRANCH   1   2
ATOM      2  C   UNL A   1      31.832  30.397  26.743  1.00  0.00     0.023 C 
BRANCH   2   3
ATOM      3  C   UNL A   1      33.207  30.068  26.181  1.00  0.00     0.116 C 
BRANCH   3   4
ATOM      4  N   UNL A   1      33.160  29.755  24.761  1.00  0.00    -0.352 N 
ATOM      5  C   UNL A   1      32.924  28.659  23.999  1.00  0.00     0.251 C 
ATOM      6  O   UNL A   1      32.937  28.843  22.779  1.00  0.00    -0.270 OA
ATOM      7  H   UNL A   1      33.348  30.547  24.209  1.00  0.00     0.163 HD
BRANCH   5   8
ATOM      8  C   UNL A   1      32.668  27.292  24.540  1.00  0.00     0.067 C 
ATOM      9  C   UNL A   1      32.035  23.552  26.352  1.00  0.00     0.068 A 
ATOM     10  C   UNL A   1      33.085  22.644  26.460  1.00  0.00     0.041 A 
ATOM     11  C   UNL A   1      32.263  24.804  25.766  1.00  0.00     0.143 A 
ATOM     12  C   UNL A   1      34.350  22.999  25.989  1.00  0.00     0.043 A 
ATOM     13  C   UNL A   1      33.530  25.167  25.299  1.00  0.00     0.020 A 
ATOM     14  O   UNL A   1      31.202  25.661  25.726  1.00  0.00    -0.474 OA
ATOM     15  Cl  UNL A   1      35.649  21.882  26.134  1.00  0.00    -0.084 Cl
ATOM     16  C   UNL A   1      34.580  24.253  25.413  1.00  0.00     0.032 A 
ATOM     17  C   UNL A   1      33.740  26.506  24.754  1.00  0.00     0.025 C 
ATOM     18  C   UNL A   1      31.288  26.779  24.822  1.00  0.00     0.314 C 
BRANCH   9  19
ATOM     19  C   UNL A   1      30.728  23.210  26.832  1.00  0.00    -0.067 C 
ATOM     20  C   UNL A   1      29.622  22.881  27.169  1.00  0.00     0.010 C 
ENDBRANCH   9  19
BRANCH  18  21
ATOM     21  C   UNL A   1      30.503  26.457  23.535  1.00  0.00     0.429 C 
ATOM     22  F   UNL A   1      29.534  25.543  23.788  1.00  0.00    -0.167 F 
ATOM     23  F   UNL A   1      29.874  27.541  23.020  1.00  0.00    -0.167 F 
ATOM     24  F   UNL A   1      31.291  25.962  22.556  1.00  0.00    -0.167 F 
ENDBRANCH  18  21
ENDBRANCH   5   8
ENDBRANCH   3   4
ENDBRANCH   2   3
ENDBRANCH   1   2
BRANCH   1  25
ATOM     25  C   UNL A   1      32.752  32.712  27.324  1.00  0.00     0.116 C 
BRANCH  25  26
ATOM     26  N   UNL A   1      32.416  34.099  27.623  1.00  0.00    -0.352 N 
ATOM     27  C   UNL A   1      32.994  34.925  28.558  1.00  0.00     0.251 C 
ATOM     28  H   UNL A   1      31.685  34.492  27.092  1.00  0.00     0.163 HD
ATOM     29  O   UNL A   1      32.533  36.031  28.805  1.00  0.00    -0.269 OA
BRANCH  27  30
ATOM     30  C   UNL A   1      34.169  34.418  29.287  1.00  0.00     0.039 A 
ATOM     31  C   UNL A   1      33.972  33.614  30.408  1.00  0.00     0.014 A 
ATOM     32  C   UNL A   1      35.450  34.644  28.776  1.00  0.00     0.014 A 
ATOM     33  C   UNL A   1      35.068  32.976  30.984  1.00  0.00     0.010 A 
ATOM     34  C   UNL A   1      36.521  33.926  29.286  1.00  0.00     0.010 A 
ATOM     35  C   UNL A   1      36.342  33.096  30.403  1.00  0.00    -0.014 A 
BRANCH  35  36
ATOM     36  C   UNL A   1      37.511  32.383  30.973  1.00  0.00     0.031 A 
ATOM     37  C   UNL A   1      38.014  32.758  32.336  1.00  0.00     0.074 A 
ATOM     38  C   UNL A   1      38.128  31.427  30.256  1.00  0.00     0.049 A 
ATOM     39  N   UNL A   1      39.026  32.270  33.006  1.00  0.00    -0.248 NA
ATOM     40  C   UNL A   1      37.301  33.843  33.032  1.00  0.00     0.031 C 
ATOM     41  C   UNL A   1      37.749  31.004  28.907  1.00  0.00     0.029 A 
ATOM     42  N   UNL A   1      39.205  30.632  30.563  1.00  0.00    -0.354 N 
ATOM     43  C   UNL A   1      39.066  32.984  34.195  1.00  0.00     0.074 A 
ATOM     44  C   UNL A   1      38.033  33.992  34.125  1.00  0.00     0.031 C 
ATOM     45  C   UNL A   1      38.551  29.998  28.521  1.00  0.00     0.029 A 
ATOM     46  C   UNL A   1      39.528  29.736  29.574  1.00  0.00     0.049 A 
ATOM     47  H   UNL A   1      39.697  30.698  31.413  1.00  0.00     0.167 HD
ATOM     48  C   UNL A   1      39.868  32.789  35.266  1.00  0.00     0.037 A 
ATOM     49  C   UNL A   1      40.503  28.807  29.524  1.00  0.00     0.037 A 
ATOM     50  C   UNL A   1      40.886  31.775  35.333  1.00  0.00     0.049 A 
ATOM     51  C   UNL A   1      41.418  28.644  30.709  1.00  0.00     0.074 A 
ATOM     52  C   UNL A   1      41.730  31.473  36.386  1.00  0.00     0.029 A 
ATOM     53  N   UNL A   1      41.203  30.904  34.300  1.00  0.00    -0.354 N 
ATOM     54  N   UNL A   1      41.406  29.279  31.856  1.00  0.00    -0.248 NA
ATOM     55  C   UNL A   1      42.478  27.634  30.594  1.00  0.00     0.031 C 
ATOM     56  C   UNL A   1      42.602  30.465  35.968  1.00  0.00     0.029 A 
ATOM     57  C   UNL A   1      42.256  30.088  34.680  1.00  0.00     0.049 A 
ATOM     58  H   UNL A   1      40.748  30.872  33.428  1.00  0.00     0.167 HD
ATOM     59  C   UNL A   1      42.438  28.732  32.607  1.00  0.00     0.074 A 
ATOM     60  C   UNL A   1      43.044  27.699  31.793  1.00  0.00     0.031 C 
ATOM     61  C   UNL A   1      42.848  29.061  33.857  1.00  0.00     0.037 A 
BRANCH  48  62
ATOM     62  C   UNL A   1      39.671  33.685  36.456  1.00  0.00     0.064 A 
ATOM     63  C   UNL A   1      40.274  34.950  36.533  1.00  0.00     0.173 A 
ATOM     64  C   UNL A   1      38.832  33.294  37.510  1.00  0.00     0.173 A 
ATOM     65  F   UNL A   1      41.097  35.367  35.560  1.00  0.00    -0.203 F 
ATOM     66  C   UNL A   1      40.065  35.778  37.632  1.00  0.00     0.198 A 
ATOM     67  C   UNL A   1      38.596  34.141  38.590  1.00  0.00     0.198 A 
ATOM     68  F   UNL A   1      38.229  32.095  37.488  1.00  0.00    -0.203 F 
ATOM     69  F   UNL A   1      40.694  36.959  37.707  1.00  0.00    -0.200 F 
ATOM     70  C   UNL A   1      39.218  35.378  38.654  1.00  0.00     0.200 A 
ATOM     71  F   UNL A   1      37.763  33.759  39.569  1.00  0.00    -0.200 F 
ATOM     72  F   UNL A   1      39.005  36.184  39.703  1.00  0.00    -0.200 F 
ENDBRANCH  48  62
BRANCH  49  73
ATOM     73  C   UNL A   1      40.627  27.937  28.324  1.00  0.00     0.064 A 
ATOM     74  C   UNL A   1      41.391  28.340  27.221  1.00  0.00     0.173 A 
ATOM     75  C   UNL A   1      40.021  26.673  28.270  1.00  0.00     0.173 A 
ATOM     76  F   UNL A   1      41.974  29.548  27.214  1.00  0.00    -0.203 F 
ATOM     77  C   UNL A   1      41.543  27.513  26.109  1.00  0.00     0.198 A 
ATOM     78  C   UNL A   1      40.200  25.835  27.172  1.00  0.00     0.198 A 
ATOM     79  F   UNL A   1      39.281  26.238  29.301  1.00  0.00    -0.203 F 
ATOM     80  F   UNL A   1      42.255  27.935  25.056  1.00  0.00    -0.200 F 
ATOM     81  C   UNL A   1      40.957  26.257  26.091  1.00  0.00     0.200 A 
ATOM     82  F   UNL A   1      39.647  24.613  27.168  1.00  0.00    -0.200 F 
ATOM     83  F   UNL A   1      41.122  25.453  25.031  1.00  0.00    -0.200 F 
ENDBRANCH  49  73
BRANCH  61  84
ATOM     84  C   UNL A   1      44.000  28.293  34.441  1.00  0.00     0.064 A 
ATOM     85  C   UNL A   1      45.316  28.771  34.365  1.00  0.00     0.173 A 
ATOM     86  C   UNL A   1      43.773  27.113  35.167  1.00  0.00     0.173 A 
ATOM     87  F   UNL A   1      45.589  29.889  33.675  1.00  0.00    -0.203 F 
ATOM     88  C   UNL A   1      46.363  28.087  34.978  1.00  0.00     0.198 A 
ATOM     89  C   UNL A   1      44.816  26.453  35.811  1.00  0.00     0.198 A 
ATOM     90  F   UNL A   1      42.532  26.617  35.282  1.00  0.00    -0.203 F 
ATOM     91  F   UNL A   1      47.618  28.544  34.858  1.00  0.00    -0.200 F 
ATOM     92  C   UNL A   1      46.111  26.938  35.711  1.00  0.00     0.200 A 
ATOM     93  F   UNL A   1      44.566  25.356  36.539  1.00  0.00    -0.200 F 
ATOM     94  F   UNL A   1      47.117  26.297  36.322  1.00  0.00    -0.200 F 
ENDBRANCH  61  84
ENDBRANCH  35  36
ENDBRANCH  27  30
ENDBRANCH  25  26
ENDBRANCH   1  25
TORSDOF 13
ENDMDL
MODEL 2
REMARK VINA RESULT:     -13.0      0.237      1.210
REMARK SMILES C#Cc1cc(Cl)cc2c1O[C@H](C(F)(F)F)C(C(=O)NCCCCNC(=O)c1ccc(-c3c4nc(c(-c5c(F)c(F)c(F)c(F)c5F)c5ccc([nH]5)c(-c5c(F)c(F)c(F)c(F)c5F)c5nc(c(-c6c(F)c(F)c(F)c(F)c6F)c6ccc3[nH]6)C=C5)C=C4)cc1)=C2
REMARK SMILES IDX 22 1 21 2 20 3 19 4 17 5 18 6 16 8 3 9 4 10 9 11 5 12 8 13
REMARK SMILES IDX 10 14 6 15 7 16 90 17 11 18 2 19 1 20 12 21 13 22 14 23
REMARK SMILES IDX 15 24 23 25 24 26 25 27 26 29 27 30 28 31 89 32 29 33 88 34
REMARK SMILES IDX 30 35 31 36 32 37 82 38 33 39 87 40 81 41 83 42 34 43 86 44
REMARK SMILES IDX 80 45 79 46 35 48 67 49 47 50 66 51 48 52 51 53 65 54 84 55
REMARK SMILES IDX 49 56 50 57 64 59 85 60 52 61 36 62 37 63 45 64 38 65 39 66
REMARK SMILES IDX 43 67 46 68 40 69 41 70 44 71 42 72 68 73 69 74 77 75 70 76
REMARK SMILES IDX 71 77 75 78 78 79 72 80 73 81 76 82 74 83 53 84 54 85 62 86
REMARK SMILES IDX 55 87 56 88 60 89 63 90 57 91 58 92 61 93 59 94
REMARK H PARENT 19 7 24 28 83 47 51 58
REMARK Flexibility Score: inf
ROOT
ATOM      1  C   UNL A   1      31.557  31.939  26.855  1.00  0.00     0.023 C 
ENDROOT
BRANCH   1   2
ATOM      2  C   UNL A   1      31.780  30.433  26.876  1.00  0.00     0.023 C 
BRANCH   2   3
ATOM      3  C   UNL A   1      33.217  30.040  26.561  1.00  0.00     0.116 C 
BRANCH   3   4
ATOM      4  N   UNL A   1      33.409  29.749  25.149  1.00  0.00    -0.352 N 
ATOM      5  C   UNL A   1      33.294  28.667  24.339  1.00  0.00     0.251 C 
ATOM      6  O   UNL A   1      33.518  28.869  23.142  1.00  0.00    -0.270 OA
ATOM      7  H   UNL A   1      33.698  30.546  24.651  1.00  0.00     0.163 HD
BRANCH   5   8
ATOM      8  C   UNL A   1      32.933  27.296  24.805  1.00  0.00     0.067 C 
ATOM      9  C   UNL A   1      32.010  23.523  26.411  1.00  0.00     0.068 A 
ATOM     10  C   UNL A   1      32.989  22.536  26.477  1.00  0.00     0.041 A 
ATOM     11  C   UNL A   1      32.335  24.785  25.894  1.00  0.00     0.143 A 
ATOM     12  C   UNL A   1      34.281  22.821  26.033  1.00  0.00     0.043 A 
ATOM     13  C   UNL A   1      33.630  25.077  25.455  1.00  0.00     0.020 A 
ATOM     14  O   UNL A   1      31.340  25.718  25.893  1.00  0.00    -0.474 OA
ATOM     15  Cl  UNL A   1      35.494  21.605  26.127  1.00  0.00    -0.084 Cl
ATOM     16  C   UNL A   1      34.608  24.083  25.526  1.00  0.00     0.032 A 
ATOM     17  C   UNL A   1      33.942  26.424  24.983  1.00  0.00     0.025 C 
ATOM     18  C   UNL A   1      31.517  26.872  25.051  1.00  0.00     0.314 C 
BRANCH   9  19
ATOM     19  C   UNL A   1      30.676  23.254  26.864  1.00  0.00    -0.067 C 
ATOM     20  C   UNL A   1      29.578  22.953  27.251  1.00  0.00     0.010 C 
ENDBRANCH   9  19
BRANCH  18  21
ATOM     21  C   UNL A   1      30.723  26.678  23.744  1.00  0.00     0.429 C 
ATOM     22  F   UNL A   1      30.151  27.846  23.360  1.00  0.00    -0.167 F 
ATOM     23  F   UNL A   1      31.503  26.282  22.710  1.00  0.00    -0.167 F 
ATOM     24  F   UNL A   1      29.740  25.758  23.865  1.00  0.00    -0.167 F 
ENDBRANCH  18  21
ENDBRANCH   5   8
ENDBRANCH   3   4
ENDBRANCH   2   3
ENDBRANCH   1   2
BRANCH   1  25
ATOM     25  C   UNL A   1      32.757  32.757  27.315  1.00  0.00     0.116 C 
BRANCH  25  26
ATOM     26  N   UNL A   1      32.429  34.142  27.627  1.00  0.00    -0.352 N 
ATOM     27  C   UNL A   1      33.014  34.956  28.568  1.00  0.00     0.251 C 
ATOM     28  H   UNL A   1      31.700  34.545  27.101  1.00  0.00     0.163 HD
ATOM     29  O   UNL A   1      32.560  36.064  28.826  1.00  0.00    -0.269 OA
BRANCH  27  30
ATOM     30  C   UNL A   1      34.187  34.436  29.292  1.00  0.00     0.039 A 
ATOM     31  C   UNL A   1      33.989  33.708  30.463  1.00  0.00     0.014 A 
ATOM     32  C   UNL A   1      35.460  34.570  28.731  1.00  0.00     0.014 A 
ATOM     33  C   UNL A   1      35.072  33.052  31.044  1.00  0.00     0.010 A 
ATOM     34  C   UNL A   1      36.512  33.831  29.250  1.00  0.00     0.010 A 
ATOM     35  C   UNL A   1      36.331  33.076  30.419  1.00  0.00    -0.014 A 
BRANCH  35  36
ATOM     36  C   UNL A   1      37.482  32.341  30.996  1.00  0.00     0.031 A 
ATOM     37  C   UNL A   1      37.974  32.695  32.369  1.00  0.00     0.074 A 
ATOM     38  C   UNL A   1      38.095  31.384  30.276  1.00  0.00     0.049 A 
ATOM     39  N   UNL A   1      38.970  32.186  33.046  1.00  0.00    -0.248 NA
ATOM     40  C   UNL A   1      37.267  33.782  33.068  1.00  0.00     0.031 C 
ATOM     41  C   UNL A   1      37.727  30.981  28.918  1.00  0.00     0.029 A 
ATOM     42  N   UNL A   1      39.157  30.571  30.588  1.00  0.00    -0.354 N 
ATOM     43  C   UNL A   1      39.005  32.886  34.244  1.00  0.00     0.074 A 
ATOM     44  C   UNL A   1      37.987  33.909  34.171  1.00  0.00     0.031 C 
ATOM     45  C   UNL A   1      38.520  29.968  28.532  1.00  0.00     0.029 A 
ATOM     46  C   UNL A   1      39.480  29.682  29.594  1.00  0.00     0.049 A 
ATOM     47  H   UNL A   1      39.639  30.622  31.444  1.00  0.00     0.167 HD
ATOM     48  C   UNL A   1      39.791  32.669  35.322  1.00  0.00     0.037 A 
ATOM     49  C   UNL A   1      40.442  28.739  29.546  1.00  0.00     0.037 A 
ATOM     50  C   UNL A   1      40.794  31.640  35.390  1.00  0.00     0.049 A 
ATOM     51  C   UNL A   1      41.340  28.551  30.739  1.00  0.00     0.074 A 
ATOM     52  C   UNL A   1      41.620  31.315  36.451  1.00  0.00     0.029 A 
ATOM     53  N   UNL A   1      41.112  30.775  34.352  1.00  0.00    -0.354 N 
ATOM     54  N   UNL A   1      41.323  29.174  31.893  1.00  0.00    -0.248 NA
ATOM     55  C   UNL A   1      42.389  27.528  30.627  1.00  0.00     0.031 C 
ATOM     56  C   UNL A   1      42.484  30.300  36.032  1.00  0.00     0.029 A 
ATOM     57  C   UNL A   1      42.148  29.942  34.736  1.00  0.00     0.049 A 
ATOM     58  H   UNL A   1      40.667  30.759  33.474  1.00  0.00     0.167 HD
ATOM     59  C   UNL A   1      42.338  28.605  32.651  1.00  0.00     0.074 A 
ATOM     60  C   UNL A   1      42.940  27.573  31.833  1.00  0.00     0.031 C 
ATOM     61  C   UNL A   1      42.737  28.915  33.910  1.00  0.00     0.037 A 
BRANCH  48  62
ATOM     62  C   UNL A   1      39.591  33.554  36.519  1.00  0.00     0.064 A 
ATOM     63  C   UNL A   1      40.186  34.823  36.604  1.00  0.00     0.173 A 
ATOM     64  C   UNL A   1      38.758  33.150  37.573  1.00  0.00     0.173 A 
ATOM     65  F   UNL A   1      41.004  35.252  35.631  1.00  0.00    -0.203 F 
ATOM     66  C   UNL A   1      39.975  35.642  37.709  1.00  0.00     0.198 A 
ATOM     67  C   UNL A   1      38.519  33.988  38.659  1.00  0.00     0.198 A 
ATOM     68  F   UNL A   1      38.163  31.948  37.544  1.00  0.00    -0.203 F 
ATOM     69  F   UNL A   1      40.596  36.827  37.791  1.00  0.00    -0.200 F 
ATOM     70  C   UNL A   1      39.133  35.229  38.731  1.00  0.00     0.200 A 
ATOM     71  F   UNL A   1      37.692  33.593  39.637  1.00  0.00    -0.200 F 
ATOM     72  F   UNL A   1      38.918  36.025  39.786  1.00  0.00    -0.200 F 
ENDBRANCH  48  62
BRANCH  49  73
ATOM     73  C   UNL A   1      40.569  27.881  28.338  1.00  0.00     0.064 A 
ATOM     74  C   UNL A   1      41.350  28.287  27.247  1.00  0.00     0.173 A 
ATOM     75  C   UNL A   1      39.951  26.624  28.264  1.00  0.00     0.173 A 
ATOM     76  F   UNL A   1      41.945  29.488  27.259  1.00  0.00    -0.203 F 
ATOM     77  C   UNL A   1      41.504  27.470  26.128  1.00  0.00     0.198 A 
ATOM     78  C   UNL A   1      40.131  25.795  27.160  1.00  0.00     0.198 A 
ATOM     79  F   UNL A   1      39.196  26.186  29.283  1.00  0.00    -0.203 F 
ATOM     80  F   UNL A   1      42.232  27.895  25.087  1.00  0.00    -0.200 F 
ATOM     81  C   UNL A   1      40.905  26.221  26.091  1.00  0.00     0.200 A 
ATOM     82  F   UNL A   1      39.566  24.580  27.137  1.00  0.00    -0.200 F 
ATOM     83  F   UNL A   1      41.072  25.425  25.024  1.00  0.00    -0.200 F 
ENDBRANCH  49  73
BRANCH  61  84
ATOM     84  C   UNL A   1      43.870  28.125  34.500  1.00  0.00     0.064 A 
ATOM     85  C   UNL A   1      43.654  26.895  35.139  1.00  0.00     0.173 A 
ATOM     86  C   UNL A   1      45.197  28.555  34.341  1.00  0.00     0.173 A 
ATOM     87  F   UNL A   1      42.405  26.441  35.326  1.00  0.00    -0.203 F 
ATOM     88  C   UNL A   1      44.721  26.136  35.612  1.00  0.00     0.198 A 
ATOM     89  C   UNL A   1      46.263  27.777  34.781  1.00  0.00     0.198 A 
ATOM     90  F   UNL A   1      45.462  29.718  33.726  1.00  0.00    -0.203 F 
ATOM     91  F   UNL A   1      44.487  24.983  36.254  1.00  0.00    -0.200 F 
ATOM     92  C   UNL A   1      46.025  26.571  35.421  1.00  0.00     0.200 A 
ATOM     93  F   UNL A   1      47.522  28.187  34.573  1.00  0.00    -0.200 F 
ATOM     94  F   UNL A   1      47.051  25.825  35.854  1.00  0.00    -0.200 F 
ENDBRANCH  61  84
ENDBRANCH  35  36
ENDBRANCH  27  30
ENDBRANCH  25  26
ENDBRANCH   1  25
TORSDOF 13
ENDMDL
MODEL 3
REMARK VINA RESULT:     -13.0      0.193      1.991
REMARK SMILES C#Cc1cc(Cl)cc2c1O[C@H](C(F)(F)F)C(C(=O)NCCCCNC(=O)c1ccc(-c3c4nc(c(-c5c(F)c(F)c(F)c(F)c5F)c5ccc([nH]5)c(-c5c(F)c(F)c(F)c(F)c5F)c5nc(c(-c6c(F)c(F)c(F)c(F)c6F)c6ccc3[nH]6)C=C5)C=C4)cc1)=C2
REMARK SMILES IDX 22 1 21 2 20 3 19 4 17 5 18 6 16 8 3 9 4 10 9 11 5 12 8 13
REMARK SMILES IDX 10 14 6 15 7 16 90 17 11 18 2 19 1 20 12 21 13 22 14 23
REMARK SMILES IDX 15 24 23 25 24 26 25 27 26 29 27 30 28 31 89 32 29 33 88 34
REMARK SMILES IDX 30 35 31 36 32 37 82 38 33 39 87 40 81 41 83 42 34 43 86 44
REMARK SMILES IDX 80 45 79 46 35 48 67 49 47 50 66 51 48 52 51 53 65 54 84 55
REMARK SMILES IDX 49 56 50 57 64 59 85 60 52 61 36 62 37 63 45 64 38 65 39 66
REMARK SMILES IDX 43 67 46 68 40 69 41 70 44 71 42 72 68 73 69 74 77 75 70 76
REMARK SMILES IDX 71 77 75 78 78 79 72 80 73 81 76 82 74 83 53 84 54 85 62 86
REMARK SMILES IDX 55 87 56 88 60 89 63 90 57 91 58 92 61 93 59 94
REMARK H PARENT 19 7 24 28 83 47 51 58
REMARK Flexibility Score: inf
ROOT
ATOM      1  C   UNL A   1      31.591  31.951  26.765  1.00  0.00     0.023 C 
ENDROOT
BRANCH   1   2
ATOM      2  C   UNL A   1      31.806  30.443  26.783  1.00  0.00     0.023 C 
BRANCH   2   3
ATOM      3  C   UNL A   1      33.212  30.039  26.363  1.00  0.00     0.116 C 
BRANCH   3   4
ATOM      4  N   UNL A   1      33.300  29.759  24.938  1.00  0.00    -0.352 N 
ATOM      5  C   UNL A   1      33.138  28.681  24.132  1.00  0.00     0.251 C 
ATOM      6  O   UNL A   1      33.267  28.893  22.923  1.00  0.00    -0.270 OA
ATOM      7  H   UNL A   1      33.541  30.563  24.425  1.00  0.00     0.163 HD
BRANCH   5   8
ATOM      8  C   UNL A   1      32.829  27.302  24.614  1.00  0.00     0.067 C 
ATOM      9  C   UNL A   1      32.047  23.517  26.266  1.00  0.00     0.068 A 
ATOM     10  C   UNL A   1      33.068  22.576  26.364  1.00  0.00     0.041 A 
ATOM     11  C   UNL A   1      32.325  24.784  25.734  1.00  0.00     0.143 A 
ATOM     12  C   UNL A   1      34.354  22.912  25.937  1.00  0.00     0.043 A 
ATOM     13  C   UNL A   1      33.613  25.126  25.312  1.00  0.00     0.020 A 
ATOM     14  O   UNL A   1      31.290  25.672  25.702  1.00  0.00    -0.474 OA
ATOM     15  Cl  UNL A   1      35.617  21.752  26.070  1.00  0.00    -0.084 Cl
ATOM     16  C   UNL A   1      34.633  24.178  25.415  1.00  0.00     0.032 A 
ATOM     17  C   UNL A   1      33.873  26.479  24.823  1.00  0.00     0.025 C 
ATOM     18  C   UNL A   1      31.429  26.819  24.843  1.00  0.00     0.314 C 
BRANCH   9  19
ATOM     19  C   UNL A   1      30.719  23.196  26.702  1.00  0.00    -0.067 C 
ATOM     20  C   UNL A   1      29.634  22.919  27.140  1.00  0.00     0.010 C 
ENDBRANCH   9  19
BRANCH  18  21
ATOM     21  C   UNL A   1      30.667  26.570  23.527  1.00  0.00     0.429 C 
ATOM     22  F   UNL A   1      31.523  26.176  22.552  1.00  0.00    -0.167 F 
ATOM     23  F   UNL A   1      29.742  25.587  23.636  1.00  0.00    -0.167 F 
ATOM     24  F   UNL A   1      30.018  27.669  23.086  1.00  0.00    -0.167 F 
ENDBRANCH  18  21
ENDBRANCH   5   8
ENDBRANCH   3   4
ENDBRANCH   2   3
ENDBRANCH   1   2
BRANCH   1  25
ATOM     25  C   UNL A   1      32.739  32.755  27.360  1.00  0.00     0.116 C 
BRANCH  25  26
ATOM     26  N   UNL A   1      32.390  34.140  27.648  1.00  0.00    -0.352 N 
ATOM     27  C   UNL A   1      32.960  34.979  28.577  1.00  0.00     0.251 C 
ATOM     28  H   UNL A   1      31.656  34.522  27.114  1.00  0.00     0.163 HD
ATOM     29  O   UNL A   1      32.488  36.083  28.815  1.00  0.00    -0.269 OA
BRANCH  27  30
ATOM     30  C   UNL A   1      34.139  34.489  29.311  1.00  0.00     0.039 A 
ATOM     31  C   UNL A   1      33.951  33.800  30.507  1.00  0.00     0.014 A 
ATOM     32  C   UNL A   1      35.408  34.611  28.739  1.00  0.00     0.014 A 
ATOM     33  C   UNL A   1      35.041  33.169  31.103  1.00  0.00     0.010 A 
ATOM     34  C   UNL A   1      36.467  33.895  29.277  1.00  0.00     0.010 A 
ATOM     35  C   UNL A   1      36.296  33.179  30.471  1.00  0.00    -0.014 A 
BRANCH  35  36
ATOM     36  C   UNL A   1      37.454  32.470  31.066  1.00  0.00     0.031 A 
ATOM     37  C   UNL A   1      37.934  32.853  32.435  1.00  0.00     0.074 A 
ATOM     38  C   UNL A   1      38.085  31.509  30.365  1.00  0.00     0.049 A 
ATOM     39  N   UNL A   1      38.934  32.369  33.126  1.00  0.00    -0.248 NA
ATOM     40  C   UNL A   1      37.209  33.942  33.112  1.00  0.00     0.031 C 
ATOM     41  C   UNL A   1      37.729  31.078  29.012  1.00  0.00     0.029 A 
ATOM     42  N   UNL A   1      39.156  30.716  30.696  1.00  0.00    -0.354 N 
ATOM     43  C   UNL A   1      38.953  33.089  34.311  1.00  0.00     0.074 A 
ATOM     44  C   UNL A   1      37.921  34.097  34.217  1.00  0.00     0.031 C 
ATOM     45  C   UNL A   1      38.538  30.071  28.647  1.00  0.00     0.029 A 
ATOM     46  C   UNL A   1      39.497  29.815  29.718  1.00  0.00     0.049 A 
ATOM     47  H   UNL A   1      39.633  30.788  31.554  1.00  0.00     0.167 HD
ATOM     48  C   UNL A   1      39.736  32.901  35.398  1.00  0.00     0.037 A 
ATOM     49  C   UNL A   1      40.472  28.886  29.691  1.00  0.00     0.037 A 
ATOM     50  C   UNL A   1      40.753  31.887  35.488  1.00  0.00     0.049 A 
ATOM     51  C   UNL A   1      41.366  28.729  30.892  1.00  0.00     0.074 A 
ATOM     52  C   UNL A   1      41.578  31.592  36.558  1.00  0.00     0.029 A 
ATOM     53  N   UNL A   1      41.088  31.010  34.466  1.00  0.00    -0.354 N 
ATOM     54  N   UNL A   1      41.334  29.372  32.035  1.00  0.00    -0.248 NA
ATOM     55  C   UNL A   1      42.429  27.720  30.802  1.00  0.00     0.031 C 
ATOM     56  C   UNL A   1      42.458  30.582  36.160  1.00  0.00     0.029 A 
ATOM     57  C   UNL A   1      42.134  30.197  34.868  1.00  0.00     0.049 A 
ATOM     58  H   UNL A   1      40.649  30.973  33.586  1.00  0.00     0.167 HD
ATOM     59  C   UNL A   1      42.353  28.830  32.807  1.00  0.00     0.074 A 
ATOM     60  C   UNL A   1      42.973  27.792  32.010  1.00  0.00     0.031 C 
ATOM     61  C   UNL A   1      42.741  29.165  34.063  1.00  0.00     0.037 A 
BRANCH  48  62
ATOM     62  C   UNL A   1      39.518  33.804  36.578  1.00  0.00     0.064 A 
ATOM     63  C   UNL A   1      38.738  33.405  37.676  1.00  0.00     0.173 A 
ATOM     64  C   UNL A   1      40.132  35.063  36.636  1.00  0.00     0.173 A 
ATOM     65  F   UNL A   1      38.115  32.217  37.666  1.00  0.00    -0.203 F 
ATOM     66  C   UNL A   1      38.561  34.243  38.772  1.00  0.00     0.198 A 
ATOM     67  C   UNL A   1      39.985  35.883  37.751  1.00  0.00     0.198 A 
ATOM     68  F   UNL A   1      40.890  35.494  35.615  1.00  0.00    -0.203 F 
ATOM     69  F   UNL A   1      37.769  33.861  39.784  1.00  0.00    -0.200 F 
ATOM     70  C   UNL A   1      39.194  35.477  38.814  1.00  0.00     0.200 A 
ATOM     71  F   UNL A   1      40.610  37.068  37.797  1.00  0.00    -0.200 F 
ATOM     72  F   UNL A   1      39.036  36.275  39.879  1.00  0.00    -0.200 F 
ENDBRANCH  48  62
BRANCH  49  73
ATOM     73  C   UNL A   1      40.617  28.009  28.498  1.00  0.00     0.064 A 
ATOM     74  C   UNL A   1      39.968  26.769  28.435  1.00  0.00     0.173 A 
ATOM     75  C   UNL A   1      41.371  28.407  27.384  1.00  0.00     0.173 A 
ATOM     76  F   UNL A   1      39.252  26.332  29.482  1.00  0.00    -0.203 F 
ATOM     77  C   UNL A   1      40.068  25.959  27.305  1.00  0.00     0.198 A 
ATOM     78  C   UNL A   1      41.445  27.612  26.243  1.00  0.00     0.198 A 
ATOM     79  F   UNL A   1      42.009  29.587  27.392  1.00  0.00    -0.203 F 
ATOM     80  F   UNL A   1      39.462  24.765  27.282  1.00  0.00    -0.200 F 
ATOM     81  C   UNL A   1      40.797  26.387  26.206  1.00  0.00     0.200 A 
ATOM     82  F   UNL A   1      42.134  28.039  25.175  1.00  0.00    -0.200 F 
ATOM     83  F   UNL A   1      40.875  25.619  25.109  1.00  0.00    -0.200 F 
ENDBRANCH  49  73
BRANCH  61  84
ATOM     84  C   UNL A   1      43.882  28.401  34.671  1.00  0.00     0.064 A 
ATOM     85  C   UNL A   1      43.677  27.190  35.348  1.00  0.00     0.173 A 
ATOM     86  C   UNL A   1      45.205  28.836  34.495  1.00  0.00     0.173 A 
ATOM     87  F   UNL A   1      42.432  26.733  35.553  1.00  0.00    -0.203 F 
ATOM     88  C   UNL A   1      44.751  26.452  35.839  1.00  0.00     0.198 A 
ATOM     89  C   UNL A   1      46.278  28.078  34.954  1.00  0.00     0.198 A 
ATOM     90  F   UNL A   1      45.459  29.982  33.845  1.00  0.00    -0.203 F 
ATOM     91  F   UNL A   1      44.527  25.317  36.515  1.00  0.00    -0.200 F 
ATOM     92  C   UNL A   1      46.050  26.890  35.630  1.00  0.00     0.200 A 
ATOM     93  F   UNL A   1      47.533  28.491  34.729  1.00  0.00    -0.200 F 
ATOM     94  F   UNL A   1      47.084  26.165  36.080  1.00  0.00    -0.200 F 
ENDBRANCH  61  84
ENDBRANCH  35  36
ENDBRANCH  27  30
ENDBRANCH  25  26
ENDBRANCH   1  25
TORSDOF 13
ENDMDL
