MODEL 1
REMARK VINA RESULT:     -14.3      0.000      0.000
REMARK SMILES Cc1cc([N+](=O)[O-])ccc1NC(=O)[C@@H]1[C@@H](C(=O)NCCCCNC(=O)c2ccc(-c3c4nc(c(-c5c(F)c(F)c(F)c(F)c5F)c5ccc([nH]5)c(-c5c(F)c(F)c(F)c(F)c5F)c5nc(c(-c6c(F)c(F)c(F)c(F)c6F)c6ccc3[nH]6)C=C5)C=C4)cc2)[C@H]2C=C[C@@H]1C2
REMARK SMILES IDX 20 1 19 2 18 3 16 4 17 5 15 7 14 8 92 9 89 10 91 11 93 12
REMARK SMILES IDX 90 13 12 14 11 15 13 17 10 18 1 19 2 20 3 21 4 22 9 23 8 24
REMARK SMILES IDX 5 25 6 26 7 27 21 28 22 29 23 30 24 31 25 33 26 34 27 35
REMARK SMILES IDX 88 36 28 37 87 38 29 39 30 40 31 41 81 42 32 43 86 44 80 45
REMARK SMILES IDX 82 46 33 47 85 48 79 49 78 50 34 52 66 53 46 54 65 55 47 56
REMARK SMILES IDX 50 57 64 58 83 59 48 60 49 61 63 63 84 64 51 65 35 66 36 67
REMARK SMILES IDX 44 68 37 69 38 70 42 71 45 72 39 73 40 74 43 75 41 76 67 77
REMARK SMILES IDX 68 78 76 79 69 80 70 81 74 82 77 83 71 84 72 85 75 86 73 87
REMARK SMILES IDX 52 88 53 89 61 90 54 91 55 92 59 93 62 94 56 95 57 96 60 97
REMARK SMILES IDX 58 98
REMARK H PARENT 18 6 11 16 23 32 82 51 50 62
REMARK Flexibility Score: inf
ROOT
ATOM      1  C   UNL A   1      37.200  21.450  24.727  1.00  0.00     0.023 C 
ENDROOT
BRANCH   1   2
ATOM      2  C   UNL A   1      36.936  22.716  23.905  1.00  0.00     0.116 C 
BRANCH   2   3
ATOM      3  N   UNL A   1      36.223  23.748  24.634  1.00  0.00    -0.356 N 
ATOM      4  C   UNL A   1      34.969  24.255  24.479  1.00  0.00     0.224 C 
ATOM      5  O   UNL A   1      34.636  25.145  25.266  1.00  0.00    -0.275 OA
ATOM      6  H   UNL A   1      36.737  24.155  25.368  1.00  0.00     0.163 HD
BRANCH   4   7
ATOM      7  C   UNL A   1      34.059  23.793  23.343  1.00  0.00     0.098 C 
ATOM      8  C   UNL A   1      32.835  24.781  23.130  1.00  0.00     0.099 C 
ATOM      9  C   UNL A   1      31.624  23.809  23.126  1.00  0.00     0.025 C 
ATOM     10  C   UNL A   1      33.327  22.446  23.591  1.00  0.00     0.025 C 
ATOM     11  C   UNL A   1      31.439  23.340  24.551  1.00  0.00    -0.027 C 
ATOM     12  C   UNL A   1      32.225  22.536  22.535  1.00  0.00     0.017 C 
ATOM     13  C   UNL A   1      32.472  22.533  24.835  1.00  0.00    -0.027 C 
BRANCH   8  14
ATOM     14  C   UNL A   1      32.892  25.623  21.867  1.00  0.00     0.228 C 
ATOM     15  N   UNL A   1      32.798  26.994  21.896  1.00  0.00    -0.326 N 
ATOM     16  H   UNL A   1      32.832  27.404  21.003  1.00  0.00     0.169 HD
ATOM     17  O   UNL A   1      32.987  25.094  20.754  1.00  0.00    -0.274 OA
BRANCH  15  18
ATOM     18  C   UNL A   1      32.662  27.940  22.939  1.00  0.00     0.044 A 
ATOM     19  C   UNL A   1      30.157  28.268  22.378  1.00  0.00     0.047 C 
ATOM     20  C   UNL A   1      31.388  28.485  23.223  1.00  0.00    -0.021 A 
ATOM     21  C   UNL A   1      31.219  29.304  24.363  1.00  0.00     0.091 A 
ATOM     22  C   UNL A   1      32.302  29.594  25.198  1.00  0.00     0.269 A 
ATOM     23  C   UNL A   1      33.746  28.350  23.729  1.00  0.00     0.033 A 
ATOM     24  C   UNL A   1      33.575  29.146  24.865  1.00  0.00     0.088 A 
BRANCH  22  25
ATOM     25  N   UNL A   1      32.102  30.367  26.427  1.00  0.00     0.062 N 
ATOM     26  O   UNL A   1      31.403  31.388  26.358  1.00  0.00    -0.258 OA
ATOM     27  O   UNL A   1      32.631  29.943  27.465  1.00  0.00    -0.258 OA
ENDBRANCH  22  25
ENDBRANCH  15  18
ENDBRANCH   8  14
ENDBRANCH   4   7
ENDBRANCH   2   3
ENDBRANCH   1   2
BRANCH   1  28
ATOM     28  C   UNL A   1      38.554  21.360  25.424  1.00  0.00     0.023 C 
BRANCH  28  29
ATOM     29  C   UNL A   1      38.944  22.576  26.254  1.00  0.00     0.116 C 
BRANCH  29  30
ATOM     30  N   UNL A   1      40.379  22.758  26.426  1.00  0.00    -0.352 N 
ATOM     31  C   UNL A   1      41.104  23.918  26.673  1.00  0.00     0.251 C 
ATOM     32  H   UNL A   1      40.916  21.935  26.357  1.00  0.00     0.163 HD
ATOM     33  O   UNL A   1      42.312  23.880  26.753  1.00  0.00    -0.269 OA
BRANCH  31  34
ATOM     34  C   UNL A   1      40.376  25.180  26.974  1.00  0.00     0.039 A 
ATOM     35  C   UNL A   1      40.745  26.334  26.271  1.00  0.00     0.014 A 
ATOM     36  C   UNL A   1      39.492  25.271  28.043  1.00  0.00     0.014 A 
ATOM     37  C   UNL A   1      40.439  27.585  26.802  1.00  0.00     0.010 A 
ATOM     38  C   UNL A   1      39.277  26.502  28.630  1.00  0.00     0.010 A 
ATOM     39  C   UNL A   1      39.815  27.652  28.047  1.00  0.00    -0.014 A 
BRANCH  39  40
ATOM     40  C   UNL A   1      39.828  28.849  28.880  1.00  0.00     0.031 A 
ATOM     41  C   UNL A   1      38.800  29.898  28.735  1.00  0.00     0.074 A 
ATOM     42  C   UNL A   1      40.738  28.928  29.878  1.00  0.00     0.049 A 
ATOM     43  N   UNL A   1      38.962  31.129  29.088  1.00  0.00    -0.248 NA
ATOM     44  C   UNL A   1      37.495  29.636  28.142  1.00  0.00     0.031 C 
ATOM     45  C   UNL A   1      40.750  29.865  30.997  1.00  0.00     0.029 A 
ATOM     46  N   UNL A   1      41.969  28.256  29.970  1.00  0.00    -0.354 N 
ATOM     47  C   UNL A   1      37.730  31.745  29.040  1.00  0.00     0.074 A 
ATOM     48  C   UNL A   1      36.867  30.792  28.379  1.00  0.00     0.031 C 
ATOM     49  C   UNL A   1      42.000  29.939  31.483  1.00  0.00     0.029 A 
ATOM     50  C   UNL A   1      42.851  29.168  30.593  1.00  0.00     0.049 A 
ATOM     51  H   UNL A   1      42.175  27.343  29.664  1.00  0.00     0.167 HD
ATOM     52  C   UNL A   1      37.548  32.930  29.696  1.00  0.00     0.037 A 
ATOM     53  C   UNL A   1      43.944  29.659  29.939  1.00  0.00     0.037 A 
ATOM     54  C   UNL A   1      38.792  33.392  30.310  1.00  0.00     0.049 A 
ATOM     55  C   UNL A   1      43.960  31.162  29.808  1.00  0.00     0.074 A 
ATOM     56  C   UNL A   1      39.283  33.293  31.601  1.00  0.00     0.029 A 
ATOM     57  N   UNL A   1      39.862  33.779  29.510  1.00  0.00    -0.354 N 
ATOM     58  N   UNL A   1      42.901  31.911  29.932  1.00  0.00    -0.248 NA
ATOM     59  C   UNL A   1      45.154  31.932  29.470  1.00  0.00     0.031 C 
ATOM     60  C   UNL A   1      40.669  33.572  31.569  1.00  0.00     0.029 A 
ATOM     61  C   UNL A   1      41.020  33.855  30.262  1.00  0.00     0.049 A 
ATOM     62  H   UNL A   1      39.804  33.971  28.546  1.00  0.00     0.167 HD
ATOM     63  C   UNL A   1      43.231  33.211  29.661  1.00  0.00     0.074 A 
ATOM     64  C   UNL A   1      44.656  33.179  29.400  1.00  0.00     0.031 C 
ATOM     65  C   UNL A   1      42.293  34.203  29.653  1.00  0.00     0.037 A 
BRANCH  52  66
ATOM     66  C   UNL A   1      36.185  33.490  30.063  1.00  0.00     0.064 A 
ATOM     67  C   UNL A   1      35.342  34.054  29.078  1.00  0.00     0.173 A 
ATOM     68  C   UNL A   1      35.678  33.566  31.373  1.00  0.00     0.173 A 
ATOM     69  F   UNL A   1      35.608  33.933  27.772  1.00  0.00    -0.203 F 
ATOM     70  C   UNL A   1      34.182  34.767  29.396  1.00  0.00     0.198 A 
ATOM     71  C   UNL A   1      34.548  34.326  31.698  1.00  0.00     0.198 A 
ATOM     72  F   UNL A   1      36.222  32.859  32.369  1.00  0.00    -0.203 F 
ATOM     73  F   UNL A   1      33.438  35.297  28.415  1.00  0.00    -0.200 F 
ATOM     74  C   UNL A   1      33.810  34.944  30.711  1.00  0.00     0.200 A 
ATOM     75  F   UNL A   1      34.180  34.453  32.982  1.00  0.00    -0.200 F 
ATOM     76  F   UNL A   1      32.730  35.673  31.020  1.00  0.00    -0.200 F 
ENDBRANCH  52  66
BRANCH  53  77
ATOM     77  C   UNL A   1      44.493  28.725  28.921  1.00  0.00     0.064 A 
ATOM     78  C   UNL A   1      45.240  27.614  29.359  1.00  0.00     0.173 A 
ATOM     79  C   UNL A   1      44.005  28.702  27.609  1.00  0.00     0.173 A 
ATOM     80  F   UNL A   1      45.724  27.583  30.610  1.00  0.00    -0.203 F 
ATOM     81  C   UNL A   1      45.393  26.484  28.559  1.00  0.00     0.198 A 
ATOM     82  C   UNL A   1      44.173  27.572  26.805  1.00  0.00     0.198 A 
ATOM     83  F   UNL A   1      43.268  29.718  27.140  1.00  0.00    -0.203 F 
ATOM     84  F   UNL A   1      46.011  25.399  29.048  1.00  0.00    -0.200 F 
ATOM     85  C   UNL A   1      44.837  26.455  27.292  1.00  0.00     0.200 A 
ATOM     86  F   UNL A   1      43.607  27.529  25.591  1.00  0.00    -0.200 F 
ATOM     87  F   UNL A   1      44.902  25.336  26.556  1.00  0.00    -0.200 F 
ENDBRANCH  53  77
BRANCH  65  88
ATOM     88  C   UNL A   1      42.516  35.609  29.166  1.00  0.00     0.064 A 
ATOM     89  C   UNL A   1      41.916  36.136  28.011  1.00  0.00     0.173 A 
ATOM     90  C   UNL A   1      43.249  36.528  29.953  1.00  0.00     0.173 A 
ATOM     91  F   UNL A   1      41.106  35.388  27.248  1.00  0.00    -0.203 F 
ATOM     92  C   UNL A   1      42.088  37.470  27.635  1.00  0.00     0.198 A 
ATOM     93  C   UNL A   1      43.375  37.871  29.602  1.00  0.00     0.198 A 
ATOM     94  F   UNL A   1      43.844  36.152  31.094  1.00  0.00    -0.203 F 
ATOM     95  F   UNL A   1      41.528  37.916  26.501  1.00  0.00    -0.200 F 
ATOM     96  C   UNL A   1      42.808  38.339  28.434  1.00  0.00     0.200 A 
ATOM     97  F   UNL A   1      44.034  38.713  30.411  1.00  0.00    -0.200 F 
ATOM     98  F   UNL A   1      42.936  39.627  28.090  1.00  0.00    -0.200 F 
ENDBRANCH  65  88
ENDBRANCH  39  40
ENDBRANCH  31  34
ENDBRANCH  29  30
ENDBRANCH  28  29
ENDBRANCH   1  28
TORSDOF 14
ENDMDL
MODEL 2
REMARK VINA RESULT:     -14.2      1.430      2.053
REMARK SMILES Cc1cc([N+](=O)[O-])ccc1NC(=O)[C@@H]1[C@@H](C(=O)NCCCCNC(=O)c2ccc(-c3c4nc(c(-c5c(F)c(F)c(F)c(F)c5F)c5ccc([nH]5)c(-c5c(F)c(F)c(F)c(F)c5F)c5nc(c(-c6c(F)c(F)c(F)c(F)c6F)c6ccc3[nH]6)C=C5)C=C4)cc2)[C@H]2C=C[C@@H]1C2
REMARK SMILES IDX 20 1 19 2 18 3 16 4 17 5 15 7 14 8 92 9 89 10 91 11 93 12
REMARK SMILES IDX 90 13 12 14 11 15 13 17 10 18 1 19 2 20 3 21 4 22 9 23 8 24
REMARK SMILES IDX 5 25 6 26 7 27 21 28 22 29 23 30 24 31 25 33 26 34 27 35
REMARK SMILES IDX 88 36 28 37 87 38 29 39 30 40 31 41 81 42 32 43 86 44 80 45
REMARK SMILES IDX 82 46 33 47 85 48 79 49 78 50 34 52 66 53 46 54 65 55 47 56
REMARK SMILES IDX 50 57 64 58 83 59 48 60 49 61 63 63 84 64 51 65 35 66 36 67
REMARK SMILES IDX 44 68 37 69 38 70 42 71 45 72 39 73 40 74 43 75 41 76 67 77
REMARK SMILES IDX 68 78 76 79 69 80 70 81 74 82 77 83 71 84 72 85 75 86 73 87
REMARK SMILES IDX 52 88 53 89 61 90 54 91 55 92 59 93 62 94 56 95 57 96 60 97
REMARK SMILES IDX 58 98
REMARK H PARENT 18 6 11 16 23 32 82 51 50 62
REMARK Flexibility Score: inf
ROOT
ATOM      1  C   UNL A   1      37.008  21.230  24.673  1.00  0.00     0.023 C 
ENDROOT
BRANCH   1   2
ATOM      2  C   UNL A   1      35.815  20.702  25.476  1.00  0.00     0.116 C 
BRANCH   2   3
ATOM      3  N   UNL A   1      34.557  20.749  24.755  1.00  0.00    -0.356 N 
ATOM      4  C   UNL A   1      33.630  21.738  24.628  1.00  0.00     0.224 C 
ATOM      5  O   UNL A   1      32.642  21.478  23.936  1.00  0.00    -0.275 OA
ATOM      6  H   UNL A   1      34.334  19.920  24.274  1.00  0.00     0.163 HD
BRANCH   4   7
ATOM      7  C   UNL A   1      33.778  23.066  25.366  1.00  0.00     0.098 C 
ATOM      8  C   UNL A   1      32.521  24.009  25.139  1.00  0.00     0.099 C 
ATOM      9  C   UNL A   1      33.184  25.345  24.709  1.00  0.00     0.025 C 
ATOM     10  C   UNL A   1      34.935  23.972  24.867  1.00  0.00     0.025 C 
ATOM     11  C   UNL A   1      33.711  25.137  23.308  1.00  0.00    -0.027 C 
ATOM     12  C   UNL A   1      34.511  25.313  25.466  1.00  0.00     0.017 C 
ATOM     13  C   UNL A   1      34.754  24.299  23.402  1.00  0.00    -0.027 C 
BRANCH   8  14
ATOM     14  C   UNL A   1      31.616  24.187  26.347  1.00  0.00     0.228 C 
ATOM     15  N   UNL A   1      30.744  25.243  26.458  1.00  0.00    -0.326 N 
ATOM     16  H   UNL A   1      30.236  25.240  27.300  1.00  0.00     0.169 HD
ATOM     17  O   UNL A   1      31.663  23.400  27.299  1.00  0.00    -0.274 OA
BRANCH  15  18
ATOM     18  C   UNL A   1      30.421  26.334  25.617  1.00  0.00     0.044 A 
ATOM     19  C   UNL A   1      31.883  27.924  27.043  1.00  0.00     0.047 C 
ATOM     20  C   UNL A   1      31.029  27.591  25.845  1.00  0.00    -0.021 A 
ATOM     21  C   UNL A   1      30.834  28.638  24.915  1.00  0.00     0.091 A 
ATOM     22  C   UNL A   1      30.034  28.446  23.784  1.00  0.00     0.269 A 
ATOM     23  C   UNL A   1      29.531  26.217  24.540  1.00  0.00     0.033 A 
ATOM     24  C   UNL A   1      29.353  27.247  23.612  1.00  0.00     0.088 A 
BRANCH  22  25
ATOM     25  N   UNL A   1      29.911  29.503  22.777  1.00  0.00     0.062 N 
ATOM     26  O   UNL A   1      30.294  29.251  21.626  1.00  0.00    -0.258 OA
ATOM     27  O   UNL A   1      29.416  30.582  23.134  1.00  0.00    -0.258 OA
ENDBRANCH  22  25
ENDBRANCH  15  18
ENDBRANCH   8  14
ENDBRANCH   4   7
ENDBRANCH   2   3
ENDBRANCH   1   2
BRANCH   1  28
ATOM     28  C   UNL A   1      38.351  21.270  25.396  1.00  0.00     0.023 C 
BRANCH  28  29
ATOM     29  C   UNL A   1      38.797  22.647  25.872  1.00  0.00     0.116 C 
BRANCH  29  30
ATOM     30  N   UNL A   1      40.192  22.723  26.282  1.00  0.00    -0.352 N 
ATOM     31  C   UNL A   1      40.930  23.815  26.725  1.00  0.00     0.251 C 
ATOM     32  H   UNL A   1      40.688  21.872  26.241  1.00  0.00     0.163 HD
ATOM     33  O   UNL A   1      42.105  23.693  26.993  1.00  0.00    -0.269 OA
BRANCH  31  34
ATOM     34  C   UNL A   1      40.233  25.101  26.995  1.00  0.00     0.039 A 
ATOM     35  C   UNL A   1      40.669  26.241  26.307  1.00  0.00     0.014 A 
ATOM     36  C   UNL A   1      39.310  25.224  28.027  1.00  0.00     0.014 A 
ATOM     37  C   UNL A   1      40.384  27.503  26.825  1.00  0.00     0.010 A 
ATOM     38  C   UNL A   1      39.113  26.462  28.604  1.00  0.00     0.010 A 
ATOM     39  C   UNL A   1      39.712  27.593  28.043  1.00  0.00    -0.014 A 
BRANCH  39  40
ATOM     40  C   UNL A   1      39.731  28.790  28.876  1.00  0.00     0.031 A 
ATOM     41  C   UNL A   1      38.713  29.848  28.724  1.00  0.00     0.074 A 
ATOM     42  C   UNL A   1      40.636  28.861  29.879  1.00  0.00     0.049 A 
ATOM     43  N   UNL A   1      38.884  31.078  29.077  1.00  0.00    -0.248 NA
ATOM     44  C   UNL A   1      37.410  29.597  28.124  1.00  0.00     0.031 C 
ATOM     45  C   UNL A   1      40.650  29.799  30.998  1.00  0.00     0.029 A 
ATOM     46  N   UNL A   1      41.860  28.179  29.978  1.00  0.00    -0.354 N 
ATOM     47  C   UNL A   1      37.658  31.705  29.022  1.00  0.00     0.074 A 
ATOM     48  C   UNL A   1      36.791  30.759  28.357  1.00  0.00     0.031 C 
ATOM     49  C   UNL A   1      41.898  29.862  31.490  1.00  0.00     0.029 A 
ATOM     50  C   UNL A   1      42.747  29.083  30.606  1.00  0.00     0.049 A 
ATOM     51  H   UNL A   1      42.059  27.264  29.674  1.00  0.00     0.167 HD
ATOM     52  C   UNL A   1      37.483  32.892  29.677  1.00  0.00     0.037 A 
ATOM     53  C   UNL A   1      43.848  29.564  29.958  1.00  0.00     0.037 A 
ATOM     54  C   UNL A   1      38.727  33.343  30.297  1.00  0.00     0.049 A 
ATOM     55  C   UNL A   1      43.878  31.067  29.826  1.00  0.00     0.074 A 
ATOM     56  C   UNL A   1      39.210  33.240  31.591  1.00  0.00     0.029 A 
ATOM     57  N   UNL A   1      39.805  33.720  29.503  1.00  0.00    -0.354 N 
ATOM     58  N   UNL A   1      42.825  31.825  29.943  1.00  0.00    -0.248 NA
ATOM     59  C   UNL A   1      45.081  31.825  29.494  1.00  0.00     0.031 C 
ATOM     60  C   UNL A   1      40.598  33.507  31.567  1.00  0.00     0.029 A 
ATOM     61  C   UNL A   1      40.960  33.786  30.261  1.00  0.00     0.049 A 
ATOM     62  H   UNL A   1      39.755  33.912  28.539  1.00  0.00     0.167 HD
ATOM     63  C   UNL A   1      43.168  33.122  29.673  1.00  0.00     0.074 A 
ATOM     64  C   UNL A   1      44.595  33.076  29.420  1.00  0.00     0.031 C 
ATOM     65  C   UNL A   1      42.239  34.123  29.660  1.00  0.00     0.037 A 
BRANCH  52  66
ATOM     66  C   UNL A   1      36.123  33.464  30.035  1.00  0.00     0.064 A 
ATOM     67  C   UNL A   1      35.299  34.052  29.048  1.00  0.00     0.173 A 
ATOM     68  C   UNL A   1      35.602  33.530  31.340  1.00  0.00     0.173 A 
ATOM     69  F   UNL A   1      35.578  33.944  27.744  1.00  0.00    -0.203 F 
ATOM     70  C   UNL A   1      34.144  34.775  29.362  1.00  0.00     0.198 A 
ATOM     71  C   UNL A   1      34.478  34.299  31.663  1.00  0.00     0.198 A 
ATOM     72  F   UNL A   1      36.126  32.802  32.333  1.00  0.00    -0.203 F 
ATOM     73  F   UNL A   1      33.418  35.327  28.380  1.00  0.00    -0.200 F 
ATOM     74  C   UNL A   1      33.760  34.940  30.675  1.00  0.00     0.200 A 
ATOM     75  F   UNL A   1      34.097  34.414  32.944  1.00  0.00    -0.200 F 
ATOM     76  F   UNL A   1      32.685  35.678  30.982  1.00  0.00    -0.200 F 
ENDBRANCH  52  66
BRANCH  53  77
ATOM     77  C   UNL A   1      44.394  28.624  28.943  1.00  0.00     0.064 A 
ATOM     78  C   UNL A   1      45.101  27.490  29.387  1.00  0.00     0.173 A 
ATOM     79  C   UNL A   1      43.935  28.625  27.621  1.00  0.00     0.173 A 
ATOM     80  F   UNL A   1      45.557  27.435  30.648  1.00  0.00    -0.203 F 
ATOM     81  C   UNL A   1      45.242  26.363  28.580  1.00  0.00     0.198 A 
ATOM     82  C   UNL A   1      44.091  27.499  26.811  1.00  0.00     0.198 A 
ATOM     83  F   UNL A   1      43.237  29.666  27.145  1.00  0.00    -0.203 F 
ATOM     84  F   UNL A   1      45.820  25.258  29.072  1.00  0.00    -0.200 F 
ATOM     85  C   UNL A   1      44.714  26.360  27.301  1.00  0.00     0.200 A 
ATOM     86  F   UNL A   1      43.551  27.481  25.584  1.00  0.00    -0.200 F 
ATOM     87  F   UNL A   1      44.765  25.246  26.557  1.00  0.00    -0.200 F 
ENDBRANCH  53  77
BRANCH  65  88
ATOM     88  C   UNL A   1      42.477  35.525  29.173  1.00  0.00     0.064 A 
ATOM     89  C   UNL A   1      41.890  36.057  28.014  1.00  0.00     0.173 A 
ATOM     90  C   UNL A   1      43.214  36.439  29.964  1.00  0.00     0.173 A 
ATOM     91  F   UNL A   1      41.077  35.316  27.247  1.00  0.00    -0.203 F 
ATOM     92  C   UNL A   1      42.076  37.389  27.638  1.00  0.00     0.198 A 
ATOM     93  C   UNL A   1      43.354  37.781  29.613  1.00  0.00     0.198 A 
ATOM     94  F   UNL A   1      43.798  36.058  31.109  1.00  0.00    -0.203 F 
ATOM     95  F   UNL A   1      41.527  37.840  26.501  1.00  0.00    -0.200 F 
ATOM     96  C   UNL A   1      42.798  38.253  28.441  1.00  0.00     0.200 A 
ATOM     97  F   UNL A   1      44.016  38.617  30.426  1.00  0.00    -0.200 F 
ATOM     98  F   UNL A   1      42.940  39.539  28.098  1.00  0.00    -0.200 F 
ENDBRANCH  65  88
ENDBRANCH  39  40
ENDBRANCH  31  34
ENDBRANCH  29  30
ENDBRANCH  28  29
ENDBRANCH   1  28
TORSDOF 14
ENDMDL
MODEL 3
REMARK VINA RESULT:     -14.1      3.966     10.297
REMARK SMILES Cc1cc([N+](=O)[O-])ccc1NC(=O)[C@@H]1[C@@H](C(=O)NCCCCNC(=O)c2ccc(-c3c4nc(c(-c5c(F)c(F)c(F)c(F)c5F)c5ccc([nH]5)c(-c5c(F)c(F)c(F)c(F)c5F)c5nc(c(-c6c(F)c(F)c(F)c(F)c6F)c6ccc3[nH]6)C=C5)C=C4)cc2)[C@H]2C=C[C@@H]1C2
REMARK SMILES IDX 20 1 19 2 18 3 16 4 17 5 15 7 14 8 92 9 89 10 91 11 93 12
REMARK SMILES IDX 90 13 12 14 11 15 13 17 10 18 1 19 2 20 3 21 4 22 9 23 8 24
REMARK SMILES IDX 5 25 6 26 7 27 21 28 22 29 23 30 24 31 25 33 26 34 27 35
REMARK SMILES IDX 88 36 28 37 87 38 29 39 30 40 31 41 81 42 32 43 86 44 80 45
REMARK SMILES IDX 82 46 33 47 85 48 79 49 78 50 34 52 66 53 46 54 65 55 47 56
REMARK SMILES IDX 50 57 64 58 83 59 48 60 49 61 63 63 84 64 51 65 35 66 36 67
REMARK SMILES IDX 44 68 37 69 38 70 42 71 45 72 39 73 40 74 43 75 41 76 67 77
REMARK SMILES IDX 68 78 76 79 69 80 70 81 74 82 77 83 71 84 72 85 75 86 73 87
REMARK SMILES IDX 52 88 53 89 61 90 54 91 55 92 59 93 62 94 56 95 57 96 60 97
REMARK SMILES IDX 58 98
REMARK H PARENT 18 6 11 16 23 32 82 51 50 62
REMARK Flexibility Score: inf
ROOT
ATOM      1  C   UNL A   1      34.073  27.791  26.541  1.00  0.00     0.023 C 
ENDROOT
BRANCH   1   2
ATOM      2  C   UNL A   1      32.957  27.031  25.819  1.00  0.00     0.116 C 
BRANCH   2   3
ATOM      3  N   UNL A   1      32.591  25.782  26.458  1.00  0.00    -0.356 N 
ATOM      4  C   UNL A   1      32.890  24.490  26.146  1.00  0.00     0.224 C 
ATOM      5  O   UNL A   1      32.425  23.624  26.892  1.00  0.00    -0.275 OA
ATOM      6  H   UNL A   1      32.025  25.885  27.257  1.00  0.00     0.163 HD
BRANCH   4   7
ATOM      7  C   UNL A   1      33.695  24.140  24.898  1.00  0.00     0.098 C 
ATOM      8  C   UNL A   1      33.542  22.608  24.509  1.00  0.00     0.099 C 
ATOM      9  C   UNL A   1      35.019  22.161  24.342  1.00  0.00     0.025 C 
ATOM     10  C   UNL A   1      35.235  24.265  25.050  1.00  0.00     0.025 C 
ATOM     11  C   UNL A   1      35.614  22.101  25.730  1.00  0.00    -0.027 C 
ATOM     12  C   UNL A   1      35.697  23.438  23.849  1.00  0.00     0.017 C 
ATOM     13  C   UNL A   1      35.729  23.366  26.161  1.00  0.00    -0.027 C 
BRANCH   8  14
ATOM     14  C   UNL A   1      32.721  22.335  23.259  1.00  0.00     0.228 C 
ATOM     15  N   UNL A   1      32.277  21.074  22.938  1.00  0.00    -0.326 N 
ATOM     16  H   UNL A   1      31.774  21.044  22.093  1.00  0.00     0.169 HD
ATOM     17  O   UNL A   1      32.455  23.240  22.462  1.00  0.00    -0.274 OA
BRANCH  15  18
ATOM     18  C   UNL A   1      32.391  19.811  23.564  1.00  0.00     0.044 A 
ATOM     19  C   UNL A   1      32.212  18.610  21.278  1.00  0.00     0.047 C 
ATOM     20  C   UNL A   1      32.444  18.642  22.768  1.00  0.00    -0.021 A 
ATOM     21  C   UNL A   1      32.718  17.396  23.378  1.00  0.00     0.091 A 
ATOM     22  C   UNL A   1      32.919  17.308  24.758  1.00  0.00     0.269 A 
ATOM     23  C   UNL A   1      32.477  19.666  24.956  1.00  0.00     0.033 A 
ATOM     24  C   UNL A   1      32.765  18.436  25.556  1.00  0.00     0.088 A 
BRANCH  22  25
ATOM     25  N   UNL A   1      33.294  16.031  25.371  1.00  0.00     0.062 N 
ATOM     26  O   UNL A   1      32.466  15.481  26.111  1.00  0.00    -0.258 OA
ATOM     27  O   UNL A   1      34.412  15.569  25.099  1.00  0.00    -0.258 OA
ENDBRANCH  22  25
ENDBRANCH  15  18
ENDBRANCH   8  14
ENDBRANCH   4   7
ENDBRANCH   2   3
ENDBRANCH   1   2
BRANCH   1  28
ATOM     28  C   UNL A   1      33.645  28.980  27.397  1.00  0.00     0.023 C 
BRANCH  28  29
ATOM     29  C   UNL A   1      34.343  30.296  27.084  1.00  0.00     0.116 C 
BRANCH  29  30
ATOM     30  N   UNL A   1      34.708  31.082  28.255  1.00  0.00    -0.352 N 
ATOM     31  C   UNL A   1      35.746  30.896  29.162  1.00  0.00     0.251 C 
ATOM     32  H   UNL A   1      34.134  31.863  28.431  1.00  0.00     0.163 HD
ATOM     33  O   UNL A   1      35.874  31.642  30.107  1.00  0.00    -0.269 OA
BRANCH  31  34
ATOM     34  C   UNL A   1      36.774  29.857  28.886  1.00  0.00     0.039 A 
ATOM     35  C   UNL A   1      37.013  28.892  29.873  1.00  0.00     0.014 A 
ATOM     36  C   UNL A   1      37.608  29.938  27.777  1.00  0.00     0.014 A 
ATOM     37  C   UNL A   1      38.224  28.202  29.875  1.00  0.00     0.010 A 
ATOM     38  C   UNL A   1      38.851  29.338  27.830  1.00  0.00     0.010 A 
ATOM     39  C   UNL A   1      39.185  28.527  28.919  1.00  0.00    -0.014 A 
BRANCH  39  40
ATOM     40  C   UNL A   1      40.598  28.202  29.068  1.00  0.00     0.031 A 
ATOM     41  C   UNL A   1      41.165  26.964  28.498  1.00  0.00     0.074 A 
ATOM     42  C   UNL A   1      41.412  29.118  29.640  1.00  0.00     0.049 A 
ATOM     43  N   UNL A   1      42.240  26.392  28.927  1.00  0.00    -0.248 NA
ATOM     44  C   UNL A   1      40.534  26.250  27.396  1.00  0.00     0.031 C 
ATOM     45  C   UNL A   1      42.872  29.140  29.628  1.00  0.00     0.029 A 
ATOM     46  N   UNL A   1      41.054  30.148  30.526  1.00  0.00    -0.354 N 
ATOM     47  C   UNL A   1      42.596  25.425  28.011  1.00  0.00     0.074 A 
ATOM     48  C   UNL A   1      41.464  25.331  27.117  1.00  0.00     0.031 C 
ATOM     49  C   UNL A   1      43.299  29.898  30.651  1.00  0.00     0.029 A 
ATOM     50  C   UNL A   1      42.130  30.256  31.436  1.00  0.00     0.049 A 
ATOM     51  H   UNL A   1      40.226  30.682  30.516  1.00  0.00     0.167 HD
ATOM     52  C   UNL A   1      43.866  24.921  28.028  1.00  0.00     0.037 A 
ATOM     53  C   UNL A   1      41.968  29.986  32.763  1.00  0.00     0.037 A 
ATOM     54  C   UNL A   1      44.644  25.485  29.130  1.00  0.00     0.049 A 
ATOM     55  C   UNL A   1      42.854  28.879  33.279  1.00  0.00     0.074 A 
ATOM     56  C   UNL A   1      45.560  26.523  29.185  1.00  0.00     0.029 A 
ATOM     57  N   UNL A   1      44.304  25.190  30.446  1.00  0.00    -0.354 N 
ATOM     58  N   UNL A   1      43.428  27.994  32.513  1.00  0.00    -0.248 NA
ATOM     59  C   UNL A   1      43.114  28.645  34.697  1.00  0.00     0.031 C 
ATOM     60  C   UNL A   1      45.732  26.889  30.540  1.00  0.00     0.029 A 
ATOM     61  C   UNL A   1      44.932  26.066  31.312  1.00  0.00     0.049 A 
ATOM     62  H   UNL A   1      43.701  24.463  30.722  1.00  0.00     0.167 HD
ATOM     63  C   UNL A   1      44.078  27.075  33.291  1.00  0.00     0.074 A 
ATOM     64  C   UNL A   1      43.873  27.536  34.650  1.00  0.00     0.031 C 
ATOM     65  C   UNL A   1      44.713  25.995  32.747  1.00  0.00     0.037 A 
BRANCH  52  66
ATOM     66  C   UNL A   1      44.497  24.185  26.860  1.00  0.00     0.064 A 
ATOM     67  C   UNL A   1      44.227  22.816  26.633  1.00  0.00     0.173 A 
ATOM     68  C   UNL A   1      45.429  24.747  25.970  1.00  0.00     0.173 A 
ATOM     69  F   UNL A   1      43.259  22.171  27.295  1.00  0.00    -0.203 F 
ATOM     70  C   UNL A   1      44.941  22.049  25.707  1.00  0.00     0.198 A 
ATOM     71  C   UNL A   1      46.184  23.971  25.082  1.00  0.00     0.198 A 
ATOM     72  F   UNL A   1      45.596  26.072  25.885  1.00  0.00    -0.203 F 
ATOM     73  F   UNL A   1      44.650  20.749  25.555  1.00  0.00    -0.200 F 
ATOM     74  C   UNL A   1      45.954  22.617  24.965  1.00  0.00     0.200 A 
ATOM     75  F   UNL A   1      47.140  24.550  24.339  1.00  0.00    -0.200 F 
ATOM     76  F   UNL A   1      46.677  21.872  24.118  1.00  0.00    -0.200 F 
ENDBRANCH  52  66
BRANCH  53  77
ATOM     77  C   UNL A   1      40.592  30.255  33.258  1.00  0.00     0.064 A 
ATOM     78  C   UNL A   1      40.184  31.593  33.420  1.00  0.00     0.173 A 
ATOM     79  C   UNL A   1      39.595  29.273  33.222  1.00  0.00     0.173 A 
ATOM     80  F   UNL A   1      41.100  32.574  33.454  1.00  0.00    -0.203 F 
ATOM     81  C   UNL A   1      38.836  31.943  33.429  1.00  0.00     0.198 A 
ATOM     82  C   UNL A   1      38.244  29.627  33.246  1.00  0.00     0.198 A 
ATOM     83  F   UNL A   1      39.917  27.984  33.048  1.00  0.00    -0.203 F 
ATOM     84  F   UNL A   1      38.482  33.236  33.469  1.00  0.00    -0.200 F 
ATOM     85  C   UNL A   1      37.867  30.961  33.317  1.00  0.00     0.200 A 
ATOM     86  F   UNL A   1      37.306  28.681  33.103  1.00  0.00    -0.200 F 
ATOM     87  F   UNL A   1      36.574  31.301  33.232  1.00  0.00    -0.200 F 
ENDBRANCH  53  77
BRANCH  65  88
ATOM     88  C   UNL A   1      45.268  24.831  33.520  1.00  0.00     0.064 A 
ATOM     89  C   UNL A   1      44.527  23.679  33.829  1.00  0.00     0.173 A 
ATOM     90  C   UNL A   1      46.642  24.787  33.856  1.00  0.00     0.173 A 
ATOM     91  F   UNL A   1      43.245  23.559  33.458  1.00  0.00    -0.203 F 
ATOM     92  C   UNL A   1      45.103  22.586  34.483  1.00  0.00     0.198 A 
ATOM     93  C   UNL A   1      47.225  23.675  34.460  1.00  0.00     0.198 A 
ATOM     94  F   UNL A   1      47.460  25.815  33.585  1.00  0.00    -0.203 F 
ATOM     95  F   UNL A   1      44.344  21.525  34.792  1.00  0.00    -0.200 F 
ATOM     96  C   UNL A   1      46.451  22.580  34.789  1.00  0.00     0.200 A 
ATOM     97  F   UNL A   1      48.542  23.663  34.707  1.00  0.00    -0.200 F 
ATOM     98  F   UNL A   1      47.007  21.514  35.379  1.00  0.00    -0.200 F 
ENDBRANCH  65  88
ENDBRANCH  39  40
ENDBRANCH  31  34
ENDBRANCH  29  30
ENDBRANCH  28  29
ENDBRANCH   1  28
TORSDOF 14
ENDMDL
