MODEL 1
REMARK VINA RESULT:     -11.8      0.000      0.000
REMARK SMILES CC(C)n1cncc1C[NH2+][C@@H]1CCC[C@H](C(=O)NCCCCNC(=O)c2ccc(-c3c4nc(c(-c5c(F)c(F)c(F)c(F)c5F)c5ccc([nH]5)c(-c5c(F)c(F)c(F)c(F)c5F)c5nc(c(-c6c(F)c(F)c(F)c(F)c6F)c6ccc3[nH]6)C=C5)C=C4)cc2)C1
REMARK SMILES IDX 19 1 18 2 16 3 17 4 15 6 11 7 12 8 89 9 13 10 14 11 10 12
REMARK SMILES IDX 9 15 8 16 4 17 5 18 6 19 7 20 2 21 1 22 3 23 20 24 21 25
REMARK SMILES IDX 22 26 23 27 24 28 25 30 26 31 27 32 88 33 28 34 87 35 29 36
REMARK SMILES IDX 30 37 31 38 81 39 32 40 86 41 80 42 82 43 33 44 85 45 79 46
REMARK SMILES IDX 78 47 34 49 66 50 46 51 65 52 47 53 50 54 64 55 83 56 48 57
REMARK SMILES IDX 49 58 63 60 84 61 51 62 35 63 36 64 44 65 37 66 38 67 42 68
REMARK SMILES IDX 45 69 39 70 40 71 43 72 41 73 67 74 68 75 76 76 69 77 70 78
REMARK SMILES IDX 74 79 77 80 71 81 72 82 75 83 73 84 52 85 53 86 61 87 54 88
REMARK SMILES IDX 55 89 59 90 62 91 56 92 57 93 60 94 58 95
REMARK H PARENT 18 5 10 13 10 14 23 29 82 48 50 59
REMARK Flexibility Score: inf
ROOT
ATOM      1  C   UNL A   1      36.984  21.381  25.304  1.00  0.00     0.116 C 
ENDROOT
BRANCH   1   2
ATOM      2  N   UNL A   1      35.888  21.883  26.119  1.00  0.00    -0.356 N 
ATOM      3  C   UNL A   1      34.819  22.671  25.804  1.00  0.00     0.223 C 
ATOM      4  O   UNL A   1      33.999  22.902  26.697  1.00  0.00    -0.275 OA
ATOM      5  H   UNL A   1      35.924  21.606  27.063  1.00  0.00     0.163 HD
BRANCH   3   6
ATOM      6  C   UNL A   1      34.629  23.267  24.410  1.00  0.00     0.084 C 
ATOM      7  C   UNL A   1      33.596  25.332  23.215  1.00  0.00     0.183 C 
ATOM      8  C   UNL A   1      32.578  24.349  22.614  1.00  0.00     0.065 C 
ATOM      9  C   UNL A   1      34.249  24.757  24.483  1.00  0.00     0.078 C 
ATOM     10  C   UNL A   1      33.230  23.015  22.298  1.00  0.00     0.007 C 
ATOM     11  C   UNL A   1      33.728  22.357  23.566  1.00  0.00     0.014 C 
BRANCH   7  12
ATOM     12  N   UNL A   1      33.034  26.652  23.569  1.00  0.00    -0.339 N 
ATOM     13  H   UNL A   1      33.128  27.269  22.762  1.00  0.00     0.346 HD
ATOM     14  H   UNL A   1      32.061  26.501  23.833  1.00  0.00     0.346 HD
BRANCH  12  15
ATOM     15  C   UNL A   1      33.693  27.279  24.706  1.00  0.00     0.317 C 
BRANCH  15  16
ATOM     16  C   UNL A   1      32.785  27.435  25.870  1.00  0.00     0.093 A 
ATOM     17  N   UNL A   1      32.812  28.503  26.747  1.00  0.00    -0.327 N 
ATOM     18  C   UNL A   1      31.736  28.368  27.581  1.00  0.00     0.200 A 
ATOM     19  N   UNL A   1      31.057  27.273  27.332  1.00  0.00    -0.245 NA
ATOM     20  C   UNL A   1      31.694  26.689  26.270  1.00  0.00     0.140 A 
BRANCH  17  21
ATOM     21  C   UNL A   1      33.779  29.599  26.744  1.00  0.00     0.082 C 
ATOM     22  C   UNL A   1      33.135  30.902  27.218  1.00  0.00     0.031 C 
ATOM     23  C   UNL A   1      35.058  29.311  27.534  1.00  0.00     0.031 C 
ENDBRANCH  17  21
ENDBRANCH  15  16
ENDBRANCH  12  15
ENDBRANCH   7  12
ENDBRANCH   3   6
ENDBRANCH   1   2
BRANCH   1  24
ATOM     24  C   UNL A   1      38.336  22.022  25.635  1.00  0.00     0.023 C 
BRANCH  24  25
ATOM     25  C   UNL A   1      39.458  21.076  26.076  1.00  0.00     0.023 C 
BRANCH  25  26
ATOM     26  C   UNL A   1      40.598  21.744  26.828  1.00  0.00     0.116 C 
BRANCH  26  27
ATOM     27  N   UNL A   1      41.771  22.003  25.995  1.00  0.00    -0.352 N 
ATOM     28  C   UNL A   1      42.333  23.231  25.680  1.00  0.00     0.251 C 
ATOM     29  H   UNL A   1      42.217  21.212  25.613  1.00  0.00     0.163 HD
ATOM     30  O   UNL A   1      43.051  23.374  24.708  1.00  0.00    -0.269 OA
BRANCH  28  31
ATOM     31  C   UNL A   1      42.032  24.373  26.563  1.00  0.00     0.039 A 
ATOM     32  C   UNL A   1      42.663  24.531  27.799  1.00  0.00     0.014 A 
ATOM     33  C   UNL A   1      41.136  25.326  26.091  1.00  0.00     0.014 A 
ATOM     34  C   UNL A   1      42.452  25.711  28.511  1.00  0.00     0.010 A 
ATOM     35  C   UNL A   1      41.067  26.550  26.703  1.00  0.00     0.010 A 
ATOM     36  C   UNL A   1      41.672  26.731  27.941  1.00  0.00    -0.014 A 
BRANCH  36  37
ATOM     37  C   UNL A   1      41.546  28.032  28.588  1.00  0.00     0.031 A 
ATOM     38  C   UNL A   1      42.601  29.023  28.236  1.00  0.00     0.074 A 
ATOM     39  C   UNL A   1      40.446  28.397  29.284  1.00  0.00     0.049 A 
ATOM     40  N   UNL A   1      43.484  29.545  29.021  1.00  0.00    -0.248 NA
ATOM     41  C   UNL A   1      42.766  29.402  26.823  1.00  0.00     0.031 C 
ATOM     42  C   UNL A   1      39.184  27.668  29.454  1.00  0.00     0.029 A 
ATOM     43  N   UNL A   1      40.189  29.577  29.911  1.00  0.00    -0.354 N 
ATOM     44  C   UNL A   1      44.210  30.449  28.249  1.00  0.00     0.074 A 
ATOM     45  C   UNL A   1      43.828  30.210  26.881  1.00  0.00     0.031 C 
ATOM     46  C   UNL A   1      38.231  28.508  29.915  1.00  0.00     0.029 A 
ATOM     47  C   UNL A   1      38.856  29.773  30.248  1.00  0.00     0.049 A 
ATOM     48  H   UNL A   1      40.891  30.238  30.109  1.00  0.00     0.167 HD
ATOM     49  C   UNL A   1      44.909  31.466  28.827  1.00  0.00     0.037 A 
ATOM     50  C   UNL A   1      38.305  30.908  30.741  1.00  0.00     0.037 A 
ATOM     51  C   UNL A   1      45.078  31.242  30.240  1.00  0.00     0.049 A 
ATOM     52  C   UNL A   1      39.409  31.723  31.303  1.00  0.00     0.074 A 
ATOM     53  C   UNL A   1      45.687  30.266  31.003  1.00  0.00     0.029 A 
ATOM     54  N   UNL A   1      44.238  31.911  31.097  1.00  0.00    -0.354 N 
ATOM     55  N   UNL A   1      40.095  31.386  32.360  1.00  0.00    -0.248 NA
ATOM     56  C   UNL A   1      40.051  32.686  30.422  1.00  0.00     0.031 C 
ATOM     57  C   UNL A   1      44.820  30.079  32.120  1.00  0.00     0.029 A 
ATOM     58  C   UNL A   1      43.776  30.999  32.010  1.00  0.00     0.049 A 
ATOM     59  H   UNL A   1      44.009  32.867  31.061  1.00  0.00     0.167 HD
ATOM     60  C   UNL A   1      41.401  31.733  32.053  1.00  0.00     0.074 A 
ATOM     61  C   UNL A   1      41.299  32.614  30.892  1.00  0.00     0.031 C 
ATOM     62  C   UNL A   1      42.453  31.046  32.586  1.00  0.00     0.037 A 
BRANCH  49  63
ATOM     63  C   UNL A   1      45.134  32.824  28.211  1.00  0.00     0.064 A 
ATOM     64  C   UNL A   1      46.454  33.273  27.996  1.00  0.00     0.173 A 
ATOM     65  C   UNL A   1      44.132  33.814  28.116  1.00  0.00     0.173 A 
ATOM     66  F   UNL A   1      47.488  32.422  28.078  1.00  0.00    -0.203 F 
ATOM     67  C   UNL A   1      46.751  34.623  27.789  1.00  0.00     0.198 A 
ATOM     68  C   UNL A   1      44.428  35.151  27.856  1.00  0.00     0.198 A 
ATOM     69  F   UNL A   1      42.849  33.552  28.386  1.00  0.00    -0.203 F 
ATOM     70  F   UNL A   1      48.029  35.021  27.723  1.00  0.00    -0.200 F 
ATOM     71  C   UNL A   1      45.738  35.562  27.726  1.00  0.00     0.200 A 
ATOM     72  F   UNL A   1      43.434  36.049  27.817  1.00  0.00    -0.200 F 
ATOM     73  F   UNL A   1      46.023  36.864  27.594  1.00  0.00    -0.200 F 
ENDBRANCH  49  63
BRANCH  50  74
ATOM     74  C   UNL A   1      36.956  31.466  30.489  1.00  0.00     0.064 A 
ATOM     75  C   UNL A   1      36.056  31.678  31.546  1.00  0.00     0.173 A 
ATOM     76  C   UNL A   1      36.636  32.078  29.261  1.00  0.00     0.173 A 
ATOM     77  F   UNL A   1      36.307  31.162  32.758  1.00  0.00    -0.203 F 
ATOM     78  C   UNL A   1      34.925  32.486  31.395  1.00  0.00     0.198 A 
ATOM     79  C   UNL A   1      35.503  32.879  29.110  1.00  0.00     0.198 A 
ATOM     80  F   UNL A   1      37.468  31.992  28.213  1.00  0.00    -0.203 F 
ATOM     81  F   UNL A   1      34.128  32.724  32.447  1.00  0.00    -0.200 F 
ATOM     82  C   UNL A   1      34.658  33.098  30.182  1.00  0.00     0.200 A 
ATOM     83  F   UNL A   1      35.275  33.495  27.941  1.00  0.00    -0.200 F 
ATOM     84  F   UNL A   1      33.614  33.929  30.057  1.00  0.00    -0.200 F 
ENDBRANCH  50  74
BRANCH  62  85
ATOM     85  C   UNL A   1      42.171  30.097  33.718  1.00  0.00     0.064 A 
ATOM     86  C   UNL A   1      41.775  28.757  33.552  1.00  0.00     0.173 A 
ATOM     87  C   UNL A   1      42.445  30.527  35.022  1.00  0.00     0.173 A 
ATOM     88  F   UNL A   1      41.592  28.235  32.334  1.00  0.00    -0.203 F 
ATOM     89  C   UNL A   1      41.615  27.908  34.646  1.00  0.00     0.198 A 
ATOM     90  C   UNL A   1      42.321  29.667  36.110  1.00  0.00     0.198 A 
ATOM     91  F   UNL A   1      42.879  31.779  35.239  1.00  0.00    -0.203 F 
ATOM     92  F   UNL A   1      41.220  26.640  34.462  1.00  0.00    -0.200 F 
ATOM     93  C   UNL A   1      41.895  28.363  35.923  1.00  0.00     0.200 A 
ATOM     94  F   UNL A   1      42.643  30.098  37.338  1.00  0.00    -0.200 F 
ATOM     95  F   UNL A   1      41.780  27.537  36.973  1.00  0.00    -0.200 F 
ENDBRANCH  62  85
ENDBRANCH  36  37
ENDBRANCH  28  31
ENDBRANCH  26  27
ENDBRANCH  25  26
ENDBRANCH  24  25
ENDBRANCH   1  24
TORSDOF 15
ENDMDL
MODEL 2
REMARK VINA RESULT:     -11.7      1.101      1.766
REMARK SMILES CC(C)n1cncc1C[NH2+][C@@H]1CCC[C@H](C(=O)NCCCCNC(=O)c2ccc(-c3c4nc(c(-c5c(F)c(F)c(F)c(F)c5F)c5ccc([nH]5)c(-c5c(F)c(F)c(F)c(F)c5F)c5nc(c(-c6c(F)c(F)c(F)c(F)c6F)c6ccc3[nH]6)C=C5)C=C4)cc2)C1
REMARK SMILES IDX 19 1 18 2 16 3 17 4 15 6 11 7 12 8 89 9 13 10 14 11 10 12
REMARK SMILES IDX 9 15 8 16 4 17 5 18 6 19 7 20 2 21 1 22 3 23 20 24 21 25
REMARK SMILES IDX 22 26 23 27 24 28 25 30 26 31 27 32 88 33 28 34 87 35 29 36
REMARK SMILES IDX 30 37 31 38 81 39 32 40 86 41 80 42 82 43 33 44 85 45 79 46
REMARK SMILES IDX 78 47 34 49 66 50 46 51 65 52 47 53 50 54 64 55 83 56 48 57
REMARK SMILES IDX 49 58 63 60 84 61 51 62 35 63 36 64 44 65 37 66 38 67 42 68
REMARK SMILES IDX 45 69 39 70 40 71 43 72 41 73 67 74 68 75 76 76 69 77 70 78
REMARK SMILES IDX 74 79 77 80 71 81 72 82 75 83 73 84 52 85 53 86 61 87 54 88
REMARK SMILES IDX 55 89 59 90 62 91 56 92 57 93 60 94 58 95
REMARK H PARENT 18 5 10 13 10 14 23 29 82 48 50 59
REMARK Flexibility Score: inf
ROOT
ATOM      1  C   UNL A   1      36.697  23.606  25.987  1.00  0.00     0.116 C 
ENDROOT
BRANCH   1   2
ATOM      2  N   UNL A   1      35.574  23.043  26.722  1.00  0.00    -0.356 N 
ATOM      3  C   UNL A   1      34.264  22.875  26.377  1.00  0.00     0.223 C 
ATOM      4  O   UNL A   1      33.529  22.309  27.190  1.00  0.00    -0.275 OA
ATOM      5  H   UNL A   1      35.800  22.725  27.627  1.00  0.00     0.163 HD
BRANCH   3   6
ATOM      6  C   UNL A   1      33.702  23.374  25.047  1.00  0.00     0.084 C 
ATOM      7  C   UNL A   1      31.498  24.250  23.981  1.00  0.00     0.183 C 
ATOM      8  C   UNL A   1      31.497  22.949  23.159  1.00  0.00     0.065 C 
ATOM      9  C   UNL A   1      32.367  24.114  25.243  1.00  0.00     0.078 C 
ATOM     10  C   UNL A   1      32.910  22.549  22.772  1.00  0.00     0.007 C 
ATOM     11  C   UNL A   1      33.729  22.247  24.008  1.00  0.00     0.014 C 
BRANCH   7  12
ATOM     12  N   UNL A   1      30.160  24.699  24.414  1.00  0.00    -0.339 N 
ATOM     13  H   UNL A   1      29.643  25.012  23.592  1.00  0.00     0.346 HD
ATOM     14  H   UNL A   1      29.713  23.907  24.875  1.00  0.00     0.346 HD
BRANCH  12  15
ATOM     15  C   UNL A   1      30.195  25.789  25.378  1.00  0.00     0.317 C 
BRANCH  15  16
ATOM     16  C   UNL A   1      30.536  27.089  24.748  1.00  0.00     0.093 A 
ATOM     17  N   UNL A   1      31.543  27.930  25.185  1.00  0.00    -0.327 N 
ATOM     18  C   UNL A   1      31.652  28.940  24.267  1.00  0.00     0.200 A 
ATOM     19  N   UNL A   1      30.761  28.830  23.310  1.00  0.00    -0.245 NA
ATOM     20  C   UNL A   1      30.068  27.684  23.593  1.00  0.00     0.140 A 
BRANCH  17  21
ATOM     21  C   UNL A   1      32.370  27.742  26.374  1.00  0.00     0.082 C 
ATOM     22  C   UNL A   1      33.740  28.400  26.200  1.00  0.00     0.031 C 
ATOM     23  C   UNL A   1      31.713  28.204  27.677  1.00  0.00     0.031 C 
ENDBRANCH  17  21
ENDBRANCH  15  16
ENDBRANCH  12  15
ENDBRANCH   7  12
ENDBRANCH   3   6
ENDBRANCH   1   2
BRANCH   1  24
ATOM     24  C   UNL A   1      37.280  22.653  24.938  1.00  0.00     0.023 C 
BRANCH  24  25
ATOM     25  C   UNL A   1      38.283  21.608  25.438  1.00  0.00     0.023 C 
BRANCH  25  26
ATOM     26  C   UNL A   1      39.278  22.118  26.467  1.00  0.00     0.116 C 
BRANCH  26  27
ATOM     27  N   UNL A   1      40.673  21.962  26.056  1.00  0.00    -0.352 N 
ATOM     28  C   UNL A   1      41.658  22.936  26.013  1.00  0.00     0.251 C 
ATOM     29  H   UNL A   1      40.945  21.057  25.778  1.00  0.00     0.163 HD
ATOM     30  O   UNL A   1      42.652  22.808  25.322  1.00  0.00    -0.269 OA
BRANCH  28  31
ATOM     31  C   UNL A   1      41.468  24.145  26.836  1.00  0.00     0.039 A 
ATOM     32  C   UNL A   1      42.270  24.408  27.949  1.00  0.00     0.014 A 
ATOM     33  C   UNL A   1      40.495  25.049  26.424  1.00  0.00     0.014 A 
ATOM     34  C   UNL A   1      42.143  25.642  28.586  1.00  0.00     0.010 A 
ATOM     35  C   UNL A   1      40.493  26.319  26.939  1.00  0.00     0.010 A 
ATOM     36  C   UNL A   1      41.268  26.606  28.056  1.00  0.00    -0.014 A 
BRANCH  36  37
ATOM     37  C   UNL A   1      41.213  27.955  28.607  1.00  0.00     0.031 A 
ATOM     38  C   UNL A   1      42.241  28.899  28.084  1.00  0.00     0.074 A 
ATOM     39  C   UNL A   1      40.186  28.391  29.369  1.00  0.00     0.049 A 
ATOM     40  N   UNL A   1      43.197  29.466  28.742  1.00  0.00    -0.248 NA
ATOM     41  C   UNL A   1      42.279  29.164  26.636  1.00  0.00     0.031 C 
ATOM     42  C   UNL A   1      38.938  27.698  29.709  1.00  0.00     0.029 A 
ATOM     43  N   UNL A   1      39.997  29.620  29.922  1.00  0.00    -0.354 N 
ATOM     44  C   UNL A   1      43.858  30.295  27.839  1.00  0.00     0.074 A 
ATOM     45  C   UNL A   1      43.349  29.957  26.535  1.00  0.00     0.031 C 
ATOM     46  C   UNL A   1      38.039  28.586  30.187  1.00  0.00     0.029 A 
ATOM     47  C   UNL A   1      38.703  29.863  30.361  1.00  0.00     0.049 A 
ATOM     48  H   UNL A   1      40.720  30.283  30.003  1.00  0.00     0.167 HD
ATOM     49  C   UNL A   1      44.616  31.343  28.269  1.00  0.00     0.037 A 
ATOM     50  C   UNL A   1      38.209  31.042  30.811  1.00  0.00     0.037 A 
ATOM     51  C   UNL A   1      44.910  31.227  29.675  1.00  0.00     0.049 A 
ATOM     52  C   UNL A   1      39.367  31.880  31.205  1.00  0.00     0.074 A 
ATOM     53  C   UNL A   1      45.578  30.304  30.454  1.00  0.00     0.029 A 
ATOM     54  N   UNL A   1      44.158  31.974  30.548  1.00  0.00    -0.354 N 
ATOM     55  N   UNL A   1      40.144  31.616  32.219  1.00  0.00    -0.248 NA
ATOM     56  C   UNL A   1      39.934  32.761  30.196  1.00  0.00     0.031 C 
ATOM     57  C   UNL A   1      44.815  30.218  31.656  1.00  0.00     0.029 A 
ATOM     58  C   UNL A   1      43.774  31.144  31.569  1.00  0.00     0.049 A 
ATOM     59  H   UNL A   1      43.936  32.928  30.458  1.00  0.00     0.167 HD
ATOM     60  C   UNL A   1      41.419  31.917  31.768  1.00  0.00     0.074 A 
ATOM     61  C   UNL A   1      41.219  32.706  30.555  1.00  0.00     0.031 C 
ATOM     62  C   UNL A   1      42.510  31.256  32.257  1.00  0.00     0.037 A 
BRANCH  49  63
ATOM     63  C   UNL A   1      44.795  32.646  27.531  1.00  0.00     0.064 A 
ATOM     64  C   UNL A   1      45.962  32.847  26.763  1.00  0.00     0.173 A 
ATOM     65  C   UNL A   1      44.033  33.804  27.794  1.00  0.00     0.173 A 
ATOM     66  F   UNL A   1      46.771  31.819  26.466  1.00  0.00    -0.203 F 
ATOM     67  C   UNL A   1      46.374  34.122  26.367  1.00  0.00     0.198 A 
ATOM     68  C   UNL A   1      44.420  35.067  27.350  1.00  0.00     0.198 A 
ATOM     69  F   UNL A   1      42.954  33.779  28.584  1.00  0.00    -0.203 F 
ATOM     70  F   UNL A   1      47.556  34.279  25.755  1.00  0.00    -0.200 F 
ATOM     71  C   UNL A   1      45.606  35.232  26.667  1.00  0.00     0.200 A 
ATOM     72  F   UNL A   1      43.672  36.133  27.667  1.00  0.00    -0.200 F 
ATOM     73  F   UNL A   1      46.031  36.462  26.346  1.00  0.00    -0.200 F 
ENDBRANCH  49  63
BRANCH  50  74
ATOM     74  C   UNL A   1      36.848  31.600  30.639  1.00  0.00     0.064 A 
ATOM     75  C   UNL A   1      36.049  31.905  31.753  1.00  0.00     0.173 A 
ATOM     76  C   UNL A   1      36.423  32.122  29.401  1.00  0.00     0.173 A 
ATOM     77  F   UNL A   1      36.405  31.479  32.974  1.00  0.00    -0.203 F 
ATOM     78  C   UNL A   1      34.916  32.718  31.643  1.00  0.00     0.198 A 
ATOM     79  C   UNL A   1      35.288  32.927  29.291  1.00  0.00     0.198 A 
ATOM     80  F   UNL A   1      37.156  31.944  28.292  1.00  0.00    -0.203 F 
ATOM     81  F   UNL A   1      34.220  33.047  32.740  1.00  0.00    -0.200 F 
ATOM     82  C   UNL A   1      34.545  33.240  30.414  1.00  0.00     0.200 A 
ATOM     83  F   UNL A   1      34.960  33.456  28.103  1.00  0.00    -0.200 F 
ATOM     84  F   UNL A   1      33.502  34.075  30.320  1.00  0.00    -0.200 F 
ENDBRANCH  50  74
BRANCH  62  85
ATOM     85  C   UNL A   1      42.324  30.402  33.481  1.00  0.00     0.064 A 
ATOM     86  C   UNL A   1      42.332  30.891  34.800  1.00  0.00     0.173 A 
ATOM     87  C   UNL A   1      41.988  29.055  33.299  1.00  0.00     0.173 A 
ATOM     88  F   UNL A   1      42.542  32.187  35.056  1.00  0.00    -0.203 F 
ATOM     89  C   UNL A   1      42.065  30.056  35.883  1.00  0.00     0.198 A 
ATOM     90  C   UNL A   1      41.685  28.231  34.379  1.00  0.00     0.198 A 
ATOM     91  F   UNL A   1      41.910  28.544  32.060  1.00  0.00    -0.203 F 
ATOM     92  F   UNL A   1      42.096  30.543  37.132  1.00  0.00    -0.200 F 
ATOM     93  C   UNL A   1      41.735  28.728  35.671  1.00  0.00     0.200 A 
ATOM     94  F   UNL A   1      41.317  26.961  34.164  1.00  0.00    -0.200 F 
ATOM     95  F   UNL A   1      41.440  27.932  36.709  1.00  0.00    -0.200 F 
ENDBRANCH  62  85
ENDBRANCH  36  37
ENDBRANCH  28  31
ENDBRANCH  26  27
ENDBRANCH  25  26
ENDBRANCH  24  25
ENDBRANCH   1  24
TORSDOF 15
ENDMDL
MODEL 3
REMARK VINA RESULT:     -11.7      1.912      3.845
REMARK SMILES CC(C)n1cncc1C[NH2+][C@@H]1CCC[C@H](C(=O)NCCCCNC(=O)c2ccc(-c3c4nc(c(-c5c(F)c(F)c(F)c(F)c5F)c5ccc([nH]5)c(-c5c(F)c(F)c(F)c(F)c5F)c5nc(c(-c6c(F)c(F)c(F)c(F)c6F)c6ccc3[nH]6)C=C5)C=C4)cc2)C1
REMARK SMILES IDX 19 1 18 2 16 3 17 4 15 6 11 7 12 8 89 9 13 10 14 11 10 12
REMARK SMILES IDX 9 15 8 16 4 17 5 18 6 19 7 20 2 21 1 22 3 23 20 24 21 25
REMARK SMILES IDX 22 26 23 27 24 28 25 30 26 31 27 32 88 33 28 34 87 35 29 36
REMARK SMILES IDX 30 37 31 38 81 39 32 40 86 41 80 42 82 43 33 44 85 45 79 46
REMARK SMILES IDX 78 47 34 49 66 50 46 51 65 52 47 53 50 54 64 55 83 56 48 57
REMARK SMILES IDX 49 58 63 60 84 61 51 62 35 63 36 64 44 65 37 66 38 67 42 68
REMARK SMILES IDX 45 69 39 70 40 71 43 72 41 73 67 74 68 75 76 76 69 77 70 78
REMARK SMILES IDX 74 79 77 80 71 81 72 82 75 83 73 84 52 85 53 86 61 87 54 88
REMARK SMILES IDX 55 89 59 90 62 91 56 92 57 93 60 94 58 95
REMARK H PARENT 18 5 10 13 10 14 23 29 82 48 50 59
REMARK Flexibility Score: inf
ROOT
ATOM      1  C   UNL A   1      37.846  21.659  25.685  1.00  0.00     0.116 C 
ENDROOT
BRANCH   1   2
ATOM      2  N   UNL A   1      37.462  22.139  24.366  1.00  0.00    -0.356 N 
ATOM      3  C   UNL A   1      36.342  22.789  23.934  1.00  0.00     0.223 C 
ATOM      4  O   UNL A   1      36.304  23.132  22.749  1.00  0.00    -0.275 OA
ATOM      5  H   UNL A   1      38.128  21.965  23.661  1.00  0.00     0.163 HD
BRANCH   3   6
ATOM      6  C   UNL A   1      35.162  23.079  24.859  1.00  0.00     0.084 C 
ATOM      7  C   UNL A   1      32.870  22.090  25.587  1.00  0.00     0.183 C 
ATOM      8  C   UNL A   1      32.237  23.301  24.881  1.00  0.00     0.065 C 
ATOM      9  C   UNL A   1      34.295  21.824  25.074  1.00  0.00     0.078 C 
ATOM     10  C   UNL A   1      33.090  24.545  25.062  1.00  0.00     0.007 C 
ATOM     11  C   UNL A   1      34.442  24.356  24.410  1.00  0.00     0.014 C 
BRANCH   7  12
ATOM     12  N   UNL A   1      32.108  20.833  25.442  1.00  0.00    -0.339 N 
ATOM     13  H   UNL A   1      31.406  20.794  26.181  1.00  0.00     0.346 HD
ATOM     14  H   UNL A   1      31.693  20.841  24.511  1.00  0.00     0.346 HD
BRANCH  12  15
ATOM     15  C   UNL A   1      32.935  19.638  25.531  1.00  0.00     0.317 C 
BRANCH  15  16
ATOM     16  C   UNL A   1      32.882  18.821  24.292  1.00  0.00     0.093 A 
ATOM     17  N   UNL A   1      33.159  17.468  24.235  1.00  0.00    -0.327 N 
ATOM     18  C   UNL A   1      32.852  17.046  22.970  1.00  0.00     0.200 A 
ATOM     19  N   UNL A   1      32.448  18.035  22.209  1.00  0.00    -0.245 NA
ATOM     20  C   UNL A   1      32.456  19.139  23.018  1.00  0.00     0.140 A 
BRANCH  17  21
ATOM     21  C   UNL A   1      33.637  16.636  25.338  1.00  0.00     0.082 C 
ATOM     22  C   UNL A   1      32.677  15.477  25.609  1.00  0.00     0.031 C 
ATOM     23  C   UNL A   1      35.068  16.121  25.163  1.00  0.00     0.031 C 
ENDBRANCH  17  21
ENDBRANCH  15  16
ENDBRANCH  12  15
ENDBRANCH   7  12
ENDBRANCH   3   6
ENDBRANCH   1   2
BRANCH   1  24
ATOM     24  C   UNL A   1      39.241  22.119  26.121  1.00  0.00     0.023 C 
BRANCH  24  25
ATOM     25  C   UNL A   1      40.216  21.029  26.577  1.00  0.00     0.023 C 
BRANCH  25  26
ATOM     26  C   UNL A   1      41.536  21.541  27.129  1.00  0.00     0.116 C 
BRANCH  26  27
ATOM     27  N   UNL A   1      42.489  21.930  26.090  1.00  0.00    -0.352 N 
ATOM     28  C   UNL A   1      42.794  23.212  25.657  1.00  0.00     0.251 C 
ATOM     29  H   UNL A   1      42.973  21.196  25.647  1.00  0.00     0.163 HD
ATOM     30  O   UNL A   1      43.298  23.413  24.567  1.00  0.00    -0.269 OA
BRANCH  28  31
ATOM     31  C   UNL A   1      42.488  24.336  26.560  1.00  0.00     0.039 A 
ATOM     32  C   UNL A   1      43.294  24.632  27.661  1.00  0.00     0.014 A 
ATOM     33  C   UNL A   1      41.395  25.133  26.238  1.00  0.00     0.014 A 
ATOM     34  C   UNL A   1      43.040  25.801  28.379  1.00  0.00     0.010 A 
ATOM     35  C   UNL A   1      41.256  26.360  26.832  1.00  0.00     0.010 A 
ATOM     36  C   UNL A   1      42.033  26.676  27.940  1.00  0.00    -0.014 A 
BRANCH  36  37
ATOM     37  C   UNL A   1      41.833  27.972  28.577  1.00  0.00     0.031 A 
ATOM     38  C   UNL A   1      42.851  29.008  28.246  1.00  0.00     0.074 A 
ATOM     39  C   UNL A   1      40.702  28.291  29.245  1.00  0.00     0.049 A 
ATOM     40  N   UNL A   1      43.691  29.573  29.048  1.00  0.00    -0.248 NA
ATOM     41  C   UNL A   1      43.032  29.389  26.834  1.00  0.00     0.031 C 
ATOM     42  C   UNL A   1      39.470  27.506  29.388  1.00  0.00     0.029 A 
ATOM     43  N   UNL A   1      40.377  29.460  29.859  1.00  0.00    -0.354 N 
ATOM     44  C   UNL A   1      44.394  30.506  28.290  1.00  0.00     0.074 A 
ATOM     45  C   UNL A   1      44.055  30.244  26.914  1.00  0.00     0.031 C 
ATOM     46  C   UNL A   1      38.469  28.304  29.823  1.00  0.00     0.029 A 
ATOM     47  C   UNL A   1      39.029  29.597  30.163  1.00  0.00     0.049 A 
ATOM     48  H   UNL A   1      41.043  30.153  30.071  1.00  0.00     0.167 HD
ATOM     49  C   UNL A   1      45.032  31.555  28.878  1.00  0.00     0.037 A 
ATOM     50  C   UNL A   1      38.415  30.708  30.638  1.00  0.00     0.037 A 
ATOM     51  C   UNL A   1      45.176  31.345  30.297  1.00  0.00     0.049 A 
ATOM     52  C   UNL A   1      39.468  31.574  31.221  1.00  0.00     0.074 A 
ATOM     53  C   UNL A   1      45.810  30.401  31.079  1.00  0.00     0.029 A 
ATOM     54  N   UNL A   1      44.287  31.978  31.129  1.00  0.00    -0.354 N 
ATOM     55  N   UNL A   1      40.142  31.273  32.296  1.00  0.00    -0.248 NA
ATOM     56  C   UNL A   1      40.087  32.562  30.351  1.00  0.00     0.031 C 
ATOM     57  C   UNL A   1      44.926  30.179  32.176  1.00  0.00     0.029 A 
ATOM     58  C   UNL A   1      43.845  31.051  32.036  1.00  0.00     0.049 A 
ATOM     59  H   UNL A   1      44.016  32.924  31.084  1.00  0.00     0.167 HD
ATOM     60  C   UNL A   1      41.439  31.677  32.019  1.00  0.00     0.074 A 
ATOM     61  C   UNL A   1      41.325  32.548  30.851  1.00  0.00     0.031 C 
ATOM     62  C   UNL A   1      42.508  31.040  32.580  1.00  0.00     0.037 A 
BRANCH  49  63
ATOM     63  C   UNL A   1      45.210  32.920  28.262  1.00  0.00     0.064 A 
ATOM     64  C   UNL A   1      46.513  33.433  28.088  1.00  0.00     0.173 A 
ATOM     65  C   UNL A   1      44.165  33.858  28.126  1.00  0.00     0.173 A 
ATOM     66  F   UNL A   1      47.584  32.635  28.211  1.00  0.00    -0.203 F 
ATOM     67  C   UNL A   1      46.750  34.795  27.883  1.00  0.00     0.198 A 
ATOM     68  C   UNL A   1      44.403  35.207  27.866  1.00  0.00     0.198 A 
ATOM     69  F   UNL A   1      42.887  33.534  28.353  1.00  0.00    -0.203 F 
ATOM     70  F   UNL A   1      48.008  35.256  27.857  1.00  0.00    -0.200 F 
ATOM     71  C   UNL A   1      45.694  35.682  27.779  1.00  0.00     0.200 A 
ATOM     72  F   UNL A   1      43.367  36.054  27.788  1.00  0.00    -0.200 F 
ATOM     73  F   UNL A   1      45.919  36.996  27.647  1.00  0.00    -0.200 F 
ENDBRANCH  49  63
BRANCH  50  74
ATOM     74  C   UNL A   1      37.049  31.204  30.351  1.00  0.00     0.064 A 
ATOM     75  C   UNL A   1      36.175  31.549  31.394  1.00  0.00     0.173 A 
ATOM     76  C   UNL A   1      36.682  31.630  29.058  1.00  0.00     0.173 A 
ATOM     77  F   UNL A   1      36.471  31.215  32.659  1.00  0.00    -0.203 F 
ATOM     78  C   UNL A   1      35.025  32.311  31.165  1.00  0.00     0.198 A 
ATOM     79  C   UNL A   1      35.530  32.384  28.831  1.00  0.00     0.198 A 
ATOM     80  F   UNL A   1      37.486  31.410  28.009  1.00  0.00    -0.203 F 
ATOM     81  F   UNL A   1      34.254  32.683  32.197  1.00  0.00    -0.200 F 
ATOM     82  C   UNL A   1      34.711  32.740  29.886  1.00  0.00     0.200 A 
ATOM     83  F   UNL A   1      35.257  32.824  27.594  1.00  0.00    -0.200 F 
ATOM     84  F   UNL A   1      33.649  33.529  29.677  1.00  0.00    -0.200 F 
ENDBRANCH  50  74
BRANCH  62  85
ATOM     85  C   UNL A   1      42.241  30.084  33.710  1.00  0.00     0.064 A 
ATOM     86  C   UNL A   1      41.920  28.724  33.542  1.00  0.00     0.173 A 
ATOM     87  C   UNL A   1      42.453  30.535  35.019  1.00  0.00     0.173 A 
ATOM     88  F   UNL A   1      41.801  28.187  32.322  1.00  0.00    -0.203 F 
ATOM     89  C   UNL A   1      41.771  27.875  34.636  1.00  0.00     0.198 A 
ATOM     90  C   UNL A   1      42.342  29.676  36.108  1.00  0.00     0.198 A 
ATOM     91  F   UNL A   1      42.816  31.808  35.239  1.00  0.00    -0.203 F 
ATOM     92  F   UNL A   1      41.449  26.587  34.450  1.00  0.00    -0.200 F 
ATOM     93  C   UNL A   1      41.990  28.350  35.918  1.00  0.00     0.200 A 
ATOM     94  F   UNL A   1      42.604  30.129  37.342  1.00  0.00    -0.200 F 
ATOM     95  F   UNL A   1      41.886  27.525  36.970  1.00  0.00    -0.200 F 
ENDBRANCH  62  85
ENDBRANCH  36  37
ENDBRANCH  28  31
ENDBRANCH  26  27
ENDBRANCH  25  26
ENDBRANCH  24  25
ENDBRANCH   1  24
TORSDOF 15
ENDMDL
