MODEL 1
REMARK VINA RESULT:     -10.7      0.000      0.000
REMARK SMILES O=C(NCCCCNC(=O)c1cc(-c2ccc(N3C(=O)[C@@H]4CC=CC[C@H]4C3=O)cc2)nc2c(Cl)cccc12)c1ccc(-c2c3nc(c(-c4c(F)c(F)c(F)c(F)c4F)c4ccc([nH]4)c(-c4c(F)c(F)c(F)c(F)c4F)c4nc(c(-c5c(F)c(F)c(F)c(F)c5F)c5ccc2[nH]5)C=C4)C=C3)cc1
REMARK SMILES IDX 5 1 4 2 3 3 1 4 2 5 39 7 40 8 101 9 41 10 100 11 42 12 43 13
REMARK SMILES IDX 44 14 94 15 45 16 99 17 93 18 95 19 46 20 98 21 92 22 91 23
REMARK SMILES IDX 47 25 79 26 59 27 78 28 60 29 63 30 77 31 96 32 61 33 62 34
REMARK SMILES IDX 76 36 97 37 64 38 48 39 49 40 57 41 50 42 51 43 55 44 58 45
REMARK SMILES IDX 52 46 53 47 56 48 54 49 80 50 81 51 89 52 82 53 83 54 87 55
REMARK SMILES IDX 90 56 84 57 85 58 88 59 86 60 65 61 66 62 74 63 67 64 68 65
REMARK SMILES IDX 72 66 75 67 69 68 70 69 73 70 71 71 6 72 7 73 8 74 9 75
REMARK SMILES IDX 10 77 11 78 12 79 38 80 13 81 32 82 37 83 31 84 33 85 36 86
REMARK SMILES IDX 34 87 35 88 14 89 15 90 30 91 16 92 29 93 17 94 18 95 19 96
REMARK SMILES IDX 27 97 20 98 21 99 26 100 28 101 22 102 25 103 23 104 24 105
REMARK H PARENT 3 6 95 24 63 35 8 76
REMARK Flexibility Score: inf
ROOT
ATOM      1  C   UNL A   1      46.779  23.795  25.493  1.00  0.00     0.023 C 
ENDROOT
BRANCH   1   2
ATOM      2  C   UNL A   1      47.389  25.160  25.777  1.00  0.00     0.116 C 
BRANCH   2   3
ATOM      3  N   UNL A   1      47.438  26.026  24.608  1.00  0.00    -0.352 N 
ATOM      4  O   UNL A   1      46.936  27.829  23.338  1.00  0.00    -0.269 OA
ATOM      5  C   UNL A   1      46.906  27.284  24.436  1.00  0.00     0.251 C 
ATOM      6  H   UNL A   1      47.920  25.661  23.831  1.00  0.00     0.163 HD
BRANCH   5   7
ATOM      7  C   UNL A   1      46.268  27.963  25.583  1.00  0.00     0.039 A 
ATOM      8  C   UNL A   1      47.041  28.716  26.466  1.00  0.00     0.014 A 
ATOM      9  C   UNL A   1      44.894  27.817  25.799  1.00  0.00     0.014 A 
ATOM     10  C   UNL A   1      46.485  29.157  27.657  1.00  0.00     0.010 A 
ATOM     11  C   UNL A   1      44.310  28.370  26.944  1.00  0.00     0.010 A 
ATOM     12  C   UNL A   1      45.108  29.016  27.900  1.00  0.00    -0.014 A 
BRANCH  12  13
ATOM     13  C   UNL A   1      44.538  29.641  29.122  1.00  0.00     0.031 A 
ATOM     14  C   UNL A   1      44.314  28.857  30.384  1.00  0.00     0.074 A 
ATOM     15  C   UNL A   1      44.280  30.964  29.088  1.00  0.00     0.049 A 
ATOM     16  N   UNL A   1      43.875  29.280  31.545  1.00  0.00    -0.248 NA
ATOM     17  C   UNL A   1      44.613  27.419  30.348  1.00  0.00     0.031 C 
ATOM     18  C   UNL A   1      44.444  31.821  27.910  1.00  0.00     0.029 A 
ATOM     19  N   UNL A   1      43.859  31.827  30.066  1.00  0.00    -0.354 N 
ATOM     20  C   UNL A   1      43.836  28.164  32.370  1.00  0.00     0.074 A 
ATOM     21  C   UNL A   1      44.266  27.036  31.570  1.00  0.00     0.031 C 
ATOM     22  C   UNL A   1      44.190  33.091  28.248  1.00  0.00     0.029 A 
ATOM     23  C   UNL A   1      43.765  33.130  29.641  1.00  0.00     0.049 A 
ATOM     24  H   UNL A   1      43.644  31.541  30.983  1.00  0.00     0.167 HD
ATOM     25  C   UNL A   1      43.481  28.093  33.677  1.00  0.00     0.037 A 
ATOM     26  C   UNL A   1      43.359  34.234  30.291  1.00  0.00     0.037 A 
ATOM     27  C   UNL A   1      43.059  29.224  34.466  1.00  0.00     0.049 A 
ATOM     28  C   UNL A   1      42.943  34.113  31.728  1.00  0.00     0.074 A 
ATOM     29  C   UNL A   1      42.697  29.256  35.802  1.00  0.00     0.029 A 
ATOM     30  N   UNL A   1      42.939  30.522  33.992  1.00  0.00    -0.354 N 
ATOM     31  N   UNL A   1      42.942  33.056  32.503  1.00  0.00    -0.248 NA
ATOM     32  C   UNL A   1      42.470  35.340  32.381  1.00  0.00     0.031 C 
ATOM     33  C   UNL A   1      42.309  30.563  36.123  1.00  0.00     0.029 A 
ATOM     34  C   UNL A   1      42.486  31.357  35.003  1.00  0.00     0.049 A 
ATOM     35  H   UNL A   1      43.144  30.808  33.072  1.00  0.00     0.167 HD
ATOM     36  C   UNL A   1      42.482  33.490  33.737  1.00  0.00     0.074 A 
ATOM     37  C   UNL A   1      42.251  34.915  33.616  1.00  0.00     0.031 C 
ATOM     38  C   UNL A   1      42.259  32.774  34.865  1.00  0.00     0.037 A 
BRANCH  25  39
ATOM     39  C   UNL A   1      43.525  26.750  34.349  1.00  0.00     0.064 A 
ATOM     40  C   UNL A   1      42.355  26.026  34.627  1.00  0.00     0.173 A 
ATOM     41  C   UNL A   1      44.755  26.139  34.642  1.00  0.00     0.173 A 
ATOM     42  F   UNL A   1      41.153  26.566  34.376  1.00  0.00    -0.203 F 
ATOM     43  C   UNL A   1      42.416  24.750  35.184  1.00  0.00     0.198 A 
ATOM     44  C   UNL A   1      44.812  24.853  35.172  1.00  0.00     0.198 A 
ATOM     45  F   UNL A   1      45.906  26.782  34.389  1.00  0.00    -0.203 F 
ATOM     46  F   UNL A   1      41.283  24.091  35.468  1.00  0.00    -0.200 F 
ATOM     47  C   UNL A   1      43.643  24.160  35.445  1.00  0.00     0.200 A 
ATOM     48  F   UNL A   1      46.000  24.278  35.409  1.00  0.00    -0.200 F 
ATOM     49  F   UNL A   1      43.698  22.925  35.962  1.00  0.00    -0.200 F 
ENDBRANCH  25  39
BRANCH  26  50
ATOM     50  C   UNL A   1      43.297  35.537  29.579  1.00  0.00     0.064 A 
ATOM     51  C   UNL A   1      42.208  35.871  28.764  1.00  0.00     0.173 A 
ATOM     52  C   UNL A   1      44.341  36.471  29.687  1.00  0.00     0.173 A 
ATOM     53  F   UNL A   1      41.192  35.007  28.617  1.00  0.00    -0.203 F 
ATOM     54  C   UNL A   1      42.177  37.073  28.060  1.00  0.00     0.198 A 
ATOM     55  C   UNL A   1      44.290  37.689  29.014  1.00  0.00     0.198 A 
ATOM     56  F   UNL A   1      45.404  36.206  30.461  1.00  0.00    -0.203 F 
ATOM     57  F   UNL A   1      41.152  37.339  27.240  1.00  0.00    -0.200 F 
ATOM     58  C   UNL A   1      43.216  37.983  28.190  1.00  0.00     0.200 A 
ATOM     59  F   UNL A   1      45.286  38.574  29.161  1.00  0.00    -0.200 F 
ATOM     60  F   UNL A   1      43.185  39.139  27.513  1.00  0.00    -0.200 F 
ENDBRANCH  26  50
BRANCH  38  61
ATOM     61  C   UNL A   1      41.763  33.535  36.061  1.00  0.00     0.064 A 
ATOM     62  C   UNL A   1      40.395  33.617  36.365  1.00  0.00     0.173 A 
ATOM     63  C   UNL A   1      42.665  34.192  36.910  1.00  0.00     0.173 A 
ATOM     64  F   UNL A   1      39.490  33.021  35.573  1.00  0.00    -0.203 F 
ATOM     65  C   UNL A   1      39.947  34.366  37.449  1.00  0.00     0.198 A 
ATOM     66  C   UNL A   1      42.215  34.909  38.016  1.00  0.00     0.198 A 
ATOM     67  F   UNL A   1      43.983  34.140  36.669  1.00  0.00    -0.203 F 
ATOM     68  F   UNL A   1      38.632  34.488  37.679  1.00  0.00    -0.200 F 
ATOM     69  C   UNL A   1      40.857  35.006  38.276  1.00  0.00     0.200 A 
ATOM     70  F   UNL A   1      43.097  35.517  38.821  1.00  0.00    -0.200 F 
ATOM     71  F   UNL A   1      40.424  35.729  39.319  1.00  0.00    -0.200 F 
ENDBRANCH  38  61
ENDBRANCH  12  13
ENDBRANCH   5   7
ENDBRANCH   2   3
ENDBRANCH   1   2
BRANCH   1  72
ATOM     72  C   UNL A   1      45.430  23.824  24.787  1.00  0.00     0.023 C 
BRANCH  72  73
ATOM     73  C   UNL A   1      44.225  23.572  25.684  1.00  0.00     0.116 C 
BRANCH  73  74
ATOM     74  N   UNL A   1      44.580  23.098  27.015  1.00  0.00    -0.352 N 
ATOM     75  C   UNL A   1      43.779  22.979  28.124  1.00  0.00     0.252 C 
ATOM     76  H   UNL A   1      45.519  22.828  27.135  1.00  0.00     0.163 HD
ATOM     77  O   UNL A   1      44.235  22.578  29.188  1.00  0.00    -0.269 OA
BRANCH  75  78
ATOM     78  C   UNL A   1      42.368  23.403  28.040  1.00  0.00     0.051 A 
ATOM     79  C   UNL A   1      42.101  24.684  28.512  1.00  0.00     0.043 A 
ATOM     80  C   UNL A   1      41.368  22.607  27.439  1.00  0.00     0.015 A 
ATOM     81  C   UNL A   1      40.828  25.177  28.325  1.00  0.00     0.072 A 
ATOM     82  C   UNL A   1      40.120  23.222  27.229  1.00  0.00     0.090 A 
ATOM     83  C   UNL A   1      41.573  21.267  27.019  1.00  0.00     0.011 A 
ATOM     84  N   UNL A   1      39.869  24.473  27.682  1.00  0.00    -0.246 NA
ATOM     85  C   UNL A   1      39.160  22.499  26.503  1.00  0.00     0.067 A 
ATOM     86  C   UNL A   1      40.600  20.575  26.310  1.00  0.00     0.002 A 
ATOM     87  Cl  UNL A   1      37.625  23.208  26.120  1.00  0.00    -0.082 Cl
ATOM     88  C   UNL A   1      39.395  21.201  26.033  1.00  0.00     0.023 A 
BRANCH  81  89
ATOM     89  C   UNL A   1      40.437  26.508  28.787  1.00  0.00     0.000 A 
ATOM     90  C   UNL A   1      41.248  27.626  28.552  1.00  0.00     0.012 A 
ATOM     91  C   UNL A   1      39.234  26.698  29.479  1.00  0.00     0.012 A 
ATOM     92  C   UNL A   1      40.854  28.899  28.980  1.00  0.00     0.027 A 
ATOM     93  C   UNL A   1      38.863  27.964  29.948  1.00  0.00     0.027 A 
ATOM     94  C   UNL A   1      39.661  29.086  29.691  1.00  0.00     0.052 A 
BRANCH  94  95
ATOM     95  N   UNL A   1      39.274  30.375  30.130  1.00  0.00    -0.250 N 
ATOM     96  C   UNL A   1      39.807  31.014  31.245  1.00  0.00     0.238 C 
ATOM     97  C   UNL A   1      38.313  31.166  29.512  1.00  0.00     0.238 C 
ATOM     98  O   UNL A   1      40.581  30.602  32.091  1.00  0.00    -0.274 OA
ATOM     99  C   UNL A   1      39.345  32.440  31.150  1.00  0.00     0.096 C 
ATOM    100  C   UNL A   1      37.988  32.246  30.504  1.00  0.00     0.096 C 
ATOM    101  O   UNL A   1      37.723  31.004  28.455  1.00  0.00    -0.274 OA
ATOM    102  C   UNL A   1      39.227  33.248  32.426  1.00  0.00     0.041 C 
ATOM    103  C   UNL A   1      37.430  33.565  30.014  1.00  0.00     0.041 C 
ATOM    104  C   UNL A   1      38.351  34.457  32.187  1.00  0.00    -0.030 C 
ATOM    105  C   UNL A   1      37.571  34.611  31.099  1.00  0.00    -0.030 C 
ENDBRANCH  94  95
ENDBRANCH  81  89
ENDBRANCH  75  78
ENDBRANCH  73  74
ENDBRANCH  72  73
ENDBRANCH   1  72
TORSDOF 13
ENDMDL
MODEL 2
REMARK VINA RESULT:     -10.6      3.382     11.576
REMARK SMILES O=C(NCCCCNC(=O)c1cc(-c2ccc(N3C(=O)[C@@H]4CC=CC[C@H]4C3=O)cc2)nc2c(Cl)cccc12)c1ccc(-c2c3nc(c(-c4c(F)c(F)c(F)c(F)c4F)c4ccc([nH]4)c(-c4c(F)c(F)c(F)c(F)c4F)c4nc(c(-c5c(F)c(F)c(F)c(F)c5F)c5ccc2[nH]5)C=C4)C=C3)cc1
REMARK SMILES IDX 5 1 4 2 3 3 1 4 2 5 39 7 40 8 101 9 41 10 100 11 42 12 43 13
REMARK SMILES IDX 44 14 94 15 45 16 99 17 93 18 95 19 46 20 98 21 92 22 91 23
REMARK SMILES IDX 47 25 79 26 59 27 78 28 60 29 63 30 77 31 96 32 61 33 62 34
REMARK SMILES IDX 76 36 97 37 64 38 48 39 49 40 57 41 50 42 51 43 55 44 58 45
REMARK SMILES IDX 52 46 53 47 56 48 54 49 80 50 81 51 89 52 82 53 83 54 87 55
REMARK SMILES IDX 90 56 84 57 85 58 88 59 86 60 65 61 66 62 74 63 67 64 68 65
REMARK SMILES IDX 72 66 75 67 69 68 70 69 73 70 71 71 6 72 7 73 8 74 9 75
REMARK SMILES IDX 10 77 11 78 12 79 38 80 13 81 32 82 37 83 31 84 33 85 36 86
REMARK SMILES IDX 34 87 35 88 14 89 15 90 30 91 16 92 29 93 17 94 18 95 19 96
REMARK SMILES IDX 27 97 20 98 21 99 26 100 28 101 22 102 25 103 23 104 24 105
REMARK H PARENT 3 6 95 24 63 35 8 76
REMARK Flexibility Score: inf
ROOT
ATOM      1  C   UNL A   1      36.734  34.206  34.344  1.00  0.00     0.023 C 
ENDROOT
BRANCH   1   2
ATOM      2  C   UNL A   1      37.945  33.815  35.178  1.00  0.00     0.116 C 
BRANCH   2   3
ATOM      3  N   UNL A   1      37.643  32.840  36.216  1.00  0.00    -0.352 N 
ATOM      4  O   UNL A   1      37.683  30.829  37.250  1.00  0.00    -0.269 OA
ATOM      5  C   UNL A   1      38.138  31.567  36.382  1.00  0.00     0.251 C 
ATOM      6  H   UNL A   1      36.992  33.133  36.895  1.00  0.00     0.163 HD
BRANCH   5   7
ATOM      7  C   UNL A   1      39.206  31.082  35.482  1.00  0.00     0.039 A 
ATOM      8  C   UNL A   1      40.544  31.306  35.803  1.00  0.00     0.014 A 
ATOM      9  C   UNL A   1      38.867  30.432  34.292  1.00  0.00     0.014 A 
ATOM     10  C   UNL A   1      41.526  31.058  34.857  1.00  0.00     0.010 A 
ATOM     11  C   UNL A   1      39.875  30.070  33.389  1.00  0.00     0.010 A 
ATOM     12  C   UNL A   1      41.210  30.412  33.650  1.00  0.00    -0.014 A 
BRANCH  12  13
ATOM     13  C   UNL A   1      42.321  30.032  32.739  1.00  0.00     0.031 A 
ATOM     14  C   UNL A   1      42.765  30.924  31.614  1.00  0.00     0.074 A 
ATOM     15  C   UNL A   1      42.972  28.878  32.989  1.00  0.00     0.049 A 
ATOM     16  N   UNL A   1      43.754  30.751  30.771  1.00  0.00    -0.248 NA
ATOM     17  C   UNL A   1      42.007  32.164  31.397  1.00  0.00     0.031 C 
ATOM     18  C   UNL A   1      42.616  27.926  34.046  1.00  0.00     0.029 A 
ATOM     19  N   UNL A   1      44.080  28.321  32.404  1.00  0.00    -0.354 N 
ATOM     20  C   UNL A   1      43.731  31.849  29.922  1.00  0.00     0.074 A 
ATOM     21  C   UNL A   1      42.611  32.671  30.329  1.00  0.00     0.031 C 
ATOM     22  C   UNL A   1      43.520  26.940  34.075  1.00  0.00     0.029 A 
ATOM     23  C   UNL A   1      44.472  27.142  32.990  1.00  0.00     0.049 A 
ATOM     24  H   UNL A   1      44.547  28.726  31.639  1.00  0.00     0.167 HD
ATOM     25  C   UNL A   1      44.576  32.145  28.903  1.00  0.00     0.037 A 
ATOM     26  C   UNL A   1      45.472  26.301  32.677  1.00  0.00     0.037 A 
ATOM     27  C   UNL A   1      45.693  31.321  28.509  1.00  0.00     0.049 A 
ATOM     28  C   UNL A   1      46.368  26.644  31.523  1.00  0.00     0.074 A 
ATOM     29  C   UNL A   1      46.617  31.545  27.502  1.00  0.00     0.029 A 
ATOM     30  N   UNL A   1      46.037  30.114  29.101  1.00  0.00    -0.354 N 
ATOM     31  N   UNL A   1      46.353  27.703  30.749  1.00  0.00    -0.248 NA
ATOM     32  C   UNL A   1      47.420  25.674  31.196  1.00  0.00     0.031 C 
ATOM     33  C   UNL A   1      47.487  30.450  27.451  1.00  0.00     0.029 A 
ATOM     34  C   UNL A   1      47.144  29.572  28.464  1.00  0.00     0.049 A 
ATOM     35  H   UNL A   1      45.564  29.703  29.860  1.00  0.00     0.167 HD
ATOM     36  C   UNL A   1      47.398  27.534  29.855  1.00  0.00     0.074 A 
ATOM     37  C   UNL A   1      48.050  26.288  30.206  1.00  0.00     0.031 C 
ATOM     38  C   UNL A   1      47.779  28.329  28.826  1.00  0.00     0.037 A 
BRANCH  25  39
ATOM     39  C   UNL A   1      44.334  33.410  28.128  1.00  0.00     0.064 A 
ATOM     40  C   UNL A   1      43.778  33.390  26.840  1.00  0.00     0.173 A 
ATOM     41  C   UNL A   1      44.580  34.662  28.714  1.00  0.00     0.173 A 
ATOM     42  F   UNL A   1      43.531  32.220  26.231  1.00  0.00    -0.203 F 
ATOM     43  C   UNL A   1      43.490  34.574  26.164  1.00  0.00     0.198 A 
ATOM     44  C   UNL A   1      44.265  35.843  28.046  1.00  0.00     0.198 A 
ATOM     45  F   UNL A   1      45.102  34.740  29.948  1.00  0.00    -0.203 F 
ATOM     46  F   UNL A   1      42.987  34.528  24.922  1.00  0.00    -0.200 F 
ATOM     47  C   UNL A   1      43.723  35.798  26.771  1.00  0.00     0.200 A 
ATOM     48  F   UNL A   1      44.477  37.025  28.641  1.00  0.00    -0.200 F 
ATOM     49  F   UNL A   1      43.428  36.935  26.126  1.00  0.00    -0.200 F 
ENDBRANCH  25  39
BRANCH  26  50
ATOM     50  C   UNL A   1      45.656  25.043  33.447  1.00  0.00     0.064 A 
ATOM     51  C   UNL A   1      44.872  23.911  33.190  1.00  0.00     0.173 A 
ATOM     52  C   UNL A   1      46.613  24.955  34.471  1.00  0.00     0.173 A 
ATOM     53  F   UNL A   1      43.934  23.949  32.231  1.00  0.00    -0.203 F 
ATOM     54  C   UNL A   1      45.014  22.750  33.947  1.00  0.00     0.198 A 
ATOM     55  C   UNL A   1      46.782  23.781  35.200  1.00  0.00     0.198 A 
ATOM     56  F   UNL A   1      47.396  26.007  34.752  1.00  0.00    -0.203 F 
ATOM     57  F   UNL A   1      44.210  21.704  33.722  1.00  0.00    -0.200 F 
ATOM     58  C   UNL A   1      45.973  22.684  34.948  1.00  0.00     0.200 A 
ATOM     59  F   UNL A   1      47.725  23.716  36.150  1.00  0.00    -0.200 F 
ATOM     60  F   UNL A   1      46.110  21.567  35.675  1.00  0.00    -0.200 F 
ENDBRANCH  26  50
BRANCH  38  61
ATOM     61  C   UNL A   1      48.970  27.881  28.030  1.00  0.00     0.064 A 
ATOM     62  C   UNL A   1      50.281  28.177  28.437  1.00  0.00     0.173 A 
ATOM     63  C   UNL A   1      48.800  27.151  26.844  1.00  0.00     0.173 A 
ATOM     64  F   UNL A   1      50.496  28.888  29.554  1.00  0.00    -0.203 F 
ATOM     65  C   UNL A   1      51.373  27.797  27.664  1.00  0.00     0.198 A 
ATOM     66  C   UNL A   1      49.897  26.740  26.092  1.00  0.00     0.198 A 
ATOM     67  F   UNL A   1      47.569  26.837  26.413  1.00  0.00    -0.203 F 
ATOM     68  F   UNL A   1      52.611  28.151  28.036  1.00  0.00    -0.200 F 
ATOM     69  C   UNL A   1      51.181  27.075  26.495  1.00  0.00     0.200 A 
ATOM     70  F   UNL A   1      49.710  26.032  24.970  1.00  0.00    -0.200 F 
ATOM     71  F   UNL A   1      52.234  26.711  25.750  1.00  0.00    -0.200 F 
ENDBRANCH  38  61
ENDBRANCH  12  13
ENDBRANCH   5   7
ENDBRANCH   2   3
ENDBRANCH   1   2
BRANCH   1  72
ATOM     72  C   UNL A   1      36.060  33.057  33.604  1.00  0.00     0.023 C 
BRANCH  72  73
ATOM     73  C   UNL A   1      35.868  33.275  32.109  1.00  0.00     0.116 C 
BRANCH  73  74
ATOM     74  N   UNL A   1      36.835  34.195  31.527  1.00  0.00    -0.352 N 
ATOM     75  C   UNL A   1      37.484  34.105  30.320  1.00  0.00     0.252 C 
ATOM     76  H   UNL A   1      37.053  34.986  32.072  1.00  0.00     0.163 HD
ATOM     77  O   UNL A   1      38.292  34.960  29.977  1.00  0.00    -0.269 OA
BRANCH  75  78
ATOM     78  C   UNL A   1      37.247  32.929  29.462  1.00  0.00     0.051 A 
ATOM     79  C   UNL A   1      38.274  31.992  29.436  1.00  0.00     0.043 A 
ATOM     80  C   UNL A   1      36.027  32.716  28.782  1.00  0.00     0.015 A 
ATOM     81  C   UNL A   1      38.041  30.812  28.764  1.00  0.00     0.072 A 
ATOM     82  C   UNL A   1      35.855  31.454  28.184  1.00  0.00     0.090 A 
ATOM     83  C   UNL A   1      34.985  33.677  28.711  1.00  0.00     0.011 A 
ATOM     84  N   UNL A   1      36.856  30.542  28.171  1.00  0.00    -0.246 NA
ATOM     85  C   UNL A   1      34.597  31.170  27.631  1.00  0.00     0.067 A 
ATOM     86  C   UNL A   1      33.753  33.368  28.150  1.00  0.00     0.002 A 
ATOM     87  Cl  UNL A   1      34.264  29.610  26.949  1.00  0.00    -0.082 Cl
ATOM     88  C   UNL A   1      33.551  32.101  27.625  1.00  0.00     0.023 A 
BRANCH  81  89
ATOM     89  C   UNL A   1      39.053  29.761  28.669  1.00  0.00     0.000 A 
ATOM     90  C   UNL A   1      39.818  29.387  29.782  1.00  0.00     0.012 A 
ATOM     91  C   UNL A   1      39.281  29.097  27.457  1.00  0.00     0.012 A 
ATOM     92  C   UNL A   1      40.770  28.365  29.686  1.00  0.00     0.027 A 
ATOM     93  C   UNL A   1      40.266  28.108  27.350  1.00  0.00     0.027 A 
ATOM     94  C   UNL A   1      41.013  27.716  28.468  1.00  0.00     0.052 A 
BRANCH  94  95
ATOM     95  N   UNL A   1      41.984  26.691  28.376  1.00  0.00    -0.250 N 
ATOM     96  C   UNL A   1      43.358  26.912  28.366  1.00  0.00     0.238 C 
ATOM     97  C   UNL A   1      41.696  25.334  28.278  1.00  0.00     0.238 C 
ATOM     98  O   UNL A   1      43.984  27.957  28.326  1.00  0.00    -0.274 OA
ATOM     99  C   UNL A   1      43.985  25.562  28.567  1.00  0.00     0.096 C 
ATOM    100  C   UNL A   1      42.980  24.684  27.848  1.00  0.00     0.096 C 
ATOM    101  O   UNL A   1      40.629  24.748  28.376  1.00  0.00    -0.274 OA
ATOM    102  C   UNL A   1      45.385  25.329  28.037  1.00  0.00     0.041 C 
ATOM    103  C   UNL A   1      43.218  23.222  28.162  1.00  0.00     0.041 C 
ATOM    104  C   UNL A   1      45.652  23.845  27.934  1.00  0.00    -0.030 C 
ATOM    105  C   UNL A   1      44.690  22.905  28.017  1.00  0.00    -0.030 C 
ENDBRANCH  94  95
ENDBRANCH  81  89
ENDBRANCH  75  78
ENDBRANCH  73  74
ENDBRANCH  72  73
ENDBRANCH   1  72
TORSDOF 13
ENDMDL
MODEL 3
REMARK VINA RESULT:     -10.5      0.772      1.652
REMARK SMILES O=C(NCCCCNC(=O)c1cc(-c2ccc(N3C(=O)[C@@H]4CC=CC[C@H]4C3=O)cc2)nc2c(Cl)cccc12)c1ccc(-c2c3nc(c(-c4c(F)c(F)c(F)c(F)c4F)c4ccc([nH]4)c(-c4c(F)c(F)c(F)c(F)c4F)c4nc(c(-c5c(F)c(F)c(F)c(F)c5F)c5ccc2[nH]5)C=C4)C=C3)cc1
REMARK SMILES IDX 5 1 4 2 3 3 1 4 2 5 39 7 40 8 101 9 41 10 100 11 42 12 43 13
REMARK SMILES IDX 44 14 94 15 45 16 99 17 93 18 95 19 46 20 98 21 92 22 91 23
REMARK SMILES IDX 47 25 79 26 59 27 78 28 60 29 63 30 77 31 96 32 61 33 62 34
REMARK SMILES IDX 76 36 97 37 64 38 48 39 49 40 57 41 50 42 51 43 55 44 58 45
REMARK SMILES IDX 52 46 53 47 56 48 54 49 80 50 81 51 89 52 82 53 83 54 87 55
REMARK SMILES IDX 90 56 84 57 85 58 88 59 86 60 65 61 66 62 74 63 67 64 68 65
REMARK SMILES IDX 72 66 75 67 69 68 70 69 73 70 71 71 6 72 7 73 8 74 9 75
REMARK SMILES IDX 10 77 11 78 12 79 38 80 13 81 32 82 37 83 31 84 33 85 36 86
REMARK SMILES IDX 34 87 35 88 14 89 15 90 30 91 16 92 29 93 17 94 18 95 19 96
REMARK SMILES IDX 27 97 20 98 21 99 26 100 28 101 22 102 25 103 23 104 24 105
REMARK H PARENT 3 6 95 24 63 35 8 76
REMARK Flexibility Score: inf
ROOT
ATOM      1  C   UNL A   1      46.371  23.601  25.209  1.00  0.00     0.023 C 
ENDROOT
BRANCH   1   2
ATOM      2  C   UNL A   1      47.230  24.813  25.536  1.00  0.00     0.116 C 
BRANCH   2   3
ATOM      3  N   UNL A   1      47.504  25.657  24.381  1.00  0.00    -0.352 N 
ATOM      4  O   UNL A   1      47.376  27.504  23.083  1.00  0.00    -0.269 OA
ATOM      5  C   UNL A   1      47.172  26.976  24.171  1.00  0.00     0.251 C 
ATOM      6  H   UNL A   1      47.996  25.222  23.648  1.00  0.00     0.163 HD
BRANCH   5   7
ATOM      7  C   UNL A   1      46.537  27.746  25.261  1.00  0.00     0.039 A 
ATOM      8  C   UNL A   1      47.323  28.490  26.140  1.00  0.00     0.014 A 
ATOM      9  C   UNL A   1      45.150  27.695  25.429  1.00  0.00     0.014 A 
ATOM     10  C   UNL A   1      46.753  29.019  27.288  1.00  0.00     0.010 A 
ATOM     11  C   UNL A   1      44.560  28.336  26.525  1.00  0.00     0.010 A 
ATOM     12  C   UNL A   1      45.363  28.975  27.482  1.00  0.00    -0.014 A 
BRANCH  12  13
ATOM     13  C   UNL A   1      44.789  29.689  28.651  1.00  0.00     0.031 A 
ATOM     14  C   UNL A   1      44.522  28.993  29.956  1.00  0.00     0.074 A 
ATOM     15  C   UNL A   1      44.568  31.014  28.531  1.00  0.00     0.049 A 
ATOM     16  N   UNL A   1      44.074  29.498  31.080  1.00  0.00    -0.248 NA
ATOM     17  C   UNL A   1      44.782  27.547  30.014  1.00  0.00     0.031 C 
ATOM     18  C   UNL A   1      44.776  31.791  27.305  1.00  0.00     0.029 A 
ATOM     19  N   UNL A   1      44.154  31.948  29.446  1.00  0.00    -0.354 N 
ATOM     20  C   UNL A   1      43.990  28.437  31.971  1.00  0.00     0.074 A 
ATOM     21  C   UNL A   1      44.403  27.251  31.251  1.00  0.00     0.031 C 
ATOM     22  C   UNL A   1      44.550  33.086  27.559  1.00  0.00     0.029 A 
ATOM     23  C   UNL A   1      44.103  33.224  28.939  1.00  0.00     0.049 A 
ATOM     24  H   UNL A   1      43.916  31.725  30.374  1.00  0.00     0.167 HD
ATOM     25  C   UNL A   1      43.612  28.458  33.273  1.00  0.00     0.037 A 
ATOM     26  C   UNL A   1      43.717  34.377  29.511  1.00  0.00     0.037 A 
ATOM     27  C   UNL A   1      43.207  29.647  33.983  1.00  0.00     0.049 A 
ATOM     28  C   UNL A   1      43.273  34.357  30.945  1.00  0.00     0.074 A 
ATOM     29  C   UNL A   1      42.824  29.772  35.307  1.00  0.00     0.029 A 
ATOM     30  N   UNL A   1      43.131  30.916  33.426  1.00  0.00    -0.354 N 
ATOM     31  N   UNL A   1      43.229  33.350  31.784  1.00  0.00    -0.248 NA
ATOM     32  C   UNL A   1      42.823  35.633  31.512  1.00  0.00     0.031 C 
ATOM     33  C   UNL A   1      42.467  31.106  35.539  1.00  0.00     0.029 A 
ATOM     34  C   UNL A   1      42.684  31.824  34.375  1.00  0.00     0.049 A 
ATOM     35  H   UNL A   1      43.360  31.138  32.495  1.00  0.00     0.167 HD
ATOM     36  C   UNL A   1      42.761  33.873  32.979  1.00  0.00     0.074 A 
ATOM     37  C   UNL A   1      42.571  35.293  32.766  1.00  0.00     0.031 C 
ATOM     38  C   UNL A   1      42.499  33.235  34.145  1.00  0.00     0.037 A 
BRANCH  25  39
ATOM     39  C   UNL A   1      43.607  27.158  34.029  1.00  0.00     0.064 A 
ATOM     40  C   UNL A   1      44.795  26.567  34.484  1.00  0.00     0.173 A 
ATOM     41  C   UNL A   1      42.395  26.541  34.375  1.00  0.00     0.173 A 
ATOM     42  F   UNL A   1      45.981  27.110  34.173  1.00  0.00    -0.203 F 
ATOM     43  C   UNL A   1      44.769  25.400  35.247  1.00  0.00     0.198 A 
ATOM     44  C   UNL A   1      42.372  25.392  35.162  1.00  0.00     0.198 A 
ATOM     45  F   UNL A   1      41.228  27.069  33.974  1.00  0.00    -0.203 F 
ATOM     46  F   UNL A   1      45.919  24.838  35.645  1.00  0.00    -0.200 F 
ATOM     47  C   UNL A   1      43.559  24.820  35.594  1.00  0.00     0.200 A 
ATOM     48  F   UNL A   1      41.200  24.841  35.509  1.00  0.00    -0.200 F 
ATOM     49  F   UNL A   1      43.536  23.710  36.343  1.00  0.00    -0.200 F 
ENDBRANCH  25  39
BRANCH  26  50
ATOM     50  C   UNL A   1      43.703  35.634  28.719  1.00  0.00     0.064 A 
ATOM     51  C   UNL A   1      42.531  36.094  28.103  1.00  0.00     0.173 A 
ATOM     52  C   UNL A   1      44.872  36.393  28.546  1.00  0.00     0.173 A 
ATOM     53  F   UNL A   1      41.392  35.396  28.226  1.00  0.00    -0.203 F 
ATOM     54  C   UNL A   1      42.535  37.246  27.321  1.00  0.00     0.198 A 
ATOM     55  C   UNL A   1      44.864  37.567  27.797  1.00  0.00     0.198 A 
ATOM     56  F   UNL A   1      46.019  36.003  29.121  1.00  0.00    -0.203 F 
ATOM     57  F   UNL A   1      41.415  37.630  26.693  1.00  0.00    -0.200 F 
ATOM     58  C   UNL A   1      43.700  37.985  27.173  1.00  0.00     0.200 A 
ATOM     59  F   UNL A   1      45.987  38.288  27.677  1.00  0.00    -0.200 F 
ATOM     60  F   UNL A   1      43.702  39.094  26.421  1.00  0.00    -0.200 F 
ENDBRANCH  26  50
BRANCH  38  61
ATOM     61  C   UNL A   1      42.003  34.081  35.282  1.00  0.00     0.064 A 
ATOM     62  C   UNL A   1      40.632  34.254  35.528  1.00  0.00     0.173 A 
ATOM     63  C   UNL A   1      42.910  34.730  36.133  1.00  0.00     0.173 A 
ATOM     64  F   UNL A   1      39.725  33.669  34.731  1.00  0.00    -0.203 F 
ATOM     65  C   UNL A   1      40.188  35.081  36.555  1.00  0.00     0.198 A 
ATOM     66  C   UNL A   1      42.462  35.527  37.184  1.00  0.00     0.198 A 
ATOM     67  F   UNL A   1      44.231  34.593  35.947  1.00  0.00    -0.203 F 
ATOM     68  F   UNL A   1      38.874  35.287  36.727  1.00  0.00    -0.200 F 
ATOM     69  C   UNL A   1      41.102  35.712  37.386  1.00  0.00     0.200 A 
ATOM     70  F   UNL A   1      43.346  36.125  37.993  1.00  0.00    -0.200 F 
ATOM     71  F   UNL A   1      40.673  36.509  38.374  1.00  0.00    -0.200 F 
ENDBRANCH  38  61
ENDBRANCH  12  13
ENDBRANCH   5   7
ENDBRANCH   2   3
ENDBRANCH   1   2
BRANCH   1  72
ATOM     72  C   UNL A   1      44.874  23.873  25.124  1.00  0.00     0.023 C 
BRANCH  72  73
ATOM     73  C   UNL A   1      43.984  22.777  25.695  1.00  0.00     0.116 C 
BRANCH  73  74
ATOM     74  N   UNL A   1      44.254  22.481  27.096  1.00  0.00    -0.352 N 
ATOM     75  C   UNL A   1      43.407  22.587  28.172  1.00  0.00     0.252 C 
ATOM     76  H   UNL A   1      45.164  22.165  27.297  1.00  0.00     0.163 HD
ATOM     77  O   UNL A   1      43.793  22.316  29.303  1.00  0.00    -0.269 OA
BRANCH  75  78
ATOM     78  C   UNL A   1      42.039  23.095  27.963  1.00  0.00     0.051 A 
ATOM     79  C   UNL A   1      41.824  24.412  28.355  1.00  0.00     0.043 A 
ATOM     80  C   UNL A   1      41.034  22.336  27.323  1.00  0.00     0.015 A 
ATOM     81  C   UNL A   1      40.604  24.976  28.051  1.00  0.00     0.072 A 
ATOM     82  C   UNL A   1      39.849  23.018  26.991  1.00  0.00     0.090 A 
ATOM     83  C   UNL A   1      41.178  20.967  26.980  1.00  0.00     0.011 A 
ATOM     84  N   UNL A   1      39.650  24.304  27.368  1.00  0.00    -0.246 NA
ATOM     85  C   UNL A   1      38.898  22.323  26.227  1.00  0.00     0.067 A 
ATOM     86  C   UNL A   1      40.215  20.304  26.230  1.00  0.00     0.002 A 
ATOM     87  Cl  UNL A   1      37.445  23.109  25.697  1.00  0.00    -0.082 Cl
ATOM     88  C   UNL A   1      39.079  20.991  25.834  1.00  0.00     0.023 A 
BRANCH  81  89
ATOM     89  C   UNL A   1      40.271  26.350  28.422  1.00  0.00     0.000 A 
ATOM     90  C   UNL A   1      39.343  26.625  29.434  1.00  0.00     0.012 A 
ATOM     91  C   UNL A   1      40.879  27.432  27.771  1.00  0.00     0.012 A 
ATOM     92  C   UNL A   1      39.047  27.944  29.797  1.00  0.00     0.027 A 
ATOM     93  C   UNL A   1      40.547  28.751  28.101  1.00  0.00     0.027 A 
ATOM     94  C   UNL A   1      39.639  29.026  29.131  1.00  0.00     0.052 A 
BRANCH  94  95
ATOM     95  N   UNL A   1      39.327  30.358  29.495  1.00  0.00    -0.250 N 
ATOM     96  C   UNL A   1      38.284  31.096  28.946  1.00  0.00     0.238 C 
ATOM     97  C   UNL A   1      40.022  31.103  30.441  1.00  0.00     0.238 C 
ATOM     98  O   UNL A   1      37.532  30.827  28.025  1.00  0.00    -0.274 OA
ATOM     99  C   UNL A   1      38.137  32.304  29.827  1.00  0.00     0.096 C 
ATOM    100  C   UNL A   1      39.581  32.523  30.233  1.00  0.00     0.096 C 
ATOM    101  O   UNL A   1      40.907  30.765  31.212  1.00  0.00    -0.274 OA
ATOM    102  C   UNL A   1      37.543  33.564  29.233  1.00  0.00     0.041 C 
ATOM    103  C   UNL A   1      39.676  33.509  31.378  1.00  0.00     0.041 C 
ATOM    104  C   UNL A   1      37.886  34.751  30.105  1.00  0.00    -0.030 C 
ATOM    105  C   UNL A   1      38.817  34.719  31.079  1.00  0.00    -0.030 C 
ENDBRANCH  94  95
ENDBRANCH  81  89
ENDBRANCH  75  78
ENDBRANCH  73  74
ENDBRANCH  72  73
ENDBRANCH   1  72
TORSDOF 13
ENDMDL
