MODEL 1
REMARK VINA RESULT:     -12.1      0.000      0.000
REMARK SMILES O=C(NCCCCNC(=O)c1csc(-c2ccnc(N3CCOCC3)c2)n1)c1ccc(-c2c3nc(c(-c4c(F)c(F)c(F)c(F)c4F)c4ccc([nH]4)c(-c4c(F)c(F)c(F)c(F)c4F)c4nc(c(-c5c(F)c(F)c(F)c(F)c5F)c5ccc2[nH]5)C=C4)C=C3)cc1
REMARK SMILES IDX 5 1 4 2 3 3 1 4 2 5 28 7 29 8 90 9 30 10 89 11 31 12 32 13
REMARK SMILES IDX 33 14 83 15 34 16 88 17 82 18 84 19 35 20 87 21 81 22 80 23
REMARK SMILES IDX 36 25 68 26 48 27 67 28 49 29 52 30 66 31 85 32 50 33 51 34
REMARK SMILES IDX 65 36 86 37 53 38 37 39 38 40 46 41 39 42 40 43 44 44 47 45
REMARK SMILES IDX 41 46 42 47 45 48 43 49 69 50 70 51 78 52 71 53 72 54 76 55
REMARK SMILES IDX 79 56 73 57 74 58 77 59 75 60 54 61 55 62 63 63 56 64 57 65
REMARK SMILES IDX 61 66 64 67 58 68 59 69 62 70 60 71 6 72 7 73 8 74 9 75
REMARK SMILES IDX 10 77 11 78 12 79 27 80 13 81 14 82 15 83 16 84 26 85 17 86
REMARK SMILES IDX 19 87 18 88 20 89 21 90 25 91 22 92 24 93 23 94
REMARK H PARENT 3 6 84 24 52 35 8 76
REMARK Flexibility Score: inf
ROOT
ATOM      1  C   UNL A   1      41.326  19.557  26.126  1.00  0.00     0.023 C 
ENDROOT
BRANCH   1   2
ATOM      2  C   UNL A   1      42.712  19.052  26.500  1.00  0.00     0.116 C 
BRANCH   2   3
ATOM      3  N   UNL A   1      43.508  18.669  25.343  1.00  0.00    -0.352 N 
ATOM      4  O   UNL A   1      44.804  18.995  23.522  1.00  0.00    -0.269 OA
ATOM      5  C   UNL A   1      44.318  19.449  24.553  1.00  0.00     0.251 C 
ATOM      6  H   UNL A   1      43.458  17.718  25.090  1.00  0.00     0.163 HD
BRANCH   5   7
ATOM      7  C   UNL A   1      44.579  20.851  24.940  1.00  0.00     0.039 A 
ATOM      8  C   UNL A   1      45.258  21.143  26.125  1.00  0.00     0.014 A 
ATOM      9  C   UNL A   1      44.129  21.884  24.113  1.00  0.00     0.014 A 
ATOM     10  C   UNL A   1      45.348  22.459  26.559  1.00  0.00     0.010 A 
ATOM     11  C   UNL A   1      44.311  23.213  24.505  1.00  0.00     0.010 A 
ATOM     12  C   UNL A   1      44.898  23.510  25.745  1.00  0.00    -0.014 A 
BRANCH  12  13
ATOM     13  C   UNL A   1      45.126  24.911  26.177  1.00  0.00     0.031 A 
ATOM     14  C   UNL A   1      46.472  25.563  26.047  1.00  0.00     0.074 A 
ATOM     15  C   UNL A   1      44.084  25.602  26.680  1.00  0.00     0.049 A 
ATOM     16  N   UNL A   1      46.838  26.775  26.383  1.00  0.00    -0.248 NA
ATOM     17  C   UNL A   1      47.554  24.750  25.471  1.00  0.00     0.031 C 
ATOM     18  C   UNL A   1      42.731  25.069  26.858  1.00  0.00     0.029 A 
ATOM     19  N   UNL A   1      43.990  26.897  27.119  1.00  0.00    -0.354 N 
ATOM     20  C   UNL A   1      48.189  26.867  26.074  1.00  0.00     0.074 A 
ATOM     21  C   UNL A   1      48.587  25.578  25.551  1.00  0.00     0.031 C 
ATOM     22  C   UNL A   1      41.935  26.037  27.330  1.00  0.00     0.029 A 
ATOM     23  C   UNL A   1      42.733  27.235  27.556  1.00  0.00     0.049 A 
ATOM     24  H   UNL A   1      44.749  27.523  27.122  1.00  0.00     0.167 HD
ATOM     25  C   UNL A   1      49.013  27.935  26.209  1.00  0.00     0.037 A 
ATOM     26  C   UNL A   1      42.277  28.375  28.107  1.00  0.00     0.037 A 
ATOM     27  C   UNL A   1      48.601  29.216  26.729  1.00  0.00     0.049 A 
ATOM     28  C   UNL A   1      43.227  29.522  28.292  1.00  0.00     0.074 A 
ATOM     29  C   UNL A   1      49.354  30.369  26.876  1.00  0.00     0.029 A 
ATOM     30  N   UNL A   1      47.328  29.510  27.197  1.00  0.00    -0.354 N 
ATOM     31  N   UNL A   1      44.492  29.610  27.961  1.00  0.00    -0.248 NA
ATOM     32  C   UNL A   1      42.686  30.729  28.929  1.00  0.00     0.031 C 
ATOM     33  C   UNL A   1      48.553  31.340  27.486  1.00  0.00     0.029 A 
ATOM     34  C   UNL A   1      47.283  30.816  27.663  1.00  0.00     0.049 A 
ATOM     35  H   UNL A   1      46.569  28.883  27.199  1.00  0.00     0.167 HD
ATOM     36  C   UNL A   1      44.894  30.885  28.329  1.00  0.00     0.074 A 
ATOM     37  C   UNL A   1      43.732  31.543  28.889  1.00  0.00     0.031 C 
ATOM     38  C   UNL A   1      46.118  31.459  28.216  1.00  0.00     0.037 A 
BRANCH  25  39
ATOM     39  C   UNL A   1      50.452  27.765  25.810  1.00  0.00     0.064 A 
ATOM     40  C   UNL A   1      51.452  27.481  26.752  1.00  0.00     0.173 A 
ATOM     41  C   UNL A   1      50.828  27.835  24.459  1.00  0.00     0.173 A 
ATOM     42  F   UNL A   1      51.151  27.411  28.057  1.00  0.00    -0.203 F 
ATOM     43  C   UNL A   1      52.777  27.299  26.361  1.00  0.00     0.198 A 
ATOM     44  C   UNL A   1      52.148  27.621  24.068  1.00  0.00     0.198 A 
ATOM     45  F   UNL A   1      49.912  28.095  23.514  1.00  0.00    -0.203 F 
ATOM     46  F   UNL A   1      53.722  27.073  27.283  1.00  0.00    -0.200 F 
ATOM     47  C   UNL A   1      53.122  27.361  25.018  1.00  0.00     0.200 A 
ATOM     48  F   UNL A   1      52.475  27.665  22.769  1.00  0.00    -0.200 F 
ATOM     49  F   UNL A   1      54.395  27.176  24.642  1.00  0.00    -0.200 F 
ENDBRANCH  25  39
BRANCH  26  50
ATOM     50  C   UNL A   1      40.856  28.471  28.531  1.00  0.00     0.064 A 
ATOM     51  C   UNL A   1      40.462  28.097  29.822  1.00  0.00     0.173 A 
ATOM     52  C   UNL A   1      39.867  28.949  27.658  1.00  0.00     0.173 A 
ATOM     53  F   UNL A   1      41.367  27.618  30.688  1.00  0.00    -0.203 F 
ATOM     54  C   UNL A   1      39.128  28.179  30.217  1.00  0.00     0.198 A 
ATOM     55  C   UNL A   1      38.542  29.063  28.066  1.00  0.00     0.198 A 
ATOM     56  F   UNL A   1      40.195  29.328  26.414  1.00  0.00    -0.203 F 
ATOM     57  F   UNL A   1      38.769  27.770  31.442  1.00  0.00    -0.200 F 
ATOM     58  C   UNL A   1      38.170  28.668  29.342  1.00  0.00     0.200 A 
ATOM     59  F   UNL A   1      37.624  29.557  27.223  1.00  0.00    -0.200 F 
ATOM     60  F   UNL A   1      36.890  28.755  29.726  1.00  0.00    -0.200 F 
ENDBRANCH  26  50
BRANCH  38  61
ATOM     61  C   UNL A   1      46.251  32.882  28.674  1.00  0.00     0.064 A 
ATOM     62  C   UNL A   1      46.628  33.202  29.988  1.00  0.00     0.173 A 
ATOM     63  C   UNL A   1      46.027  33.940  27.780  1.00  0.00     0.173 A 
ATOM     64  F   UNL A   1      46.835  32.228  30.887  1.00  0.00    -0.203 F 
ATOM     65  C   UNL A   1      46.749  34.528  30.395  1.00  0.00     0.198 A 
ATOM     66  C   UNL A   1      46.183  35.263  28.181  1.00  0.00     0.198 A 
ATOM     67  F   UNL A   1      45.669  33.689  26.512  1.00  0.00    -0.203 F 
ATOM     68  F   UNL A   1      47.056  34.810  31.668  1.00  0.00    -0.200 F 
ATOM     69  C   UNL A   1      46.534  35.557  29.489  1.00  0.00     0.200 A 
ATOM     70  F   UNL A   1      45.990  36.255  27.300  1.00  0.00    -0.200 F 
ATOM     71  F   UNL A   1      46.659  36.832  29.880  1.00  0.00    -0.200 F 
ENDBRANCH  38  61
ENDBRANCH  12  13
ENDBRANCH   5   7
ENDBRANCH   2   3
ENDBRANCH   1   2
BRANCH   1  72
ATOM     72  C   UNL A   1      41.091  21.038  26.403  1.00  0.00     0.023 C 
BRANCH  72  73
ATOM     73  C   UNL A   1      39.661  21.515  26.157  1.00  0.00     0.116 C 
BRANCH  73  74
ATOM     74  N   UNL A   1      39.391  22.778  26.826  1.00  0.00    -0.351 N 
ATOM     75  C   UNL A   1      38.419  23.706  26.534  1.00  0.00     0.270 C 
ATOM     76  H   UNL A   1      39.978  22.996  27.585  1.00  0.00     0.163 HD
ATOM     77  O   UNL A   1      38.480  24.823  27.050  1.00  0.00    -0.267 OA
BRANCH  75  78
ATOM     78  C   UNL A   1      37.368  23.335  25.589  1.00  0.00     0.139 A 
ATOM     79  C   UNL A   1      37.381  23.678  24.250  1.00  0.00     0.101 A 
ATOM     80  N   UNL A   1      36.251  22.602  25.983  1.00  0.00    -0.231 NA
ATOM     81  S   UNL A   1      36.053  22.953  23.445  1.00  0.00    -0.122 S 
ATOM     82  C   UNL A   1      35.523  22.287  24.938  1.00  0.00     0.124 A 
BRANCH  82  83
ATOM     83  C   UNL A   1      34.360  21.413  24.993  1.00  0.00     0.016 A 
ATOM     84  C   UNL A   1      33.094  21.932  25.237  1.00  0.00     0.031 A 
ATOM     85  C   UNL A   1      34.507  20.033  24.853  1.00  0.00     0.058 A 
ATOM     86  C   UNL A   1      32.030  21.050  25.245  1.00  0.00     0.114 A 
ATOM     87  C   UNL A   1      33.389  19.210  24.886  1.00  0.00     0.129 A 
ATOM     88  N   UNL A   1      32.152  19.719  25.042  1.00  0.00    -0.239 NA
BRANCH  87  89
ATOM     89  N   UNL A   1      33.538  17.862  24.716  1.00  0.00    -0.352 N 
ATOM     90  C   UNL A   1      32.433  16.922  24.848  1.00  0.00     0.146 C 
ATOM     91  C   UNL A   1      34.799  17.300  24.251  1.00  0.00     0.146 C 
ATOM     92  C   UNL A   1      32.881  15.764  25.751  1.00  0.00     0.181 C 
ATOM     93  C   UNL A   1      35.159  16.131  25.190  1.00  0.00     0.181 C 
ATOM     94  O   UNL A   1      34.097  15.158  25.272  1.00  0.00    -0.378 OA
ENDBRANCH  87  89
ENDBRANCH  82  83
ENDBRANCH  75  78
ENDBRANCH  73  74
ENDBRANCH  72  73
ENDBRANCH   1  72
TORSDOF 13
ENDMDL
MODEL 2
REMARK VINA RESULT:     -12.0      0.256      7.280
REMARK SMILES O=C(NCCCCNC(=O)c1csc(-c2ccnc(N3CCOCC3)c2)n1)c1ccc(-c2c3nc(c(-c4c(F)c(F)c(F)c(F)c4F)c4ccc([nH]4)c(-c4c(F)c(F)c(F)c(F)c4F)c4nc(c(-c5c(F)c(F)c(F)c(F)c5F)c5ccc2[nH]5)C=C4)C=C3)cc1
REMARK SMILES IDX 5 1 4 2 3 3 1 4 2 5 28 7 29 8 90 9 30 10 89 11 31 12 32 13
REMARK SMILES IDX 33 14 83 15 34 16 88 17 82 18 84 19 35 20 87 21 81 22 80 23
REMARK SMILES IDX 36 25 68 26 48 27 67 28 49 29 52 30 66 31 85 32 50 33 51 34
REMARK SMILES IDX 65 36 86 37 53 38 37 39 38 40 46 41 39 42 40 43 44 44 47 45
REMARK SMILES IDX 41 46 42 47 45 48 43 49 69 50 70 51 78 52 71 53 72 54 76 55
REMARK SMILES IDX 79 56 73 57 74 58 77 59 75 60 54 61 55 62 63 63 56 64 57 65
REMARK SMILES IDX 61 66 64 67 58 68 59 69 62 70 60 71 6 72 7 73 8 74 9 75
REMARK SMILES IDX 10 77 11 78 12 79 27 80 13 81 14 82 15 83 16 84 26 85 17 86
REMARK SMILES IDX 19 87 18 88 20 89 21 90 25 91 22 92 24 93 23 94
REMARK H PARENT 3 6 84 24 52 35 8 76
REMARK Flexibility Score: inf
ROOT
ATOM      1  C   UNL A   1      41.362  19.585  26.150  1.00  0.00     0.023 C 
ENDROOT
BRANCH   1   2
ATOM      2  C   UNL A   1      42.774  19.101  26.452  1.00  0.00     0.116 C 
BRANCH   2   3
ATOM      3  N   UNL A   1      43.521  18.749  25.254  1.00  0.00    -0.352 N 
ATOM      4  O   UNL A   1      44.736  19.122  23.386  1.00  0.00    -0.269 OA
ATOM      5  C   UNL A   1      44.292  19.551  24.446  1.00  0.00     0.251 C 
ATOM      6  H   UNL A   1      43.467  17.803  24.984  1.00  0.00     0.163 HD
BRANCH   5   7
ATOM      7  C   UNL A   1      44.560  20.947  24.851  1.00  0.00     0.039 A 
ATOM      8  C   UNL A   1      45.227  21.221  26.046  1.00  0.00     0.014 A 
ATOM      9  C   UNL A   1      44.127  21.992  24.031  1.00  0.00     0.014 A 
ATOM     10  C   UNL A   1      45.324  22.531  26.496  1.00  0.00     0.010 A 
ATOM     11  C   UNL A   1      44.316  23.315  24.439  1.00  0.00     0.010 A 
ATOM     12  C   UNL A   1      44.891  23.594  25.688  1.00  0.00    -0.014 A 
BRANCH  12  13
ATOM     13  C   UNL A   1      45.126  24.989  26.138  1.00  0.00     0.031 A 
ATOM     14  C   UNL A   1      44.027  25.812  26.745  1.00  0.00     0.074 A 
ATOM     15  C   UNL A   1      46.364  25.503  26.004  1.00  0.00     0.049 A 
ATOM     16  N   UNL A   1      44.067  27.046  27.183  1.00  0.00    -0.248 NA
ATOM     17  C   UNL A   1      42.708  25.173  26.876  1.00  0.00     0.031 C 
ATOM     18  C   UNL A   1      47.508  24.798  25.422  1.00  0.00     0.029 A 
ATOM     19  N   UNL A   1      46.874  26.726  26.356  1.00  0.00    -0.354 N 
ATOM     20  C   UNL A   1      42.783  27.337  27.626  1.00  0.00     0.074 A 
ATOM     21  C   UNL A   1      41.978  26.160  27.377  1.00  0.00     0.031 C 
ATOM     22  C   UNL A   1      48.592  25.580  25.493  1.00  0.00     0.029 A 
ATOM     23  C   UNL A   1      48.206  26.868  26.058  1.00  0.00     0.049 A 
ATOM     24  H   UNL A   1      46.337  27.433  26.781  1.00  0.00     0.167 HD
ATOM     25  C   UNL A   1      42.327  28.479  28.195  1.00  0.00     0.037 A 
ATOM     26  C   UNL A   1      49.024  27.927  26.194  1.00  0.00     0.037 A 
ATOM     27  C   UNL A   1      43.141  29.644  28.441  1.00  0.00     0.049 A 
ATOM     28  C   UNL A   1      48.476  29.196  26.779  1.00  0.00     0.074 A 
ATOM     29  C   UNL A   1      42.780  30.839  29.040  1.00  0.00     0.029 A 
ATOM     30  N   UNL A   1      44.479  29.764  28.090  1.00  0.00    -0.354 N 
ATOM     31  N   UNL A   1      47.271  29.446  27.229  1.00  0.00    -0.248 NA
ATOM     32  C   UNL A   1      49.401  30.332  26.873  1.00  0.00     0.031 C 
ATOM     33  C   UNL A   1      43.880  31.701  28.999  1.00  0.00     0.029 A 
ATOM     34  C   UNL A   1      44.948  31.025  28.432  1.00  0.00     0.049 A 
ATOM     35  H   UNL A   1      45.016  29.059  27.662  1.00  0.00     0.167 HD
ATOM     36  C   UNL A   1      47.297  30.758  27.679  1.00  0.00     0.074 A 
ATOM     37  C   UNL A   1      48.645  31.244  27.468  1.00  0.00     0.031 C 
ATOM     38  C   UNL A   1      46.294  31.494  28.217  1.00  0.00     0.037 A 
BRANCH  25  39
ATOM     39  C   UNL A   1      40.874  28.542  28.575  1.00  0.00     0.064 A 
ATOM     40  C   UNL A   1      40.431  28.212  29.864  1.00  0.00     0.173 A 
ATOM     41  C   UNL A   1      39.917  28.991  27.650  1.00  0.00     0.173 A 
ATOM     42  F   UNL A   1      41.301  27.769  30.785  1.00  0.00    -0.203 F 
ATOM     43  C   UNL A   1      39.083  28.303  30.206  1.00  0.00     0.198 A 
ATOM     44  C   UNL A   1      38.575  29.111  28.005  1.00  0.00     0.198 A 
ATOM     45  F   UNL A   1      40.285  29.328  26.406  1.00  0.00    -0.203 F 
ATOM     46  F   UNL A   1      38.678  27.939  31.430  1.00  0.00    -0.200 F 
ATOM     47  C   UNL A   1      38.158  28.760  29.279  1.00  0.00     0.200 A 
ATOM     48  F   UNL A   1      37.686  29.568  27.112  1.00  0.00    -0.200 F 
ATOM     49  F   UNL A   1      36.863  28.856  29.613  1.00  0.00    -0.200 F 
ENDBRANCH  25  39
BRANCH  26  50
ATOM     50  C   UNL A   1      50.440  27.827  25.755  1.00  0.00     0.064 A 
ATOM     51  C   UNL A   1      50.786  27.941  24.402  1.00  0.00     0.173 A 
ATOM     52  C   UNL A   1      51.477  27.627  26.679  1.00  0.00     0.173 A 
ATOM     53  F   UNL A   1      49.829  28.116  23.478  1.00  0.00    -0.203 F 
ATOM     54  C   UNL A   1      52.112  27.837  23.989  1.00  0.00     0.198 A 
ATOM     55  C   UNL A   1      52.804  27.559  26.268  1.00  0.00     0.198 A 
ATOM     56  F   UNL A   1      51.199  27.520  27.987  1.00  0.00    -0.203 F 
ATOM     57  F   UNL A   1      52.411  27.902  22.683  1.00  0.00    -0.200 F 
ATOM     58  C   UNL A   1      53.121  27.654  24.922  1.00  0.00     0.200 A 
ATOM     59  F   UNL A   1      53.777  27.403  27.176  1.00  0.00    -0.200 F 
ATOM     60  F   UNL A   1      54.397  27.564  24.524  1.00  0.00    -0.200 F 
ENDBRANCH  26  50
BRANCH  38  61
ATOM     61  C   UNL A   1      46.627  32.893  28.648  1.00  0.00     0.064 A 
ATOM     62  C   UNL A   1      47.116  33.173  29.933  1.00  0.00     0.173 A 
ATOM     63  C   UNL A   1      46.482  33.964  27.753  1.00  0.00     0.173 A 
ATOM     64  F   UNL A   1      47.255  32.187  30.832  1.00  0.00    -0.203 F 
ATOM     65  C   UNL A   1      47.422  34.477  30.314  1.00  0.00     0.198 A 
ATOM     66  C   UNL A   1      46.822  35.261  28.126  1.00  0.00     0.198 A 
ATOM     67  F   UNL A   1      46.022  33.751  26.511  1.00  0.00    -0.203 F 
ATOM     68  F   UNL A   1      47.836  34.728  31.563  1.00  0.00    -0.200 F 
ATOM     69  C   UNL A   1      47.282  35.518  29.409  1.00  0.00     0.200 A 
ATOM     70  F   UNL A   1      46.700  36.264  27.245  1.00  0.00    -0.200 F 
ATOM     71  F   UNL A   1      47.585  36.771  29.774  1.00  0.00    -0.200 F 
ENDBRANCH  38  61
ENDBRANCH  12  13
ENDBRANCH   5   7
ENDBRANCH   2   3
ENDBRANCH   1   2
BRANCH   1  72
ATOM     72  C   UNL A   1      41.096  21.041  26.515  1.00  0.00     0.023 C 
BRANCH  72  73
ATOM     73  C   UNL A   1      39.675  21.522  26.226  1.00  0.00     0.116 C 
BRANCH  73  74
ATOM     74  N   UNL A   1      39.391  22.789  26.882  1.00  0.00    -0.351 N 
ATOM     75  C   UNL A   1      38.414  23.707  26.574  1.00  0.00     0.270 C 
ATOM     76  H   UNL A   1      39.971  23.019  27.642  1.00  0.00     0.163 HD
ATOM     77  O   UNL A   1      38.463  24.829  27.079  1.00  0.00    -0.267 OA
BRANCH  75  78
ATOM     78  C   UNL A   1      37.373  23.320  25.625  1.00  0.00     0.139 A 
ATOM     79  C   UNL A   1      37.401  23.635  24.280  1.00  0.00     0.101 A 
ATOM     80  N   UNL A   1      36.249  22.596  26.022  1.00  0.00    -0.231 NA
ATOM     81  S   UNL A   1      36.079  22.897  23.475  1.00  0.00    -0.122 S 
ATOM     82  C   UNL A   1      35.532  22.262  24.975  1.00  0.00     0.124 A 
BRANCH  82  83
ATOM     83  C   UNL A   1      34.367  21.392  25.035  1.00  0.00     0.016 A 
ATOM     84  C   UNL A   1      33.106  21.912  25.298  1.00  0.00     0.031 A 
ATOM     85  C   UNL A   1      34.507  20.013  24.880  1.00  0.00     0.058 A 
ATOM     86  C   UNL A   1      32.039  21.034  25.311  1.00  0.00     0.114 A 
ATOM     87  C   UNL A   1      33.388  19.193  24.918  1.00  0.00     0.129 A 
ATOM     88  N   UNL A   1      32.154  19.705  25.093  1.00  0.00    -0.239 NA
BRANCH  87  89
ATOM     89  N   UNL A   1      33.530  17.846  24.734  1.00  0.00    -0.352 N 
ATOM     90  C   UNL A   1      32.421  16.909  24.860  1.00  0.00     0.146 C 
ATOM     91  C   UNL A   1      34.786  17.283  24.259  1.00  0.00     0.146 C 
ATOM     92  C   UNL A   1      32.867  15.740  25.750  1.00  0.00     0.181 C 
ATOM     93  C   UNL A   1      35.145  16.103  25.185  1.00  0.00     0.181 C 
ATOM     94  O   UNL A   1      34.079  15.134  25.260  1.00  0.00    -0.378 OA
ENDBRANCH  87  89
ENDBRANCH  82  83
ENDBRANCH  75  78
ENDBRANCH  73  74
ENDBRANCH  72  73
ENDBRANCH   1  72
TORSDOF 13
ENDMDL
MODEL 3
REMARK VINA RESULT:     -12.0      7.675     12.964
REMARK SMILES O=C(NCCCCNC(=O)c1csc(-c2ccnc(N3CCOCC3)c2)n1)c1ccc(-c2c3nc(c(-c4c(F)c(F)c(F)c(F)c4F)c4ccc([nH]4)c(-c4c(F)c(F)c(F)c(F)c4F)c4nc(c(-c5c(F)c(F)c(F)c(F)c5F)c5ccc2[nH]5)C=C4)C=C3)cc1
REMARK SMILES IDX 5 1 4 2 3 3 1 4 2 5 28 7 29 8 90 9 30 10 89 11 31 12 32 13
REMARK SMILES IDX 33 14 83 15 34 16 88 17 82 18 84 19 35 20 87 21 81 22 80 23
REMARK SMILES IDX 36 25 68 26 48 27 67 28 49 29 52 30 66 31 85 32 50 33 51 34
REMARK SMILES IDX 65 36 86 37 53 38 37 39 38 40 46 41 39 42 40 43 44 44 47 45
REMARK SMILES IDX 41 46 42 47 45 48 43 49 69 50 70 51 78 52 71 53 72 54 76 55
REMARK SMILES IDX 79 56 73 57 74 58 77 59 75 60 54 61 55 62 63 63 56 64 57 65
REMARK SMILES IDX 61 66 64 67 58 68 59 69 62 70 60 71 6 72 7 73 8 74 9 75
REMARK SMILES IDX 10 77 11 78 12 79 27 80 13 81 14 82 15 83 16 84 26 85 17 86
REMARK SMILES IDX 19 87 18 88 20 89 21 90 25 91 22 92 24 93 23 94
REMARK H PARENT 3 6 84 24 52 35 8 76
REMARK Flexibility Score: inf
ROOT
ATOM      1  C   UNL A   1      33.085  34.503  28.591  1.00  0.00     0.023 C 
ENDROOT
BRANCH   1   2
ATOM      2  C   UNL A   1      33.422  35.796  29.320  1.00  0.00     0.116 C 
BRANCH   2   3
ATOM      3  N   UNL A   1      32.528  36.068  30.436  1.00  0.00    -0.352 N 
ATOM      4  O   UNL A   1      31.703  35.856  32.528  1.00  0.00    -0.269 OA
ATOM      5  C   UNL A   1      32.626  35.660  31.744  1.00  0.00     0.251 C 
ATOM      6  H   UNL A   1      31.741  36.621  30.222  1.00  0.00     0.163 HD
BRANCH   5   7
ATOM      7  C   UNL A   1      33.845  34.958  32.197  1.00  0.00     0.039 A 
ATOM      8  C   UNL A   1      35.079  35.611  32.197  1.00  0.00     0.014 A 
ATOM      9  C   UNL A   1      33.753  33.627  32.615  1.00  0.00     0.014 A 
ATOM     10  C   UNL A   1      36.238  34.892  32.463  1.00  0.00     0.010 A 
ATOM     11  C   UNL A   1      34.910  32.935  32.980  1.00  0.00     0.010 A 
ATOM     12  C   UNL A   1      36.165  33.554  32.880  1.00  0.00    -0.014 A 
BRANCH  12  13
ATOM     13  C   UNL A   1      37.409  32.852  33.283  1.00  0.00     0.031 A 
ATOM     14  C   UNL A   1      38.090  33.149  34.587  1.00  0.00     0.074 A 
ATOM     15  C   UNL A   1      37.913  31.918  32.452  1.00  0.00     0.049 A 
ATOM     16  N   UNL A   1      39.185  32.629  35.083  1.00  0.00    -0.248 NA
ATOM     17  C   UNL A   1      37.469  34.167  35.448  1.00  0.00     0.031 C 
ATOM     18  C   UNL A   1      37.339  31.550  31.156  1.00  0.00     0.029 A 
ATOM     19  N   UNL A   1      39.007  31.101  32.574  1.00  0.00    -0.354 N 
ATOM     20  C   UNL A   1      39.393  33.262  36.302  1.00  0.00     0.074 A 
ATOM     21  C   UNL A   1      38.326  34.228  36.458  1.00  0.00     0.031 C 
ATOM     22  C   UNL A   1      38.058  30.555  30.621  1.00  0.00     0.029 A 
ATOM     23  C   UNL A   1      39.185  30.265  31.499  1.00  0.00     0.049 A 
ATOM     24  H   UNL A   1      39.605  31.112  33.354  1.00  0.00     0.167 HD
ATOM     25  C   UNL A   1      40.379  33.046  37.206  1.00  0.00     0.037 A 
ATOM     26  C   UNL A   1      40.164  29.381  31.233  1.00  0.00     0.037 A 
ATOM     27  C   UNL A   1      41.434  32.078  37.039  1.00  0.00     0.049 A 
ATOM     28  C   UNL A   1      41.271  29.203  32.230  1.00  0.00     0.074 A 
ATOM     29  C   UNL A   1      42.462  31.762  37.912  1.00  0.00     0.029 A 
ATOM     30  N   UNL A   1      41.604  31.275  35.920  1.00  0.00    -0.354 N 
ATOM     31  N   UNL A   1      41.435  29.779  33.395  1.00  0.00    -0.248 NA
ATOM     32  C   UNL A   1      42.331  28.252  31.874  1.00  0.00     0.031 C 
ATOM     33  C   UNL A   1      43.285  30.813  37.297  1.00  0.00     0.029 A 
ATOM     34  C   UNL A   1      42.737  30.488  36.067  1.00  0.00     0.049 A 
ATOM     35  H   UNL A   1      41.008  31.265  35.137  1.00  0.00     0.167 HD
ATOM     36  C   UNL A   1      42.602  29.248  33.923  1.00  0.00     0.074 A 
ATOM     37  C   UNL A   1      43.095  28.286  32.957  1.00  0.00     0.031 C 
ATOM     38  C   UNL A   1      43.214  29.533  35.099  1.00  0.00     0.037 A 
BRANCH  25  39
ATOM     39  C   UNL A   1      40.383  33.886  38.453  1.00  0.00     0.064 A 
ATOM     40  C   UNL A   1      39.707  33.487  39.616  1.00  0.00     0.173 A 
ATOM     41  C   UNL A   1      41.118  35.081  38.502  1.00  0.00     0.173 A 
ATOM     42  F   UNL A   1      38.983  32.358  39.623  1.00  0.00    -0.203 F 
ATOM     43  C   UNL A   1      39.745  34.264  40.772  1.00  0.00     0.198 A 
ATOM     44  C   UNL A   1      41.179  35.840  39.669  1.00  0.00     0.198 A 
ATOM     45  F   UNL A   1      41.790  35.507  37.422  1.00  0.00    -0.203 F 
ATOM     46  F   UNL A   1      39.056  33.886  41.856  1.00  0.00    -0.200 F 
ATOM     47  C   UNL A   1      40.488  35.436  40.799  1.00  0.00     0.200 A 
ATOM     48  F   UNL A   1      41.911  36.963  39.697  1.00  0.00    -0.200 F 
ATOM     49  F   UNL A   1      40.531  36.178  41.915  1.00  0.00    -0.200 F 
ENDBRANCH  25  39
BRANCH  26  50
ATOM     50  C   UNL A   1      40.138  28.614  29.960  1.00  0.00     0.064 A 
ATOM     51  C   UNL A   1      39.507  27.366  29.883  1.00  0.00     0.173 A 
ATOM     52  C   UNL A   1      40.735  29.118  28.795  1.00  0.00     0.173 A 
ATOM     53  F   UNL A   1      38.938  26.833  30.974  1.00  0.00    -0.203 F 
ATOM     54  C   UNL A   1      39.492  26.642  28.692  1.00  0.00     0.198 A 
ATOM     55  C   UNL A   1      40.688  28.410  27.598  1.00  0.00     0.198 A 
ATOM     56  F   UNL A   1      41.344  30.313  28.815  1.00  0.00    -0.203 F 
ATOM     57  F   UNL A   1      38.922  25.429  28.657  1.00  0.00    -0.200 F 
ATOM     58  C   UNL A   1      40.075  27.167  27.549  1.00  0.00     0.200 A 
ATOM     59  F   UNL A   1      41.234  28.932  26.491  1.00  0.00    -0.200 F 
ATOM     60  F   UNL A   1      40.051  26.474  26.403  1.00  0.00    -0.200 F 
ENDBRANCH  26  50
BRANCH  38  61
ATOM     61  C   UNL A   1      44.464  28.768  35.423  1.00  0.00     0.064 A 
ATOM     62  C   UNL A   1      45.734  29.243  35.063  1.00  0.00     0.173 A 
ATOM     63  C   UNL A   1      44.392  27.557  36.128  1.00  0.00     0.173 A 
ATOM     64  F   UNL A   1      45.857  30.386  34.371  1.00  0.00    -0.203 F 
ATOM     65  C   UNL A   1      46.884  28.521  35.374  1.00  0.00     0.198 A 
ATOM     66  C   UNL A   1      45.544  26.856  36.468  1.00  0.00     0.198 A 
ATOM     67  F   UNL A   1      43.203  27.060  36.500  1.00  0.00    -0.203 F 
ATOM     68  F   UNL A   1      48.082  28.966  34.973  1.00  0.00    -0.200 F 
ATOM     69  C   UNL A   1      46.789  27.332  36.083  1.00  0.00     0.200 A 
ATOM     70  F   UNL A   1      45.451  25.715  37.167  1.00  0.00    -0.200 F 
ATOM     71  F   UNL A   1      47.895  26.642  36.389  1.00  0.00    -0.200 F 
ENDBRANCH  38  61
ENDBRANCH  12  13
ENDBRANCH   5   7
ENDBRANCH   2   3
ENDBRANCH   1   2
BRANCH   1  72
ATOM     72  C   UNL A   1      34.134  33.404  28.722  1.00  0.00     0.023 C 
BRANCH  72  73
ATOM     73  C   UNL A   1      33.944  32.223  27.773  1.00  0.00     0.116 C 
BRANCH  73  74
ATOM     74  N   UNL A   1      35.174  31.465  27.604  1.00  0.00    -0.351 N 
ATOM     75  C   UNL A   1      35.318  30.120  27.353  1.00  0.00     0.270 C 
ATOM     76  H   UNL A   1      36.010  31.978  27.678  1.00  0.00     0.163 HD
ATOM     77  O   UNL A   1      36.428  29.602  27.471  1.00  0.00    -0.267 OA
BRANCH  75  78
ATOM     78  C   UNL A   1      34.129  29.352  26.989  1.00  0.00     0.139 A 
ATOM     79  C   UNL A   1      33.317  28.710  27.905  1.00  0.00     0.101 A 
ATOM     80  N   UNL A   1      33.728  29.202  25.662  1.00  0.00    -0.231 NA
ATOM     81  S   UNL A   1      31.957  28.032  27.111  1.00  0.00    -0.122 S 
ATOM     82  C   UNL A   1      32.572  28.585  25.604  1.00  0.00     0.124 A 
BRANCH  82  83
ATOM     83  C   UNL A   1      31.817  28.390  24.375  1.00  0.00     0.016 A 
ATOM     84  C   UNL A   1      32.124  27.346  23.513  1.00  0.00     0.031 A 
ATOM     85  C   UNL A   1      30.806  29.283  24.019  1.00  0.00     0.058 A 
ATOM     86  C   UNL A   1      31.348  27.200  22.379  1.00  0.00     0.114 A 
ATOM     87  C   UNL A   1      30.078  29.077  22.855  1.00  0.00     0.129 A 
ATOM     88  N   UNL A   1      30.321  28.019  22.058  1.00  0.00    -0.239 NA
BRANCH  87  89
ATOM     89  N   UNL A   1      29.068  29.939  22.529  1.00  0.00    -0.352 N 
ATOM     90  C   UNL A   1      29.136  30.840  21.386  1.00  0.00     0.146 C 
ATOM     91  C   UNL A   1      27.794  29.903  23.235  1.00  0.00     0.146 C 
ATOM     92  C   UNL A   1      28.727  32.246  21.847  1.00  0.00     0.181 C 
ATOM     93  C   UNL A   1      27.445  31.351  23.635  1.00  0.00     0.181 C 
ATOM     94  O   UNL A   1      27.441  32.238  22.497  1.00  0.00    -0.378 OA
ENDBRANCH  87  89
ENDBRANCH  82  83
ENDBRANCH  75  78
ENDBRANCH  73  74
ENDBRANCH  72  73
ENDBRANCH   1  72
TORSDOF 13
ENDMDL
