MODEL 1
REMARK VINA RESULT:     -12.4      0.000      0.000
REMARK SMILES O=C(NCCCCNC(=O)c1cc(O)ccc1NC(=O)c1ccc(Br)nc1)c1ccc(-c2c3nc(c(-c4c(F)c(F)c(F)c(F)c4F)c4ccc([nH]4)c(-c4c(F)c(F)c(F)c(F)c4F)c4nc(c(-c5c(F)c(F)c(F)c(F)c5F)c5ccc2[nH]5)C=C4)C=C3)cc1
REMARK SMILES IDX 5 1 4 2 3 3 1 4 2 5 28 7 29 8 90 9 30 10 89 11 31 12 32 13
REMARK SMILES IDX 33 14 83 15 34 16 88 17 82 18 84 19 35 20 87 21 81 22 80 23
REMARK SMILES IDX 36 25 68 26 48 27 67 28 49 29 52 30 66 31 85 32 50 33 51 34
REMARK SMILES IDX 65 36 86 37 53 38 37 39 38 40 46 41 39 42 40 43 44 44 47 45
REMARK SMILES IDX 41 46 42 47 45 48 43 49 69 50 70 51 78 52 71 53 72 54 76 55
REMARK SMILES IDX 79 56 73 57 74 58 77 59 75 60 54 61 55 62 63 63 56 64 57 65
REMARK SMILES IDX 61 66 64 67 58 68 59 69 62 70 60 71 6 72 7 73 8 74 9 75
REMARK SMILES IDX 10 77 11 78 12 79 17 80 13 81 16 82 15 83 18 84 19 85 20 87
REMARK SMILES IDX 21 88 22 89 27 90 23 91 26 92 24 93 25 94 14 95
REMARK H PARENT 3 6 84 24 52 35 8 76 18 86 14 96
REMARK Flexibility Score: inf
ROOT
ATOM      1  C   UNL A   1      32.401  29.259  24.856  1.00  0.00     0.023 C 
ENDROOT
BRANCH   1   2
ATOM      2  C   UNL A   1      33.129  29.754  26.096  1.00  0.00     0.116 C 
BRANCH   2   3
ATOM      3  N   UNL A   1      32.777  31.114  26.477  1.00  0.00    -0.352 N 
ATOM      4  O   UNL A   1      32.944  33.054  27.627  1.00  0.00    -0.269 OA
ATOM      5  C   UNL A   1      33.432  31.972  27.336  1.00  0.00     0.251 C 
ATOM      6  H   UNL A   1      31.958  31.472  26.064  1.00  0.00     0.163 HD
BRANCH   5   7
ATOM      7  C   UNL A   1      34.721  31.554  27.932  1.00  0.00     0.039 A 
ATOM      8  C   UNL A   1      34.868  30.268  28.453  1.00  0.00     0.014 A 
ATOM      9  C   UNL A   1      35.776  32.468  28.007  1.00  0.00     0.014 A 
ATOM     10  C   UNL A   1      35.989  29.961  29.209  1.00  0.00     0.010 A 
ATOM     11  C   UNL A   1      36.954  32.116  28.676  1.00  0.00     0.010 A 
ATOM     12  C   UNL A   1      37.055  30.873  29.318  1.00  0.00    -0.014 A 
BRANCH  12  13
ATOM     13  C   UNL A   1      38.274  30.447  30.053  1.00  0.00     0.031 A 
ATOM     14  C   UNL A   1      38.528  30.865  31.475  1.00  0.00     0.074 A 
ATOM     15  C   UNL A   1      39.120  29.600  29.435  1.00  0.00     0.049 A 
ATOM     16  N   UNL A   1      39.499  30.502  32.276  1.00  0.00    -0.248 NA
ATOM     17  C   UNL A   1      37.581  31.815  32.078  1.00  0.00     0.031 C 
ATOM     18  C   UNL A   1      38.988  29.148  28.047  1.00  0.00     0.029 A 
ATOM     19  N   UNL A   1      40.228  28.937  29.894  1.00  0.00    -0.354 N 
ATOM     20  C   UNL A   1      39.288  31.183  33.469  1.00  0.00     0.074 A 
ATOM     21  C   UNL A   1      38.112  32.006  33.279  1.00  0.00     0.031 C 
ATOM     22  C   UNL A   1      39.931  28.233  27.790  1.00  0.00     0.029 A 
ATOM     23  C   UNL A   1      40.776  28.082  28.969  1.00  0.00     0.049 A 
ATOM     24  H   UNL A   1      40.597  29.063  30.798  1.00  0.00     0.167 HD
ATOM     25  C   UNL A   1      40.007  31.116  34.616  1.00  0.00     0.037 A 
ATOM     26  C   UNL A   1      41.845  27.271  29.052  1.00  0.00     0.037 A 
ATOM     27  C   UNL A   1      41.172  30.287  34.802  1.00  0.00     0.049 A 
ATOM     28  C   UNL A   1      42.613  27.216  30.339  1.00  0.00     0.074 A 
ATOM     29  C   UNL A   1      41.963  30.145  35.930  1.00  0.00     0.029 A 
ATOM     30  N   UNL A   1      41.712  29.453  33.832  1.00  0.00    -0.354 N 
ATOM     31  N   UNL A   1      42.389  27.853  31.463  1.00  0.00    -0.248 NA
ATOM     32  C   UNL A   1      43.785  26.332  30.369  1.00  0.00     0.031 C 
ATOM     33  C   UNL A   1      43.000  29.256  35.632  1.00  0.00     0.029 A 
ATOM     34  C   UNL A   1      42.832  28.806  34.333  1.00  0.00     0.049 A 
ATOM     35  H   UNL A   1      41.353  29.338  32.923  1.00  0.00     0.167 HD
ATOM     36  C   UNL A   1      43.389  27.449  32.333  1.00  0.00     0.074 A 
ATOM     37  C   UNL A   1      44.196  26.479  31.621  1.00  0.00     0.031 C 
ATOM     38  C   UNL A   1      43.628  27.855  33.604  1.00  0.00     0.037 A 
BRANCH  25  39
ATOM     39  C   UNL A   1      39.563  31.966  35.773  1.00  0.00     0.064 A 
ATOM     40  C   UNL A   1      40.084  33.252  35.981  1.00  0.00     0.173 A 
ATOM     41  C   UNL A   1      38.554  31.520  36.640  1.00  0.00     0.173 A 
ATOM     42  F   UNL A   1      41.057  33.722  35.187  1.00  0.00    -0.203 F 
ATOM     43  C   UNL A   1      39.618  34.054  37.020  1.00  0.00     0.198 A 
ATOM     44  C   UNL A   1      38.073  32.334  37.663  1.00  0.00     0.198 A 
ATOM     45  F   UNL A   1      38.017  30.300  36.482  1.00  0.00    -0.203 F 
ATOM     46  F   UNL A   1      40.149  35.269  37.217  1.00  0.00    -0.200 F 
ATOM     47  C   UNL A   1      38.607  33.600  37.854  1.00  0.00     0.200 A 
ATOM     48  F   UNL A   1      37.088  31.897  38.459  1.00  0.00    -0.200 F 
ATOM     49  F   UNL A   1      38.150  34.379  38.844  1.00  0.00    -0.200 F 
ENDBRANCH  25  39
BRANCH  26  50
ATOM     50  C   UNL A   1      42.251  26.463  27.873  1.00  0.00     0.064 A 
ATOM     51  C   UNL A   1      43.225  26.922  26.978  1.00  0.00     0.173 A 
ATOM     52  C   UNL A   1      41.675  25.208  27.625  1.00  0.00     0.173 A 
ATOM     53  F   UNL A   1      43.794  28.123  27.164  1.00  0.00    -0.203 F 
ATOM     54  C   UNL A   1      43.595  26.165  25.868  1.00  0.00     0.198 A 
ATOM     55  C   UNL A   1      42.070  24.437  26.535  1.00  0.00     0.198 A 
ATOM     56  F   UNL A   1      40.743  24.720  28.457  1.00  0.00    -0.203 F 
ATOM     57  F   UNL A   1      44.496  26.647  25.001  1.00  0.00    -0.200 F 
ATOM     58  C   UNL A   1      43.022  24.921  25.652  1.00  0.00     0.200 A 
ATOM     59  F   UNL A   1      41.528  23.227  26.344  1.00  0.00    -0.200 F 
ATOM     60  F   UNL A   1      43.384  24.189  24.590  1.00  0.00    -0.200 F 
ENDBRANCH  26  50
BRANCH  38  61
ATOM     61  C   UNL A   1      44.811  27.241  34.294  1.00  0.00     0.064 A 
ATOM     62  C   UNL A   1      46.077  27.844  34.249  1.00  0.00     0.173 A 
ATOM     63  C   UNL A   1      44.680  26.038  35.001  1.00  0.00     0.173 A 
ATOM     64  F   UNL A   1      46.257  28.987  33.568  1.00  0.00    -0.203 F 
ATOM     65  C   UNL A   1      47.176  27.245  34.856  1.00  0.00     0.198 A 
ATOM     66  C   UNL A   1      45.775  25.456  35.633  1.00  0.00     0.198 A 
ATOM     67  F   UNL A   1      43.489  25.424  35.077  1.00  0.00    -0.203 F 
ATOM     68  F   UNL A   1      48.388  27.808  34.748  1.00  0.00    -0.200 F 
ATOM     69  C   UNL A   1      47.024  26.054  35.550  1.00  0.00     0.200 A 
ATOM     70  F   UNL A   1      45.625  24.310  36.311  1.00  0.00    -0.200 F 
ATOM     71  F   UNL A   1      48.085  25.475  36.129  1.00  0.00    -0.200 F 
ENDBRANCH  38  61
ENDBRANCH  12  13
ENDBRANCH   5   7
ENDBRANCH   2   3
ENDBRANCH   1   2
BRANCH   1  72
ATOM     72  C   UNL A   1      33.285  29.007  23.642  1.00  0.00     0.023 C 
BRANCH  72  73
ATOM     73  C   UNL A   1      32.571  28.432  22.424  1.00  0.00     0.116 C 
BRANCH  73  74
ATOM     74  N   UNL A   1      33.174  27.202  21.924  1.00  0.00    -0.352 N 
ATOM     75  C   UNL A   1      33.119  25.941  22.475  1.00  0.00     0.253 C 
ATOM     76  H   UNL A   1      33.685  27.283  21.086  1.00  0.00     0.163 HD
ATOM     77  O   UNL A   1      33.782  25.018  22.017  1.00  0.00    -0.269 OA
BRANCH  75  78
ATOM     78  C   UNL A   1      32.297  25.739  23.685  1.00  0.00     0.067 A 
ATOM     79  C   UNL A   1      30.900  25.758  23.537  1.00  0.00     0.062 A 
ATOM     80  C   UNL A   1      32.906  25.668  24.951  1.00  0.00     0.054 A 
ATOM     81  C   UNL A   1      30.108  25.874  24.665  1.00  0.00     0.116 A 
ATOM     82  C   UNL A   1      32.081  25.888  26.057  1.00  0.00     0.031 A 
ATOM     83  C   UNL A   1      30.691  25.982  25.919  1.00  0.00     0.048 A 
BRANCH  80  84
ATOM     84  N   UNL A   1      34.296  25.402  25.041  1.00  0.00    -0.321 N 
ATOM     85  C   UNL A   1      35.016  24.261  25.325  1.00  0.00     0.257 C 
ATOM     86  H   UNL A   1      34.860  26.190  24.866  1.00  0.00     0.170 HD
ATOM     87  O   UNL A   1      36.233  24.310  25.483  1.00  0.00    -0.269 OA
BRANCH  85  88
ATOM     88  C   UNL A   1      34.367  22.949  25.416  1.00  0.00     0.058 A 
ATOM     89  C   UNL A   1      34.119  22.318  26.636  1.00  0.00     0.018 A 
ATOM     90  C   UNL A   1      34.041  22.287  24.243  1.00  0.00     0.126 A 
ATOM     91  C   UNL A   1      33.653  21.004  26.629  1.00  0.00     0.037 A 
ATOM     92  N   UNL A   1      33.587  21.011  24.212  1.00  0.00    -0.249 NA
ATOM     93  C   UNL A   1      33.420  20.392  25.403  1.00  0.00     0.106 A 
ATOM     94  Br  UNL A   1      32.898  18.568  25.376  1.00  0.00    -0.029 Br
ENDBRANCH  85  88
ENDBRANCH  80  84
BRANCH  81  95
ATOM     95  O   UNL A   1      28.752  25.953  24.585  1.00  0.00    -0.508 OA
ATOM     96  H   UNL A   1      28.219  25.468  25.182  1.00  0.00     0.293 HD
ENDBRANCH  81  95
ENDBRANCH  75  78
ENDBRANCH  73  74
ENDBRANCH  72  73
ENDBRANCH   1  72
TORSDOF 14
ENDMDL
MODEL 2
REMARK VINA RESULT:     -12.4      1.933      3.151
REMARK SMILES O=C(NCCCCNC(=O)c1cc(O)ccc1NC(=O)c1ccc(Br)nc1)c1ccc(-c2c3nc(c(-c4c(F)c(F)c(F)c(F)c4F)c4ccc([nH]4)c(-c4c(F)c(F)c(F)c(F)c4F)c4nc(c(-c5c(F)c(F)c(F)c(F)c5F)c5ccc2[nH]5)C=C4)C=C3)cc1
REMARK SMILES IDX 5 1 4 2 3 3 1 4 2 5 28 7 29 8 90 9 30 10 89 11 31 12 32 13
REMARK SMILES IDX 33 14 83 15 34 16 88 17 82 18 84 19 35 20 87 21 81 22 80 23
REMARK SMILES IDX 36 25 68 26 48 27 67 28 49 29 52 30 66 31 85 32 50 33 51 34
REMARK SMILES IDX 65 36 86 37 53 38 37 39 38 40 46 41 39 42 40 43 44 44 47 45
REMARK SMILES IDX 41 46 42 47 45 48 43 49 69 50 70 51 78 52 71 53 72 54 76 55
REMARK SMILES IDX 79 56 73 57 74 58 77 59 75 60 54 61 55 62 63 63 56 64 57 65
REMARK SMILES IDX 61 66 64 67 58 68 59 69 62 70 60 71 6 72 7 73 8 74 9 75
REMARK SMILES IDX 10 77 11 78 12 79 17 80 13 81 16 82 15 83 18 84 19 85 20 87
REMARK SMILES IDX 21 88 22 89 27 90 23 91 26 92 24 93 25 94 14 95
REMARK H PARENT 3 6 84 24 52 35 8 76 18 86 14 96
REMARK Flexibility Score: inf
ROOT
ATOM      1  C   UNL A   1      31.696  31.587  26.576  1.00  0.00     0.023 C 
ENDROOT
BRANCH   1   2
ATOM      2  C   UNL A   1      32.867  32.472  26.979  1.00  0.00     0.116 C 
BRANCH   2   3
ATOM      3  N   UNL A   1      32.469  33.792  27.446  1.00  0.00    -0.352 N 
ATOM      4  O   UNL A   1      32.473  35.598  28.806  1.00  0.00    -0.269 OA
ATOM      5  C   UNL A   1      32.994  34.543  28.477  1.00  0.00     0.251 C 
ATOM      6  H   UNL A   1      31.721  34.207  26.957  1.00  0.00     0.163 HD
BRANCH   5   7
ATOM      7  C   UNL A   1      34.179  34.040  29.207  1.00  0.00     0.039 A 
ATOM      8  C   UNL A   1      35.446  34.548  28.923  1.00  0.00     0.014 A 
ATOM      9  C   UNL A   1      34.025  33.023  30.155  1.00  0.00     0.014 A 
ATOM     10  C   UNL A   1      36.568  33.916  29.440  1.00  0.00     0.010 A 
ATOM     11  C   UNL A   1      35.154  32.461  30.761  1.00  0.00     0.010 A 
ATOM     12  C   UNL A   1      36.438  32.876  30.378  1.00  0.00    -0.014 A 
BRANCH  12  13
ATOM     13  C   UNL A   1      37.675  32.309  30.975  1.00  0.00     0.031 A 
ATOM     14  C   UNL A   1      38.136  32.689  32.355  1.00  0.00     0.074 A 
ATOM     15  C   UNL A   1      38.343  31.371  30.273  1.00  0.00     0.049 A 
ATOM     16  N   UNL A   1      39.143  32.213  33.045  1.00  0.00    -0.248 NA
ATOM     17  C   UNL A   1      37.380  33.740  33.052  1.00  0.00     0.031 C 
ATOM     18  C   UNL A   1      38.003  30.943  28.914  1.00  0.00     0.029 A 
ATOM     19  N   UNL A   1      39.412  30.583  30.610  1.00  0.00    -0.354 N 
ATOM     20  C   UNL A   1      39.149  32.910  34.247  1.00  0.00     0.074 A 
ATOM     21  C   UNL A   1      38.062  33.863  34.183  1.00  0.00     0.031 C 
ATOM     22  C   UNL A   1      38.798  29.925  28.560  1.00  0.00     0.029 A 
ATOM     23  C   UNL A   1      39.748  29.674  29.637  1.00  0.00     0.049 A 
ATOM     24  H   UNL A   1      39.893  30.662  31.466  1.00  0.00     0.167 HD
ATOM     25  C   UNL A   1      39.981  32.756  35.306  1.00  0.00     0.037 A 
ATOM     26  C   UNL A   1      40.719  28.744  29.607  1.00  0.00     0.037 A 
ATOM     27  C   UNL A   1      41.055  31.797  35.367  1.00  0.00     0.049 A 
ATOM     28  C   UNL A   1      41.617  28.596  30.800  1.00  0.00     0.074 A 
ATOM     29  C   UNL A   1      41.947  31.560  36.400  1.00  0.00     0.029 A 
ATOM     30  N   UNL A   1      41.382  30.909  34.350  1.00  0.00    -0.354 N 
ATOM     31  N   UNL A   1      41.597  29.250  31.935  1.00  0.00    -0.248 NA
ATOM     32  C   UNL A   1      42.674  27.582  30.705  1.00  0.00     0.031 C 
ATOM     33  C   UNL A   1      42.834  30.557  35.995  1.00  0.00     0.029 A 
ATOM     34  C   UNL A   1      42.470  30.135  34.727  1.00  0.00     0.049 A 
ATOM     35  H   UNL A   1      40.912  30.840  33.488  1.00  0.00     0.167 HD
ATOM     36  C   UNL A   1      42.636  28.730  32.691  1.00  0.00     0.074 A 
ATOM     37  C   UNL A   1      43.239  27.676  31.901  1.00  0.00     0.031 C 
ATOM     38  C   UNL A   1      43.063  29.101  33.922  1.00  0.00     0.037 A 
BRANCH  25  39
ATOM     39  C   UNL A   1      39.772  33.647  36.498  1.00  0.00     0.064 A 
ATOM     40  C   UNL A   1      40.363  34.917  36.576  1.00  0.00     0.173 A 
ATOM     41  C   UNL A   1      38.914  33.258  37.538  1.00  0.00     0.173 A 
ATOM     42  F   UNL A   1      41.199  35.333  35.613  1.00  0.00    -0.203 F 
ATOM     43  C   UNL A   1      40.111  35.759  37.656  1.00  0.00     0.198 A 
ATOM     44  C   UNL A   1      38.644  34.113  38.605  1.00  0.00     0.198 A 
ATOM     45  F   UNL A   1      38.318  32.056  37.509  1.00  0.00    -0.203 F 
ATOM     46  F   UNL A   1      40.708  36.957  37.724  1.00  0.00    -0.200 F 
ATOM     47  C   UNL A   1      39.245  35.361  38.665  1.00  0.00     0.200 A 
ATOM     48  F   UNL A   1      37.798  33.731  39.570  1.00  0.00    -0.200 F 
ATOM     49  F   UNL A   1      38.992  36.179  39.696  1.00  0.00    -0.200 F 
ENDBRANCH  25  39
BRANCH  26  50
ATOM     50  C   UNL A   1      40.893  27.899  28.398  1.00  0.00     0.064 A 
ATOM     51  C   UNL A   1      40.276  26.646  28.293  1.00  0.00     0.173 A 
ATOM     52  C   UNL A   1      41.676  28.334  27.318  1.00  0.00     0.173 A 
ATOM     53  F   UNL A   1      39.530  26.178  29.305  1.00  0.00    -0.203 F 
ATOM     54  C   UNL A   1      40.451  25.851  27.161  1.00  0.00     0.198 A 
ATOM     55  C   UNL A   1      41.822  27.555  26.174  1.00  0.00     0.198 A 
ATOM     56  F   UNL A   1      42.281  29.530  27.366  1.00  0.00    -0.203 F 
ATOM     57  F   UNL A   1      39.888  24.637  27.104  1.00  0.00    -0.200 F 
ATOM     58  C   UNL A   1      41.218  26.310  26.100  1.00  0.00     0.200 A 
ATOM     59  F   UNL A   1      42.547  28.013  25.144  1.00  0.00    -0.200 F 
ATOM     60  F   UNL A   1      41.379  25.551  25.008  1.00  0.00    -0.200 F 
ENDBRANCH  26  50
BRANCH  38  61
ATOM     61  C   UNL A   1      44.238  28.351  34.480  1.00  0.00     0.064 A 
ATOM     62  C   UNL A   1      44.066  27.172  35.220  1.00  0.00     0.173 A 
ATOM     63  C   UNL A   1      45.543  28.817  34.275  1.00  0.00     0.173 A 
ATOM     64  F   UNL A   1      42.833  26.697  35.458  1.00  0.00    -0.203 F 
ATOM     65  C   UNL A   1      45.159  26.507  35.769  1.00  0.00     0.198 A 
ATOM     66  C   UNL A   1      46.636  28.134  34.800  1.00  0.00     0.198 A 
ATOM     67  F   UNL A   1      45.760  29.938  33.570  1.00  0.00    -0.203 F 
ATOM     68  F   UNL A   1      44.967  25.418  36.525  1.00  0.00    -0.200 F 
ATOM     69  C   UNL A   1      46.443  26.986  35.555  1.00  0.00     0.200 A 
ATOM     70  F   UNL A   1      47.877  28.592  34.586  1.00  0.00    -0.200 F 
ATOM     71  F   UNL A   1      47.493  26.349  36.090  1.00  0.00    -0.200 F 
ENDBRANCH  38  61
ENDBRANCH  12  13
ENDBRANCH   5   7
ENDBRANCH   2   3
ENDBRANCH   1   2
BRANCH   1  72
ATOM     72  C   UNL A   1      31.958  30.089  26.656  1.00  0.00     0.023 C 
BRANCH  72  73
ATOM     73  C   UNL A   1      31.397  29.268  25.500  1.00  0.00     0.116 C 
BRANCH  73  74
ATOM     74  N   UNL A   1      30.951  30.078  24.374  1.00  0.00    -0.352 N 
ATOM     75  C   UNL A   1      30.265  29.673  23.250  1.00  0.00     0.253 C 
ATOM     76  H   UNL A   1      31.167  31.038  24.422  1.00  0.00     0.163 HD
ATOM     77  O   UNL A   1      30.065  30.439  22.316  1.00  0.00    -0.269 OA
BRANCH  75  78
ATOM     78  C   UNL A   1      29.838  28.262  23.161  1.00  0.00     0.067 A 
ATOM     79  C   UNL A   1      28.539  27.943  23.592  1.00  0.00     0.062 A 
ATOM     80  C   UNL A   1      30.757  27.266  22.782  1.00  0.00     0.054 A 
ATOM     81  C   UNL A   1      28.211  26.616  23.806  1.00  0.00     0.116 A 
ATOM     82  C   UNL A   1      30.423  25.949  23.106  1.00  0.00     0.031 A 
ATOM     83  C   UNL A   1      29.157  25.623  23.607  1.00  0.00     0.048 A 
BRANCH  80  84
ATOM     84  N   UNL A   1      31.956  27.640  22.123  1.00  0.00    -0.321 N 
ATOM     85  C   UNL A   1      33.282  27.338  22.347  1.00  0.00     0.257 C 
ATOM     86  H   UNL A   1      31.812  28.233  21.351  1.00  0.00     0.170 HD
ATOM     87  O   UNL A   1      34.170  27.903  21.712  1.00  0.00    -0.269 OA
BRANCH  85  88
ATOM     88  C   UNL A   1      33.682  26.317  23.320  1.00  0.00     0.058 A 
ATOM     89  C   UNL A   1      33.797  26.586  24.685  1.00  0.00     0.018 A 
ATOM     90  C   UNL A   1      34.013  25.053  22.858  1.00  0.00     0.126 A 
ATOM     91  C   UNL A   1      34.342  25.610  25.518  1.00  0.00     0.037 A 
ATOM     92  N   UNL A   1      34.543  24.089  23.648  1.00  0.00    -0.249 NA
ATOM     93  C   UNL A   1      34.713  24.393  24.955  1.00  0.00     0.106 A 
ATOM     94  Br  UNL A   1      35.562  23.100  26.053  1.00  0.00    -0.029 Br
ENDBRANCH  85  88
ENDBRANCH  80  84
BRANCH  81  95
ATOM     95  O   UNL A   1      26.989  26.247  24.275  1.00  0.00    -0.508 OA
ATOM     96  H   UNL A   1      26.717  25.352  24.221  1.00  0.00     0.293 HD
ENDBRANCH  81  95
ENDBRANCH  75  78
ENDBRANCH  73  74
ENDBRANCH  72  73
ENDBRANCH   1  72
TORSDOF 14
ENDMDL
MODEL 3
REMARK VINA RESULT:     -12.4      4.813     10.080
REMARK SMILES O=C(NCCCCNC(=O)c1cc(O)ccc1NC(=O)c1ccc(Br)nc1)c1ccc(-c2c3nc(c(-c4c(F)c(F)c(F)c(F)c4F)c4ccc([nH]4)c(-c4c(F)c(F)c(F)c(F)c4F)c4nc(c(-c5c(F)c(F)c(F)c(F)c5F)c5ccc2[nH]5)C=C4)C=C3)cc1
REMARK SMILES IDX 5 1 4 2 3 3 1 4 2 5 28 7 29 8 90 9 30 10 89 11 31 12 32 13
REMARK SMILES IDX 33 14 83 15 34 16 88 17 82 18 84 19 35 20 87 21 81 22 80 23
REMARK SMILES IDX 36 25 68 26 48 27 67 28 49 29 52 30 66 31 85 32 50 33 51 34
REMARK SMILES IDX 65 36 86 37 53 38 37 39 38 40 46 41 39 42 40 43 44 44 47 45
REMARK SMILES IDX 41 46 42 47 45 48 43 49 69 50 70 51 78 52 71 53 72 54 76 55
REMARK SMILES IDX 79 56 73 57 74 58 77 59 75 60 54 61 55 62 63 63 56 64 57 65
REMARK SMILES IDX 61 66 64 67 58 68 59 69 62 70 60 71 6 72 7 73 8 74 9 75
REMARK SMILES IDX 10 77 11 78 12 79 17 80 13 81 16 82 15 83 18 84 19 85 20 87
REMARK SMILES IDX 21 88 22 89 27 90 23 91 26 92 24 93 25 94 14 95
REMARK H PARENT 3 6 84 24 52 35 8 76 18 86 14 96
REMARK Flexibility Score: inf
ROOT
ATOM      1  C   UNL A   1      37.772  19.984  25.001  1.00  0.00     0.023 C 
ENDROOT
BRANCH   1   2
ATOM      2  C   UNL A   1      39.033  20.385  25.751  1.00  0.00     0.116 C 
BRANCH   2   3
ATOM      3  N   UNL A   1      40.026  19.323  25.836  1.00  0.00    -0.352 N 
ATOM      4  O   UNL A   1      42.094  18.429  26.026  1.00  0.00    -0.269 OA
ATOM      5  C   UNL A   1      41.379  19.417  26.090  1.00  0.00     0.251 C 
ATOM      6  H   UNL A   1      39.684  18.411  25.694  1.00  0.00     0.163 HD
BRANCH   5   7
ATOM      7  C   UNL A   1      41.964  20.739  26.408  1.00  0.00     0.039 A 
ATOM      8  C   UNL A   1      42.228  21.090  27.731  1.00  0.00     0.014 A 
ATOM      9  C   UNL A   1      42.213  21.650  25.376  1.00  0.00     0.014 A 
ATOM     10  C   UNL A   1      42.557  22.402  28.039  1.00  0.00     0.010 A 
ATOM     11  C   UNL A   1      42.654  22.943  25.682  1.00  0.00     0.010 A 
ATOM     12  C   UNL A   1      42.790  23.342  27.019  1.00  0.00    -0.014 A 
BRANCH  12  13
ATOM     13  C   UNL A   1      43.242  24.704  27.407  1.00  0.00     0.031 A 
ATOM     14  C   UNL A   1      44.635  25.190  27.116  1.00  0.00     0.074 A 
ATOM     15  C   UNL A   1      42.338  25.534  27.963  1.00  0.00     0.049 A 
ATOM     16  N   UNL A   1      45.147  26.380  27.313  1.00  0.00    -0.248 NA
ATOM     17  C   UNL A   1      45.579  24.223  26.537  1.00  0.00     0.031 C 
ATOM     18  C   UNL A   1      40.965  25.162  28.315  1.00  0.00     0.029 A 
ATOM     19  N   UNL A   1      42.414  26.862  28.292  1.00  0.00    -0.354 N 
ATOM     20  C   UNL A   1      46.469  26.303  26.895  1.00  0.00     0.074 A 
ATOM     21  C   UNL A   1      46.692  24.941  26.459  1.00  0.00     0.031 C 
ATOM     22  C   UNL A   1      40.309  26.248  28.744  1.00  0.00     0.029 A 
ATOM     23  C   UNL A   1      41.231  27.378  28.762  1.00  0.00     0.049 A 
ATOM     24  H   UNL A   1      43.238  27.394  28.201  1.00  0.00     0.167 HD
ATOM     25  C   UNL A   1      47.404  27.285  26.869  1.00  0.00     0.037 A 
ATOM     26  C   UNL A   1      40.920  28.620  29.172  1.00  0.00     0.037 A 
ATOM     27  C   UNL A   1      47.172  28.642  27.295  1.00  0.00     0.049 A 
ATOM     28  C   UNL A   1      41.977  29.684  29.123  1.00  0.00     0.074 A 
ATOM     29  C   UNL A   1      48.054  29.711  27.300  1.00  0.00     0.029 A 
ATOM     30  N   UNL A   1      45.967  29.121  27.791  1.00  0.00    -0.354 N 
ATOM     31  N   UNL A   1      43.217  29.599  28.707  1.00  0.00    -0.248 NA
ATOM     32  C   UNL A   1      41.591  31.017  29.603  1.00  0.00     0.031 C 
ATOM     33  C   UNL A   1      47.394  30.824  27.831  1.00  0.00     0.029 A 
ATOM     34  C   UNL A   1      46.088  30.465  28.116  1.00  0.00     0.049 A 
ATOM     35  H   UNL A   1      45.147  28.587  27.896  1.00  0.00     0.167 HD
ATOM     36  C   UNL A   1      43.761  30.862  28.876  1.00  0.00     0.074 A 
ATOM     37  C   UNL A   1      42.702  31.707  29.391  1.00  0.00     0.031 C 
ATOM     38  C   UNL A   1      45.027  31.284  28.639  1.00  0.00     0.037 A 
BRANCH  25  39
ATOM     39  C   UNL A   1      48.775  26.935  26.366  1.00  0.00     0.064 A 
ATOM     40  C   UNL A   1      49.762  26.420  27.221  1.00  0.00     0.173 A 
ATOM     41  C   UNL A   1      49.085  27.046  25.002  1.00  0.00     0.173 A 
ATOM     42  F   UNL A   1      49.520  26.304  28.536  1.00  0.00    -0.203 F 
ATOM     43  C   UNL A   1      51.008  26.041  26.731  1.00  0.00     0.198 A 
ATOM     44  C   UNL A   1      50.324  26.642  24.510  1.00  0.00     0.198 A 
ATOM     45  F   UNL A   1      48.176  27.527  24.139  1.00  0.00    -0.203 F 
ATOM     46  F   UNL A   1      51.945  25.577  27.570  1.00  0.00    -0.200 F 
ATOM     47  C   UNL A   1      51.286  26.143  25.375  1.00  0.00     0.200 A 
ATOM     48  F   UNL A   1      50.585  26.730  23.200  1.00  0.00    -0.200 F 
ATOM     49  F   UNL A   1      52.482  25.763  24.903  1.00  0.00    -0.200 F 
ENDBRANCH  25  39
BRANCH  26  50
ATOM     50  C   UNL A   1      39.553  28.910  29.675  1.00  0.00     0.064 A 
ATOM     51  C   UNL A   1      39.210  28.691  31.015  1.00  0.00     0.173 A 
ATOM     52  C   UNL A   1      38.563  29.421  28.823  1.00  0.00     0.173 A 
ATOM     53  F   UNL A   1      40.117  28.188  31.866  1.00  0.00    -0.203 F 
ATOM     54  C   UNL A   1      37.923  28.953  31.480  1.00  0.00     0.198 A 
ATOM     55  C   UNL A   1      37.287  29.716  29.295  1.00  0.00     0.198 A 
ATOM     56  F   UNL A   1      38.843  29.656  27.532  1.00  0.00    -0.203 F 
ATOM     57  F   UNL A   1      37.607  28.692  32.755  1.00  0.00    -0.200 F 
ATOM     58  C   UNL A   1      36.965  29.473  30.622  1.00  0.00     0.200 A 
ATOM     59  F   UNL A   1      36.373  30.237  28.466  1.00  0.00    -0.200 F 
ATOM     60  F   UNL A   1      35.731  29.734  31.070  1.00  0.00    -0.200 F 
ENDBRANCH  26  50
BRANCH  38  61
ATOM     61  C   UNL A   1      45.322  32.725  28.937  1.00  0.00     0.064 A 
ATOM     62  C   UNL A   1      45.114  33.726  27.977  1.00  0.00     0.173 A 
ATOM     63  C   UNL A   1      45.820  33.107  30.190  1.00  0.00     0.173 A 
ATOM     64  F   UNL A   1      44.656  33.407  26.756  1.00  0.00    -0.203 F 
ATOM     65  C   UNL A   1      45.430  35.054  28.249  1.00  0.00     0.198 A 
ATOM     66  C   UNL A   1      46.107  34.439  30.470  1.00  0.00     0.198 A 
ATOM     67  F   UNL A   1      46.031  32.186  31.144  1.00  0.00    -0.203 F 
ATOM     68  F   UNL A   1      45.283  35.984  27.296  1.00  0.00    -0.200 F 
ATOM     69  C   UNL A   1      45.923  35.410  29.495  1.00  0.00     0.200 A 
ATOM     70  F   UNL A   1      46.575  34.784  31.677  1.00  0.00    -0.200 F 
ATOM     71  F   UNL A   1      46.234  36.687  29.753  1.00  0.00    -0.200 F 
ENDBRANCH  38  61
ENDBRANCH  12  13
ENDBRANCH   5   7
ENDBRANCH   2   3
ENDBRANCH   1   2
BRANCH   1  72
ATOM     72  C   UNL A   1      36.991  21.136  24.383  1.00  0.00     0.023 C 
BRANCH  72  73
ATOM     73  C   UNL A   1      35.537  21.249  24.828  1.00  0.00     0.116 C 
BRANCH  73  74
ATOM     74  N   UNL A   1      34.967  19.986  25.279  1.00  0.00    -0.352 N 
ATOM     75  C   UNL A   1      33.675  19.532  25.131  1.00  0.00     0.253 C 
ATOM     76  H   UNL A   1      35.584  19.380  25.750  1.00  0.00     0.163 HD
ATOM     77  O   UNL A   1      33.297  18.501  25.674  1.00  0.00    -0.269 OA
BRANCH  75  78
ATOM     78  C   UNL A   1      32.726  20.359  24.358  1.00  0.00     0.067 A 
ATOM     79  C   UNL A   1      32.518  20.028  23.009  1.00  0.00     0.062 A 
ATOM     80  C   UNL A   1      32.162  21.513  24.933  1.00  0.00     0.054 A 
ATOM     81  C   UNL A   1      31.883  20.940  22.186  1.00  0.00     0.116 A 
ATOM     82  C   UNL A   1      31.618  22.450  24.051  1.00  0.00     0.031 A 
ATOM     83  C   UNL A   1      31.471  22.165  22.689  1.00  0.00     0.048 A 
BRANCH  80  84
ATOM     84  N   UNL A   1      32.189  21.674  26.342  1.00  0.00    -0.321 N 
ATOM     85  C   UNL A   1      32.543  22.725  27.159  1.00  0.00     0.257 C 
ATOM     86  H   UNL A   1      31.896  20.873  26.835  1.00  0.00     0.170 HD
ATOM     87  O   UNL A   1      32.616  22.578  28.376  1.00  0.00    -0.269 OA
BRANCH  85  88
ATOM     88  C   UNL A   1      32.814  24.060  26.615  1.00  0.00     0.058 A 
ATOM     89  C   UNL A   1      34.057  24.419  26.091  1.00  0.00     0.018 A 
ATOM     90  C   UNL A   1      31.814  25.017  26.677  1.00  0.00     0.126 A 
ATOM     91  C   UNL A   1      34.282  25.751  25.749  1.00  0.00     0.037 A 
ATOM     92  N   UNL A   1      32.009  26.317  26.350  1.00  0.00    -0.249 NA
ATOM     93  C   UNL A   1      33.242  26.660  25.911  1.00  0.00     0.106 A 
ATOM     94  Br  UNL A   1      33.568  28.495  25.561  1.00  0.00    -0.029 Br
ENDBRANCH  85  88
ENDBRANCH  80  84
BRANCH  81  95
ATOM     95  O   UNL A   1      31.701  20.703  20.859  1.00  0.00    -0.508 OA
ATOM     96  H   UNL A   1      31.294  21.351  20.318  1.00  0.00     0.293 HD
ENDBRANCH  81  95
ENDBRANCH  75  78
ENDBRANCH  73  74
ENDBRANCH  72  73
ENDBRANCH   1  72
TORSDOF 14
ENDMDL
