MODEL 1
REMARK VINA RESULT:     -11.9      0.000      0.000
REMARK SMILES CCOc1ccccc1NC(=O)N[C@@](C)(CC)C(=O)NCCCCNC(=O)c1ccc(-c2c3nc(c(-c4c(F)c(F)c(F)c(F)c4F)c4ccc([nH]4)c(-c4c(F)c(F)c(F)c(F)c4F)c4nc(c(-c5c(F)c(F)c(F)c(F)c5F)c5ccc2[nH]5)C=C4)C=C3)cc1
REMARK SMILES IDX 21 1 20 2 18 3 19 4 14 6 15 7 13 8 10 9 11 10 12 12 9 14
REMARK SMILES IDX 4 15 5 16 6 17 8 18 7 19 3 20 2 21 1 22 16 23 17 24 22 25
REMARK SMILES IDX 23 26 24 27 25 28 26 29 27 31 28 32 29 33 90 34 30 35 89 36
REMARK SMILES IDX 31 37 32 38 33 39 83 40 34 41 88 42 82 43 84 44 35 45 87 46
REMARK SMILES IDX 81 47 80 48 36 50 68 51 48 52 67 53 49 54 52 55 66 56 85 57
REMARK SMILES IDX 50 58 51 59 65 61 86 62 53 63 37 64 38 65 46 66 39 67 40 68
REMARK SMILES IDX 44 69 47 70 41 71 42 72 45 73 43 74 69 75 70 76 78 77 71 78
REMARK SMILES IDX 72 79 76 80 79 81 73 82 74 83 77 84 75 85 54 86 55 87 63 88
REMARK SMILES IDX 56 89 57 90 61 91 64 92 58 93 59 94 62 95 60 96
REMARK H PARENT 20 5 10 11 13 13 25 30 84 49 52 60
REMARK Flexibility Score: inf
ROOT
ATOM      1  C   UNL A   1      31.352  30.074  24.999  1.00  0.00     0.116 C 
ENDROOT
BRANCH   1   2
ATOM      2  N   UNL A   1      32.117  28.951  24.534  1.00  0.00    -0.354 N 
ATOM      3  C   UNL A   1      31.591  27.694  24.727  1.00  0.00     0.245 C 
ATOM      4  O   UNL A   1      30.373  27.513  24.674  1.00  0.00    -0.272 OA
ATOM      5  H   UNL A   1      32.989  29.075  24.093  1.00  0.00     0.163 HD
BRANCH   3   6
ATOM      6  C   UNL A   1      32.600  26.558  25.069  1.00  0.00     0.117 C 
ATOM      7  C   UNL A   1      33.267  27.117  26.372  1.00  0.00     0.045 C 
BRANCH   6   8
ATOM      8  N   UNL A   1      32.099  25.226  25.477  1.00  0.00    -0.324 N 
ATOM      9  N   UNL A   1      33.690  23.829  26.548  1.00  0.00    -0.305 N 
ATOM     10  C   UNL A   1      32.477  24.367  26.424  1.00  0.00     0.320 C 
ATOM     11  H   UNL A   1      33.856  23.527  27.470  1.00  0.00     0.172 HD
ATOM     12  O   UNL A   1      31.616  24.032  27.244  1.00  0.00    -0.248 OA
ATOM     13  H   UNL A   1      31.334  24.911  24.942  1.00  0.00     0.166 HD
BRANCH   9  14
ATOM     14  C   UNL A   1      34.790  23.579  25.720  1.00  0.00     0.085 A 
ATOM     15  C   UNL A   1      34.540  22.797  24.582  1.00  0.00     0.142 A 
ATOM     16  C   UNL A   1      35.575  22.243  23.831  1.00  0.00     0.048 A 
ATOM     17  C   UNL A   1      36.883  22.604  24.128  1.00  0.00     0.004 A 
ATOM     18  C   UNL A   1      36.070  24.075  25.886  1.00  0.00     0.030 A 
ATOM     19  C   UNL A   1      37.123  23.565  25.112  1.00  0.00     0.002 A 
BRANCH  15  20
ATOM     20  O   UNL A   1      33.240  22.637  24.155  1.00  0.00    -0.492 OA
BRANCH  20  21
ATOM     21  C   UNL A   1      32.993  21.234  23.898  1.00  0.00     0.226 C 
ATOM     22  C   UNL A   1      32.335  20.557  25.094  1.00  0.00     0.049 C 
ENDBRANCH  20  21
ENDBRANCH  15  20
ENDBRANCH   9  14
ENDBRANCH   6   8
BRANCH   6  23
ATOM     23  C   UNL A   1      33.757  26.517  24.017  1.00  0.00     0.035 C 
ATOM     24  C   UNL A   1      33.490  25.854  22.672  1.00  0.00     0.007 C 
ENDBRANCH   6  23
ENDBRANCH   3   6
ENDBRANCH   1   2
BRANCH   1  25
ATOM     25  C   UNL A   1      31.746  30.537  26.391  1.00  0.00     0.023 C 
BRANCH  25  26
ATOM     26  C   UNL A   1      31.528  32.025  26.646  1.00  0.00     0.023 C 
BRANCH  26  27
ATOM     27  C   UNL A   1      32.670  32.736  27.372  1.00  0.00     0.116 C 
BRANCH  27  28
ATOM     28  N   UNL A   1      32.379  34.130  27.688  1.00  0.00    -0.352 N 
ATOM     29  C   UNL A   1      32.974  34.973  28.589  1.00  0.00     0.251 C 
ATOM     30  H   UNL A   1      31.639  34.526  27.174  1.00  0.00     0.163 HD
ATOM     31  O   UNL A   1      32.511  36.094  28.791  1.00  0.00    -0.269 OA
BRANCH  29  32
ATOM     32  C   UNL A   1      34.151  34.517  29.351  1.00  0.00     0.039 A 
ATOM     33  C   UNL A   1      33.955  33.977  30.622  1.00  0.00     0.014 A 
ATOM     34  C   UNL A   1      35.434  34.593  28.802  1.00  0.00     0.014 A 
ATOM     35  C   UNL A   1      35.039  33.433  31.312  1.00  0.00     0.010 A 
ATOM     36  C   UNL A   1      36.498  33.980  29.455  1.00  0.00     0.010 A 
ATOM     37  C   UNL A   1      36.309  33.386  30.713  1.00  0.00    -0.014 A 
BRANCH  37  38
ATOM     38  C   UNL A   1      37.441  32.697  31.380  1.00  0.00     0.031 A 
ATOM     39  C   UNL A   1      38.102  31.518  30.729  1.00  0.00     0.074 A 
ATOM     40  C   UNL A   1      37.837  33.106  32.602  1.00  0.00     0.049 A 
ATOM     41  N   UNL A   1      39.072  30.760  31.178  1.00  0.00    -0.248 NA
ATOM     42  C   UNL A   1      37.594  31.118  29.408  1.00  0.00     0.031 C 
ATOM     43  C   UNL A   1      37.246  34.213  33.355  1.00  0.00     0.029 A 
ATOM     44  N   UNL A   1      38.826  32.634  33.427  1.00  0.00    -0.354 N 
ATOM     45  C   UNL A   1      39.284  29.799  30.201  1.00  0.00     0.074 A 
ATOM     46  C   UNL A   1      38.305  30.029  29.161  1.00  0.00     0.031 C 
ATOM     47  C   UNL A   1      37.900  34.352  34.519  1.00  0.00     0.029 A 
ATOM     48  C   UNL A   1      38.926  33.318  34.615  1.00  0.00     0.049 A 
ATOM     49  H   UNL A   1      39.409  31.876  33.191  1.00  0.00     0.167 HD
ATOM     50  C   UNL A   1      40.227  28.826  30.164  1.00  0.00     0.037 A 
ATOM     51  C   UNL A   1      39.746  33.127  35.666  1.00  0.00     0.037 A 
ATOM     52  C   UNL A   1      41.207  28.608  31.196  1.00  0.00     0.049 A 
ATOM     53  C   UNL A   1      40.762  32.017  35.612  1.00  0.00     0.074 A 
ATOM     54  C   UNL A   1      42.234  27.682  31.226  1.00  0.00     0.029 A 
ATOM     55  N   UNL A   1      41.274  29.319  32.385  1.00  0.00    -0.354 N 
ATOM     56  N   UNL A   1      41.001  31.158  34.651  1.00  0.00    -0.248 NA
ATOM     57  C   UNL A   1      41.625  31.854  36.790  1.00  0.00     0.031 C 
ATOM     58  C   UNL A   1      42.888  27.793  32.457  1.00  0.00     0.029 A 
ATOM     59  C   UNL A   1      42.308  28.830  33.170  1.00  0.00     0.049 A 
ATOM     60  H   UNL A   1      40.676  30.060  32.636  1.00  0.00     0.167 HD
ATOM     61  C   UNL A   1      42.057  30.374  35.093  1.00  0.00     0.074 A 
ATOM     62  C   UNL A   1      42.425  30.869  36.403  1.00  0.00     0.031 C 
ATOM     63  C   UNL A   1      42.668  29.336  34.470  1.00  0.00     0.037 A 
BRANCH  50  64
ATOM     64  C   UNL A   1      40.243  27.921  28.966  1.00  0.00     0.064 A 
ATOM     65  C   UNL A   1      40.969  28.242  27.808  1.00  0.00     0.173 A 
ATOM     66  C   UNL A   1      39.558  26.696  28.990  1.00  0.00     0.173 A 
ATOM     67  F   UNL A   1      41.632  29.406  27.729  1.00  0.00    -0.203 F 
ATOM     68  C   UNL A   1      40.983  27.387  26.710  1.00  0.00     0.198 A 
ATOM     69  C   UNL A   1      39.602  25.828  27.903  1.00  0.00     0.198 A 
ATOM     70  F   UNL A   1      38.853  26.336  30.073  1.00  0.00    -0.203 F 
ATOM     71  F   UNL A   1      41.641  27.739  25.597  1.00  0.00    -0.200 F 
ATOM     72  C   UNL A   1      40.307  26.177  26.760  1.00  0.00     0.200 A 
ATOM     73  F   UNL A   1      38.961  24.652  27.960  1.00  0.00    -0.200 F 
ATOM     74  F   UNL A   1      40.331  25.350  25.706  1.00  0.00    -0.200 F 
ENDBRANCH  50  64
BRANCH  51  75
ATOM     75  C   UNL A   1      39.653  34.016  36.854  1.00  0.00     0.064 A 
ATOM     76  C   UNL A   1      40.350  35.231  36.901  1.00  0.00     0.173 A 
ATOM     77  C   UNL A   1      38.876  33.667  37.968  1.00  0.00     0.173 A 
ATOM     78  F   UNL A   1      41.124  35.600  35.869  1.00  0.00    -0.203 F 
ATOM     79  C   UNL A   1      40.294  36.051  38.027  1.00  0.00     0.198 A 
ATOM     80  C   UNL A   1      38.794  34.502  39.080  1.00  0.00     0.198 A 
ATOM     81  F   UNL A   1      38.185  32.517  37.971  1.00  0.00    -0.203 F 
ATOM     82  F   UNL A   1      41.011  37.181  38.066  1.00  0.00    -0.200 F 
ATOM     83  C   UNL A   1      39.511  35.688  39.113  1.00  0.00     0.200 A 
ATOM     84  F   UNL A   1      38.024  34.155  40.120  1.00  0.00    -0.200 F 
ATOM     85  F   UNL A   1      39.454  36.478  40.194  1.00  0.00    -0.200 F 
ENDBRANCH  51  75
BRANCH  63  86
ATOM     86  C   UNL A   1      43.823  28.687  35.178  1.00  0.00     0.064 A 
ATOM     87  C   UNL A   1      43.642  27.590  36.034  1.00  0.00     0.173 A 
ATOM     88  C   UNL A   1      45.133  29.143  34.964  1.00  0.00     0.173 A 
ATOM     89  F   UNL A   1      42.409  27.125  36.284  1.00  0.00    -0.203 F 
ATOM     90  C   UNL A   1      44.727  26.991  36.669  1.00  0.00     0.198 A 
ATOM     91  C   UNL A   1      46.218  28.519  35.574  1.00  0.00     0.198 A 
ATOM     92  F   UNL A   1      45.362  30.184  34.151  1.00  0.00    -0.203 F 
ATOM     93  F   UNL A   1      44.525  25.976  37.521  1.00  0.00    -0.200 F 
ATOM     94  C   UNL A   1      46.014  27.450  36.431  1.00  0.00     0.200 A 
ATOM     95  F   UNL A   1      47.463  28.955  35.330  1.00  0.00    -0.200 F 
ATOM     96  F   UNL A   1      47.058  26.865  37.035  1.00  0.00    -0.200 F 
ENDBRANCH  63  86
ENDBRANCH  37  38
ENDBRANCH  29  32
ENDBRANCH  27  28
ENDBRANCH  26  27
ENDBRANCH  25  26
ENDBRANCH   1  25
TORSDOF 16
ENDMDL
MODEL 2
REMARK VINA RESULT:     -11.7      5.277      9.953
REMARK SMILES CCOc1ccccc1NC(=O)N[C@@](C)(CC)C(=O)NCCCCNC(=O)c1ccc(-c2c3nc(c(-c4c(F)c(F)c(F)c(F)c4F)c4ccc([nH]4)c(-c4c(F)c(F)c(F)c(F)c4F)c4nc(c(-c5c(F)c(F)c(F)c(F)c5F)c5ccc2[nH]5)C=C4)C=C3)cc1
REMARK SMILES IDX 21 1 20 2 18 3 19 4 14 6 15 7 13 8 10 9 11 10 12 12 9 14
REMARK SMILES IDX 4 15 5 16 6 17 8 18 7 19 3 20 2 21 1 22 16 23 17 24 22 25
REMARK SMILES IDX 23 26 24 27 25 28 26 29 27 31 28 32 29 33 90 34 30 35 89 36
REMARK SMILES IDX 31 37 32 38 33 39 83 40 34 41 88 42 82 43 84 44 35 45 87 46
REMARK SMILES IDX 81 47 80 48 36 50 68 51 48 52 67 53 49 54 52 55 66 56 85 57
REMARK SMILES IDX 50 58 51 59 65 61 86 62 53 63 37 64 38 65 46 66 39 67 40 68
REMARK SMILES IDX 44 69 47 70 41 71 42 72 45 73 43 74 69 75 70 76 78 77 71 78
REMARK SMILES IDX 72 79 76 80 79 81 73 82 74 83 77 84 75 85 54 86 55 87 63 88
REMARK SMILES IDX 56 89 57 90 61 91 64 92 58 93 59 94 62 95 60 96
REMARK H PARENT 20 5 10 11 13 13 25 30 84 49 52 60
REMARK Flexibility Score: inf
ROOT
ATOM      1  C   UNL A   1      35.655  20.602  25.115  1.00  0.00     0.116 C 
ENDROOT
BRANCH   1   2
ATOM      2  N   UNL A   1      34.879  21.696  25.629  1.00  0.00    -0.354 N 
ATOM      3  C   UNL A   1      33.954  22.274  24.790  1.00  0.00     0.245 C 
ATOM      4  O   UNL A   1      33.349  21.589  23.962  1.00  0.00    -0.272 OA
ATOM      5  H   UNL A   1      35.004  22.022  26.549  1.00  0.00     0.163 HD
BRANCH   3   6
ATOM      6  C   UNL A   1      33.772  23.816  24.905  1.00  0.00     0.117 C 
ATOM      7  C   UNL A   1      35.257  24.296  25.044  1.00  0.00     0.045 C 
BRANCH   6   8
ATOM      8  N   UNL A   1      33.262  24.587  23.748  1.00  0.00    -0.324 N 
ATOM      9  N   UNL A   1      33.824  26.892  23.739  1.00  0.00    -0.305 N 
ATOM     10  C   UNL A   1      33.676  25.706  23.152  1.00  0.00     0.320 C 
ATOM     11  H   UNL A   1      34.453  27.463  23.243  1.00  0.00     0.172 HD
ATOM     12  O   UNL A   1      33.926  25.631  21.945  1.00  0.00    -0.248 OA
ATOM     13  H   UNL A   1      32.458  24.196  23.336  1.00  0.00     0.166 HD
BRANCH   9  14
ATOM     14  C   UNL A   1      33.325  27.544  24.874  1.00  0.00     0.085 A 
ATOM     15  C   UNL A   1      32.106  28.219  24.710  1.00  0.00     0.142 A 
ATOM     16  C   UNL A   1      31.638  29.128  25.657  1.00  0.00     0.048 A 
ATOM     17  C   UNL A   1      32.321  29.251  26.861  1.00  0.00     0.004 A 
ATOM     18  C   UNL A   1      33.886  27.534  26.137  1.00  0.00     0.030 A 
ATOM     19  C   UNL A   1      33.405  28.410  27.122  1.00  0.00     0.002 A 
BRANCH  15  20
ATOM     20  O   UNL A   1      31.316  27.915  23.623  1.00  0.00    -0.492 OA
BRANCH  20  21
ATOM     21  C   UNL A   1      30.018  27.473  24.087  1.00  0.00     0.226 C 
ATOM     22  C   UNL A   1      30.060  26.026  24.562  1.00  0.00     0.049 C 
ENDBRANCH  20  21
ENDBRANCH  15  20
ENDBRANCH   9  14
ENDBRANCH   6   8
BRANCH   6  23
ATOM     23  C   UNL A   1      33.105  24.189  26.271  1.00  0.00     0.035 C 
ATOM     24  C   UNL A   1      31.864  23.419  26.704  1.00  0.00     0.007 C 
ENDBRANCH   6  23
ENDBRANCH   3   6
ENDBRANCH   1   2
BRANCH   1  25
ATOM     25  C   UNL A   1      37.095  20.978  24.805  1.00  0.00     0.023 C 
BRANCH  25  26
ATOM     26  C   UNL A   1      38.097  19.844  24.995  1.00  0.00     0.023 C 
BRANCH  26  27
ATOM     27  C   UNL A   1      39.282  20.167  25.906  1.00  0.00     0.116 C 
BRANCH  27  28
ATOM     28  N   UNL A   1      40.322  19.145  25.890  1.00  0.00    -0.352 N 
ATOM     29  C   UNL A   1      41.672  19.258  26.097  1.00  0.00     0.251 C 
ATOM     30  H   UNL A   1      40.006  18.233  25.699  1.00  0.00     0.163 HD
ATOM     31  O   UNL A   1      42.409  18.287  25.933  1.00  0.00    -0.269 OA
BRANCH  29  32
ATOM     32  C   UNL A   1      42.248  20.560  26.479  1.00  0.00     0.039 A 
ATOM     33  C   UNL A   1      42.745  21.391  25.473  1.00  0.00     0.014 A 
ATOM     34  C   UNL A   1      42.270  20.972  27.813  1.00  0.00     0.014 A 
ATOM     35  C   UNL A   1      43.186  22.673  25.797  1.00  0.00     0.010 A 
ATOM     36  C   UNL A   1      42.635  22.277  28.124  1.00  0.00     0.010 A 
ATOM     37  C   UNL A   1      43.088  23.144  27.117  1.00  0.00    -0.014 A 
BRANCH  37  38
ATOM     38  C   UNL A   1      43.434  24.547  27.453  1.00  0.00     0.031 A 
ATOM     39  C   UNL A   1      44.869  24.986  27.497  1.00  0.00     0.074 A 
ATOM     40  C   UNL A   1      42.451  25.413  27.773  1.00  0.00     0.049 A 
ATOM     41  N   UNL A   1      45.367  26.155  27.815  1.00  0.00    -0.248 NA
ATOM     42  C   UNL A   1      45.882  23.974  27.162  1.00  0.00     0.031 C 
ATOM     43  C   UNL A   1      41.023  25.095  27.807  1.00  0.00     0.029 A 
ATOM     44  N   UNL A   1      42.506  26.736  28.135  1.00  0.00    -0.354 N 
ATOM     45  C   UNL A   1      46.744  26.015  27.722  1.00  0.00     0.074 A 
ATOM     46  C   UNL A   1      47.008  24.636  27.376  1.00  0.00     0.031 C 
ATOM     47  C   UNL A   1      40.336  26.197  28.143  1.00  0.00     0.029 A 
ATOM     48  C   UNL A   1      41.274  27.287  28.392  1.00  0.00     0.049 A 
ATOM     49  H   UNL A   1      43.348  27.241  28.204  1.00  0.00     0.167 HD
ATOM     50  C   UNL A   1      47.702  26.961  27.888  1.00  0.00     0.037 A 
ATOM     51  C   UNL A   1      40.940  28.529  28.792  1.00  0.00     0.037 A 
ATOM     52  C   UNL A   1      47.434  28.336  28.221  1.00  0.00     0.049 A 
ATOM     53  C   UNL A   1      42.027  29.549  29.001  1.00  0.00     0.074 A 
ATOM     54  C   UNL A   1      48.332  29.379  28.359  1.00  0.00     0.029 A 
ATOM     55  N   UNL A   1      46.174  28.856  28.478  1.00  0.00    -0.354 N 
ATOM     56  N   UNL A   1      43.322  29.426  28.841  1.00  0.00    -0.248 NA
ATOM     57  C   UNL A   1      41.603  30.885  29.444  1.00  0.00     0.031 C 
ATOM     58  C   UNL A   1      47.623  30.517  28.756  1.00  0.00     0.029 A 
ATOM     59  C   UNL A   1      46.275  30.200  28.804  1.00  0.00     0.049 A 
ATOM     60  H   UNL A   1      45.332  28.347  28.435  1.00  0.00     0.167 HD
ATOM     61  C   UNL A   1      43.863  30.670  29.132  1.00  0.00     0.074 A 
ATOM     62  C   UNL A   1      42.755  31.541  29.464  1.00  0.00     0.031 C 
ATOM     63  C   UNL A   1      45.163  31.057  29.126  1.00  0.00     0.037 A 
BRANCH  50  64
ATOM     64  C   UNL A   1      49.132  26.538  27.712  1.00  0.00     0.064 A 
ATOM     65  C   UNL A   1      49.710  26.403  26.439  1.00  0.00     0.173 A 
ATOM     66  C   UNL A   1      49.948  26.305  28.828  1.00  0.00     0.173 A 
ATOM     67  F   UNL A   1      48.970  26.603  25.337  1.00  0.00    -0.203 F 
ATOM     68  C   UNL A   1      51.040  26.021  26.292  1.00  0.00     0.198 A 
ATOM     69  C   UNL A   1      51.287  25.957  28.679  1.00  0.00     0.198 A 
ATOM     70  F   UNL A   1      49.450  26.426  30.068  1.00  0.00    -0.203 F 
ATOM     71  F   UNL A   1      51.555  25.849  25.067  1.00  0.00    -0.200 F 
ATOM     72  C   UNL A   1      51.831  25.806  27.411  1.00  0.00     0.200 A 
ATOM     73  F   UNL A   1      52.054  25.765  29.762  1.00  0.00    -0.200 F 
ATOM     74  F   UNL A   1      53.114  25.449  27.268  1.00  0.00    -0.200 F 
ENDBRANCH  50  64
BRANCH  51  75
ATOM     75  C   UNL A   1      39.512  28.882  29.008  1.00  0.00     0.064 A 
ATOM     76  C   UNL A   1      38.922  28.759  30.274  1.00  0.00     0.173 A 
ATOM     77  C   UNL A   1      38.706  29.341  27.956  1.00  0.00     0.173 A 
ATOM     78  F   UNL A   1      39.646  28.305  31.308  1.00  0.00    -0.203 F 
ATOM     79  C   UNL A   1      37.575  29.055  30.473  1.00  0.00     0.198 A 
ATOM     80  C   UNL A   1      37.368  29.668  28.162  1.00  0.00     0.198 A 
ATOM     81  F   UNL A   1      39.223  29.481  26.725  1.00  0.00    -0.203 F 
ATOM     82  F   UNL A   1      37.024  28.878  31.681  1.00  0.00    -0.200 F 
ATOM     83  C   UNL A   1      36.801  29.515  29.418  1.00  0.00     0.200 A 
ATOM     84  F   UNL A   1      36.627  30.127  27.144  1.00  0.00    -0.200 F 
ATOM     85  F   UNL A   1      35.506  29.803  29.610  1.00  0.00    -0.200 F 
ENDBRANCH  51  75
BRANCH  63  86
ATOM     86  C   UNL A   1      45.458  32.493  29.452  1.00  0.00     0.064 A 
ATOM     87  C   UNL A   1      45.763  32.906  30.758  1.00  0.00     0.173 A 
ATOM     88  C   UNL A   1      45.477  33.462  28.437  1.00  0.00     0.173 A 
ATOM     89  F   UNL A   1      45.744  32.024  31.768  1.00  0.00    -0.203 F 
ATOM     90  C   UNL A   1      46.052  34.240  31.038  1.00  0.00     0.198 A 
ATOM     91  C   UNL A   1      45.799  34.787  28.715  1.00  0.00     0.198 A 
ATOM     92  F   UNL A   1      45.199  33.119  27.170  1.00  0.00    -0.203 F 
ATOM     93  F   UNL A   1      46.291  34.621  32.300  1.00  0.00    -0.200 F 
ATOM     94  C   UNL A   1      46.078  35.177  30.016  1.00  0.00     0.200 A 
ATOM     95  F   UNL A   1      45.839  35.688  27.723  1.00  0.00    -0.200 F 
ATOM     96  F   UNL A   1      46.365  36.458  30.285  1.00  0.00    -0.200 F 
ENDBRANCH  63  86
ENDBRANCH  37  38
ENDBRANCH  29  32
ENDBRANCH  27  28
ENDBRANCH  26  27
ENDBRANCH  25  26
ENDBRANCH   1  25
TORSDOF 16
ENDMDL
MODEL 3
REMARK VINA RESULT:     -11.7      5.564     11.123
REMARK SMILES CCOc1ccccc1NC(=O)N[C@@](C)(CC)C(=O)NCCCCNC(=O)c1ccc(-c2c3nc(c(-c4c(F)c(F)c(F)c(F)c4F)c4ccc([nH]4)c(-c4c(F)c(F)c(F)c(F)c4F)c4nc(c(-c5c(F)c(F)c(F)c(F)c5F)c5ccc2[nH]5)C=C4)C=C3)cc1
REMARK SMILES IDX 21 1 20 2 18 3 19 4 14 6 15 7 13 8 10 9 11 10 12 12 9 14
REMARK SMILES IDX 4 15 5 16 6 17 8 18 7 19 3 20 2 21 1 22 16 23 17 24 22 25
REMARK SMILES IDX 23 26 24 27 25 28 26 29 27 31 28 32 29 33 90 34 30 35 89 36
REMARK SMILES IDX 31 37 32 38 33 39 83 40 34 41 88 42 82 43 84 44 35 45 87 46
REMARK SMILES IDX 81 47 80 48 36 50 68 51 48 52 67 53 49 54 52 55 66 56 85 57
REMARK SMILES IDX 50 58 51 59 65 61 86 62 53 63 37 64 38 65 46 66 39 67 40 68
REMARK SMILES IDX 44 69 47 70 41 71 42 72 45 73 43 74 69 75 70 76 78 77 71 78
REMARK SMILES IDX 72 79 76 80 79 81 73 82 74 83 77 84 75 85 54 86 55 87 63 88
REMARK SMILES IDX 56 89 57 90 61 91 64 92 58 93 59 94 62 95 60 96
REMARK H PARENT 20 5 10 11 13 13 25 30 84 49 52 60
REMARK Flexibility Score: inf
ROOT
ATOM      1  C   UNL A   1      35.503  20.350  25.019  1.00  0.00     0.116 C 
ENDROOT
BRANCH   1   2
ATOM      2  N   UNL A   1      34.535  21.239  25.598  1.00  0.00    -0.354 N 
ATOM      3  C   UNL A   1      33.486  21.648  24.807  1.00  0.00     0.245 C 
ATOM      4  O   UNL A   1      33.010  20.887  23.961  1.00  0.00    -0.272 OA
ATOM      5  H   UNL A   1      34.619  21.546  26.530  1.00  0.00     0.163 HD
BRANCH   3   6
ATOM      6  C   UNL A   1      32.995  23.113  24.997  1.00  0.00     0.117 C 
ATOM      7  C   UNL A   1      31.811  23.180  23.973  1.00  0.00     0.045 C 
BRANCH   6   8
ATOM      8  N   UNL A   1      32.373  23.521  26.278  1.00  0.00    -0.324 N 
ATOM      9  N   UNL A   1      31.127  25.539  26.201  1.00  0.00    -0.305 N 
ATOM     10  C   UNL A   1      31.310  24.272  26.570  1.00  0.00     0.320 C 
ATOM     11  H   UNL A   1      30.173  25.780  26.204  1.00  0.00     0.172 HD
ATOM     12  O   UNL A   1      30.430  23.744  27.257  1.00  0.00    -0.248 OA
ATOM     13  H   UNL A   1      32.836  23.168  27.072  1.00  0.00     0.166 HD
BRANCH   9  14
ATOM     14  C   UNL A   1      31.928  26.619  25.811  1.00  0.00     0.085 A 
ATOM     15  C   UNL A   1      31.650  27.169  24.550  1.00  0.00     0.142 A 
ATOM     16  C   UNL A   1      32.530  28.048  23.923  1.00  0.00     0.048 A 
ATOM     17  C   UNL A   1      33.633  28.510  24.633  1.00  0.00     0.004 A 
ATOM     18  C   UNL A   1      32.914  27.224  26.568  1.00  0.00     0.030 A 
ATOM     19  C   UNL A   1      33.787  28.146  25.972  1.00  0.00     0.002 A 
BRANCH  15  20
ATOM     20  O   UNL A   1      30.441  26.890  23.953  1.00  0.00    -0.492 OA
BRANCH  20  21
ATOM     21  C   UNL A   1      30.246  27.786  22.832  1.00  0.00     0.226 C 
ATOM     22  C   UNL A   1      28.934  28.549  22.951  1.00  0.00     0.049 C 
ENDBRANCH  20  21
ENDBRANCH  15  20
ENDBRANCH   9  14
ENDBRANCH   6   8
BRANCH   6  23
ATOM     23  C   UNL A   1      34.055  24.123  24.445  1.00  0.00     0.035 C 
ATOM     24  C   UNL A   1      35.121  24.647  25.399  1.00  0.00     0.007 C 
ENDBRANCH   6  23
ENDBRANCH   3   6
ENDBRANCH   1   2
BRANCH   1  25
ATOM     25  C   UNL A   1      36.910  20.923  24.998  1.00  0.00     0.023 C 
BRANCH  25  26
ATOM     26  C   UNL A   1      38.018  19.873  24.997  1.00  0.00     0.023 C 
BRANCH  26  27
ATOM     27  C   UNL A   1      39.279  20.256  25.769  1.00  0.00     0.116 C 
BRANCH  27  28
ATOM     28  N   UNL A   1      40.251  19.173  25.870  1.00  0.00    -0.352 N 
ATOM     29  C   UNL A   1      41.600  19.217  26.106  1.00  0.00     0.251 C 
ATOM     30  H   UNL A   1      39.880  18.270  25.748  1.00  0.00     0.163 HD
ATOM     31  O   UNL A   1      42.275  18.191  26.045  1.00  0.00    -0.269 OA
BRANCH  29  32
ATOM     32  C   UNL A   1      42.251  20.508  26.393  1.00  0.00     0.039 A 
ATOM     33  C   UNL A   1      42.754  21.254  25.326  1.00  0.00     0.014 A 
ATOM     34  C   UNL A   1      42.337  20.993  27.700  1.00  0.00     0.014 A 
ATOM     35  C   UNL A   1      43.268  22.529  25.562  1.00  0.00     0.010 A 
ATOM     36  C   UNL A   1      42.775  22.294  27.923  1.00  0.00     0.010 A 
ATOM     37  C   UNL A   1      43.237  23.078  26.854  1.00  0.00    -0.014 A 
BRANCH  37  38
ATOM     38  C   UNL A   1      43.662  24.479  27.097  1.00  0.00     0.031 A 
ATOM     39  C   UNL A   1      42.672  25.500  27.576  1.00  0.00     0.074 A 
ATOM     40  C   UNL A   1      44.933  24.840  26.833  1.00  0.00     0.049 A 
ATOM     41  N   UNL A   1      42.845  26.780  27.798  1.00  0.00    -0.248 NA
ATOM     42  C   UNL A   1      41.299  25.031  27.815  1.00  0.00     0.031 C 
ATOM     43  C   UNL A   1      45.977  23.949  26.325  1.00  0.00     0.029 A 
ATOM     44  N   UNL A   1      45.562  26.055  26.950  1.00  0.00    -0.354 N 
ATOM     45  C   UNL A   1      41.608  27.264  28.198  1.00  0.00     0.074 A 
ATOM     46  C   UNL A   1      40.678  26.158  28.131  1.00  0.00     0.031 C 
ATOM     47  C   UNL A   1      47.121  24.639  26.199  1.00  0.00     0.029 A 
ATOM     48  C   UNL A   1      46.884  26.029  26.574  1.00  0.00     0.049 A 
ATOM     49  H   UNL A   1      45.109  26.867  27.272  1.00  0.00     0.167 HD
ATOM     50  C   UNL A   1      41.282  28.515  28.606  1.00  0.00     0.037 A 
ATOM     51  C   UNL A   1      47.797  27.017  26.528  1.00  0.00     0.037 A 
ATOM     52  C   UNL A   1      42.214  29.610  28.682  1.00  0.00     0.049 A 
ATOM     53  C   UNL A   1      47.399  28.405  26.956  1.00  0.00     0.074 A 
ATOM     54  C   UNL A   1      41.992  30.900  29.131  1.00  0.00     0.029 A 
ATOM     55  N   UNL A   1      43.542  29.547  28.289  1.00  0.00    -0.354 N 
ATOM     56  N   UNL A   1      46.243  28.836  27.400  1.00  0.00    -0.248 NA
ATOM     57  C   UNL A   1      48.436  29.443  26.879  1.00  0.00     0.031 C 
ATOM     58  C   UNL A   1      43.169  31.633  28.957  1.00  0.00     0.029 A 
ATOM     59  C   UNL A   1      44.145  30.785  28.458  1.00  0.00     0.049 A 
ATOM     60  H   UNL A   1      43.992  28.743  27.941  1.00  0.00     0.167 HD
ATOM     61  C   UNL A   1      46.422  30.183  27.683  1.00  0.00     0.074 A 
ATOM     62  C   UNL A   1      47.801  30.496  27.376  1.00  0.00     0.031 C 
ATOM     63  C   UNL A   1      45.522  31.081  28.154  1.00  0.00     0.037 A 
BRANCH  50  64
ATOM     64  C   UNL A   1      39.856  28.766  29.002  1.00  0.00     0.064 A 
ATOM     65  C   UNL A   1      39.421  28.615  30.328  1.00  0.00     0.173 A 
ATOM     66  C   UNL A   1      38.920  29.205  28.053  1.00  0.00     0.173 A 
ATOM     67  F   UNL A   1      40.272  28.187  31.273  1.00  0.00    -0.203 F 
ATOM     68  C   UNL A   1      38.098  28.863  30.682  1.00  0.00     0.198 A 
ATOM     69  C   UNL A   1      37.606  29.484  28.416  1.00  0.00     0.198 A 
ATOM     70  F   UNL A   1      39.283  29.372  26.772  1.00  0.00    -0.203 F 
ATOM     71  F   UNL A   1      37.694  28.661  31.944  1.00  0.00    -0.200 F 
ATOM     72  C   UNL A   1      37.193  29.305  29.728  1.00  0.00     0.200 A 
ATOM     73  F   UNL A   1      36.737  29.927  27.496  1.00  0.00    -0.200 F 
ATOM     74  F   UNL A   1      35.922  29.553  30.073  1.00  0.00    -0.200 F 
ENDBRANCH  50  64
BRANCH  51  75
ATOM     75  C   UNL A   1      49.183  26.729  26.075  1.00  0.00     0.064 A 
ATOM     76  C   UNL A   1      49.572  26.969  24.750  1.00  0.00     0.173 A 
ATOM     77  C   UNL A   1      50.143  26.200  26.950  1.00  0.00     0.173 A 
ATOM     78  F   UNL A   1      48.686  27.456  23.869  1.00  0.00    -0.203 F 
ATOM     79  C   UNL A   1      50.861  26.667  24.311  1.00  0.00     0.198 A 
ATOM     80  C   UNL A   1      51.440  25.929  26.519  1.00  0.00     0.198 A 
ATOM     81  F   UNL A   1      49.823  25.956  28.230  1.00  0.00    -0.203 F 
ATOM     82  F   UNL A   1      51.190  26.858  23.027  1.00  0.00    -0.200 F 
ATOM     83  C   UNL A   1      51.794  26.153  25.198  1.00  0.00     0.200 A 
ATOM     84  F   UNL A   1      52.344  25.446  27.383  1.00  0.00    -0.200 F 
ATOM     85  F   UNL A   1      53.034  25.866  24.777  1.00  0.00    -0.200 F 
ENDBRANCH  51  75
BRANCH  63  86
ATOM     86  C   UNL A   1      46.007  32.481  28.404  1.00  0.00     0.064 A 
ATOM     87  C   UNL A   1      46.601  32.850  29.621  1.00  0.00     0.173 A 
ATOM     88  C   UNL A   1      45.916  33.454  27.397  1.00  0.00     0.173 A 
ATOM     89  F   UNL A   1      46.699  31.962  30.621  1.00  0.00    -0.203 F 
ATOM     90  C   UNL A   1      47.061  34.148  29.827  1.00  0.00     0.198 A 
ATOM     91  C   UNL A   1      46.408  34.741  27.596  1.00  0.00     0.198 A 
ATOM     92  F   UNL A   1      45.363  33.152  26.213  1.00  0.00    -0.203 F 
ATOM     93  F   UNL A   1      47.579  34.492  31.015  1.00  0.00    -0.200 F 
ATOM     94  C   UNL A   1      46.972  35.089  28.813  1.00  0.00     0.200 A 
ATOM     95  F   UNL A   1      46.335  35.645  26.608  1.00  0.00    -0.200 F 
ATOM     96  F   UNL A   1      47.425  36.335  29.010  1.00  0.00    -0.200 F 
ENDBRANCH  63  86
ENDBRANCH  37  38
ENDBRANCH  29  32
ENDBRANCH  27  28
ENDBRANCH  26  27
ENDBRANCH  25  26
ENDBRANCH   1  25
TORSDOF 16
ENDMDL
