MODEL 1
REMARK VINA RESULT:     -13.0      0.000      0.000
REMARK SMILES O=C(NCCCCNC(=O)c1c(OCc2ccccn2)cnc2ccccc12)c1ccc(-c2c3nc(c(-c4c(F)c(F)c(F)c(F)c4F)c4ccc([nH]4)c(-c4c(F)c(F)c(F)c(F)c4F)c4nc(c(-c5c(F)c(F)c(F)c(F)c5F)c5ccc2[nH]5)C=C4)C=C3)cc1
REMARK SMILES IDX 6 1 5 2 4 3 3 4 1 5 2 6 29 8 30 9 91 10 31 11 90 12 32 13
REMARK SMILES IDX 33 14 34 15 84 16 35 17 89 18 83 19 85 20 36 21 88 22 82 23
REMARK SMILES IDX 81 24 37 26 69 27 49 28 68 29 50 30 53 31 67 32 86 33 51 34
REMARK SMILES IDX 52 35 66 37 87 38 54 39 38 40 39 41 47 42 40 43 41 44 45 45
REMARK SMILES IDX 48 46 42 47 43 48 46 49 44 50 70 51 71 52 79 53 72 54 73 55
REMARK SMILES IDX 77 56 80 57 74 58 75 59 78 60 76 61 55 62 56 63 64 64 57 65
REMARK SMILES IDX 58 66 62 67 65 68 59 69 60 70 63 71 61 72 7 73 8 74 9 75
REMARK SMILES IDX 10 77 11 78 12 79 28 80 21 81 23 82 27 83 22 84 24 85 26 86
REMARK SMILES IDX 25 87 13 88 14 89 15 90 16 91 20 92 17 93 19 94 18 95
REMARK H PARENT 3 7 85 25 53 36 8 76
REMARK Flexibility Score: inf
ROOT
ATOM      1  C   UNL A   1      31.397  30.837  25.869  1.00  0.00     0.023 C 
ENDROOT
BRANCH   1   2
ATOM      2  C   UNL A   1      31.326  32.014  26.840  1.00  0.00     0.023 C 
BRANCH   2   3
ATOM      3  C   UNL A   1      32.631  32.775  27.043  1.00  0.00     0.116 C 
BRANCH   3   4
ATOM      4  N   UNL A   1      32.427  34.126  27.542  1.00  0.00    -0.352 N 
ATOM      5  O   UNL A   1      32.642  35.871  28.958  1.00  0.00    -0.269 OA
ATOM      6  C   UNL A   1      33.053  34.777  28.578  1.00  0.00     0.251 C 
ATOM      7  H   UNL A   1      31.741  34.651  27.069  1.00  0.00     0.163 HD
BRANCH   6   8
ATOM      8  C   UNL A   1      34.211  34.153  29.251  1.00  0.00     0.039 A 
ATOM      9  C   UNL A   1      34.026  33.268  30.315  1.00  0.00     0.014 A 
ATOM     10  C   UNL A   1      35.502  34.437  28.794  1.00  0.00     0.014 A 
ATOM     11  C   UNL A   1      35.127  32.774  31.007  1.00  0.00     0.010 A 
ATOM     12  C   UNL A   1      36.608  33.870  29.435  1.00  0.00     0.010 A 
ATOM     13  C   UNL A   1      36.428  33.046  30.557  1.00  0.00    -0.014 A 
BRANCH  13  14
ATOM     14  C   UNL A   1      37.580  32.370  31.205  1.00  0.00     0.031 A 
ATOM     15  C   UNL A   1      38.277  31.212  30.552  1.00  0.00     0.074 A 
ATOM     16  C   UNL A   1      37.981  32.815  32.412  1.00  0.00     0.049 A 
ATOM     17  N   UNL A   1      39.269  30.488  31.006  1.00  0.00    -0.248 NA
ATOM     18  C   UNL A   1      37.800  30.806  29.222  1.00  0.00     0.031 C 
ATOM     19  C   UNL A   1      37.365  33.923  33.146  1.00  0.00     0.029 A 
ATOM     20  N   UNL A   1      38.992  32.395  33.237  1.00  0.00    -0.354 N 
ATOM     21  C   UNL A   1      39.520  29.529  30.034  1.00  0.00     0.074 A 
ATOM     22  C   UNL A   1      38.568  29.753  28.967  1.00  0.00     0.031 C 
ATOM     23  C   UNL A   1      38.021  34.108  34.300  1.00  0.00     0.029 A 
ATOM     24  C   UNL A   1      39.056  33.088  34.421  1.00  0.00     0.049 A 
ATOM     25  H   UNL A   1      39.614  31.667  33.004  1.00  0.00     0.167 HD
ATOM     26  C   UNL A   1      40.462  28.556  30.039  1.00  0.00     0.037 A 
ATOM     27  C   UNL A   1      39.831  32.900  35.505  1.00  0.00     0.037 A 
ATOM     28  C   UNL A   1      41.420  28.360  31.099  1.00  0.00     0.049 A 
ATOM     29  C   UNL A   1      40.838  31.786  35.493  1.00  0.00     0.074 A 
ATOM     30  C   UNL A   1      42.468  27.457  31.156  1.00  0.00     0.029 A 
ATOM     31  N   UNL A   1      41.439  29.067  32.292  1.00  0.00    -0.354 N 
ATOM     32  N   UNL A   1      41.115  30.935  34.536  1.00  0.00    -0.248 NA
ATOM     33  C   UNL A   1      41.635  31.601  36.712  1.00  0.00     0.031 C 
ATOM     34  C   UNL A   1      43.076  27.571  32.409  1.00  0.00     0.029 A 
ATOM     35  C   UNL A   1      42.447  28.585  33.111  1.00  0.00     0.049 A 
ATOM     36  H   UNL A   1      40.825  29.802  32.523  1.00  0.00     0.167 HD
ATOM     37  C   UNL A   1      42.124  30.122  35.031  1.00  0.00     0.074 A 
ATOM     38  C   UNL A   1      42.430  30.599  36.363  1.00  0.00     0.031 C 
ATOM     39  C   UNL A   1      42.736  29.069  34.437  1.00  0.00     0.037 A 
BRANCH  26  40
ATOM     40  C   UNL A   1      40.506  27.600  28.882  1.00  0.00     0.064 A 
ATOM     41  C   UNL A   1      39.689  26.463  28.827  1.00  0.00     0.173 A 
ATOM     42  C   UNL A   1      41.312  27.883  27.767  1.00  0.00     0.173 A 
ATOM     43  F   UNL A   1      38.903  26.144  29.866  1.00  0.00    -0.203 F 
ATOM     44  C   UNL A   1      39.684  25.638  27.704  1.00  0.00     0.198 A 
ATOM     45  C   UNL A   1      41.286  27.071  26.636  1.00  0.00     0.198 A 
ATOM     46  F   UNL A   1      42.107  28.964  27.764  1.00  0.00    -0.203 F 
ATOM     47  F   UNL A   1      38.912  24.542  27.683  1.00  0.00    -0.200 F 
ATOM     48  C   UNL A   1      40.474  25.948  26.607  1.00  0.00     0.200 A 
ATOM     49  F   UNL A   1      42.039  27.382  25.572  1.00  0.00    -0.200 F 
ATOM     50  F   UNL A   1      40.452  25.164  25.519  1.00  0.00    -0.200 F 
ENDBRANCH  26  40
BRANCH  27  51
ATOM     51  C   UNL A   1      39.648  33.758  36.704  1.00  0.00     0.064 A 
ATOM     52  C   UNL A   1      38.815  33.365  37.759  1.00  0.00     0.173 A 
ATOM     53  C   UNL A   1      40.298  34.998  36.814  1.00  0.00     0.173 A 
ATOM     54  F   UNL A   1      38.157  32.198  37.692  1.00  0.00    -0.203 F 
ATOM     55  C   UNL A   1      38.619  34.188  38.866  1.00  0.00     0.198 A 
ATOM     56  C   UNL A   1      40.130  35.804  37.938  1.00  0.00     0.198 A 
ATOM     57  F   UNL A   1      41.111  35.420  35.835  1.00  0.00    -0.203 F 
ATOM     58  F   UNL A   1      37.775  33.812  39.836  1.00  0.00    -0.200 F 
ATOM     59  C   UNL A   1      39.282  35.403  38.957  1.00  0.00     0.200 A 
ATOM     60  F   UNL A   1      40.787  36.967  38.029  1.00  0.00    -0.200 F 
ATOM     61  F   UNL A   1      39.095  36.192  40.024  1.00  0.00    -0.200 F 
ENDBRANCH  27  51
BRANCH  39  62
ATOM     62  C   UNL A   1      43.806  28.368  35.220  1.00  0.00     0.064 A 
ATOM     63  C   UNL A   1      45.144  28.785  35.166  1.00  0.00     0.173 A 
ATOM     64  C   UNL A   1      43.483  27.296  36.067  1.00  0.00     0.173 A 
ATOM     65  F   UNL A   1      45.506  29.791  34.356  1.00  0.00    -0.203 F 
ATOM     66  C   UNL A   1      46.124  28.143  35.919  1.00  0.00     0.198 A 
ATOM     67  C   UNL A   1      44.460  26.679  36.842  1.00  0.00     0.198 A 
ATOM     68  F   UNL A   1      42.218  26.863  36.157  1.00  0.00    -0.203 F 
ATOM     69  F   UNL A   1      47.403  28.530  35.819  1.00  0.00    -0.200 F 
ATOM     70  C   UNL A   1      45.780  27.098  36.763  1.00  0.00     0.200 A 
ATOM     71  F   UNL A   1      44.124  25.677  37.667  1.00  0.00    -0.200 F 
ATOM     72  F   UNL A   1      46.722  26.490  37.497  1.00  0.00    -0.200 F 
ENDBRANCH  39  62
ENDBRANCH  13  14
ENDBRANCH   6   8
ENDBRANCH   3   4
ENDBRANCH   2   3
ENDBRANCH   1   2
BRANCH   1  73
ATOM     73  C   UNL A   1      32.620  29.940  26.015  1.00  0.00     0.116 C 
BRANCH  73  74
ATOM     74  N   UNL A   1      33.266  29.623  24.752  1.00  0.00    -0.352 N 
ATOM     75  C   UNL A   1      33.054  28.534  23.935  1.00  0.00     0.255 C 
ATOM     76  H   UNL A   1      33.941  30.268  24.441  1.00  0.00     0.163 HD
ATOM     77  O   UNL A   1      33.611  28.460  22.844  1.00  0.00    -0.269 OA
BRANCH  75  78
ATOM     78  C   UNL A   1      32.146  27.456  24.383  1.00  0.00     0.092 A 
ATOM     79  C   UNL A   1      30.785  27.580  24.082  1.00  0.00     0.151 A 
ATOM     80  C   UNL A   1      32.668  26.291  24.999  1.00  0.00     0.017 A 
ATOM     81  C   UNL A   1      29.978  26.524  24.462  1.00  0.00     0.159 A 
ATOM     82  C   UNL A   1      31.759  25.240  25.209  1.00  0.00     0.071 A 
ATOM     83  C   UNL A   1      34.030  26.100  25.352  1.00  0.00     0.011 A 
ATOM     84  N   UNL A   1      30.444  25.364  24.981  1.00  0.00    -0.252 NA
ATOM     85  C   UNL A   1      32.247  24.011  25.630  1.00  0.00     0.029 A 
ATOM     86  C   UNL A   1      34.495  24.858  25.774  1.00  0.00     0.001 A 
ATOM     87  C   UNL A   1      33.604  23.802  25.888  1.00  0.00     0.002 A 
BRANCH  79  88
ATOM     88  O   UNL A   1      30.390  28.661  23.345  1.00  0.00    -0.485 OA
BRANCH  88  89
ATOM     89  C   UNL A   1      28.995  28.900  23.123  1.00  0.00     0.285 C 
BRANCH  89  90
ATOM     90  C   UNL A   1      28.610  30.266  22.580  1.00  0.00     0.078 A 
ATOM     91  C   UNL A   1      28.604  31.419  23.363  1.00  0.00     0.027 A 
ATOM     92  N   UNL A   1      28.313  30.307  21.254  1.00  0.00    -0.258 NA
ATOM     93  C   UNL A   1      28.344  32.650  22.765  1.00  0.00     0.004 A 
ATOM     94  C   UNL A   1      28.028  31.510  20.707  1.00  0.00     0.111 A 
ATOM     95  C   UNL A   1      28.048  32.699  21.411  1.00  0.00     0.020 A 
ENDBRANCH  89  90
ENDBRANCH  88  89
ENDBRANCH  79  88
ENDBRANCH  75  78
ENDBRANCH  73  74
ENDBRANCH   1  73
TORSDOF 14
ENDMDL
MODEL 2
REMARK VINA RESULT:     -13.0      5.985     11.550
REMARK SMILES O=C(NCCCCNC(=O)c1c(OCc2ccccn2)cnc2ccccc12)c1ccc(-c2c3nc(c(-c4c(F)c(F)c(F)c(F)c4F)c4ccc([nH]4)c(-c4c(F)c(F)c(F)c(F)c4F)c4nc(c(-c5c(F)c(F)c(F)c(F)c5F)c5ccc2[nH]5)C=C4)C=C3)cc1
REMARK SMILES IDX 6 1 5 2 4 3 3 4 1 5 2 6 29 8 30 9 91 10 31 11 90 12 32 13
REMARK SMILES IDX 33 14 34 15 84 16 35 17 89 18 83 19 85 20 36 21 88 22 82 23
REMARK SMILES IDX 81 24 37 26 69 27 49 28 68 29 50 30 53 31 67 32 86 33 51 34
REMARK SMILES IDX 52 35 66 37 87 38 54 39 38 40 39 41 47 42 40 43 41 44 45 45
REMARK SMILES IDX 48 46 42 47 43 48 46 49 44 50 70 51 71 52 79 53 72 54 73 55
REMARK SMILES IDX 77 56 80 57 74 58 75 59 78 60 76 61 55 62 56 63 64 64 57 65
REMARK SMILES IDX 58 66 62 67 65 68 59 69 60 70 63 71 61 72 7 73 8 74 9 75
REMARK SMILES IDX 10 77 11 78 12 79 28 80 21 81 23 82 27 83 22 84 24 85 26 86
REMARK SMILES IDX 25 87 13 88 14 89 15 90 16 91 20 92 17 93 19 94 18 95
REMARK H PARENT 3 7 85 25 53 36 8 76
REMARK Flexibility Score: inf
ROOT
ATOM      1  C   UNL A   1      36.504  20.313  25.001  1.00  0.00     0.023 C 
ENDROOT
BRANCH   1   2
ATOM      2  C   UNL A   1      37.894  19.729  24.763  1.00  0.00     0.023 C 
BRANCH   2   3
ATOM      3  C   UNL A   1      38.968  20.169  25.751  1.00  0.00     0.116 C 
BRANCH   3   4
ATOM      4  N   UNL A   1      40.046  19.201  25.886  1.00  0.00    -0.352 N 
ATOM      5  O   UNL A   1      42.178  18.477  26.038  1.00  0.00    -0.269 OA
ATOM      6  C   UNL A   1      41.385  19.414  26.105  1.00  0.00     0.251 C 
ATOM      7  H   UNL A   1      39.777  18.258  25.809  1.00  0.00     0.163 HD
BRANCH   6   8
ATOM      8  C   UNL A   1      41.880  20.775  26.404  1.00  0.00     0.039 A 
ATOM      9  C   UNL A   1      42.057  21.709  25.381  1.00  0.00     0.014 A 
ATOM     10  C   UNL A   1      42.145  21.130  27.730  1.00  0.00     0.014 A 
ATOM     11  C   UNL A   1      42.623  22.948  25.663  1.00  0.00     0.010 A 
ATOM     12  C   UNL A   1      42.632  22.407  28.024  1.00  0.00     0.010 A 
ATOM     13  C   UNL A   1      42.891  23.321  26.990  1.00  0.00    -0.014 A 
BRANCH  13  14
ATOM     14  C   UNL A   1      43.333  24.707  27.283  1.00  0.00     0.031 A 
ATOM     15  C   UNL A   1      42.383  25.733  27.830  1.00  0.00     0.074 A 
ATOM     16  C   UNL A   1      44.616  25.032  27.031  1.00  0.00     0.049 A 
ATOM     17  N   UNL A   1      42.603  26.995  28.099  1.00  0.00    -0.248 NA
ATOM     18  C   UNL A   1      41.008  25.292  28.107  1.00  0.00     0.031 C 
ATOM     19  C   UNL A   1      45.621  24.118  26.483  1.00  0.00     0.029 A 
ATOM     20  N   UNL A   1      45.296  26.211  27.194  1.00  0.00    -0.354 N 
ATOM     21  C   UNL A   1      41.394  27.506  28.553  1.00  0.00     0.074 A 
ATOM     22  C   UNL A   1      40.437  26.421  28.513  1.00  0.00     0.031 C 
ATOM     23  C   UNL A   1      46.791  24.762  26.373  1.00  0.00     0.029 A 
ATOM     24  C   UNL A   1      46.603  26.151  26.775  1.00  0.00     0.049 A 
ATOM     25  H   UNL A   1      44.889  27.022  27.575  1.00  0.00     0.167 HD
ATOM     26  C   UNL A   1      41.118  28.767  28.965  1.00  0.00     0.037 A 
ATOM     27  C   UNL A   1      47.537  27.114  26.681  1.00  0.00     0.037 A 
ATOM     28  C   UNL A   1      42.089  29.832  29.022  1.00  0.00     0.049 A 
ATOM     29  C   UNL A   1      47.185  28.510  27.109  1.00  0.00     0.074 A 
ATOM     30  C   UNL A   1      41.926  31.119  29.506  1.00  0.00     0.029 A 
ATOM     31  N   UNL A   1      43.396  29.739  28.568  1.00  0.00    -0.354 N 
ATOM     32  N   UNL A   1      46.061  28.962  27.608  1.00  0.00    -0.248 NA
ATOM     33  C   UNL A   1      48.229  29.533  26.957  1.00  0.00     0.031 C 
ATOM     34  C   UNL A   1      43.112  31.823  29.282  1.00  0.00     0.029 A 
ATOM     35  C   UNL A   1      44.034  30.961  28.713  1.00  0.00     0.049 A 
ATOM     36  H   UNL A   1      43.809  28.926  28.196  1.00  0.00     0.167 HD
ATOM     37  C   UNL A   1      46.263  30.314  27.838  1.00  0.00     0.074 A 
ATOM     38  C   UNL A   1      47.627  30.605  27.451  1.00  0.00     0.031 C 
ATOM     39  C   UNL A   1      45.393  31.235  28.320  1.00  0.00     0.037 A 
BRANCH  26  40
ATOM     40  C   UNL A   1      39.709  29.093  29.369  1.00  0.00     0.064 A 
ATOM     41  C   UNL A   1      38.745  29.500  28.437  1.00  0.00     0.173 A 
ATOM     42  C   UNL A   1      39.297  28.899  30.698  1.00  0.00     0.173 A 
ATOM     43  F   UNL A   1      39.086  29.703  27.156  1.00  0.00    -0.203 F 
ATOM     44  C   UNL A   1      37.423  29.712  28.821  1.00  0.00     0.198 A 
ATOM     45  C   UNL A   1      37.969  29.088  31.074  1.00  0.00     0.198 A 
ATOM     46  F   UNL A   1      40.178  28.501  31.628  1.00  0.00    -0.203 F 
ATOM     47  F   UNL A   1      36.522  30.124  27.918  1.00  0.00    -0.200 F 
ATOM     48  C   UNL A   1      37.034  29.496  30.135  1.00  0.00     0.200 A 
ATOM     49  F   UNL A   1      37.595  28.863  32.340  1.00  0.00    -0.200 F 
ATOM     50  F   UNL A   1      35.757  29.681  30.499  1.00  0.00    -0.200 F 
ENDBRANCH  26  40
BRANCH  27  51
ATOM     51  C   UNL A   1      48.875  26.797  26.118  1.00  0.00     0.064 A 
ATOM     52  C   UNL A   1      49.904  26.295  26.925  1.00  0.00     0.173 A 
ATOM     53  C   UNL A   1      49.155  27.001  24.757  1.00  0.00     0.173 A 
ATOM     54  F   UNL A   1      49.691  26.101  28.235  1.00  0.00    -0.203 F 
ATOM     55  C   UNL A   1      51.166  26.031  26.400  1.00  0.00     0.198 A 
ATOM     56  C   UNL A   1      50.407  26.703  24.225  1.00  0.00     0.198 A 
ATOM     57  F   UNL A   1      48.204  27.475  23.939  1.00  0.00    -0.203 F 
ATOM     58  F   UNL A   1      52.148  25.602  27.205  1.00  0.00    -0.200 F 
ATOM     59  C   UNL A   1      51.415  26.229  25.049  1.00  0.00     0.200 A 
ATOM     60  F   UNL A   1      50.636  26.878  22.917  1.00  0.00    -0.200 F 
ATOM     61  F   UNL A   1      52.629  25.972  24.544  1.00  0.00    -0.200 F 
ENDBRANCH  27  51
BRANCH  39  62
ATOM     62  C   UNL A   1      45.894  32.641  28.465  1.00  0.00     0.064 A 
ATOM     63  C   UNL A   1      45.724  33.587  27.443  1.00  0.00     0.173 A 
ATOM     64  C   UNL A   1      46.509  33.059  29.654  1.00  0.00     0.173 A 
ATOM     65  F   UNL A   1      45.161  33.230  26.279  1.00  0.00    -0.203 F 
ATOM     66  C   UNL A   1      46.170  34.896  27.600  1.00  0.00     0.198 A 
ATOM     67  C   UNL A   1      46.923  34.377  29.820  1.00  0.00     0.198 A 
ATOM     68  F   UNL A   1      46.690  32.194  30.663  1.00  0.00    -0.203 F 
ATOM     69  F   UNL A   1      46.037  35.772  26.595  1.00  0.00    -0.200 F 
ATOM     70  C   UNL A   1      46.759  35.293  28.792  1.00  0.00     0.200 A 
ATOM     71  F   UNL A   1      47.481  34.762  30.977  1.00  0.00    -0.200 F 
ATOM     72  F   UNL A   1      47.175  36.558  28.946  1.00  0.00    -0.200 F 
ENDBRANCH  39  62
ENDBRANCH  13  14
ENDBRANCH   6   8
ENDBRANCH   3   4
ENDBRANCH   2   3
ENDBRANCH   1   2
BRANCH   1  73
ATOM     73  C   UNL A   1      36.473  21.764  25.464  1.00  0.00     0.116 C 
BRANCH  73  74
ATOM     74  N   UNL A   1      35.521  22.017  26.533  1.00  0.00    -0.352 N 
ATOM     75  C   UNL A   1      34.241  22.517  26.435  1.00  0.00     0.255 C 
ATOM     76  H   UNL A   1      35.830  21.804  27.443  1.00  0.00     0.163 HD
ATOM     77  O   UNL A   1      33.523  22.578  27.428  1.00  0.00    -0.269 OA
BRANCH  75  78
ATOM     78  C   UNL A   1      33.739  22.975  25.122  1.00  0.00     0.092 A 
ATOM     79  C   UNL A   1      33.197  22.017  24.258  1.00  0.00     0.151 A 
ATOM     80  C   UNL A   1      33.715  24.357  24.808  1.00  0.00     0.017 A 
ATOM     81  C   UNL A   1      32.682  22.492  23.067  1.00  0.00     0.159 A 
ATOM     82  C   UNL A   1      33.042  24.714  23.627  1.00  0.00     0.071 A 
ATOM     83  C   UNL A   1      34.261  25.384  25.623  1.00  0.00     0.011 A 
ATOM     84  N   UNL A   1      32.569  23.806  22.761  1.00  0.00    -0.252 NA
ATOM     85  C   UNL A   1      32.820  26.059  23.366  1.00  0.00     0.029 A 
ATOM     86  C   UNL A   1      34.027  26.727  25.339  1.00  0.00     0.001 A 
ATOM     87  C   UNL A   1      33.280  27.064  24.220  1.00  0.00     0.002 A 
BRANCH  79  88
ATOM     88  O   UNL A   1      33.114  20.728  24.705  1.00  0.00    -0.485 OA
BRANCH  88  89
ATOM     89  C   UNL A   1      32.528  19.722  23.871  1.00  0.00     0.285 C 
BRANCH  89  90
ATOM     90  C   UNL A   1      32.841  18.276  24.217  1.00  0.00     0.078 A 
ATOM     91  C   UNL A   1      33.702  17.484  23.457  1.00  0.00     0.027 A 
ATOM     92  N   UNL A   1      32.262  17.806  25.353  1.00  0.00    -0.258 NA
ATOM     93  C   UNL A   1      34.022  16.203  23.901  1.00  0.00     0.004 A 
ATOM     94  C   UNL A   1      32.561  16.545  25.740  1.00  0.00     0.111 A 
ATOM     95  C   UNL A   1      33.439  15.720  25.064  1.00  0.00     0.020 A 
ENDBRANCH  89  90
ENDBRANCH  88  89
ENDBRANCH  79  88
ENDBRANCH  75  78
ENDBRANCH  73  74
ENDBRANCH   1  73
TORSDOF 14
ENDMDL
MODEL 3
REMARK VINA RESULT:     -13.0      0.132      1.580
REMARK SMILES O=C(NCCCCNC(=O)c1c(OCc2ccccn2)cnc2ccccc12)c1ccc(-c2c3nc(c(-c4c(F)c(F)c(F)c(F)c4F)c4ccc([nH]4)c(-c4c(F)c(F)c(F)c(F)c4F)c4nc(c(-c5c(F)c(F)c(F)c(F)c5F)c5ccc2[nH]5)C=C4)C=C3)cc1
REMARK SMILES IDX 6 1 5 2 4 3 3 4 1 5 2 6 29 8 30 9 91 10 31 11 90 12 32 13
REMARK SMILES IDX 33 14 34 15 84 16 35 17 89 18 83 19 85 20 36 21 88 22 82 23
REMARK SMILES IDX 81 24 37 26 69 27 49 28 68 29 50 30 53 31 67 32 86 33 51 34
REMARK SMILES IDX 52 35 66 37 87 38 54 39 38 40 39 41 47 42 40 43 41 44 45 45
REMARK SMILES IDX 48 46 42 47 43 48 46 49 44 50 70 51 71 52 79 53 72 54 73 55
REMARK SMILES IDX 77 56 80 57 74 58 75 59 78 60 76 61 55 62 56 63 64 64 57 65
REMARK SMILES IDX 58 66 62 67 65 68 59 69 60 70 63 71 61 72 7 73 8 74 9 75
REMARK SMILES IDX 10 77 11 78 12 79 28 80 21 81 23 82 27 83 22 84 24 85 26 86
REMARK SMILES IDX 25 87 13 88 14 89 15 90 16 91 20 92 17 93 19 94 18 95
REMARK H PARENT 3 7 85 25 53 36 8 76
REMARK Flexibility Score: inf
ROOT
ATOM      1  C   UNL A   1      31.421  30.976  25.846  1.00  0.00     0.023 C 
ENDROOT
BRANCH   1   2
ATOM      2  C   UNL A   1      31.347  32.097  26.880  1.00  0.00     0.023 C 
BRANCH   2   3
ATOM      3  C   UNL A   1      32.649  32.852  27.122  1.00  0.00     0.116 C 
BRANCH   3   4
ATOM      4  N   UNL A   1      32.437  34.202  27.621  1.00  0.00    -0.352 N 
ATOM      5  O   UNL A   1      32.638  35.946  29.041  1.00  0.00    -0.269 OA
ATOM      6  C   UNL A   1      33.055  34.853  28.662  1.00  0.00     0.251 C 
ATOM      7  H   UNL A   1      31.752  34.724  27.145  1.00  0.00     0.163 HD
BRANCH   6   8
ATOM      8  C   UNL A   1      34.212  34.233  29.340  1.00  0.00     0.039 A 
ATOM      9  C   UNL A   1      34.024  33.337  30.395  1.00  0.00     0.014 A 
ATOM     10  C   UNL A   1      35.505  34.531  28.898  1.00  0.00     0.014 A 
ATOM     11  C   UNL A   1      35.122  32.846  31.093  1.00  0.00     0.010 A 
ATOM     12  C   UNL A   1      36.609  33.968  29.544  1.00  0.00     0.010 A 
ATOM     13  C   UNL A   1      36.426  33.132  30.658  1.00  0.00    -0.014 A 
BRANCH  13  14
ATOM     14  C   UNL A   1      37.577  32.460  31.311  1.00  0.00     0.031 A 
ATOM     15  C   UNL A   1      38.281  31.305  30.660  1.00  0.00     0.074 A 
ATOM     16  C   UNL A   1      37.971  32.905  32.520  1.00  0.00     0.049 A 
ATOM     17  N   UNL A   1      39.274  30.585  31.119  1.00  0.00    -0.248 NA
ATOM     18  C   UNL A   1      37.812  30.898  29.328  1.00  0.00     0.031 C 
ATOM     19  C   UNL A   1      37.347  34.011  33.252  1.00  0.00     0.029 A 
ATOM     20  N   UNL A   1      38.979  32.488  33.349  1.00  0.00    -0.354 N 
ATOM     21  C   UNL A   1      39.533  29.627  30.147  1.00  0.00     0.074 A 
ATOM     22  C   UNL A   1      38.585  29.849  29.075  1.00  0.00     0.031 C 
ATOM     23  C   UNL A   1      37.996  34.196  34.409  1.00  0.00     0.029 A 
ATOM     24  C   UNL A   1      39.034  33.180  34.534  1.00  0.00     0.049 A 
ATOM     25  H   UNL A   1      39.605  31.763  33.119  1.00  0.00     0.167 HD
ATOM     26  C   UNL A   1      40.478  28.658  30.156  1.00  0.00     0.037 A 
ATOM     27  C   UNL A   1      39.805  32.995  35.622  1.00  0.00     0.037 A 
ATOM     28  C   UNL A   1      41.432  28.464  31.220  1.00  0.00     0.049 A 
ATOM     29  C   UNL A   1      40.816  31.884  35.614  1.00  0.00     0.074 A 
ATOM     30  C   UNL A   1      42.483  27.565  31.281  1.00  0.00     0.029 A 
ATOM     31  N   UNL A   1      41.442  29.170  32.413  1.00  0.00    -0.354 N 
ATOM     32  N   UNL A   1      41.101  31.035  34.657  1.00  0.00    -0.248 NA
ATOM     33  C   UNL A   1      41.608  31.701  36.837  1.00  0.00     0.031 C 
ATOM     34  C   UNL A   1      43.085  27.680  32.537  1.00  0.00     0.029 A 
ATOM     35  C   UNL A   1      42.449  28.691  33.237  1.00  0.00     0.049 A 
ATOM     36  H   UNL A   1      40.825  29.903  32.642  1.00  0.00     0.167 HD
ATOM     37  C   UNL A   1      42.110  30.225  35.156  1.00  0.00     0.074 A 
ATOM     38  C   UNL A   1      42.408  30.702  36.491  1.00  0.00     0.031 C 
ATOM     39  C   UNL A   1      42.729  29.175  34.565  1.00  0.00     0.037 A 
BRANCH  26  40
ATOM     40  C   UNL A   1      40.532  27.702  28.998  1.00  0.00     0.064 A 
ATOM     41  C   UNL A   1      39.706  26.572  28.930  1.00  0.00     0.173 A 
ATOM     42  C   UNL A   1      41.355  27.981  27.895  1.00  0.00     0.173 A 
ATOM     43  F   UNL A   1      38.903  26.258  29.957  1.00  0.00    -0.203 F 
ATOM     44  C   UNL A   1      39.711  25.749  27.806  1.00  0.00     0.198 A 
ATOM     45  C   UNL A   1      41.340  27.170  26.762  1.00  0.00     0.198 A 
ATOM     46  F   UNL A   1      42.159  29.056  27.904  1.00  0.00    -0.203 F 
ATOM     47  F   UNL A   1      38.931  24.659  27.772  1.00  0.00    -0.200 F 
ATOM     48  C   UNL A   1      40.519  26.054  26.720  1.00  0.00     0.200 A 
ATOM     49  F   UNL A   1      42.109  27.477  25.710  1.00  0.00    -0.200 F 
ATOM     50  F   UNL A   1      40.507  25.272  25.631  1.00  0.00    -0.200 F 
ENDBRANCH  26  40
BRANCH  27  51
ATOM     51  C   UNL A   1      39.613  33.851  36.821  1.00  0.00     0.064 A 
ATOM     52  C   UNL A   1      40.247  35.094  36.935  1.00  0.00     0.173 A 
ATOM     53  C   UNL A   1      38.796  33.436  37.885  1.00  0.00     0.173 A 
ATOM     54  F   UNL A   1      41.053  35.526  35.954  1.00  0.00    -0.203 F 
ATOM     55  C   UNL A   1      40.092  35.879  38.076  1.00  0.00     0.198 A 
ATOM     56  C   UNL A   1      38.612  34.237  39.009  1.00  0.00     0.198 A 
ATOM     57  F   UNL A   1      38.161  32.256  37.824  1.00  0.00    -0.203 F 
ATOM     58  F   UNL A   1      40.754  37.039  38.183  1.00  0.00    -0.200 F 
ATOM     59  C   UNL A   1      39.270  35.452  39.109  1.00  0.00     0.200 A 
ATOM     60  F   UNL A   1      37.802  33.829  39.995  1.00  0.00    -0.200 F 
ATOM     61  F   UNL A   1      39.119  36.210  40.204  1.00  0.00    -0.200 F 
ENDBRANCH  27  51
BRANCH  39  62
ATOM     62  C   UNL A   1      43.798  28.477  35.353  1.00  0.00     0.064 A 
ATOM     63  C   UNL A   1      43.497  27.397  36.196  1.00  0.00     0.173 A 
ATOM     64  C   UNL A   1      45.141  28.863  35.230  1.00  0.00     0.173 A 
ATOM     65  F   UNL A   1      42.226  27.005  36.363  1.00  0.00    -0.203 F 
ATOM     66  C   UNL A   1      44.501  26.740  36.902  1.00  0.00     0.198 A 
ATOM     67  C   UNL A   1      46.145  28.183  35.911  1.00  0.00     0.198 A 
ATOM     68  F   UNL A   1      45.481  29.887  34.433  1.00  0.00    -0.203 F 
ATOM     69  F   UNL A   1      44.187  25.739  37.735  1.00  0.00    -0.200 F 
ATOM     70  C   UNL A   1      45.825  27.126  36.751  1.00  0.00     0.200 A 
ATOM     71  F   UNL A   1      47.426  28.549  35.755  1.00  0.00    -0.200 F 
ATOM     72  F   UNL A   1      46.792  26.484  37.421  1.00  0.00    -0.200 F 
ENDBRANCH  39  62
ENDBRANCH  13  14
ENDBRANCH   6   8
ENDBRANCH   3   4
ENDBRANCH   2   3
ENDBRANCH   1   2
BRANCH   1  73
ATOM     73  C   UNL A   1      32.556  29.978  26.041  1.00  0.00     0.116 C 
BRANCH  73  74
ATOM     74  N   UNL A   1      33.260  29.646  24.814  1.00  0.00    -0.352 N 
ATOM     75  C   UNL A   1      33.094  28.542  24.006  1.00  0.00     0.255 C 
ATOM     76  H   UNL A   1      33.944  30.291  24.524  1.00  0.00     0.163 HD
ATOM     77  O   UNL A   1      33.701  28.457  22.943  1.00  0.00    -0.269 OA
BRANCH  75  78
ATOM     78  C   UNL A   1      32.175  27.465  24.429  1.00  0.00     0.092 A 
ATOM     79  C   UNL A   1      30.814  27.612  24.134  1.00  0.00     0.151 A 
ATOM     80  C   UNL A   1      32.684  26.279  25.015  1.00  0.00     0.017 A 
ATOM     81  C   UNL A   1      29.996  26.557  24.490  1.00  0.00     0.159 A 
ATOM     82  C   UNL A   1      31.763  25.234  25.202  1.00  0.00     0.071 A 
ATOM     83  C   UNL A   1      34.044  26.064  25.360  1.00  0.00     0.011 A 
ATOM     84  N   UNL A   1      30.448  25.379  24.980  1.00  0.00    -0.252 NA
ATOM     85  C   UNL A   1      32.237  23.989  25.592  1.00  0.00     0.029 A 
ATOM     86  C   UNL A   1      34.496  24.806  25.751  1.00  0.00     0.001 A 
ATOM     87  C   UNL A   1      33.592  23.758  25.841  1.00  0.00     0.002 A 
BRANCH  79  88
ATOM     88  O   UNL A   1      30.431  28.715  23.425  1.00  0.00    -0.485 OA
BRANCH  88  89
ATOM     89  C   UNL A   1      29.049  28.902  23.092  1.00  0.00     0.285 C 
BRANCH  89  90
ATOM     90  C   UNL A   1      28.651  30.269  22.560  1.00  0.00     0.078 A 
ATOM     91  C   UNL A   1      28.660  31.421  23.345  1.00  0.00     0.027 A 
ATOM     92  N   UNL A   1      28.326  30.312  21.241  1.00  0.00    -0.258 NA
ATOM     93  C   UNL A   1      28.385  32.652  22.756  1.00  0.00     0.004 A 
ATOM     94  C   UNL A   1      28.027  31.516  20.702  1.00  0.00     0.111 A 
ATOM     95  C   UNL A   1      28.059  32.704  21.408  1.00  0.00     0.020 A 
ENDBRANCH  89  90
ENDBRANCH  88  89
ENDBRANCH  79  88
ENDBRANCH  75  78
ENDBRANCH  73  74
ENDBRANCH   1  73
TORSDOF 14
ENDMDL
