MODEL 1
REMARK VINA RESULT:     -12.6      0.000      0.000
REMARK SMILES O=C(NCCCCNC(=O)c1ccc(S(=O)(=O)[O-])cc1N1C(=O)/C(=C\C=C\c2ccccc2)[NH+]=C1c1ccccc1)c1ccc(-c2c3nc(c(-c4c(F)c(F)c(F)c(F)c4F)c4ccc([nH]4)c(-c4c(F)c(F)c(F)c(F)c4F)c4nc(c(-c5c(F)c(F)c(F)c(F)c5F)c5ccc2[nH]5)C=C4)C=C3)cc1
REMARK SMILES IDX 6 1 5 2 4 3 3 4 1 5 2 6 42 8 43 9 104 10 44 11 103 12 45 13
REMARK SMILES IDX 46 14 47 15 97 16 48 17 102 18 96 19 98 20 49 21 101 22
REMARK SMILES IDX 95 23 94 24 50 26 82 27 62 28 81 29 63 30 66 31 80 32 99 33
REMARK SMILES IDX 64 34 65 35 79 37 100 38 67 39 51 40 52 41 60 42 53 43 54 44
REMARK SMILES IDX 58 45 61 46 55 47 56 48 59 49 57 50 83 51 84 52 92 53 85 54
REMARK SMILES IDX 86 55 90 56 93 57 87 58 88 59 91 60 89 61 68 62 69 63 77 64
REMARK SMILES IDX 70 65 71 66 75 67 78 68 72 69 73 70 76 71 74 72 7 73 8 74
REMARK SMILES IDX 9 75 10 77 11 78 12 79 20 80 13 81 19 82 14 83 21 84 22 85
REMARK SMILES IDX 35 86 23 87 24 88 34 89 25 90 36 92 37 93 41 94 38 95 40 96
REMARK SMILES IDX 39 97 26 98 27 99 28 100 29 101 33 102 30 103 32 104 31 105
REMARK SMILES IDX 15 106 16 107 17 108 18 109
REMARK H PARENT 3 7 98 25 66 36 8 76 34 91
REMARK Flexibility Score: inf
ROOT
ATOM      1  C   UNL A   1      48.278  38.687  26.114  1.00  0.00     0.023 C 
ENDROOT
BRANCH   1   2
ATOM      2  C   UNL A   1      48.598  37.296  26.618  1.00  0.00     0.023 C 
BRANCH   2   3
ATOM      3  C   UNL A   1      48.703  37.171  28.130  1.00  0.00     0.116 C 
BRANCH   3   4
ATOM      4  N   UNL A   1      47.682  37.900  28.881  1.00  0.00    -0.352 N 
ATOM      5  O   UNL A   1      45.674  38.146  29.924  1.00  0.00    -0.269 OA
ATOM      6  C   UNL A   1      46.487  37.415  29.373  1.00  0.00     0.251 C 
ATOM      7  H   UNL A   1      47.870  38.850  29.056  1.00  0.00     0.163 HD
BRANCH   6   8
ATOM      8  C   UNL A   1      46.187  35.981  29.174  1.00  0.00     0.039 A 
ATOM      9  C   UNL A   1      45.415  35.601  28.079  1.00  0.00     0.014 A 
ATOM     10  C   UNL A   1      46.539  35.051  30.154  1.00  0.00     0.014 A 
ATOM     11  C   UNL A   1      44.788  34.368  28.097  1.00  0.00     0.010 A 
ATOM     12  C   UNL A   1      46.032  33.749  30.079  1.00  0.00     0.010 A 
ATOM     13  C   UNL A   1      45.110  33.411  29.076  1.00  0.00    -0.014 A 
BRANCH  13  14
ATOM     14  C   UNL A   1      44.512  32.055  28.953  1.00  0.00     0.031 A 
ATOM     15  C   UNL A   1      43.152  31.723  29.502  1.00  0.00     0.074 A 
ATOM     16  C   UNL A   1      45.205  31.131  28.258  1.00  0.00     0.049 A 
ATOM     17  N   UNL A   1      42.487  30.595  29.423  1.00  0.00    -0.248 NA
ATOM     18  C   UNL A   1      42.445  32.778  30.244  1.00  0.00     0.031 C 
ATOM     19  C   UNL A   1      46.544  31.335  27.694  1.00  0.00     0.029 A 
ATOM     20  N   UNL A   1      44.878  29.857  27.871  1.00  0.00    -0.354 N 
ATOM     21  C   UNL A   1      41.296  30.800  30.107  1.00  0.00     0.074 A 
ATOM     22  C   UNL A   1      41.342  32.150  30.630  1.00  0.00     0.031 C 
ATOM     23  C   UNL A   1      46.890  30.263  26.975  1.00  0.00     0.029 A 
ATOM     24  C   UNL A   1      45.849  29.254  27.110  1.00  0.00     0.049 A 
ATOM     25  H   UNL A   1      44.032  29.418  28.115  1.00  0.00     0.167 HD
ATOM     26  C   UNL A   1      40.256  29.943  30.270  1.00  0.00     0.037 A 
ATOM     27  C   UNL A   1      45.918  28.012  26.602  1.00  0.00     0.037 A 
ATOM     28  C   UNL A   1      40.224  28.599  29.744  1.00  0.00     0.049 A 
ATOM     29  C   UNL A   1      44.769  27.077  26.834  1.00  0.00     0.074 A 
ATOM     30  C   UNL A   1      39.217  27.653  29.853  1.00  0.00     0.029 A 
ATOM     31  N   UNL A   1      41.244  28.008  29.011  1.00  0.00    -0.354 N 
ATOM     32  N   UNL A   1      43.642  27.293  27.467  1.00  0.00    -0.248 NA
ATOM     33  C   UNL A   1      44.902  25.725  26.281  1.00  0.00     0.031 C 
ATOM     34  C   UNL A   1      39.650  26.476  29.233  1.00  0.00     0.029 A 
ATOM     35  C   UNL A   1      40.898  26.706  28.679  1.00  0.00     0.049 A 
ATOM     36  H   UNL A   1      42.088  28.449  28.763  1.00  0.00     0.167 HD
ATOM     37  C   UNL A   1      42.923  26.110  27.376  1.00  0.00     0.074 A 
ATOM     38  C   UNL A   1      43.729  25.195  26.594  1.00  0.00     0.031 C 
ATOM     39  C   UNL A   1      41.713  25.805  27.902  1.00  0.00     0.037 A 
BRANCH  26  40
ATOM     40  C   UNL A   1      39.066  30.420  31.057  1.00  0.00     0.064 A 
ATOM     41  C   UNL A   1      38.983  30.243  32.447  1.00  0.00     0.173 A 
ATOM     42  C   UNL A   1      38.027  31.124  30.427  1.00  0.00     0.173 A 
ATOM     43  F   UNL A   1      39.943  29.573  33.100  1.00  0.00    -0.203 F 
ATOM     44  C   UNL A   1      37.897  30.734  33.170  1.00  0.00     0.198 A 
ATOM     45  C   UNL A   1      36.959  31.640  31.158  1.00  0.00     0.198 A 
ATOM     46  F   UNL A   1      38.058  31.332  29.101  1.00  0.00    -0.203 F 
ATOM     47  F   UNL A   1      37.821  30.516  34.490  1.00  0.00    -0.200 F 
ATOM     48  C   UNL A   1      36.891  31.439  32.527  1.00  0.00     0.200 A 
ATOM     49  F   UNL A   1      35.998  32.337  30.537  1.00  0.00    -0.200 F 
ATOM     50  F   UNL A   1      35.856  31.921  33.227  1.00  0.00    -0.200 F 
ENDBRANCH  26  40
BRANCH  27  51
ATOM     51  C   UNL A   1      47.134  27.579  25.866  1.00  0.00     0.064 A 
ATOM     52  C   UNL A   1      47.219  27.682  24.472  1.00  0.00     0.173 A 
ATOM     53  C   UNL A   1      48.239  27.045  26.548  1.00  0.00     0.173 A 
ATOM     54  F   UNL A   1      46.185  28.175  23.772  1.00  0.00    -0.203 F 
ATOM     55  C   UNL A   1      48.347  27.237  23.785  1.00  0.00     0.198 A 
ATOM     56  C   UNL A   1      49.382  26.641  25.865  1.00  0.00     0.198 A 
ATOM     57  F   UNL A   1      48.217  26.937  27.885  1.00  0.00    -0.203 F 
ATOM     58  F   UNL A   1      48.376  27.287  22.447  1.00  0.00    -0.200 F 
ATOM     59  C   UNL A   1      49.429  26.723  24.483  1.00  0.00     0.200 A 
ATOM     60  F   UNL A   1      50.435  26.171  26.548  1.00  0.00    -0.200 F 
ATOM     61  F   UNL A   1      50.514  26.298  23.822  1.00  0.00    -0.200 F 
ENDBRANCH  27  51
BRANCH  39  62
ATOM     62  C   UNL A   1      41.177  24.432  27.612  1.00  0.00     0.064 A 
ATOM     63  C   UNL A   1      41.722  23.285  28.210  1.00  0.00     0.173 A 
ATOM     64  C   UNL A   1      40.110  24.261  26.717  1.00  0.00     0.173 A 
ATOM     65  F   UNL A   1      42.755  23.391  29.059  1.00  0.00    -0.203 F 
ATOM     66  C   UNL A   1      41.249  22.015  27.887  1.00  0.00     0.198 A 
ATOM     67  C   UNL A   1      39.613  22.993  26.427  1.00  0.00     0.198 A 
ATOM     68  F   UNL A   1      39.548  25.323  26.121  1.00  0.00    -0.203 F 
ATOM     69  F   UNL A   1      41.835  20.931  28.413  1.00  0.00    -0.200 F 
ATOM     70  C   UNL A   1      40.192  21.871  27.001  1.00  0.00     0.200 A 
ATOM     71  F   UNL A   1      38.582  22.857  25.582  1.00  0.00    -0.200 F 
ATOM     72  F   UNL A   1      39.740  20.649  26.690  1.00  0.00    -0.200 F 
ENDBRANCH  39  62
ENDBRANCH  13  14
ENDBRANCH   6   8
ENDBRANCH   3   4
ENDBRANCH   2   3
ENDBRANCH   1   2
BRANCH   1  73
ATOM     73  C   UNL A   1      46.876  38.846  25.560  1.00  0.00     0.116 C 
BRANCH  73  74
ATOM     74  N   UNL A   1      46.751  39.443  24.258  1.00  0.00    -0.352 N 
ATOM     75  C   UNL A   1      46.544  40.768  23.931  1.00  0.00     0.255 C 
ATOM     76  H   UNL A   1      46.823  38.824  23.498  1.00  0.00     0.163 HD
ATOM     77  O   UNL A   1      46.435  41.064  22.743  1.00  0.00    -0.269 OA
BRANCH  75  78
ATOM     78  C   UNL A   1      46.319  41.835  24.962  1.00  0.00     0.087 A 
ATOM     79  C   UNL A   1      47.463  42.143  25.725  1.00  0.00     0.019 A 
ATOM     80  C   UNL A   1      45.129  42.569  25.195  1.00  0.00     0.150 A 
ATOM     81  C   UNL A   1      47.445  43.162  26.680  1.00  0.00     0.020 A 
ATOM     82  C   UNL A   1      45.116  43.583  26.165  1.00  0.00     0.072 A 
ATOM     83  C   UNL A   1      46.268  43.876  26.892  1.00  0.00     0.059 A 
BRANCH  80  84
ATOM     84  N   UNL A   1      43.928  42.336  24.497  1.00  0.00    -0.153 N 
ATOM     85  C   UNL A   1      43.650  42.940  23.299  1.00  0.00     0.385 C 
ATOM     86  C   UNL A   1      42.889  41.488  24.810  1.00  0.00     0.295 C 
ATOM     87  O   UNL A   1      44.355  43.677  22.632  1.00  0.00    -0.236 OA
ATOM     88  C   UNL A   1      42.292  42.406  22.968  1.00  0.00     0.215 C 
ATOM     89  N   UNL A   1      41.914  41.491  23.939  1.00  0.00    -0.233 N 
ATOM     90  C   UNL A   1      41.531  42.771  21.924  1.00  0.00     0.060 C 
ATOM     91  H   UNL A   1      41.088  40.957  23.966  1.00  0.00     0.312 HD
BRANCH  86  92
ATOM     92  C   UNL A   1      42.797  40.699  26.083  1.00  0.00     0.065 A 
ATOM     93  C   UNL A   1      43.704  39.655  26.283  1.00  0.00     0.017 A 
ATOM     94  C   UNL A   1      41.785  40.888  27.042  1.00  0.00     0.017 A 
ATOM     95  C   UNL A   1      43.594  38.825  27.408  1.00  0.00     0.001 A 
ATOM     96  C   UNL A   1      41.650  40.035  28.139  1.00  0.00     0.001 A 
ATOM     97  C   UNL A   1      42.558  39.004  28.323  1.00  0.00     0.000 A 
ENDBRANCH  86  92
BRANCH  90  98
ATOM     98  C   UNL A   1      41.906  43.720  20.891  1.00  0.00     0.005 C 
ATOM     99  C   UNL A   1      41.644  43.587  19.581  1.00  0.00     0.008 C 
BRANCH  99 100
ATOM    100  C   UNL A   1      42.164  44.544  18.584  1.00  0.00    -0.026 A 
ATOM    101  C   UNL A   1      43.510  44.926  18.607  1.00  0.00     0.008 A 
ATOM    102  C   UNL A   1      41.316  45.139  17.636  1.00  0.00     0.008 A 
ATOM    103  C   UNL A   1      44.001  45.859  17.687  1.00  0.00     0.001 A 
ATOM    104  C   UNL A   1      41.805  46.071  16.717  1.00  0.00     0.001 A 
ATOM    105  C   UNL A   1      43.149  46.430  16.742  1.00  0.00     0.000 A 
ENDBRANCH  99 100
ENDBRANCH  90  98
ENDBRANCH  80  84
BRANCH  83 106
ATOM    106  S   UNL A   1      46.246  45.173  28.094  1.00  0.00     0.124 S 
ATOM    107  O   UNL A   1      47.537  45.199  28.741  1.00  0.00    -0.237 OA
ATOM    108  O   UNL A   1      45.681  46.342  27.459  1.00  0.00    -0.237 OA
ATOM    109  O   UNL A   1      45.181  44.707  29.215  1.00  0.00    -0.744 OA
ENDBRANCH  83 106
ENDBRANCH  75  78
ENDBRANCH  73  74
ENDBRANCH   1  73
TORSDOF 16
ENDMDL
MODEL 2
REMARK VINA RESULT:     -12.3      0.476      6.817
REMARK SMILES O=C(NCCCCNC(=O)c1ccc(S(=O)(=O)[O-])cc1N1C(=O)/C(=C\C=C\c2ccccc2)[NH+]=C1c1ccccc1)c1ccc(-c2c3nc(c(-c4c(F)c(F)c(F)c(F)c4F)c4ccc([nH]4)c(-c4c(F)c(F)c(F)c(F)c4F)c4nc(c(-c5c(F)c(F)c(F)c(F)c5F)c5ccc2[nH]5)C=C4)C=C3)cc1
REMARK SMILES IDX 6 1 5 2 4 3 3 4 1 5 2 6 42 8 43 9 104 10 44 11 103 12 45 13
REMARK SMILES IDX 46 14 47 15 97 16 48 17 102 18 96 19 98 20 49 21 101 22
REMARK SMILES IDX 95 23 94 24 50 26 82 27 62 28 81 29 63 30 66 31 80 32 99 33
REMARK SMILES IDX 64 34 65 35 79 37 100 38 67 39 51 40 52 41 60 42 53 43 54 44
REMARK SMILES IDX 58 45 61 46 55 47 56 48 59 49 57 50 83 51 84 52 92 53 85 54
REMARK SMILES IDX 86 55 90 56 93 57 87 58 88 59 91 60 89 61 68 62 69 63 77 64
REMARK SMILES IDX 70 65 71 66 75 67 78 68 72 69 73 70 76 71 74 72 7 73 8 74
REMARK SMILES IDX 9 75 10 77 11 78 12 79 20 80 13 81 19 82 14 83 21 84 22 85
REMARK SMILES IDX 35 86 23 87 24 88 34 89 25 90 36 92 37 93 41 94 38 95 40 96
REMARK SMILES IDX 39 97 26 98 27 99 28 100 29 101 33 102 30 103 32 104 31 105
REMARK SMILES IDX 15 106 16 107 17 108 18 109
REMARK H PARENT 3 7 98 25 66 36 8 76 34 91
REMARK Flexibility Score: inf
ROOT
ATOM      1  C   UNL A   1      47.787  37.669  26.043  1.00  0.00     0.023 C 
ENDROOT
BRANCH   1   2
ATOM      2  C   UNL A   1      48.886  38.010  27.025  1.00  0.00     0.023 C 
BRANCH   2   3
ATOM      3  C   UNL A   1      48.752  37.352  28.389  1.00  0.00     0.116 C 
BRANCH   3   4
ATOM      4  N   UNL A   1      47.735  37.940  29.259  1.00  0.00    -0.352 N 
ATOM      5  O   UNL A   1      45.753  37.983  30.377  1.00  0.00    -0.269 OA
ATOM      6  C   UNL A   1      46.567  37.358  29.709  1.00  0.00     0.251 C 
ATOM      7  H   UNL A   1      47.904  38.862  29.560  1.00  0.00     0.163 HD
BRANCH   6   8
ATOM      8  C   UNL A   1      46.298  35.958  29.321  1.00  0.00     0.039 A 
ATOM      9  C   UNL A   1      45.568  35.709  28.161  1.00  0.00     0.014 A 
ATOM     10  C   UNL A   1      46.635  34.914  30.187  1.00  0.00     0.014 A 
ATOM     11  C   UNL A   1      44.961  34.476  28.003  1.00  0.00     0.010 A 
ATOM     12  C   UNL A   1      46.151  33.626  29.931  1.00  0.00     0.010 A 
ATOM     13  C   UNL A   1      45.267  33.407  28.863  1.00  0.00    -0.014 A 
BRANCH  13  14
ATOM     14  C   UNL A   1      44.696  32.070  28.550  1.00  0.00     0.031 A 
ATOM     15  C   UNL A   1      45.451  31.038  27.760  1.00  0.00     0.074 A 
ATOM     16  C   UNL A   1      43.486  31.775  29.067  1.00  0.00     0.049 A 
ATOM     17  N   UNL A   1      45.094  29.813  27.456  1.00  0.00    -0.248 NA
ATOM     18  C   UNL A   1      46.769  31.421  27.231  1.00  0.00     0.031 C 
ATOM     19  C   UNL A   1      42.653  32.706  29.836  1.00  0.00     0.029 A 
ATOM     20  N   UNL A   1      42.760  30.613  29.064  1.00  0.00    -0.354 N 
ATOM     21  C   UNL A   1      46.131  29.285  26.697  1.00  0.00     0.074 A 
ATOM     22  C   UNL A   1      47.118  30.335  26.553  1.00  0.00     0.031 C 
ATOM     23  C   UNL A   1      41.574  32.061  30.292  1.00  0.00     0.029 A 
ATOM     24  C   UNL A   1      41.583  30.705  29.764  1.00  0.00     0.049 A 
ATOM     25  H   UNL A   1      43.054  29.793  28.605  1.00  0.00     0.167 HD
ATOM     26  C   UNL A   1      46.250  28.036  26.182  1.00  0.00     0.037 A 
ATOM     27  C   UNL A   1      40.594  29.811  29.936  1.00  0.00     0.037 A 
ATOM     28  C   UNL A   1      45.257  26.999  26.332  1.00  0.00     0.049 A 
ATOM     29  C   UNL A   1      40.740  28.451  29.320  1.00  0.00     0.074 A 
ATOM     30  C   UNL A   1      45.285  25.700  25.850  1.00  0.00     0.029 A 
ATOM     31  N   UNL A   1      44.056  27.141  27.015  1.00  0.00    -0.354 N 
ATOM     32  N   UNL A   1      41.735  27.962  28.622  1.00  0.00    -0.248 NA
ATOM     33  C   UNL A   1      39.624  27.519  29.516  1.00  0.00     0.031 C 
ATOM     34  C   UNL A   1      44.080  25.076  26.194  1.00  0.00     0.029 A 
ATOM     35  C   UNL A   1      43.329  25.962  26.949  1.00  0.00     0.049 A 
ATOM     36  H   UNL A   1      43.765  27.960  27.477  1.00  0.00     0.167 HD
ATOM     37  C   UNL A   1      41.375  26.661  28.308  1.00  0.00     0.074 A 
ATOM     38  C   UNL A   1      40.085  26.427  28.925  1.00  0.00     0.031 C 
ATOM     39  C   UNL A   1      42.044  25.746  27.566  1.00  0.00     0.037 A 
BRANCH  26  40
ATOM     40  C   UNL A   1      47.492  27.713  25.396  1.00  0.00     0.064 A 
ATOM     41  C   UNL A   1      48.671  27.285  26.026  1.00  0.00     0.173 A 
ATOM     42  C   UNL A   1      47.485  27.764  23.993  1.00  0.00     0.173 A 
ATOM     43  F   UNL A   1      48.738  27.223  27.364  1.00  0.00    -0.203 F 
ATOM     44  C   UNL A   1      49.799  26.942  25.283  1.00  0.00     0.198 A 
ATOM     45  C   UNL A   1      48.604  27.391  23.252  1.00  0.00     0.198 A 
ATOM     46  F   UNL A   1      46.382  28.157  23.336  1.00  0.00    -0.203 F 
ATOM     47  F   UNL A   1      50.926  26.576  25.909  1.00  0.00    -0.200 F 
ATOM     48  C   UNL A   1      49.762  26.987  23.897  1.00  0.00     0.200 A 
ATOM     49  F   UNL A   1      48.560  27.418  21.913  1.00  0.00    -0.200 F 
ATOM     50  F   UNL A   1      50.844  26.643  23.185  1.00  0.00    -0.200 F 
ENDBRANCH  26  40
BRANCH  27  51
ATOM     51  C   UNL A   1      39.371  30.194  30.689  1.00  0.00     0.064 A 
ATOM     52  C   UNL A   1      39.265  29.977  32.068  1.00  0.00     0.173 A 
ATOM     53  C   UNL A   1      38.277  30.784  30.036  1.00  0.00     0.173 A 
ATOM     54  F   UNL A   1      40.279  29.406  32.737  1.00  0.00    -0.203 F 
ATOM     55  C   UNL A   1      38.099  30.303  32.759  1.00  0.00     0.198 A 
ATOM     56  C   UNL A   1      37.131  31.149  30.734  1.00  0.00     0.198 A 
ATOM     57  F   UNL A   1      38.331  31.027  28.718  1.00  0.00    -0.203 F 
ATOM     58  F   UNL A   1      38.000  30.025  34.066  1.00  0.00    -0.200 F 
ATOM     59  C   UNL A   1      37.037  30.893  32.093  1.00  0.00     0.200 A 
ATOM     60  F   UNL A   1      36.118  31.745  30.090  1.00  0.00    -0.200 F 
ATOM     61  F   UNL A   1      35.918  31.209  32.759  1.00  0.00    -0.200 F 
ENDBRANCH  27  51
BRANCH  39  62
ATOM     62  C   UNL A   1      41.400  24.396  27.417  1.00  0.00     0.064 A 
ATOM     63  C   UNL A   1      41.907  23.260  28.066  1.00  0.00     0.173 A 
ATOM     64  C   UNL A   1      40.266  24.238  26.606  1.00  0.00     0.173 A 
ATOM     65  F   UNL A   1      43.001  23.354  28.837  1.00  0.00    -0.203 F 
ATOM     66  C   UNL A   1      41.330  22.007  27.872  1.00  0.00     0.198 A 
ATOM     67  C   UNL A   1      39.667  22.990  26.447  1.00  0.00     0.198 A 
ATOM     68  F   UNL A   1      39.736  25.291  25.968  1.00  0.00    -0.203 F 
ATOM     69  F   UNL A   1      41.878  20.925  28.442  1.00  0.00    -0.200 F 
ATOM     70  C   UNL A   1      40.208  21.875  27.068  1.00  0.00     0.200 A 
ATOM     71  F   UNL A   1      38.575  22.867  25.682  1.00  0.00    -0.200 F 
ATOM     72  F   UNL A   1      39.656  20.669  26.881  1.00  0.00    -0.200 F 
ENDBRANCH  39  62
ENDBRANCH  13  14
ENDBRANCH   6   8
ENDBRANCH   3   4
ENDBRANCH   2   3
ENDBRANCH   1   2
BRANCH   1  73
ATOM     73  C   UNL A   1      46.775  38.778  25.823  1.00  0.00     0.116 C 
BRANCH  73  74
ATOM     74  N   UNL A   1      46.682  39.326  24.498  1.00  0.00    -0.352 N 
ATOM     75  C   UNL A   1      46.507  40.641  24.116  1.00  0.00     0.255 C 
ATOM     76  H   UNL A   1      46.754  38.676  23.763  1.00  0.00     0.163 HD
ATOM     77  O   UNL A   1      46.422  40.892  22.916  1.00  0.00    -0.269 OA
BRANCH  75  78
ATOM     78  C   UNL A   1      46.288  41.752  25.101  1.00  0.00     0.087 A 
ATOM     79  C   UNL A   1      47.426  42.067  25.869  1.00  0.00     0.019 A 
ATOM     80  C   UNL A   1      45.109  42.517  25.287  1.00  0.00     0.150 A 
ATOM     81  C   UNL A   1      47.414  43.123  26.783  1.00  0.00     0.020 A 
ATOM     82  C   UNL A   1      45.102  43.567  26.217  1.00  0.00     0.072 A 
ATOM     83  C   UNL A   1      46.248  43.867  26.949  1.00  0.00     0.059 A 
BRANCH  80  84
ATOM     84  N   UNL A   1      43.914  42.279  24.580  1.00  0.00    -0.153 N 
ATOM     85  C   UNL A   1      43.649  42.871  23.373  1.00  0.00     0.385 C 
ATOM     86  C   UNL A   1      42.870  41.437  24.892  1.00  0.00     0.295 C 
ATOM     87  O   UNL A   1      44.362  43.598  22.705  1.00  0.00    -0.236 OA
ATOM     88  C   UNL A   1      42.293  42.336  23.035  1.00  0.00     0.215 C 
ATOM     89  N   UNL A   1      41.904  41.433  24.011  1.00  0.00    -0.233 N 
ATOM     90  C   UNL A   1      41.543  42.692  21.979  1.00  0.00     0.060 C 
ATOM     91  H   UNL A   1      41.075  40.901  24.037  1.00  0.00     0.312 HD
BRANCH  86  92
ATOM     92  C   UNL A   1      42.763  40.662  26.173  1.00  0.00     0.065 A 
ATOM     93  C   UNL A   1      41.682  40.925  27.019  1.00  0.00     0.017 A 
ATOM     94  C   UNL A   1      43.744  39.756  26.616  1.00  0.00     0.017 A 
ATOM     95  C   UNL A   1      41.593  40.302  28.271  1.00  0.00     0.001 A 
ATOM     96  C   UNL A   1      43.676  39.169  27.881  1.00  0.00     0.001 A 
ATOM     97  C   UNL A   1      42.598  39.440  28.708  1.00  0.00     0.000 A 
ENDBRANCH  86  92
BRANCH  90  98
ATOM     98  C   UNL A   1      41.930  43.629  20.940  1.00  0.00     0.005 C 
ATOM     99  C   UNL A   1      41.549  43.565  19.654  1.00  0.00     0.008 C 
BRANCH  99 100
ATOM    100  C   UNL A   1      42.083  44.494  18.639  1.00  0.00    -0.026 A 
ATOM    101  C   UNL A   1      41.261  45.479  18.081  1.00  0.00     0.008 A 
ATOM    102  C   UNL A   1      43.400  44.374  18.166  1.00  0.00     0.008 A 
ATOM    103  C   UNL A   1      41.753  46.341  17.093  1.00  0.00     0.001 A 
ATOM    104  C   UNL A   1      43.891  45.233  17.179  1.00  0.00     0.001 A 
ATOM    105  C   UNL A   1      43.067  46.218  16.644  1.00  0.00     0.000 A 
ENDBRANCH  99 100
ENDBRANCH  90  98
ENDBRANCH  80  84
BRANCH  83 106
ATOM    106  S   UNL A   1      46.234  45.211  28.099  1.00  0.00     0.124 S 
ATOM    107  O   UNL A   1      47.569  45.352  28.631  1.00  0.00    -0.237 OA
ATOM    108  O   UNL A   1      45.536  46.310  27.471  1.00  0.00    -0.237 OA
ATOM    109  O   UNL A   1      45.302  44.722  29.324  1.00  0.00    -0.744 OA
ENDBRANCH  83 106
ENDBRANCH  75  78
ENDBRANCH  73  74
ENDBRANCH   1  73
TORSDOF 16
ENDMDL
MODEL 3
REMARK VINA RESULT:     -11.7      5.779     11.645
REMARK SMILES O=C(NCCCCNC(=O)c1ccc(S(=O)(=O)[O-])cc1N1C(=O)/C(=C\C=C\c2ccccc2)[NH+]=C1c1ccccc1)c1ccc(-c2c3nc(c(-c4c(F)c(F)c(F)c(F)c4F)c4ccc([nH]4)c(-c4c(F)c(F)c(F)c(F)c4F)c4nc(c(-c5c(F)c(F)c(F)c(F)c5F)c5ccc2[nH]5)C=C4)C=C3)cc1
REMARK SMILES IDX 6 1 5 2 4 3 3 4 1 5 2 6 42 8 43 9 104 10 44 11 103 12 45 13
REMARK SMILES IDX 46 14 47 15 97 16 48 17 102 18 96 19 98 20 49 21 101 22
REMARK SMILES IDX 95 23 94 24 50 26 82 27 62 28 81 29 63 30 66 31 80 32 99 33
REMARK SMILES IDX 64 34 65 35 79 37 100 38 67 39 51 40 52 41 60 42 53 43 54 44
REMARK SMILES IDX 58 45 61 46 55 47 56 48 59 49 57 50 83 51 84 52 92 53 85 54
REMARK SMILES IDX 86 55 90 56 93 57 87 58 88 59 91 60 89 61 68 62 69 63 77 64
REMARK SMILES IDX 70 65 71 66 75 67 78 68 72 69 73 70 76 71 74 72 7 73 8 74
REMARK SMILES IDX 9 75 10 77 11 78 12 79 20 80 13 81 19 82 14 83 21 84 22 85
REMARK SMILES IDX 35 86 23 87 24 88 34 89 25 90 36 92 37 93 41 94 38 95 40 96
REMARK SMILES IDX 39 97 26 98 27 99 28 100 29 101 33 102 30 103 32 104 31 105
REMARK SMILES IDX 15 106 16 107 17 108 18 109
REMARK H PARENT 3 7 98 25 66 36 8 76 34 91
REMARK Flexibility Score: inf
ROOT
ATOM      1  C   UNL A   1      43.192  34.887  32.250  1.00  0.00     0.023 C 
ENDROOT
BRANCH   1   2
ATOM      2  C   UNL A   1      43.738  36.148  31.617  1.00  0.00     0.023 C 
BRANCH   2   3
ATOM      3  C   UNL A   1      45.217  36.401  31.865  1.00  0.00     0.116 C 
BRANCH   3   4
ATOM      4  N   UNL A   1      45.873  37.242  30.866  1.00  0.00    -0.352 N 
ATOM      5  O   UNL A   1      46.922  37.658  28.888  1.00  0.00    -0.269 OA
ATOM      6  C   UNL A   1      46.314  36.877  29.609  1.00  0.00     0.251 C 
ATOM      7  H   UNL A   1      46.018  38.182  31.120  1.00  0.00     0.163 HD
BRANCH   6   8
ATOM      8  C   UNL A   1      46.072  35.487  29.168  1.00  0.00     0.039 A 
ATOM      9  C   UNL A   1      45.221  35.263  28.089  1.00  0.00     0.014 A 
ATOM     10  C   UNL A   1      46.563  34.418  29.921  1.00  0.00     0.014 A 
ATOM     11  C   UNL A   1      44.663  34.007  27.925  1.00  0.00     0.010 A 
ATOM     12  C   UNL A   1      46.119  33.121  29.644  1.00  0.00     0.010 A 
ATOM     13  C   UNL A   1      45.125  32.911  28.675  1.00  0.00    -0.014 A 
BRANCH  13  14
ATOM     14  C   UNL A   1      44.589  31.563  28.348  1.00  0.00     0.031 A 
ATOM     15  C   UNL A   1      45.366  30.565  27.535  1.00  0.00     0.074 A 
ATOM     16  C   UNL A   1      43.393  31.226  28.872  1.00  0.00     0.049 A 
ATOM     17  N   UNL A   1      45.041  29.334  27.216  1.00  0.00    -0.248 NA
ATOM     18  C   UNL A   1      46.667  30.992  27.000  1.00  0.00     0.031 C 
ATOM     19  C   UNL A   1      42.541  32.121  29.662  1.00  0.00     0.029 A 
ATOM     20  N   UNL A   1      42.701  30.043  28.858  1.00  0.00    -0.354 N 
ATOM     21  C   UNL A   1      46.084  28.847  26.441  1.00  0.00     0.074 A 
ATOM     22  C   UNL A   1      47.040  29.927  26.303  1.00  0.00     0.031 C 
ATOM     23  C   UNL A   1      41.485  31.439  30.118  1.00  0.00     0.029 A 
ATOM     24  C   UNL A   1      41.528  30.092  29.570  1.00  0.00     0.049 A 
ATOM     25  H   UNL A   1      43.014  29.239  28.385  1.00  0.00     0.167 HD
ATOM     26  C   UNL A   1      46.234  27.609  25.906  1.00  0.00     0.037 A 
ATOM     27  C   UNL A   1      40.567  29.167  29.739  1.00  0.00     0.037 A 
ATOM     28  C   UNL A   1      45.273  26.542  26.050  1.00  0.00     0.049 A 
ATOM     29  C   UNL A   1      40.745  27.821  29.101  1.00  0.00     0.074 A 
ATOM     30  C   UNL A   1      45.333  25.252  25.549  1.00  0.00     0.029 A 
ATOM     31  N   UNL A   1      44.075  26.641  26.746  1.00  0.00    -0.354 N 
ATOM     32  N   UNL A   1      41.748  27.372  28.387  1.00  0.00    -0.248 NA
ATOM     33  C   UNL A   1      39.659  26.855  29.294  1.00  0.00     0.031 C 
ATOM     34  C   UNL A   1      44.150  24.589  25.896  1.00  0.00     0.029 A 
ATOM     35  C   UNL A   1      43.381  25.441  26.670  1.00  0.00     0.049 A 
ATOM     36  H   UNL A   1      43.765  27.444  27.223  1.00  0.00     0.167 HD
ATOM     37  C   UNL A   1      41.421  26.065  28.057  1.00  0.00     0.074 A 
ATOM     38  C   UNL A   1      40.144  25.786  28.683  1.00  0.00     0.031 C 
ATOM     39  C   UNL A   1      42.109  25.180  27.296  1.00  0.00     0.037 A 
BRANCH  26  40
ATOM     40  C   UNL A   1      47.477  27.333  25.104  1.00  0.00     0.064 A 
ATOM     41  C   UNL A   1      47.583  27.712  23.757  1.00  0.00     0.173 A 
ATOM     42  C   UNL A   1      48.601  26.746  25.706  1.00  0.00     0.173 A 
ATOM     43  F   UNL A   1      46.538  28.272  23.128  1.00  0.00    -0.203 F 
ATOM     44  C   UNL A   1      48.758  27.495  23.039  1.00  0.00     0.198 A 
ATOM     45  C   UNL A   1      49.785  26.559  24.994  1.00  0.00     0.198 A 
ATOM     46  F   UNL A   1      48.561  26.372  26.994  1.00  0.00    -0.203 F 
ATOM     47  F   UNL A   1      48.821  27.829  21.743  1.00  0.00    -0.200 F 
ATOM     48  C   UNL A   1      49.860  26.927  23.661  1.00  0.00     0.200 A 
ATOM     49  F   UNL A   1      50.854  26.026  25.602  1.00  0.00    -0.200 F 
ATOM     50  F   UNL A   1      50.993  26.732  22.972  1.00  0.00    -0.200 F 
ENDBRANCH  26  40
BRANCH  27  51
ATOM     51  C   UNL A   1      39.341  29.505  30.508  1.00  0.00     0.064 A 
ATOM     52  C   UNL A   1      38.159  29.891  29.865  1.00  0.00     0.173 A 
ATOM     53  C   UNL A   1      39.333  29.453  31.912  1.00  0.00     0.173 A 
ATOM     54  F   UNL A   1      38.118  29.967  28.526  1.00  0.00    -0.203 F 
ATOM     55  C   UNL A   1      37.026  30.245  30.596  1.00  0.00     0.198 A 
ATOM     56  C   UNL A   1      38.188  29.765  32.638  1.00  0.00     0.198 A 
ATOM     57  F   UNL A   1      40.434  29.076  32.578  1.00  0.00    -0.203 F 
ATOM     58  F   UNL A   1      35.928  30.673  29.957  1.00  0.00    -0.200 F 
ATOM     59  C   UNL A   1      37.040  30.175  31.980  1.00  0.00     0.200 A 
ATOM     60  F   UNL A   1      38.200  29.668  33.975  1.00  0.00    -0.200 F 
ATOM     61  F   UNL A   1      35.949  30.512  32.681  1.00  0.00    -0.200 F 
ENDBRANCH  27  51
BRANCH  39  62
ATOM     62  C   UNL A   1      41.503  23.815  27.133  1.00  0.00     0.064 A 
ATOM     63  C   UNL A   1      40.323  23.613  26.399  1.00  0.00     0.173 A 
ATOM     64  C   UNL A   1      42.106  22.695  27.726  1.00  0.00     0.173 A 
ATOM     65  F   UNL A   1      39.697  24.652  25.827  1.00  0.00    -0.203 F 
ATOM     66  C   UNL A   1      39.746  22.349  26.305  1.00  0.00     0.198 A 
ATOM     67  C   UNL A   1      41.547  21.427  27.596  1.00  0.00     0.198 A 
ATOM     68  F   UNL A   1      43.237  22.830  28.434  1.00  0.00    -0.203 F 
ATOM     69  F   UNL A   1      38.580  22.195  25.663  1.00  0.00    -0.200 F 
ATOM     70  C   UNL A   1      40.361  21.258  26.898  1.00  0.00     0.200 A 
ATOM     71  F   UNL A   1      42.150  20.371  28.158  1.00  0.00    -0.200 F 
ATOM     72  F   UNL A   1      39.803  20.043  26.808  1.00  0.00    -0.200 F 
ENDBRANCH  39  62
ENDBRANCH  13  14
ENDBRANCH   6   8
ENDBRANCH   3   4
ENDBRANCH   2   3
ENDBRANCH   1   2
BRANCH   1  73
ATOM     73  C   UNL A   1      41.715  34.944  32.590  1.00  0.00     0.116 C 
BRANCH  73  74
ATOM     74  N   UNL A   1      41.354  35.566  33.834  1.00  0.00    -0.352 N 
ATOM     75  C   UNL A   1      41.170  34.983  35.071  1.00  0.00     0.255 C 
ATOM     76  H   UNL A   1      41.219  36.540  33.799  1.00  0.00     0.163 HD
ATOM     77  O   UNL A   1      40.828  35.701  36.008  1.00  0.00    -0.269 OA
BRANCH  75  78
ATOM     78  C   UNL A   1      41.244  33.499  35.290  1.00  0.00     0.087 A 
ATOM     79  C   UNL A   1      42.553  32.981  35.253  1.00  0.00     0.019 A 
ATOM     80  C   UNL A   1      40.171  32.618  35.573  1.00  0.00     0.150 A 
ATOM     81  C   UNL A   1      42.805  31.631  35.508  1.00  0.00     0.020 A 
ATOM     82  C   UNL A   1      40.432  31.260  35.814  1.00  0.00     0.072 A 
ATOM     83  C   UNL A   1      41.739  30.779  35.788  1.00  0.00     0.059 A 
BRANCH  80  84
ATOM     84  N   UNL A   1      38.825  33.029  35.623  1.00  0.00    -0.153 N 
ATOM     85  C   UNL A   1      38.074  33.213  34.491  1.00  0.00     0.385 C 
ATOM     86  C   UNL A   1      38.024  33.262  36.719  1.00  0.00     0.295 C 
ATOM     87  O   UNL A   1      38.379  33.010  33.329  1.00  0.00    -0.236 OA
ATOM     88  C   UNL A   1      36.754  33.652  35.039  1.00  0.00     0.215 C 
ATOM     89  N   UNL A   1      36.803  33.622  36.424  1.00  0.00    -0.233 N 
ATOM     90  C   UNL A   1      35.691  34.052  34.320  1.00  0.00     0.060 C 
ATOM     91  H   UNL A   1      36.072  33.826  37.052  1.00  0.00     0.312 HD
BRANCH  86  92
ATOM     92  C   UNL A   1      38.507  33.227  38.140  1.00  0.00     0.065 A 
ATOM     93  C   UNL A   1      39.662  33.944  38.465  1.00  0.00     0.017 A 
ATOM     94  C   UNL A   1      37.919  32.432  39.140  1.00  0.00     0.017 A 
ATOM     95  C   UNL A   1      40.209  33.861  39.753  1.00  0.00     0.001 A 
ATOM     96  C   UNL A   1      38.488  32.316  40.410  1.00  0.00     0.001 A 
ATOM     97  C   UNL A   1      39.634  33.034  40.717  1.00  0.00     0.000 A 
ENDBRANCH  86  92
BRANCH  90  98
ATOM     98  C   UNL A   1      35.612  34.086  32.871  1.00  0.00     0.005 C 
ATOM     99  C   UNL A   1      34.608  34.625  32.160  1.00  0.00     0.008 C 
BRANCH  99 100
ATOM    100  C   UNL A   1      34.552  34.513  30.690  1.00  0.00    -0.026 A 
ATOM    101  C   UNL A   1      33.439  34.990  29.987  1.00  0.00     0.008 A 
ATOM    102  C   UNL A   1      35.574  33.875  29.969  1.00  0.00     0.008 A 
ATOM    103  C   UNL A   1      33.364  34.856  28.596  1.00  0.00     0.001 A 
ATOM    104  C   UNL A   1      35.501  33.741  28.580  1.00  0.00     0.001 A 
ATOM    105  C   UNL A   1      34.395  34.233  27.893  1.00  0.00     0.000 A 
ENDBRANCH  99 100
ENDBRANCH  90  98
ENDBRANCH  80  84
BRANCH  83 106
ATOM    106  S   UNL A   1      42.058  29.072  36.120  1.00  0.00     0.124 S 
ATOM    107  O   UNL A   1      43.101  29.002  37.118  1.00  0.00    -0.237 OA
ATOM    108  O   UNL A   1      40.780  28.420  36.297  1.00  0.00    -0.237 OA
ATOM    109  O   UNL A   1      42.687  28.476  34.757  1.00  0.00    -0.744 OA
ENDBRANCH  83 106
ENDBRANCH  75  78
ENDBRANCH  73  74
ENDBRANCH   1  73
TORSDOF 16
ENDMDL
