MODEL 1
REMARK VINA RESULT:     -14.1      0.000      0.000
REMARK SMILES Cc1cnn(C2(C(=O)NCCCCNC(=O)c3ccc(-c4c5nc(c(-c6c(F)c(F)c(F)c(F)c6F)c6ccc([nH]6)c(-c6c(F)c(F)c(F)c(F)c6F)c6nc(c(-c7c(F)c(F)c(F)c(F)c7F)c7ccc4[nH]7)C=C6)C=C5)cc3)CCN(C(=O)c3cc4ccccc4[nH]3)CC2)c1
REMARK SMILES IDX 12 1 11 2 10 3 9 4 7 5 8 6 6 8 80 9 95 10 81 11 94 12 82 13
REMARK SMILES IDX 83 14 84 15 5 16 1 17 2 18 3 19 96 20 4 21 85 22 86 23 93 24
REMARK SMILES IDX 87 25 92 26 88 28 91 29 89 30 90 31 13 32 14 33 15 34 16 36
REMARK SMILES IDX 17 37 18 38 79 39 19 40 78 41 20 42 21 43 22 44 72 45 23 46
REMARK SMILES IDX 77 47 71 48 73 49 24 50 76 51 70 52 69 53 25 55 57 56 37 57
REMARK SMILES IDX 56 58 38 59 41 60 55 61 74 62 39 63 40 64 54 66 75 67 42 68
REMARK SMILES IDX 26 69 27 70 35 71 28 72 29 73 33 74 36 75 30 76 31 77 34 78
REMARK SMILES IDX 32 79 58 80 59 81 67 82 60 83 61 84 65 85 68 86 62 87 63 88
REMARK SMILES IDX 66 89 64 90 43 91 44 92 52 93 45 94 46 95 50 96 53 97 47 98
REMARK SMILES IDX 48 99 51 100 49 101
REMARK H PARENT 9 7 93 27 14 35 73 54 41 65
REMARK Flexibility Score: inf
ROOT
ATOM      1  C   UNL A   1      33.677  29.541  26.242  1.00  0.00     0.023 C 
ENDROOT
BRANCH   1   2
ATOM      2  C   UNL A   1      32.279  28.985  26.537  1.00  0.00     0.023 C 
BRANCH   2   3
ATOM      3  C   UNL A   1      32.221  27.725  27.412  1.00  0.00     0.116 C 
BRANCH   3   4
ATOM      4  N   UNL A   1      31.067  26.885  27.115  1.00  0.00    -0.354 N 
ATOM      5  C   UNL A   1      30.847  25.831  26.252  1.00  0.00     0.248 C 
ATOM      6  O   UNL A   1      29.685  25.422  26.295  1.00  0.00    -0.272 OA
ATOM      7  H   UNL A   1      30.271  27.121  27.646  1.00  0.00     0.163 HD
BRANCH   5   8
ATOM      8  C   UNL A   1      31.991  25.241  25.353  1.00  0.00     0.144 C 
ATOM      9  C   UNL A   1      33.288  25.257  26.206  1.00  0.00     0.062 C 
ATOM     10  C   UNL A   1      31.504  23.845  24.896  1.00  0.00     0.062 C 
ATOM     11  C   UNL A   1      34.263  24.114  25.968  1.00  0.00     0.123 C 
ATOM     12  C   UNL A   1      32.610  22.840  24.636  1.00  0.00     0.123 C 
ATOM     13  N   UNL A   1      33.612  22.844  25.694  1.00  0.00    -0.337 N 
ATOM     14  C   UNL A   1      34.058  21.703  26.372  1.00  0.00     0.270 C 
ATOM     15  O   UNL A   1      34.643  21.789  27.451  1.00  0.00    -0.267 OA
BRANCH   8  16
ATOM     16  N   UNL A   1      32.275  26.017  24.099  1.00  0.00    -0.257 N 
ATOM     17  C   UNL A   1      34.181  28.269  21.915  1.00  0.00     0.048 C 
ATOM     18  C   UNL A   1      33.265  27.328  22.595  1.00  0.00    -0.013 A 
ATOM     19  C   UNL A   1      32.129  26.679  22.082  1.00  0.00     0.138 A 
ATOM     20  C   UNL A   1      33.334  26.880  23.894  1.00  0.00     0.113 A 
ATOM     21  N   UNL A   1      31.559  25.866  22.971  1.00  0.00    -0.180 NA
ENDBRANCH   8  16
BRANCH  14  22
ATOM     22  C   UNL A   1      33.772  20.414  25.783  1.00  0.00     0.105 A 
ATOM     23  C   UNL A   1      32.671  19.582  25.904  1.00  0.00     0.042 A 
ATOM     24  N   UNL A   1      34.618  19.801  24.885  1.00  0.00    -0.351 N 
ATOM     25  C   UNL A   1      32.980  18.348  25.282  1.00  0.00     0.000 A 
ATOM     26  C   UNL A   1      34.205  18.512  24.639  1.00  0.00     0.046 A 
ATOM     27  H   UNL A   1      35.408  20.226  24.478  1.00  0.00     0.167 HD
ATOM     28  C   UNL A   1      32.334  17.100  25.221  1.00  0.00     0.010 A 
ATOM     29  C   UNL A   1      34.812  17.487  23.907  1.00  0.00     0.026 A 
ATOM     30  C   UNL A   1      32.945  16.054  24.522  1.00  0.00     0.001 A 
ATOM     31  C   UNL A   1      34.160  16.250  23.869  1.00  0.00     0.002 A 
ENDBRANCH  14  22
ENDBRANCH   5   8
ENDBRANCH   3   4
ENDBRANCH   2   3
ENDBRANCH   1   2
BRANCH   1  32
ATOM     32  C   UNL A   1      34.739  29.179  27.271  1.00  0.00     0.116 C 
BRANCH  32  33
ATOM     33  N   UNL A   1      34.947  30.227  28.267  1.00  0.00    -0.352 N 
ATOM     34  C   UNL A   1      35.993  30.340  29.166  1.00  0.00     0.251 C 
ATOM     35  H   UNL A   1      34.263  30.933  28.305  1.00  0.00     0.163 HD
ATOM     36  O   UNL A   1      35.904  31.021  30.170  1.00  0.00    -0.269 OA
BRANCH  34  37
ATOM     37  C   UNL A   1      37.233  29.601  28.874  1.00  0.00     0.039 A 
ATOM     38  C   UNL A   1      37.999  29.907  27.748  1.00  0.00     0.014 A 
ATOM     39  C   UNL A   1      37.658  28.649  29.799  1.00  0.00     0.014 A 
ATOM     40  C   UNL A   1      39.255  29.321  27.613  1.00  0.00     0.010 A 
ATOM     41  C   UNL A   1      38.944  28.164  29.726  1.00  0.00     0.010 A 
ATOM     42  C   UNL A   1      39.741  28.476  28.626  1.00  0.00    -0.014 A 
BRANCH  42  43
ATOM     43  C   UNL A   1      41.144  28.052  28.612  1.00  0.00     0.031 A 
ATOM     44  C   UNL A   1      41.399  26.778  27.880  1.00  0.00     0.074 A 
ATOM     45  C   UNL A   1      42.168  28.839  29.012  1.00  0.00     0.049 A 
ATOM     46  N   UNL A   1      41.869  25.674  28.358  1.00  0.00    -0.248 NA
ATOM     47  C   UNL A   1      40.993  26.682  26.466  1.00  0.00     0.031 C 
ATOM     48  C   UNL A   1      42.091  30.242  29.437  1.00  0.00     0.029 A 
ATOM     49  N   UNL A   1      43.515  28.600  29.013  1.00  0.00    -0.354 N 
ATOM     50  C   UNL A   1      42.019  24.814  27.270  1.00  0.00     0.074 A 
ATOM     51  C   UNL A   1      41.311  25.417  26.174  1.00  0.00     0.031 C 
ATOM     52  C   UNL A   1      43.321  30.796  29.405  1.00  0.00     0.029 A 
ATOM     53  C   UNL A   1      44.290  29.745  29.155  1.00  0.00     0.049 A 
ATOM     54  H   UNL A   1      43.900  27.699  28.921  1.00  0.00     0.167 HD
ATOM     55  C   UNL A   1      42.961  23.830  27.299  1.00  0.00     0.037 A 
ATOM     56  C   UNL A   1      45.637  29.851  29.086  1.00  0.00     0.037 A 
ATOM     57  C   UNL A   1      43.459  23.637  28.634  1.00  0.00     0.049 A 
ATOM     58  C   UNL A   1      46.218  28.519  29.348  1.00  0.00     0.074 A 
ATOM     59  C   UNL A   1      43.065  22.988  29.782  1.00  0.00     0.029 A 
ATOM     60  N   UNL A   1      44.435  24.529  28.982  1.00  0.00    -0.354 N 
ATOM     61  N   UNL A   1      46.147  27.920  30.504  1.00  0.00    -0.248 NA
ATOM     62  C   UNL A   1      46.620  27.675  28.227  1.00  0.00     0.031 C 
ATOM     63  C   UNL A   1      43.763  23.617  30.857  1.00  0.00     0.029 A 
ATOM     64  C   UNL A   1      44.586  24.612  30.337  1.00  0.00     0.049 A 
ATOM     65  H   UNL A   1      44.965  25.048  28.334  1.00  0.00     0.167 HD
ATOM     66  C   UNL A   1      46.062  26.583  30.181  1.00  0.00     0.074 A 
ATOM     67  C   UNL A   1      46.550  26.478  28.814  1.00  0.00     0.031 C 
ATOM     68  C   UNL A   1      45.276  25.741  30.911  1.00  0.00     0.037 A 
BRANCH  55  69
ATOM     69  C   UNL A   1      43.809  23.393  26.117  1.00  0.00     0.064 A 
ATOM     70  C   UNL A   1      43.818  22.027  25.754  1.00  0.00     0.173 A 
ATOM     71  C   UNL A   1      44.854  24.168  25.571  1.00  0.00     0.173 A 
ATOM     72  F   UNL A   1      42.882  21.188  26.224  1.00  0.00    -0.203 F 
ATOM     73  C   UNL A   1      44.839  21.471  24.975  1.00  0.00     0.198 A 
ATOM     74  C   UNL A   1      45.844  23.620  24.753  1.00  0.00     0.198 A 
ATOM     75  F   UNL A   1      45.033  25.453  25.896  1.00  0.00    -0.203 F 
ATOM     76  F   UNL A   1      44.872  20.149  24.762  1.00  0.00    -0.200 F 
ATOM     77  C   UNL A   1      45.856  22.268  24.482  1.00  0.00     0.200 A 
ATOM     78  F   UNL A   1      46.835  24.403  24.303  1.00  0.00    -0.200 F 
ATOM     79  F   UNL A   1      46.869  21.730  23.789  1.00  0.00    -0.200 F 
ENDBRANCH  55  69
BRANCH  56  80
ATOM     80  C   UNL A   1      46.461  31.003  28.666  1.00  0.00     0.064 A 
ATOM     81  C   UNL A   1      46.261  31.634  27.430  1.00  0.00     0.173 A 
ATOM     82  C   UNL A   1      47.280  31.673  29.594  1.00  0.00     0.173 A 
ATOM     83  F   UNL A   1      45.469  31.072  26.506  1.00  0.00    -0.203 F 
ATOM     84  C   UNL A   1      46.822  32.883  27.149  1.00  0.00     0.198 A 
ATOM     85  C   UNL A   1      47.842  32.918  29.312  1.00  0.00     0.198 A 
ATOM     86  F   UNL A   1      47.471  31.169  30.824  1.00  0.00    -0.203 F 
ATOM     87  F   UNL A   1      46.561  33.486  25.981  1.00  0.00    -0.200 F 
ATOM     88  C   UNL A   1      47.600  33.530  28.096  1.00  0.00     0.200 A 
ATOM     89  F   UNL A   1      48.564  33.549  30.248  1.00  0.00    -0.200 F 
ATOM     90  F   UNL A   1      48.082  34.756  27.852  1.00  0.00    -0.200 F 
ENDBRANCH  56  80
BRANCH  68  91
ATOM     91  C   UNL A   1      44.989  26.119  32.327  1.00  0.00     0.064 A 
ATOM     92  C   UNL A   1      43.870  26.857  32.743  1.00  0.00     0.173 A 
ATOM     93  C   UNL A   1      45.871  25.660  33.314  1.00  0.00     0.173 A 
ATOM     94  F   UNL A   1      42.945  27.266  31.865  1.00  0.00    -0.203 F 
ATOM     95  C   UNL A   1      43.671  27.157  34.090  1.00  0.00     0.198 A 
ATOM     96  C   UNL A   1      45.650  25.930  34.659  1.00  0.00     0.198 A 
ATOM     97  F   UNL A   1      46.936  24.920  32.971  1.00  0.00    -0.203 F 
ATOM     98  F   UNL A   1      42.607  27.884  34.466  1.00  0.00    -0.200 F 
ATOM     99  C   UNL A   1      44.557  26.689  35.046  1.00  0.00     0.200 A 
ATOM    100  F   UNL A   1      46.491  25.442  35.582  1.00  0.00    -0.200 F 
ATOM    101  F   UNL A   1      44.351  26.952  36.344  1.00  0.00    -0.200 F 
ENDBRANCH  68  91
ENDBRANCH  42  43
ENDBRANCH  34  37
ENDBRANCH  32  33
ENDBRANCH   1  32
TORSDOF 13
ENDMDL
MODEL 2
REMARK VINA RESULT:     -14.1      1.702      6.578
REMARK SMILES Cc1cnn(C2(C(=O)NCCCCNC(=O)c3ccc(-c4c5nc(c(-c6c(F)c(F)c(F)c(F)c6F)c6ccc([nH]6)c(-c6c(F)c(F)c(F)c(F)c6F)c6nc(c(-c7c(F)c(F)c(F)c(F)c7F)c7ccc4[nH]7)C=C6)C=C5)cc3)CCN(C(=O)c3cc4ccccc4[nH]3)CC2)c1
REMARK SMILES IDX 12 1 11 2 10 3 9 4 7 5 8 6 6 8 80 9 95 10 81 11 94 12 82 13
REMARK SMILES IDX 83 14 84 15 5 16 1 17 2 18 3 19 96 20 4 21 85 22 86 23 93 24
REMARK SMILES IDX 87 25 92 26 88 28 91 29 89 30 90 31 13 32 14 33 15 34 16 36
REMARK SMILES IDX 17 37 18 38 79 39 19 40 78 41 20 42 21 43 22 44 72 45 23 46
REMARK SMILES IDX 77 47 71 48 73 49 24 50 76 51 70 52 69 53 25 55 57 56 37 57
REMARK SMILES IDX 56 58 38 59 41 60 55 61 74 62 39 63 40 64 54 66 75 67 42 68
REMARK SMILES IDX 26 69 27 70 35 71 28 72 29 73 33 74 36 75 30 76 31 77 34 78
REMARK SMILES IDX 32 79 58 80 59 81 67 82 60 83 61 84 65 85 68 86 62 87 63 88
REMARK SMILES IDX 66 89 64 90 43 91 44 92 52 93 45 94 46 95 50 96 53 97 47 98
REMARK SMILES IDX 48 99 51 100 49 101
REMARK H PARENT 9 7 93 27 14 35 73 54 41 65
REMARK Flexibility Score: inf
ROOT
ATOM      1  C   UNL A   1      32.411  30.460  26.777  1.00  0.00     0.023 C 
ENDROOT
BRANCH   1   2
ATOM      2  C   UNL A   1      31.713  29.277  27.460  1.00  0.00     0.023 C 
BRANCH   2   3
ATOM      3  C   UNL A   1      32.178  27.878  27.035  1.00  0.00     0.116 C 
BRANCH   3   4
ATOM      4  N   UNL A   1      31.077  26.932  26.905  1.00  0.00    -0.354 N 
ATOM      5  C   UNL A   1      30.891  25.772  26.183  1.00  0.00     0.248 C 
ATOM      6  O   UNL A   1      29.767  25.293  26.341  1.00  0.00    -0.272 OA
ATOM      7  H   UNL A   1      30.294  27.175  27.452  1.00  0.00     0.163 HD
BRANCH   5   8
ATOM      8  C   UNL A   1      32.029  25.159  25.289  1.00  0.00     0.144 C 
ATOM      9  C   UNL A   1      33.328  25.177  26.139  1.00  0.00     0.062 C 
ATOM     10  C   UNL A   1      31.528  23.761  24.855  1.00  0.00     0.062 C 
ATOM     11  C   UNL A   1      34.292  24.023  25.916  1.00  0.00     0.123 C 
ATOM     12  C   UNL A   1      32.626  22.743  24.607  1.00  0.00     0.123 C 
ATOM     13  N   UNL A   1      33.631  22.754  25.663  1.00  0.00    -0.337 N 
ATOM     14  C   UNL A   1      34.069  21.620  26.357  1.00  0.00     0.270 C 
ATOM     15  O   UNL A   1      34.657  21.718  27.433  1.00  0.00    -0.267 OA
BRANCH   8  16
ATOM     16  N   UNL A   1      32.316  25.914  24.023  1.00  0.00    -0.257 N 
ATOM     17  C   UNL A   1      34.136  28.256  21.861  1.00  0.00     0.048 C 
ATOM     18  C   UNL A   1      33.271  27.257  22.526  1.00  0.00    -0.013 A 
ATOM     19  C   UNL A   1      32.232  26.488  21.976  1.00  0.00     0.138 A 
ATOM     20  C   UNL A   1      33.302  26.863  23.844  1.00  0.00     0.113 A 
ATOM     21  N   UNL A   1      31.685  25.657  22.863  1.00  0.00    -0.180 NA
ENDBRANCH   8  16
BRANCH  14  22
ATOM     22  C   UNL A   1      33.771  20.325  25.788  1.00  0.00     0.105 A 
ATOM     23  C   UNL A   1      32.695  19.472  25.978  1.00  0.00     0.042 A 
ATOM     24  N   UNL A   1      34.570  19.726  24.840  1.00  0.00    -0.351 N 
ATOM     25  C   UNL A   1      32.988  18.243  25.339  1.00  0.00     0.000 A 
ATOM     26  C   UNL A   1      34.167  18.428  24.621  1.00  0.00     0.046 A 
ATOM     27  H   UNL A   1      35.325  20.164  24.384  1.00  0.00     0.167 HD
ATOM     28  C   UNL A   1      32.363  16.983  25.319  1.00  0.00     0.010 A 
ATOM     29  C   UNL A   1      34.747  17.414  23.853  1.00  0.00     0.026 A 
ATOM     30  C   UNL A   1      32.948  15.947  24.585  1.00  0.00     0.001 A 
ATOM     31  C   UNL A   1      34.116  16.164  23.857  1.00  0.00     0.002 A 
ENDBRANCH  14  22
ENDBRANCH   5   8
ENDBRANCH   3   4
ENDBRANCH   2   3
ENDBRANCH   1   2
BRANCH   1  32
ATOM     32  C   UNL A   1      33.831  30.727  27.256  1.00  0.00     0.116 C 
BRANCH  32  33
ATOM     33  N   UNL A   1      33.896  31.734  28.312  1.00  0.00    -0.352 N 
ATOM     34  C   UNL A   1      34.840  31.841  29.318  1.00  0.00     0.251 C 
ATOM     35  H   UNL A   1      33.186  32.415  28.309  1.00  0.00     0.163 HD
ATOM     36  O   UNL A   1      34.623  32.472  30.335  1.00  0.00    -0.269 OA
BRANCH  34  37
ATOM     37  C   UNL A   1      36.131  31.158  29.125  1.00  0.00     0.039 A 
ATOM     38  C   UNL A   1      37.306  31.889  28.947  1.00  0.00     0.014 A 
ATOM     39  C   UNL A   1      36.151  29.767  29.209  1.00  0.00     0.014 A 
ATOM     40  C   UNL A   1      38.523  31.212  28.961  1.00  0.00     0.010 A 
ATOM     41  C   UNL A   1      37.356  29.117  29.342  1.00  0.00     0.010 A 
ATOM     42  C   UNL A   1      38.547  29.826  29.196  1.00  0.00    -0.014 A 
BRANCH  42  43
ATOM     43  C   UNL A   1      39.822  29.152  29.453  1.00  0.00     0.031 A 
ATOM     44  C   UNL A   1      40.165  29.004  30.897  1.00  0.00     0.074 A 
ATOM     45  C   UNL A   1      40.532  28.504  28.502  1.00  0.00     0.049 A 
ATOM     46  N   UNL A   1      41.180  29.501  31.522  1.00  0.00    -0.248 NA
ATOM     47  C   UNL A   1      39.216  28.300  31.779  1.00  0.00     0.031 C 
ATOM     48  C   UNL A   1      40.140  28.281  27.105  1.00  0.00     0.029 A 
ATOM     49  N   UNL A   1      41.701  27.799  28.600  1.00  0.00    -0.354 N 
ATOM     50  C   UNL A   1      41.116  29.001  32.823  1.00  0.00     0.074 A 
ATOM     51  C   UNL A   1      39.811  28.417  32.970  1.00  0.00     0.031 C 
ATOM     52  C   UNL A   1      40.901  27.304  26.569  1.00  0.00     0.029 A 
ATOM     53  C   UNL A   1      41.955  26.976  27.510  1.00  0.00     0.049 A 
ATOM     54  H   UNL A   1      42.305  27.868  29.374  1.00  0.00     0.167 HD
ATOM     55  C   UNL A   1      42.254  28.855  33.558  1.00  0.00     0.037 A 
ATOM     56  C   UNL A   1      42.962  26.084  27.359  1.00  0.00     0.037 A 
ATOM     57  C   UNL A   1      43.348  29.565  32.953  1.00  0.00     0.049 A 
ATOM     58  C   UNL A   1      44.050  26.456  28.284  1.00  0.00     0.074 A 
ATOM     59  C   UNL A   1      43.813  30.859  32.897  1.00  0.00     0.029 A 
ATOM     60  N   UNL A   1      43.956  28.868  31.946  1.00  0.00    -0.354 N 
ATOM     61  N   UNL A   1      44.759  27.544  28.158  1.00  0.00    -0.248 NA
ATOM     62  C   UNL A   1      44.166  25.776  29.570  1.00  0.00     0.031 C 
ATOM     63  C   UNL A   1      44.637  30.939  31.733  1.00  0.00     0.029 A 
ATOM     64  C   UNL A   1      44.678  29.687  31.126  1.00  0.00     0.049 A 
ATOM     65  H   UNL A   1      43.882  27.893  31.828  1.00  0.00     0.167 HD
ATOM     66  C   UNL A   1      45.043  27.907  29.456  1.00  0.00     0.074 A 
ATOM     67  C   UNL A   1      44.836  26.708  30.255  1.00  0.00     0.031 C 
ATOM     68  C   UNL A   1      45.073  29.221  29.819  1.00  0.00     0.037 A 
BRANCH  55  69
ATOM     69  C   UNL A   1      42.546  27.704  34.505  1.00  0.00     0.064 A 
ATOM     70  C   UNL A   1      43.011  26.482  33.967  1.00  0.00     0.173 A 
ATOM     71  C   UNL A   1      42.064  27.634  35.829  1.00  0.00     0.173 A 
ATOM     72  F   UNL A   1      43.480  26.422  32.711  1.00  0.00    -0.203 F 
ATOM     73  C   UNL A   1      42.922  25.277  34.673  1.00  0.00     0.198 A 
ATOM     74  C   UNL A   1      42.023  26.438  36.548  1.00  0.00     0.198 A 
ATOM     75  F   UNL A   1      41.506  28.684  36.440  1.00  0.00    -0.203 F 
ATOM     76  F   UNL A   1      43.260  24.127  34.074  1.00  0.00    -0.200 F 
ATOM     77  C   UNL A   1      42.420  25.255  35.960  1.00  0.00     0.200 A 
ATOM     78  F   UNL A   1      41.511  26.432  37.787  1.00  0.00    -0.200 F 
ATOM     79  F   UNL A   1      42.274  24.096  36.616  1.00  0.00    -0.200 F 
ENDBRANCH  55  69
BRANCH  56  80
ATOM     80  C   UNL A   1      42.991  24.838  26.566  1.00  0.00     0.064 A 
ATOM     81  C   UNL A   1      43.790  24.716  25.421  1.00  0.00     0.173 A 
ATOM     82  C   UNL A   1      42.436  23.651  27.080  1.00  0.00     0.173 A 
ATOM     83  F   UNL A   1      44.378  25.798  24.890  1.00  0.00    -0.203 F 
ATOM     84  C   UNL A   1      44.050  23.472  24.840  1.00  0.00     0.198 A 
ATOM     85  C   UNL A   1      42.693  22.409  26.499  1.00  0.00     0.198 A 
ATOM     86  F   UNL A   1      41.712  23.669  28.210  1.00  0.00    -0.203 F 
ATOM     87  F   UNL A   1      44.868  23.385  23.782  1.00  0.00    -0.200 F 
ATOM     88  C   UNL A   1      43.513  22.318  25.388  1.00  0.00     0.200 A 
ATOM     89  F   UNL A   1      42.195  21.297  27.056  1.00  0.00    -0.200 F 
ATOM     90  F   UNL A   1      43.815  21.119  24.871  1.00  0.00    -0.200 F 
ENDBRANCH  56  80
BRANCH  68  91
ATOM     91  C   UNL A   1      45.361  30.225  28.752  1.00  0.00     0.064 A 
ATOM     92  C   UNL A   1      44.384  30.865  27.975  1.00  0.00     0.173 A 
ATOM     93  C   UNL A   1      46.698  30.591  28.548  1.00  0.00     0.173 A 
ATOM     94  F   UNL A   1      43.081  30.620  28.164  1.00  0.00    -0.203 F 
ATOM     95  C   UNL A   1      44.740  31.802  27.005  1.00  0.00     0.198 A 
ATOM     96  C   UNL A   1      47.047  31.551  27.606  1.00  0.00     0.198 A 
ATOM     97  F   UNL A   1      47.667  30.034  29.290  1.00  0.00    -0.203 F 
ATOM     98  F   UNL A   1      43.792  32.386  26.255  1.00  0.00    -0.200 F 
ATOM     99  C   UNL A   1      46.069  32.147  26.826  1.00  0.00     0.200 A 
ATOM    100  F   UNL A   1      48.331  31.909  27.465  1.00  0.00    -0.200 F 
ATOM    101  F   UNL A   1      46.410  33.069  25.914  1.00  0.00    -0.200 F 
ENDBRANCH  68  91
ENDBRANCH  42  43
ENDBRANCH  34  37
ENDBRANCH  32  33
ENDBRANCH   1  32
TORSDOF 13
ENDMDL
MODEL 3
REMARK VINA RESULT:     -13.9      1.622      2.264
REMARK SMILES Cc1cnn(C2(C(=O)NCCCCNC(=O)c3ccc(-c4c5nc(c(-c6c(F)c(F)c(F)c(F)c6F)c6ccc([nH]6)c(-c6c(F)c(F)c(F)c(F)c6F)c6nc(c(-c7c(F)c(F)c(F)c(F)c7F)c7ccc4[nH]7)C=C6)C=C5)cc3)CCN(C(=O)c3cc4ccccc4[nH]3)CC2)c1
REMARK SMILES IDX 12 1 11 2 10 3 9 4 7 5 8 6 6 8 80 9 95 10 81 11 94 12 82 13
REMARK SMILES IDX 83 14 84 15 5 16 1 17 2 18 3 19 96 20 4 21 85 22 86 23 93 24
REMARK SMILES IDX 87 25 92 26 88 28 91 29 89 30 90 31 13 32 14 33 15 34 16 36
REMARK SMILES IDX 17 37 18 38 79 39 19 40 78 41 20 42 21 43 22 44 72 45 23 46
REMARK SMILES IDX 77 47 71 48 73 49 24 50 76 51 70 52 69 53 25 55 57 56 37 57
REMARK SMILES IDX 56 58 38 59 41 60 55 61 74 62 39 63 40 64 54 66 75 67 42 68
REMARK SMILES IDX 26 69 27 70 35 71 28 72 29 73 33 74 36 75 30 76 31 77 34 78
REMARK SMILES IDX 32 79 58 80 59 81 67 82 60 83 61 84 65 85 68 86 62 87 63 88
REMARK SMILES IDX 66 89 64 90 43 91 44 92 52 93 45 94 46 95 50 96 53 97 47 98
REMARK SMILES IDX 48 99 51 100 49 101
REMARK H PARENT 9 7 93 27 14 35 73 54 41 65
REMARK Flexibility Score: inf
ROOT
ATOM      1  C   UNL A   1      33.270  28.487  27.231  1.00  0.00     0.023 C 
ENDROOT
BRANCH   1   2
ATOM      2  C   UNL A   1      32.248  29.582  26.901  1.00  0.00     0.023 C 
BRANCH   2   3
ATOM      3  C   UNL A   1      31.770  29.647  25.445  1.00  0.00     0.116 C 
BRANCH   3   4
ATOM      4  N   UNL A   1      32.861  29.529  24.486  1.00  0.00    -0.354 N 
ATOM      5  C   UNL A   1      33.099  28.709  23.402  1.00  0.00     0.248 C 
ATOM      6  O   UNL A   1      34.192  28.927  22.876  1.00  0.00    -0.272 OA
ATOM      7  H   UNL A   1      33.588  30.174  24.647  1.00  0.00     0.163 HD
BRANCH   5   8
ATOM      8  C   UNL A   1      32.048  27.646  22.919  1.00  0.00     0.144 C 
ATOM      9  C   UNL A   1      32.478  27.204  21.494  1.00  0.00     0.062 C 
ATOM     10  C   UNL A   1      32.036  26.533  23.993  1.00  0.00     0.062 C 
ATOM     11  C   UNL A   1      32.207  25.753  21.130  1.00  0.00     0.123 C 
ATOM     12  C   UNL A   1      31.679  25.153  23.473  1.00  0.00     0.123 C 
ATOM     13  N   UNL A   1      32.388  24.833  22.240  1.00  0.00    -0.337 N 
ATOM     14  C   UNL A   1      33.125  23.662  22.027  1.00  0.00     0.270 C 
ATOM     15  O   UNL A   1      33.953  23.585  21.121  1.00  0.00    -0.267 OA
BRANCH   8  16
ATOM     16  N   UNL A   1      30.637  28.150  22.820  1.00  0.00    -0.257 N 
ATOM     17  C   UNL A   1      27.037  28.185  23.535  1.00  0.00     0.048 C 
ATOM     18  C   UNL A   1      28.444  28.385  23.125  1.00  0.00    -0.013 A 
ATOM     19  C   UNL A   1      29.000  29.432  22.370  1.00  0.00     0.138 A 
ATOM     20  C   UNL A   1      29.523  27.578  23.401  1.00  0.00     0.113 A 
ATOM     21  N   UNL A   1      30.319  29.310  22.220  1.00  0.00    -0.180 NA
ENDBRANCH   8  16
BRANCH  14  22
ATOM     22  C   UNL A   1      32.910  22.556  22.932  1.00  0.00     0.105 A 
ATOM     23  C   UNL A   1      33.137  22.436  24.294  1.00  0.00     0.042 A 
ATOM     24  N   UNL A   1      32.340  21.367  22.534  1.00  0.00    -0.351 N 
ATOM     25  C   UNL A   1      32.946  21.080  24.656  1.00  0.00     0.000 A 
ATOM     26  C   UNL A   1      32.435  20.428  23.536  1.00  0.00     0.046 A 
ATOM     27  H   UNL A   1      31.924  21.210  21.655  1.00  0.00     0.167 HD
ATOM     28  C   UNL A   1      33.177  20.345  25.833  1.00  0.00     0.010 A 
ATOM     29  C   UNL A   1      32.114  19.068  23.540  1.00  0.00     0.026 A 
ATOM     30  C   UNL A   1      32.894  18.976  25.843  1.00  0.00     0.001 A 
ATOM     31  C   UNL A   1      32.363  18.352  24.717  1.00  0.00     0.002 A 
ENDBRANCH  14  22
ENDBRANCH   5   8
ENDBRANCH   3   4
ENDBRANCH   2   3
ENDBRANCH   1   2
BRANCH   1  32
ATOM     32  C   UNL A   1      34.719  28.952  27.258  1.00  0.00     0.116 C 
BRANCH  32  33
ATOM     33  N   UNL A   1      34.932  30.101  28.136  1.00  0.00    -0.352 N 
ATOM     34  C   UNL A   1      36.003  30.327  28.983  1.00  0.00     0.251 C 
ATOM     35  H   UNL A   1      34.233  30.793  28.124  1.00  0.00     0.163 HD
ATOM     36  O   UNL A   1      35.928  31.106  29.914  1.00  0.00    -0.269 OA
BRANCH  34  37
ATOM     37  C   UNL A   1      37.251  29.588  28.726  1.00  0.00     0.039 A 
ATOM     38  C   UNL A   1      38.037  29.879  27.610  1.00  0.00     0.014 A 
ATOM     39  C   UNL A   1      37.661  28.653  29.674  1.00  0.00     0.014 A 
ATOM     40  C   UNL A   1      39.297  29.295  27.509  1.00  0.00     0.010 A 
ATOM     41  C   UNL A   1      38.949  28.172  29.634  1.00  0.00     0.010 A 
ATOM     42  C   UNL A   1      39.767  28.468  28.544  1.00  0.00    -0.014 A 
BRANCH  42  43
ATOM     43  C   UNL A   1      41.171  28.050  28.564  1.00  0.00     0.031 A 
ATOM     44  C   UNL A   1      41.452  26.789  27.818  1.00  0.00     0.074 A 
ATOM     45  C   UNL A   1      42.180  28.833  29.006  1.00  0.00     0.049 A 
ATOM     46  N   UNL A   1      41.912  25.678  28.291  1.00  0.00    -0.248 NA
ATOM     47  C   UNL A   1      41.087  26.716  26.391  1.00  0.00     0.031 C 
ATOM     48  C   UNL A   1      42.085  30.228  29.453  1.00  0.00     0.029 A 
ATOM     49  N   UNL A   1      43.527  28.598  29.043  1.00  0.00    -0.354 N 
ATOM     50  C   UNL A   1      42.096  24.837  27.193  1.00  0.00     0.074 A 
ATOM     51  C   UNL A   1      41.418  25.457  26.087  1.00  0.00     0.031 C 
ATOM     52  C   UNL A   1      43.314  30.786  29.466  1.00  0.00     0.029 A 
ATOM     53  C   UNL A   1      44.293  29.743  29.226  1.00  0.00     0.049 A 
ATOM     54  H   UNL A   1      43.919  27.700  28.946  1.00  0.00     0.167 HD
ATOM     55  C   UNL A   1      43.041  23.856  27.232  1.00  0.00     0.037 A 
ATOM     56  C   UNL A   1      45.642  29.855  29.199  1.00  0.00     0.037 A 
ATOM     57  C   UNL A   1      43.501  23.642  28.578  1.00  0.00     0.049 A 
ATOM     58  C   UNL A   1      46.220  28.520  29.454  1.00  0.00     0.074 A 
ATOM     59  C   UNL A   1      43.076  22.973  29.702  1.00  0.00     0.029 A 
ATOM     60  N   UNL A   1      44.463  24.531  28.969  1.00  0.00    -0.354 N 
ATOM     61  N   UNL A   1      46.117  27.901  30.598  1.00  0.00    -0.248 NA
ATOM     62  C   UNL A   1      46.657  27.697  28.332  1.00  0.00     0.031 C 
ATOM     63  C   UNL A   1      43.740  23.585  30.808  1.00  0.00     0.029 A 
ATOM     64  C   UNL A   1      44.574  24.591  30.329  1.00  0.00     0.049 A 
ATOM     65  H   UNL A   1      45.010  25.063  28.346  1.00  0.00     0.167 HD
ATOM     66  C   UNL A   1      46.047  26.570  30.249  1.00  0.00     0.074 A 
ATOM     67  C   UNL A   1      46.575  26.489  28.895  1.00  0.00     0.031 C 
ATOM     68  C   UNL A   1      45.244  25.713  30.942  1.00  0.00     0.037 A 
BRANCH  55  69
ATOM     69  C   UNL A   1      43.925  23.443  26.068  1.00  0.00     0.064 A 
ATOM     70  C   UNL A   1      43.960  22.080  25.692  1.00  0.00     0.173 A 
ATOM     71  C   UNL A   1      44.973  24.236  25.557  1.00  0.00     0.173 A 
ATOM     72  F   UNL A   1      43.024  21.225  26.129  1.00  0.00    -0.203 F 
ATOM     73  C   UNL A   1      45.008  21.546  24.933  1.00  0.00     0.198 A 
ATOM     74  C   UNL A   1      45.990  23.709  24.759  1.00  0.00     0.198 A 
ATOM     75  F   UNL A   1      45.127  25.519  25.900  1.00  0.00    -0.203 F 
ATOM     76  F   UNL A   1      45.064  20.226  24.708  1.00  0.00    -0.200 F 
ATOM     77  C   UNL A   1      46.027  22.360  24.474  1.00  0.00     0.200 A 
ATOM     78  F   UNL A   1      46.982  24.509  24.343  1.00  0.00    -0.200 F 
ATOM     79  F   UNL A   1      47.064  21.842  23.803  1.00  0.00    -0.200 F 
ENDBRANCH  55  69
BRANCH  56  80
ATOM     80  C   UNL A   1      46.473  31.016  28.822  1.00  0.00     0.064 A 
ATOM     81  C   UNL A   1      46.424  31.565  27.533  1.00  0.00     0.173 A 
ATOM     82  C   UNL A   1      47.130  31.775  29.808  1.00  0.00     0.173 A 
ATOM     83  F   UNL A   1      45.789  30.915  26.547  1.00  0.00    -0.203 F 
ATOM     84  C   UNL A   1      46.972  32.820  27.252  1.00  0.00     0.198 A 
ATOM     85  C   UNL A   1      47.679  33.026  29.527  1.00  0.00     0.198 A 
ATOM     86  F   UNL A   1      47.167  31.353  31.082  1.00  0.00    -0.203 F 
ATOM     87  F   UNL A   1      46.854  33.341  26.023  1.00  0.00    -0.200 F 
ATOM     88  C   UNL A   1      47.586  33.555  28.253  1.00  0.00     0.200 A 
ATOM     89  F   UNL A   1      48.242  33.742  30.510  1.00  0.00    -0.200 F 
ATOM     90  F   UNL A   1      48.052  34.785  28.000  1.00  0.00    -0.200 F 
ENDBRANCH  56  80
BRANCH  68  91
ATOM     91  C   UNL A   1      44.914  26.065  32.355  1.00  0.00     0.064 A 
ATOM     92  C   UNL A   1      43.785  26.800  32.750  1.00  0.00     0.173 A 
ATOM     93  C   UNL A   1      45.764  25.585  33.360  1.00  0.00     0.173 A 
ATOM     94  F   UNL A   1      42.890  27.228  31.852  1.00  0.00    -0.203 F 
ATOM     95  C   UNL A   1      43.546  27.075  34.096  1.00  0.00     0.198 A 
ATOM     96  C   UNL A   1      45.502  25.830  34.702  1.00  0.00     0.198 A 
ATOM     97  F   UNL A   1      46.837  24.848  33.036  1.00  0.00    -0.203 F 
ATOM     98  F   UNL A   1      42.473  27.800  34.453  1.00  0.00    -0.200 F 
ATOM     99  C   UNL A   1      44.401  26.586  35.070  1.00  0.00     0.200 A 
ATOM    100  F   UNL A   1      46.312  25.322  35.641  1.00  0.00    -0.200 F 
ATOM    101  F   UNL A   1      44.155  26.826  36.366  1.00  0.00    -0.200 F 
ENDBRANCH  68  91
ENDBRANCH  42  43
ENDBRANCH  34  37
ENDBRANCH  32  33
ENDBRANCH   1  32
TORSDOF 13
ENDMDL
