MODEL 1
REMARK VINA RESULT:     -14.8      0.000      0.000
REMARK SMILES Cc1n[nH]c2c1[C@@]1(C(=O)N([C@@H](C)C(=O)NCCCCNC(=O)c3ccc(-c4c5nc(c(-c6c(F)c(F)c(F)c(F)c6F)c6ccc([nH]6)c(-c6c(F)c(F)c(F)c(F)c6F)c6nc(c(-c7c(F)c(F)c(F)c(F)c7F)c7ccc4[nH]7)C=C6)C=C5)cc3)c3ccccc31)C(C#N)=C(N)O2
REMARK SMILES IDX 17 1 16 2 15 3 13 4 14 5 11 7 12 8 10 9 1 10 2 11 3 12 6 13
REMARK SMILES IDX 4 14 5 15 7 16 97 18 8 19 91 20 92 21 95 22 9 23 86 24 90 25
REMARK SMILES IDX 87 26 89 27 88 28 93 29 94 30 96 31 18 34 19 35 20 36 21 37
REMARK SMILES IDX 22 39 23 40 24 41 85 42 25 43 84 44 26 45 27 46 28 47 78 48
REMARK SMILES IDX 29 49 83 50 77 51 79 52 30 53 82 54 76 55 75 56 31 58 63 59
REMARK SMILES IDX 43 60 62 61 44 62 47 63 61 64 80 65 45 66 46 67 60 69 81 70
REMARK SMILES IDX 48 71 32 72 33 73 41 74 34 75 35 76 39 77 42 78 36 79 37 80
REMARK SMILES IDX 40 81 38 82 64 83 65 84 73 85 66 86 67 87 71 88 74 89 68 90
REMARK SMILES IDX 69 91 72 92 70 93 49 94 50 95 58 96 51 97 52 98 56 99 59 100
REMARK SMILES IDX 53 101 54 102 57 103 55 104
REMARK H PARENT 15 6 4 17 96 32 96 33 20 38 79 57 47 68
REMARK Flexibility Score: inf
ROOT
ATOM      1  C   UNL A   1      35.009  30.758  27.634  1.00  0.00     0.023 C 
ENDROOT
BRANCH   1   2
ATOM      2  C   UNL A   1      34.411  29.410  27.207  1.00  0.00     0.116 C 
BRANCH   2   3
ATOM      3  N   UNL A   1      33.223  29.550  26.416  1.00  0.00    -0.354 N 
ATOM      4  C   UNL A   1      32.977  28.977  25.191  1.00  0.00     0.242 C 
ATOM      5  O   UNL A   1      31.872  29.159  24.672  1.00  0.00    -0.273 OA
ATOM      6  H   UNL A   1      32.509  30.115  26.790  1.00  0.00     0.163 HD
BRANCH   4   7
ATOM      7  C   UNL A   1      34.048  28.081  24.496  1.00  0.00     0.176 C 
ATOM      8  C   UNL A   1      34.395  28.575  23.086  1.00  0.00     0.042 C 
BRANCH   7   9
ATOM      9  N   UNL A   1      33.685  26.654  24.577  1.00  0.00    -0.298 N 
ATOM     10  C   UNL A   1      30.345  26.265  25.393  1.00  0.00     0.069 C 
ATOM     11  C   UNL A   1      30.611  24.950  26.056  1.00  0.00     0.068 A 
ATOM     12  N   UNL A   1      29.736  24.336  26.863  1.00  0.00    -0.177 NA
ATOM     13  C   UNL A   1      31.803  24.186  25.954  1.00  0.00     0.063 A 
ATOM     14  N   UNL A   1      30.395  23.221  27.288  1.00  0.00    -0.246 N 
ATOM     15  C   UNL A   1      31.667  23.134  26.811  1.00  0.00     0.222 A 
ATOM     16  C   UNL A   1      33.131  24.509  25.394  1.00  0.00     0.149 C 
ATOM     17  H   UNL A   1      29.992  22.545  27.880  1.00  0.00     0.193 HD
ATOM     18  O   UNL A   1      32.612  22.256  27.162  1.00  0.00    -0.422 OA
ATOM     19  C   UNL A   1      33.314  25.942  25.717  1.00  0.00     0.248 C 
ATOM     20  C   UNL A   1      33.071  24.539  23.922  1.00  0.00     0.002 A 
ATOM     21  C   UNL A   1      34.210  23.692  26.018  1.00  0.00     0.114 C 
ATOM     22  C   UNL A   1      33.939  22.593  26.779  1.00  0.00     0.208 C 
ATOM     23  O   UNL A   1      32.922  26.313  26.815  1.00  0.00    -0.273 OA
ATOM     24  C   UNL A   1      33.431  25.821  23.467  1.00  0.00     0.050 A 
ATOM     25  C   UNL A   1      32.733  23.504  23.085  1.00  0.00     0.008 A 
ATOM     26  C   UNL A   1      33.419  26.110  22.127  1.00  0.00     0.027 A 
ATOM     27  C   UNL A   1      32.737  23.783  21.734  1.00  0.00     0.001 A 
ATOM     28  C   UNL A   1      33.068  25.070  21.260  1.00  0.00     0.002 A 
BRANCH  21  29
ATOM     29  C   UNL A   1      35.675  23.968  25.720  1.00  0.00     0.102 C 
ATOM     30  N   UNL A   1      36.889  24.197  25.472  1.00  0.00    -0.193 NA
ENDBRANCH  21  29
BRANCH  22  31
ATOM     31  N   UNL A   1      34.910  21.738  27.227  1.00  0.00    -0.369 N 
ATOM     32  H   UNL A   1      35.004  21.563  28.191  1.00  0.00     0.159 HD
ATOM     33  H   UNL A   1      35.514  21.300  26.586  1.00  0.00     0.159 HD
ENDBRANCH  22  31
ENDBRANCH   7   9
ENDBRANCH   4   7
ENDBRANCH   2   3
ENDBRANCH   1   2
BRANCH   1  34
ATOM     34  C   UNL A   1      35.895  30.571  28.808  1.00  0.00     0.023 C 
BRANCH  34  35
ATOM     35  C   UNL A   1      37.026  31.553  28.647  1.00  0.00     0.116 C 
BRANCH  35  36
ATOM     36  N   UNL A   1      38.234  31.172  29.368  1.00  0.00    -0.352 N 
ATOM     37  C   UNL A   1      39.123  30.137  29.144  1.00  0.00     0.251 C 
ATOM     38  H   UNL A   1      38.454  31.745  30.138  1.00  0.00     0.163 HD
ATOM     39  O   UNL A   1      40.059  29.969  29.925  1.00  0.00    -0.269 OA
BRANCH  37  40
ATOM     40  C   UNL A   1      38.948  29.100  28.076  1.00  0.00     0.039 A 
ATOM     41  C   UNL A   1      38.522  27.894  28.437  1.00  0.00     0.014 A 
ATOM     42  C   UNL A   1      40.018  28.993  27.136  1.00  0.00     0.014 A 
ATOM     43  C   UNL A   1      39.722  26.844  28.362  1.00  0.00     0.010 A 
ATOM     44  C   UNL A   1      40.683  27.847  26.642  1.00  0.00     0.010 A 
ATOM     45  C   UNL A   1      41.275  27.194  27.697  1.00  0.00    -0.014 A 
BRANCH  45  46
ATOM     46  C   UNL A   1      43.206  26.897  27.354  1.00  0.00     0.031 A 
ATOM     47  C   UNL A   1      42.173  25.133  27.300  1.00  0.00     0.074 A 
ATOM     48  C   UNL A   1      44.686  27.987  27.051  1.00  0.00     0.049 A 
ATOM     49  N   UNL A   1      41.671  24.422  28.373  1.00  0.00    -0.248 NA
ATOM     50  C   UNL A   1      40.769  24.164  26.401  1.00  0.00     0.031 C 
ATOM     51  C   UNL A   1      46.254  29.120  26.726  1.00  0.00     0.029 A 
ATOM     52  N   UNL A   1      46.424  27.513  27.160  1.00  0.00    -0.354 N 
ATOM     53  C   UNL A   1      41.584  23.029  27.875  1.00  0.00     0.074 A 
ATOM     54  C   UNL A   1      40.729  22.859  26.801  1.00  0.00     0.031 C 
ATOM     55  C   UNL A   1      47.649  29.297  26.179  1.00  0.00     0.029 A 
ATOM     56  C   UNL A   1      47.758  27.928  26.180  1.00  0.00     0.049 A 
ATOM     57  H   UNL A   1      46.639  26.915  27.911  1.00  0.00     0.167 HD
ATOM     58  C   UNL A   1      42.751  22.389  27.717  1.00  0.00     0.037 A 
ATOM     59  C   UNL A   1      48.686  27.204  25.436  1.00  0.00     0.037 A 
ATOM     60  C   UNL A   1      43.647  23.053  28.559  1.00  0.00     0.049 A 
ATOM     61  C   UNL A   1      48.061  26.022  25.957  1.00  0.00     0.074 A 
ATOM     62  C   UNL A   1      43.459  23.423  29.872  1.00  0.00     0.029 A 
ATOM     63  N   UNL A   1      44.437  23.976  27.971  1.00  0.00    -0.354 N 
ATOM     64  N   UNL A   1      48.082  25.716  27.237  1.00  0.00    -0.248 NA
ATOM     65  C   UNL A   1      46.954  25.585  25.133  1.00  0.00     0.031 C 
ATOM     66  C   UNL A   1      44.302  24.500  30.107  1.00  0.00     0.029 A 
ATOM     67  C   UNL A   1      44.951  24.788  28.927  1.00  0.00     0.049 A 
ATOM     68  H   UNL A   1      44.612  24.048  27.004  1.00  0.00     0.167 HD
ATOM     69  C   UNL A   1      46.782  25.298  27.494  1.00  0.00     0.074 A 
ATOM     70  C   UNL A   1      46.202  25.111  26.118  1.00  0.00     0.031 C 
ATOM     71  C   UNL A   1      46.091  25.573  28.670  1.00  0.00     0.037 A 
BRANCH  58  72
ATOM     72  C   UNL A   1      43.103  21.386  26.706  1.00  0.00     0.064 A 
ATOM     73  C   UNL A   1      42.579  20.148  27.033  1.00  0.00     0.173 A 
ATOM     74  C   UNL A   1      43.893  21.512  25.541  1.00  0.00     0.173 A 
ATOM     75  F   UNL A   1      41.806  20.024  28.121  1.00  0.00    -0.203 F 
ATOM     76  C   UNL A   1      42.834  19.049  26.254  1.00  0.00     0.198 A 
ATOM     77  C   UNL A   1      44.132  20.399  24.742  1.00  0.00     0.198 A 
ATOM     78  F   UNL A   1      44.435  22.682  25.162  1.00  0.00    -0.203 F 
ATOM     79  F   UNL A   1      42.329  17.869  26.623  1.00  0.00    -0.200 F 
ATOM     80  C   UNL A   1      43.608  19.170  25.111  1.00  0.00     0.200 A 
ATOM     81  F   UNL A   1      44.874  20.509  23.630  1.00  0.00    -0.200 F 
ATOM     82  F   UNL A   1      43.849  18.085  24.369  1.00  0.00    -0.200 F 
ENDBRANCH  58  72
BRANCH  59  83
ATOM     83  C   UNL A   1      49.182  27.460  23.973  1.00  0.00     0.064 A 
ATOM     84  C   UNL A   1      50.506  27.204  23.549  1.00  0.00     0.173 A 
ATOM     85  C   UNL A   1      48.278  27.735  22.911  1.00  0.00     0.173 A 
ATOM     86  F   UNL A   1      51.475  27.044  24.459  1.00  0.00    -0.203 F 
ATOM     87  C   UNL A   1      50.862  27.073  22.187  1.00  0.00     0.198 A 
ATOM     88  C   UNL A   1      48.626  27.593  21.548  1.00  0.00     0.198 A 
ATOM     89  F   UNL A   1      47.014  28.084  23.188  1.00  0.00    -0.203 F 
ATOM     90  F   UNL A   1      52.114  26.724  21.848  1.00  0.00    -0.200 F 
ATOM     91  C   UNL A   1      49.913  27.228  21.191  1.00  0.00     0.200 A 
ATOM     92  F   UNL A   1      47.694  27.736  20.590  1.00  0.00    -0.200 F 
ATOM     93  F   UNL A   1      50.233  27.014  19.905  1.00  0.00    -0.200 F 
ENDBRANCH  59  83
BRANCH  71  94
ATOM     94  C   UNL A   1      46.601  26.432  29.858  1.00  0.00     0.064 A 
ATOM     95  C   UNL A   1      45.947  27.508  30.540  1.00  0.00     0.173 A 
ATOM     96  C   UNL A   1      47.814  26.053  30.414  1.00  0.00     0.173 A 
ATOM     97  F   UNL A   1      44.717  27.937  30.256  1.00  0.00    -0.203 F 
ATOM     98  C   UNL A   1      46.545  28.264  31.535  1.00  0.00     0.198 A 
ATOM     99  C   UNL A   1      48.370  26.743  31.494  1.00  0.00     0.198 A 
ATOM    100  F   UNL A   1      48.441  24.964  29.947  1.00  0.00    -0.203 F 
ATOM    101  F   UNL A   1      45.928  29.363  32.000  1.00  0.00    -0.200 F 
ATOM    102  C   UNL A   1      47.755  27.866  32.028  1.00  0.00     0.200 A 
ATOM    103  F   UNL A   1      49.524  26.317  32.019  1.00  0.00    -0.200 F 
ATOM    104  F   UNL A   1      48.306  28.546  33.039  1.00  0.00    -0.200 F 
ENDBRANCH  71  94
ENDBRANCH  45  46
ENDBRANCH  37  40
ENDBRANCH  35  36
ENDBRANCH  34  35
ENDBRANCH   1  34
TORSDOF 14
ENDMDL
MODEL 2
REMARK VINA RESULT:     -14.3      6.193     13.307
REMARK SMILES Cc1n[nH]c2c1[C@@]1(C(=O)N([C@@H](C)C(=O)NCCCCNC(=O)c3ccc(-c4c5nc(c(-c6c(F)c(F)c(F)c(F)c6F)c6ccc([nH]6)c(-c6c(F)c(F)c(F)c(F)c6F)c6nc(c(-c7c(F)c(F)c(F)c(F)c7F)c7ccc4[nH]7)C=C6)C=C5)cc3)c3ccccc31)C(C#N)=C(N)O2
REMARK SMILES IDX 17 1 16 2 15 3 13 4 14 5 11 7 12 8 10 9 1 10 2 11 3 12 6 13
REMARK SMILES IDX 4 14 5 15 7 16 97 18 8 19 91 20 92 21 95 22 9 23 86 24 90 25
REMARK SMILES IDX 87 26 89 27 88 28 93 29 94 30 96 31 18 34 19 35 20 36 21 37
REMARK SMILES IDX 22 39 23 40 24 41 85 42 25 43 84 44 26 45 27 46 28 47 78 48
REMARK SMILES IDX 29 49 83 50 77 51 79 52 30 53 82 54 76 55 75 56 31 58 63 59
REMARK SMILES IDX 43 60 62 61 44 62 47 63 61 64 80 65 45 66 46 67 60 69 81 70
REMARK SMILES IDX 48 71 32 72 33 73 41 74 34 75 35 76 39 77 42 78 36 79 37 80
REMARK SMILES IDX 40 81 38 82 64 83 65 84 73 85 66 86 67 87 71 88 74 89 68 90
REMARK SMILES IDX 69 91 72 92 70 93 49 94 50 95 58 96 51 97 52 98 56 99 59 100
REMARK SMILES IDX 53 101 54 102 57 103 55 104
REMARK H PARENT 15 6 4 17 96 32 96 33 20 38 79 57 47 68
REMARK Flexibility Score: inf
ROOT
ATOM      1  C   UNL A   1      45.538  29.619  26.569  1.00  0.00     0.023 C 
ENDROOT
BRANCH   1   2
ATOM      2  C   UNL A   1      44.235  28.989  27.083  1.00  0.00     0.116 C 
BRANCH   2   3
ATOM      3  N   UNL A   1      43.411  28.471  26.031  1.00  0.00    -0.354 N 
ATOM      4  C   UNL A   1      43.446  27.200  25.507  1.00  0.00     0.242 C 
ATOM      5  O   UNL A   1      42.623  26.904  24.636  1.00  0.00    -0.273 OA
ATOM      6  H   UNL A   1      42.750  29.089  25.643  1.00  0.00     0.163 HD
BRANCH   4   7
ATOM      7  C   UNL A   1      44.469  26.146  26.031  1.00  0.00     0.176 C 
ATOM      8  C   UNL A   1      45.572  25.844  25.007  1.00  0.00     0.042 C 
BRANCH   7   9
ATOM      9  N   UNL A   1      43.783  24.955  26.566  1.00  0.00    -0.298 N 
ATOM     10  C   UNL A   1      45.496  22.061  25.748  1.00  0.00     0.069 C 
ATOM     11  C   UNL A   1      44.236  21.255  25.764  1.00  0.00     0.068 A 
ATOM     12  N   UNL A   1      44.138  20.021  25.249  1.00  0.00    -0.177 NA
ATOM     13  C   UNL A   1      42.983  21.667  26.290  1.00  0.00     0.063 A 
ATOM     14  N   UNL A   1      42.827  19.690  25.419  1.00  0.00    -0.246 N 
ATOM     15  C   UNL A   1      42.088  20.684  25.984  1.00  0.00     0.222 A 
ATOM     16  C   UNL A   1      42.497  22.984  26.749  1.00  0.00     0.149 C 
ATOM     17  H   UNL A   1      42.451  18.817  25.160  1.00  0.00     0.193 HD
ATOM     18  O   UNL A   1      40.761  20.729  26.135  1.00  0.00    -0.422 OA
ATOM     19  C   UNL A   1      43.157  23.945  25.837  1.00  0.00     0.248 C 
ATOM     20  C   UNL A   1      43.109  23.331  28.043  1.00  0.00     0.002 A 
ATOM     21  C   UNL A   1      41.015  23.097  26.641  1.00  0.00     0.114 C 
ATOM     22  C   UNL A   1      40.218  22.009  26.431  1.00  0.00     0.208 C 
ATOM     23  O   UNL A   1      43.245  23.617  24.662  1.00  0.00    -0.273 OA
ATOM     24  C   UNL A   1      43.846  24.522  27.906  1.00  0.00     0.050 A 
ATOM     25  C   UNL A   1      42.999  22.639  29.225  1.00  0.00     0.008 A 
ATOM     26  C   UNL A   1      44.540  25.034  28.972  1.00  0.00     0.027 A 
ATOM     27  C   UNL A   1      43.680  23.160  30.306  1.00  0.00     0.001 A 
ATOM     28  C   UNL A   1      44.446  24.337  30.181  1.00  0.00     0.002 A 
BRANCH  21  29
ATOM     29  C   UNL A   1      40.308  24.418  26.899  1.00  0.00     0.102 C 
ATOM     30  N   UNL A   1      39.722  25.513  27.112  1.00  0.00    -0.193 NA
ENDBRANCH  21  29
BRANCH  22  31
ATOM     31  N   UNL A   1      38.852  22.064  26.489  1.00  0.00    -0.369 N 
ATOM     32  H   UNL A   1      38.314  21.324  26.124  1.00  0.00     0.159 HD
ATOM     33  H   UNL A   1      38.407  22.842  26.895  1.00  0.00     0.159 HD
ENDBRANCH  22  31
ENDBRANCH   7   9
ENDBRANCH   4   7
ENDBRANCH   2   3
ENDBRANCH   1   2
BRANCH   1  34
ATOM     34  C   UNL A   1      45.728  30.958  27.177  1.00  0.00     0.023 C 
BRANCH  34  35
ATOM     35  C   UNL A   1      44.404  31.668  27.064  1.00  0.00     0.116 C 
BRANCH  35  36
ATOM     36  N   UNL A   1      44.226  32.368  25.799  1.00  0.00    -0.352 N 
ATOM     37  C   UNL A   1      44.236  33.720  25.512  1.00  0.00     0.251 C 
ATOM     38  H   UNL A   1      44.076  31.783  25.021  1.00  0.00     0.163 HD
ATOM     39  O   UNL A   1      44.005  34.093  24.363  1.00  0.00    -0.269 OA
BRANCH  37  40
ATOM     40  C   UNL A   1      44.372  34.793  26.549  1.00  0.00     0.039 A 
ATOM     41  C   UNL A   1      45.320  34.658  27.472  1.00  0.00     0.014 A 
ATOM     42  C   UNL A   1      43.152  35.237  27.145  1.00  0.00     0.014 A 
ATOM     43  C   UNL A   1      44.666  34.276  28.878  1.00  0.00     0.010 A 
ATOM     44  C   UNL A   1      42.831  35.454  28.505  1.00  0.00     0.010 A 
ATOM     45  C   UNL A   1      42.967  34.266  29.184  1.00  0.00    -0.014 A 
BRANCH  45  46
ATOM     46  C   UNL A   1      41.311  33.825  30.183  1.00  0.00     0.031 A 
ATOM     47  C   UNL A   1      42.809  34.381  31.459  1.00  0.00     0.074 A 
ATOM     48  C   UNL A   1      39.544  33.454  29.728  1.00  0.00     0.049 A 
ATOM     49  N   UNL A   1      43.912  33.638  31.831  1.00  0.00    -0.248 NA
ATOM     50  C   UNL A   1      44.001  35.816  31.950  1.00  0.00     0.031 C 
ATOM     51  C   UNL A   1      37.676  33.064  29.267  1.00  0.00     0.029 A 
ATOM     52  N   UNL A   1      38.291  32.686  30.776  1.00  0.00    -0.354 N 
ATOM     53  C   UNL A   1      44.302  34.203  33.146  1.00  0.00     0.074 A 
ATOM     54  C   UNL A   1      44.668  35.536  33.107  1.00  0.00     0.031 C 
ATOM     55  C   UNL A   1      36.220  32.999  29.655  1.00  0.00     0.029 A 
ATOM     56  C   UNL A   1      36.630  33.028  30.965  1.00  0.00     0.049 A 
ATOM     57  H   UNL A   1      38.621  31.944  31.333  1.00  0.00     0.167 HD
ATOM     58  C   UNL A   1      43.489  33.916  34.171  1.00  0.00     0.037 A 
ATOM     59  C   UNL A   1      35.821  33.377  32.044  1.00  0.00     0.037 A 
ATOM     60  C   UNL A   1      42.817  32.752  33.789  1.00  0.00     0.049 A 
ATOM     61  C   UNL A   1      36.986  33.213  32.867  1.00  0.00     0.074 A 
ATOM     62  C   UNL A   1      43.352  31.605  33.245  1.00  0.00     0.029 A 
ATOM     63  N   UNL A   1      41.582  32.926  33.272  1.00  0.00    -0.354 N 
ATOM     64  N   UNL A   1      37.579  32.049  33.029  1.00  0.00    -0.248 NA
ATOM     65  C   UNL A   1      37.760  34.433  32.961  1.00  0.00     0.031 C 
ATOM     66  C   UNL A   1      42.337  30.997  32.521  1.00  0.00     0.029 A 
ATOM     67  C   UNL A   1      41.223  31.802  32.604  1.00  0.00     0.049 A 
ATOM     68  H   UNL A   1      41.031  33.737  33.365  1.00  0.00     0.167 HD
ATOM     69  C   UNL A   1      38.931  32.355  32.928  1.00  0.00     0.074 A 
ATOM     70  C   UNL A   1      38.953  33.856  33.034  1.00  0.00     0.031 C 
ATOM     71  C   UNL A   1      39.873  31.540  32.308  1.00  0.00     0.037 A 
BRANCH  58  72
ATOM     72  C   UNL A   1      43.165  34.755  35.331  1.00  0.00     0.064 A 
ATOM     73  C   UNL A   1      44.080  34.565  36.351  1.00  0.00     0.173 A 
ATOM     74  C   UNL A   1      42.083  35.641  35.535  1.00  0.00     0.173 A 
ATOM     75  F   UNL A   1      45.126  33.748  36.158  1.00  0.00    -0.203 F 
ATOM     76  C   UNL A   1      43.936  35.208  37.553  1.00  0.00     0.198 A 
ATOM     77  C   UNL A   1      41.951  36.307  36.748  1.00  0.00     0.198 A 
ATOM     78  F   UNL A   1      41.156  35.873  34.590  1.00  0.00    -0.203 F 
ATOM     79  F   UNL A   1      44.829  34.974  38.518  1.00  0.00    -0.200 F 
ATOM     80  C   UNL A   1      42.876  36.076  37.755  1.00  0.00     0.200 A 
ATOM     81  F   UNL A   1      40.932  37.155  36.949  1.00  0.00    -0.200 F 
ATOM     82  F   UNL A   1      42.751  36.688  38.937  1.00  0.00    -0.200 F 
ENDBRANCH  58  72
BRANCH  59  83
ATOM     83  C   UNL A   1      34.739  34.504  32.130  1.00  0.00     0.064 A 
ATOM     84  C   UNL A   1      34.646  35.406  33.215  1.00  0.00     0.173 A 
ATOM     85  C   UNL A   1      33.930  34.857  31.016  1.00  0.00     0.173 A 
ATOM     86  F   UNL A   1      35.269  35.126  34.366  1.00  0.00    -0.203 F 
ATOM     87  C   UNL A   1      33.941  36.630  33.136  1.00  0.00     0.198 A 
ATOM     88  C   UNL A   1      33.235  36.085  30.927  1.00  0.00     0.198 A 
ATOM     89  F   UNL A   1      33.860  34.034  29.960  1.00  0.00    -0.203 F 
ATOM     90  F   UNL A   1      33.976  37.496  34.162  1.00  0.00    -0.200 F 
ATOM     91  C   UNL A   1      33.270  36.984  31.978  1.00  0.00     0.200 A 
ATOM     92  F   UNL A   1      32.595  36.422  29.794  1.00  0.00    -0.200 F 
ATOM     93  F   UNL A   1      32.679  38.185  31.873  1.00  0.00    -0.200 F 
ENDBRANCH  59  83
BRANCH  71  94
ATOM     94  C   UNL A   1      39.589  30.203  31.571  1.00  0.00     0.064 A 
ATOM     95  C   UNL A   1      39.878  29.841  30.216  1.00  0.00     0.173 A 
ATOM     96  C   UNL A   1      39.080  29.171  32.346  1.00  0.00     0.173 A 
ATOM     97  F   UNL A   1      40.495  30.638  29.343  1.00  0.00    -0.203 F 
ATOM     98  C   UNL A   1      39.493  28.639  29.644  1.00  0.00     0.198 A 
ATOM     99  C   UNL A   1      38.796  27.918  31.797  1.00  0.00     0.198 A 
ATOM    100  F   UNL A   1      38.912  29.357  33.662  1.00  0.00    -0.203 F 
ATOM    101  F   UNL A   1      39.648  28.451  28.322  1.00  0.00    -0.200 F 
ATOM    102  C   UNL A   1      38.968  27.666  30.444  1.00  0.00     0.200 A 
ATOM    103  F   UNL A   1      38.340  26.944  32.591  1.00  0.00    -0.200 F 
ATOM    104  F   UNL A   1      38.661  26.477  29.914  1.00  0.00    -0.200 F 
ENDBRANCH  71  94
ENDBRANCH  45  46
ENDBRANCH  37  40
ENDBRANCH  35  36
ENDBRANCH  34  35
ENDBRANCH   1  34
TORSDOF 14
ENDMDL
MODEL 3
REMARK VINA RESULT:     -14.2      7.121     13.796
REMARK SMILES Cc1n[nH]c2c1[C@@]1(C(=O)N([C@@H](C)C(=O)NCCCCNC(=O)c3ccc(-c4c5nc(c(-c6c(F)c(F)c(F)c(F)c6F)c6ccc([nH]6)c(-c6c(F)c(F)c(F)c(F)c6F)c6nc(c(-c7c(F)c(F)c(F)c(F)c7F)c7ccc4[nH]7)C=C6)C=C5)cc3)c3ccccc31)C(C#N)=C(N)O2
REMARK SMILES IDX 17 1 16 2 15 3 13 4 14 5 11 7 12 8 10 9 1 10 2 11 3 12 6 13
REMARK SMILES IDX 4 14 5 15 7 16 97 18 8 19 91 20 92 21 95 22 9 23 86 24 90 25
REMARK SMILES IDX 87 26 89 27 88 28 93 29 94 30 96 31 18 34 19 35 20 36 21 37
REMARK SMILES IDX 22 39 23 40 24 41 85 42 25 43 84 44 26 45 27 46 28 47 78 48
REMARK SMILES IDX 29 49 83 50 77 51 79 52 30 53 82 54 76 55 75 56 31 58 63 59
REMARK SMILES IDX 43 60 62 61 44 62 47 63 61 64 80 65 45 66 46 67 60 69 81 70
REMARK SMILES IDX 48 71 32 72 33 73 41 74 34 75 35 76 39 77 42 78 36 79 37 80
REMARK SMILES IDX 40 81 38 82 64 83 65 84 73 85 66 86 67 87 71 88 74 89 68 90
REMARK SMILES IDX 69 91 72 92 70 93 49 94 50 95 58 96 51 97 52 98 56 99 59 100
REMARK SMILES IDX 53 101 54 102 57 103 55 104
REMARK H PARENT 15 6 4 17 96 32 96 33 20 38 79 57 47 68
REMARK Flexibility Score: inf
ROOT
ATOM      1  C   UNL A   1      43.880  29.242  28.176  1.00  0.00     0.023 C 
ENDROOT
BRANCH   1   2
ATOM      2  C   UNL A   1      44.478  29.141  26.766  1.00  0.00     0.116 C 
BRANCH   2   3
ATOM      3  N   UNL A   1      43.577  28.559  25.815  1.00  0.00    -0.354 N 
ATOM      4  C   UNL A   1      43.534  27.244  25.419  1.00  0.00     0.242 C 
ATOM      5  O   UNL A   1      42.653  26.901  24.626  1.00  0.00    -0.273 OA
ATOM      6  H   UNL A   1      42.919  29.165  25.404  1.00  0.00     0.163 HD
BRANCH   4   7
ATOM      7  C   UNL A   1      44.545  26.202  25.990  1.00  0.00     0.176 C 
ATOM      8  C   UNL A   1      45.674  25.882  25.001  1.00  0.00     0.042 C 
BRANCH   7   9
ATOM      9  N   UNL A   1      43.847  25.021  26.530  1.00  0.00    -0.298 N 
ATOM     10  C   UNL A   1      45.509  22.103  25.692  1.00  0.00     0.069 C 
ATOM     11  C   UNL A   1      44.237  21.315  25.720  1.00  0.00     0.068 A 
ATOM     12  N   UNL A   1      44.115  20.084  25.205  1.00  0.00    -0.177 NA
ATOM     13  C   UNL A   1      42.995  21.745  26.259  1.00  0.00     0.063 A 
ATOM     14  N   UNL A   1      42.801  19.771  25.388  1.00  0.00    -0.246 N 
ATOM     15  C   UNL A   1      42.083  20.776  25.961  1.00  0.00     0.222 A 
ATOM     16  C   UNL A   1      42.534  23.068  26.725  1.00  0.00     0.149 C 
ATOM     17  H   UNL A   1      42.410  18.905  25.131  1.00  0.00     0.193 HD
ATOM     18  O   UNL A   1      40.759  20.840  26.126  1.00  0.00    -0.422 OA
ATOM     19  C   UNL A   1      43.199  24.021  25.807  1.00  0.00     0.248 C 
ATOM     20  C   UNL A   1      43.165  23.405  28.013  1.00  0.00     0.002 A 
ATOM     21  C   UNL A   1      41.052  23.203  26.632  1.00  0.00     0.114 C 
ATOM     22  C   UNL A   1      40.238  22.128  26.429  1.00  0.00     0.208 C 
ATOM     23  O   UNL A   1      43.270  23.693  24.631  1.00  0.00    -0.273 OA
ATOM     24  C   UNL A   1      43.917  24.584  27.870  1.00  0.00     0.050 A 
ATOM     25  C   UNL A   1      43.056  22.713  29.195  1.00  0.00     0.008 A 
ATOM     26  C   UNL A   1      44.630  25.085  28.928  1.00  0.00     0.027 A 
ATOM     27  C   UNL A   1      43.756  23.222  30.269  1.00  0.00     0.001 A 
ATOM     28  C   UNL A   1      44.538  24.388  30.138  1.00  0.00     0.002 A 
BRANCH  21  29
ATOM     29  C   UNL A   1      40.368  24.535  26.899  1.00  0.00     0.102 C 
ATOM     30  N   UNL A   1      39.801  25.638  27.120  1.00  0.00    -0.193 NA
ENDBRANCH  21  29
BRANCH  22  31
ATOM     31  N   UNL A   1      38.873  22.203  26.501  1.00  0.00    -0.369 N 
ATOM     32  H   UNL A   1      38.407  23.009  26.179  1.00  0.00     0.159 HD
ATOM     33  H   UNL A   1      38.357  21.453  26.875  1.00  0.00     0.159 HD
ENDBRANCH  22  31
ENDBRANCH   7   9
ENDBRANCH   4   7
ENDBRANCH   2   3
ENDBRANCH   1   2
BRANCH   1  34
ATOM     34  C   UNL A   1      42.463  29.673  28.097  1.00  0.00     0.023 C 
BRANCH  34  35
ATOM     35  C   UNL A   1      41.630  28.431  28.277  1.00  0.00     0.116 C 
BRANCH  35  36
ATOM     36  N   UNL A   1      40.196  28.688  28.277  1.00  0.00    -0.352 N 
ATOM     37  C   UNL A   1      39.246  28.476  29.258  1.00  0.00     0.251 C 
ATOM     38  H   UNL A   1      39.846  29.076  27.442  1.00  0.00     0.163 HD
ATOM     39  O   UNL A   1      38.066  28.720  29.015  1.00  0.00    -0.269 OA
BRANCH  37  40
ATOM     40  C   UNL A   1      39.538  27.828  30.578  1.00  0.00     0.039 A 
ATOM     41  C   UNL A   1      38.528  27.279  31.245  1.00  0.00     0.014 A 
ATOM     42  C   UNL A   1      40.375  28.575  31.463  1.00  0.00     0.014 A 
ATOM     43  C   UNL A   1      38.143  28.185  32.501  1.00  0.00     0.010 A 
ATOM     44  C   UNL A   1      40.225  28.848  32.842  1.00  0.00     0.010 A 
ATOM     45  C   UNL A   1      39.058  29.551  33.027  1.00  0.00    -0.014 A 
BRANCH  45  46
ATOM     46  C   UNL A   1      39.390  31.228  34.032  1.00  0.00     0.031 A 
ATOM     47  C   UNL A   1      37.896  31.481  32.660  1.00  0.00     0.074 A 
ATOM     48  C   UNL A   1      40.405  31.708  35.518  1.00  0.00     0.049 A 
ATOM     49  N   UNL A   1      38.027  31.605  31.290  1.00  0.00    -0.248 NA
ATOM     50  C   UNL A   1      36.140  30.888  32.124  1.00  0.00     0.031 C 
ATOM     51  C   UNL A   1      41.465  32.230  37.085  1.00  0.00     0.029 A 
ATOM     52  N   UNL A   1      40.873  33.377  36.020  1.00  0.00    -0.354 N 
ATOM     53  C   UNL A   1      36.810  32.343  30.875  1.00  0.00     0.074 A 
ATOM     54  C   UNL A   1      35.624  31.684  31.142  1.00  0.00     0.031 C 
ATOM     55  C   UNL A   1      41.730  33.179  38.227  1.00  0.00     0.029 A 
ATOM     56  C   UNL A   1      40.953  34.097  37.565  1.00  0.00     0.049 A 
ATOM     57  H   UNL A   1      41.125  33.972  35.278  1.00  0.00     0.167 HD
ATOM     58  C   UNL A   1      36.770  33.640  31.208  1.00  0.00     0.037 A 
ATOM     59  C   UNL A   1      40.359  35.210  38.155  1.00  0.00     0.037 A 
ATOM     60  C   UNL A   1      38.106  34.013  31.384  1.00  0.00     0.049 A 
ATOM     61  C   UNL A   1      39.774  35.479  36.873  1.00  0.00     0.074 A 
ATOM     62  C   UNL A   1      39.174  33.746  30.556  1.00  0.00     0.029 A 
ATOM     63  N   UNL A   1      38.552  34.026  32.657  1.00  0.00    -0.354 N 
ATOM     64  N   UNL A   1      40.496  35.786  35.816  1.00  0.00    -0.248 NA
ATOM     65  C   UNL A   1      38.505  34.803  36.703  1.00  0.00     0.031 C 
ATOM     66  C   UNL A   1      40.310  33.776  31.352  1.00  0.00     0.029 A 
ATOM     67  C   UNL A   1      39.908  34.016  32.646  1.00  0.00     0.049 A 
ATOM     68  H   UNL A   1      37.987  34.042  33.463  1.00  0.00     0.167 HD
ATOM     69  C   UNL A   1      39.921  35.035  34.798  1.00  0.00     0.074 A 
ATOM     70  C   UNL A   1      38.620  34.578  35.400  1.00  0.00     0.031 C 
ATOM     71  C   UNL A   1      40.641  34.418  33.779  1.00  0.00     0.037 A 
BRANCH  58  72
ATOM     72  C   UNL A   1      35.598  34.446  31.570  1.00  0.00     0.064 A 
ATOM     73  C   UNL A   1      34.779  34.648  30.473  1.00  0.00     0.173 A 
ATOM     74  C   UNL A   1      35.249  35.035  32.806  1.00  0.00     0.173 A 
ATOM     75  F   UNL A   1      35.087  34.071  29.302  1.00  0.00    -0.203 F 
ATOM     76  C   UNL A   1      33.653  35.425  30.570  1.00  0.00     0.198 A 
ATOM     77  C   UNL A   1      34.095  35.804  32.906  1.00  0.00     0.198 A 
ATOM     78  F   UNL A   1      35.997  34.882  33.912  1.00  0.00    -0.203 F 
ATOM     79  F   UNL A   1      32.907  35.614  29.479  1.00  0.00    -0.200 F 
ATOM     80  C   UNL A   1      33.309  36.003  31.781  1.00  0.00     0.200 A 
ATOM     81  F   UNL A   1      33.751  36.362  34.076  1.00  0.00    -0.200 F 
ATOM     82  F   UNL A   1      32.211  36.761  31.853  1.00  0.00    -0.200 F 
ENDBRANCH  58  72
BRANCH  59  83
ATOM     83  C   UNL A   1      39.681  35.326  39.561  1.00  0.00     0.064 A 
ATOM     84  C   UNL A   1      38.986  34.258  40.175  1.00  0.00     0.173 A 
ATOM     85  C   UNL A   1      39.922  36.429  40.424  1.00  0.00     0.173 A 
ATOM     86  F   UNL A   1      38.597  33.209  39.439  1.00  0.00    -0.203 F 
ATOM     87  C   UNL A   1      38.703  34.223  41.561  1.00  0.00     0.198 A 
ATOM     88  C   UNL A   1      39.653  36.394  41.812  1.00  0.00     0.198 A 
ATOM     89  F   UNL A   1      40.491  37.540  39.937  1.00  0.00    -0.203 F 
ATOM     90  F   UNL A   1      38.136  33.135  42.106  1.00  0.00    -0.200 F 
ATOM     91  C   UNL A   1      39.073  35.274  42.382  1.00  0.00     0.200 A 
ATOM     92  F   UNL A   1      40.025  37.416  42.602  1.00  0.00    -0.200 F 
ATOM     93  F   UNL A   1      38.886  35.200  43.709  1.00  0.00    -0.200 F 
ENDBRANCH  59  83
BRANCH  71  94
ATOM     94  C   UNL A   1      42.185  34.395  33.628  1.00  0.00     0.064 A 
ATOM     95  C   UNL A   1      43.056  33.277  33.422  1.00  0.00     0.173 A 
ATOM     96  C   UNL A   1      42.817  35.630  33.581  1.00  0.00     0.173 A 
ATOM     97  F   UNL A   1      42.638  32.017  33.294  1.00  0.00    -0.203 F 
ATOM     98  C   UNL A   1      44.437  33.374  33.392  1.00  0.00     0.198 A 
ATOM     99  C   UNL A   1      44.202  35.737  33.436  1.00  0.00     0.198 A 
ATOM    100  F   UNL A   1      42.078  36.749  33.615  1.00  0.00    -0.203 F 
ATOM    101  F   UNL A   1      45.184  32.257  33.370  1.00  0.00    -0.200 F 
ATOM    102  C   UNL A   1      45.012  34.612  33.379  1.00  0.00     0.200 A 
ATOM    103  F   UNL A   1      44.760  36.950  33.360  1.00  0.00    -0.200 F 
ATOM    104  F   UNL A   1      46.340  34.717  33.276  1.00  0.00    -0.200 F 
ENDBRANCH  71  94
ENDBRANCH  45  46
ENDBRANCH  37  40
ENDBRANCH  35  36
ENDBRANCH  34  35
ENDBRANCH   1  34
TORSDOF 14
ENDMDL
