MODEL 1
REMARK VINA RESULT:     -13.4      0.000      0.000
REMARK SMILES C[C@](NC(=O)C[C@@H]1CCCCO1)(C(=O)NCCCCNC(=O)c1ccc(-c2c3nc(c(-c4c(F)c(F)c(F)c(F)c4F)c4ccc([nH]4)c(-c4c(F)c(F)c(F)c(F)c4F)c4nc(c(-c5c(F)c(F)c(F)c(F)c5F)c5ccc2[nH]5)C=C4)C=C3)cc1)c1ccccc1
REMARK SMILES IDX 17 1 16 2 15 3 13 4 14 5 2 7 1 8 86 9 87 10 91 11 88 12
REMARK SMILES IDX 90 13 89 14 3 15 4 16 5 18 6 19 7 20 8 21 12 22 9 23 11 24
REMARK SMILES IDX 10 25 18 26 19 27 20 28 21 29 22 31 23 32 24 33 85 34 25 35
REMARK SMILES IDX 84 36 26 37 27 38 28 39 78 40 29 41 83 42 77 43 79 44 30 45
REMARK SMILES IDX 82 46 76 47 75 48 31 50 63 51 43 52 62 53 44 54 47 55 61 56
REMARK SMILES IDX 80 57 45 58 46 59 60 61 81 62 48 63 32 64 33 65 41 66 34 67
REMARK SMILES IDX 35 68 39 69 42 70 36 71 37 72 40 73 38 74 64 75 65 76 73 77
REMARK SMILES IDX 66 78 67 79 71 80 74 81 68 82 69 83 72 84 70 85 49 86 50 87
REMARK SMILES IDX 58 88 51 89 52 90 56 91 59 92 53 93 54 94 57 95 55 96
REMARK H PARENT 15 6 3 17 20 30 79 49 47 60
REMARK Flexibility Score: inf
ROOT
ATOM      1  C   UNL A   1      31.802  30.691  26.752  1.00  0.00     0.023 C 
ENDROOT
BRANCH   1   2
ATOM      2  C   UNL A   1      31.448  30.105  25.393  1.00  0.00     0.116 C 
BRANCH   2   3
ATOM      3  N   UNL A   1      32.601  29.701  24.612  1.00  0.00    -0.354 N 
ATOM      4  C   UNL A   1      32.717  28.812  23.573  1.00  0.00     0.250 C 
ATOM      5  O   UNL A   1      33.733  28.964  22.883  1.00  0.00    -0.272 OA
ATOM      6  H   UNL A   1      33.443  30.139  24.871  1.00  0.00     0.163 HD
BRANCH   4   7
ATOM      7  C   UNL A   1      31.549  27.801  23.161  1.00  0.00     0.141 C 
ATOM      8  C   UNL A   1      31.288  27.032  24.469  1.00  0.00     0.051 C 
BRANCH   7   9
ATOM      9  C   UNL A   1      30.261  28.543  22.727  1.00  0.00    -0.013 A 
ATOM     10  C   UNL A   1      30.303  29.689  21.910  1.00  0.00     0.007 A 
ATOM     11  C   UNL A   1      28.989  28.086  23.128  1.00  0.00     0.007 A 
ATOM     12  C   UNL A   1      29.141  30.402  21.600  1.00  0.00     0.000 A 
ATOM     13  C   UNL A   1      27.828  28.797  22.816  1.00  0.00     0.000 A 
ATOM     14  C   UNL A   1      27.906  29.966  22.066  1.00  0.00     0.000 A 
ENDBRANCH   7   9
BRANCH   7  15
ATOM     15  N   UNL A   1      32.014  27.034  21.978  1.00  0.00    -0.338 N 
ATOM     16  C   UNL A   1      32.819  25.984  21.692  1.00  0.00     0.223 C 
ATOM     17  H   UNL A   1      31.617  27.399  21.153  1.00  0.00     0.164 HD
ATOM     18  O   UNL A   1      33.007  25.747  20.494  1.00  0.00    -0.275 OA
BRANCH  16  19
ATOM     19  C   UNL A   1      33.513  25.139  22.730  1.00  0.00     0.132 C 
BRANCH  19  20
ATOM     20  C   UNL A   1      33.633  23.660  22.355  1.00  0.00     0.127 C 
ATOM     21  C   UNL A   1      32.710  22.682  23.091  1.00  0.00     0.033 C 
ATOM     22  O   UNL A   1      35.003  23.241  22.406  1.00  0.00    -0.378 OA
ATOM     23  C   UNL A   1      33.232  22.269  24.461  1.00  0.00     0.005 C 
ATOM     24  C   UNL A   1      35.491  23.031  23.729  1.00  0.00     0.160 C 
ATOM     25  C   UNL A   1      34.711  21.910  24.394  1.00  0.00     0.029 C 
ENDBRANCH  19  20
ENDBRANCH  16  19
ENDBRANCH   7  15
ENDBRANCH   4   7
ENDBRANCH   2   3
ENDBRANCH   1   2
BRANCH   1  26
ATOM     26  C   UNL A   1      31.540  32.186  26.886  1.00  0.00     0.023 C 
BRANCH  26  27
ATOM     27  C   UNL A   1      32.757  33.025  27.264  1.00  0.00     0.116 C 
BRANCH  27  28
ATOM     28  N   UNL A   1      32.423  34.374  27.697  1.00  0.00    -0.352 N 
ATOM     29  C   UNL A   1      32.986  35.129  28.702  1.00  0.00     0.251 C 
ATOM     30  H   UNL A   1      31.691  34.808  27.201  1.00  0.00     0.163 HD
ATOM     31  O   UNL A   1      32.511  36.212  29.008  1.00  0.00    -0.269 OA
BRANCH  29  32
ATOM     32  C   UNL A   1      34.152  34.594  29.438  1.00  0.00     0.039 A 
ATOM     33  C   UNL A   1      33.948  33.997  30.684  1.00  0.00     0.014 A 
ATOM     34  C   UNL A   1      35.430  34.632  28.875  1.00  0.00     0.014 A 
ATOM     35  C   UNL A   1      35.010  33.356  31.323  1.00  0.00     0.010 A 
ATOM     36  C   UNL A   1      36.465  33.920  29.470  1.00  0.00     0.010 A 
ATOM     37  C   UNL A   1      36.265  33.270  30.698  1.00  0.00    -0.014 A 
BRANCH  37  38
ATOM     38  C   UNL A   1      37.381  32.499  31.304  1.00  0.00     0.031 A 
ATOM     39  C   UNL A   1      37.888  32.856  32.674  1.00  0.00     0.074 A 
ATOM     40  C   UNL A   1      37.991  31.531  30.592  1.00  0.00     0.049 A 
ATOM     41  N   UNL A   1      38.901  32.361  33.339  1.00  0.00    -0.248 NA
ATOM     42  C   UNL A   1      37.180  33.938  33.378  1.00  0.00     0.031 C 
ATOM     43  C   UNL A   1      37.630  31.125  29.232  1.00  0.00     0.029 A 
ATOM     44  N   UNL A   1      39.052  30.719  30.908  1.00  0.00    -0.354 N 
ATOM     45  C   UNL A   1      38.964  33.083  34.523  1.00  0.00     0.074 A 
ATOM     46  C   UNL A   1      37.923  34.084  34.464  1.00  0.00     0.031 C 
ATOM     47  C   UNL A   1      38.436  30.125  28.842  1.00  0.00     0.029 A 
ATOM     48  C   UNL A   1      39.396  29.845  29.906  1.00  0.00     0.049 A 
ATOM     49  H   UNL A   1      39.522  30.759  31.772  1.00  0.00     0.167 HD
ATOM     50  C   UNL A   1      39.798  32.908  35.576  1.00  0.00     0.037 A 
ATOM     51  C   UNL A   1      40.378  28.926  29.849  1.00  0.00     0.037 A 
ATOM     52  C   UNL A   1      40.810  31.887  35.646  1.00  0.00     0.049 A 
ATOM     53  C   UNL A   1      41.291  28.751  31.033  1.00  0.00     0.074 A 
ATOM     54  C   UNL A   1      41.655  31.581  36.698  1.00  0.00     0.029 A 
ATOM     55  N   UNL A   1      41.115  31.007  34.618  1.00  0.00    -0.354 N 
ATOM     56  N   UNL A   1      41.291  29.387  32.180  1.00  0.00    -0.248 NA
ATOM     57  C   UNL A   1      42.339  27.728  30.916  1.00  0.00     0.031 C 
ATOM     58  C   UNL A   1      42.504  30.548  36.290  1.00  0.00     0.029 A 
ATOM     59  C   UNL A   1      42.154  30.173  35.003  1.00  0.00     0.049 A 
ATOM     60  H   UNL A   1      40.661  30.979  33.744  1.00  0.00     0.167 HD
ATOM     61  C   UNL A   1      42.312  28.822  32.930  1.00  0.00     0.074 A 
ATOM     62  C   UNL A   1      42.903  27.781  32.113  1.00  0.00     0.031 C 
ATOM     63  C   UNL A   1      42.723  29.135  34.183  1.00  0.00     0.037 A 
BRANCH  50  64
ATOM     64  C   UNL A   1      39.648  33.841  36.741  1.00  0.00     0.064 A 
ATOM     65  C   UNL A   1      38.880  33.499  37.867  1.00  0.00     0.173 A 
ATOM     66  C   UNL A   1      40.306  35.080  36.751  1.00  0.00     0.173 A 
ATOM     67  F   UNL A   1      38.221  32.332  37.903  1.00  0.00    -0.203 F 
ATOM     68  C   UNL A   1      38.753  34.375  38.941  1.00  0.00     0.198 A 
ATOM     69  C   UNL A   1      40.203  35.940  37.841  1.00  0.00     0.198 A 
ATOM     70  F   UNL A   1      41.058  35.454  35.704  1.00  0.00    -0.203 F 
ATOM     71  F   UNL A   1      37.972  34.048  39.980  1.00  0.00    -0.200 F 
ATOM     72  C   UNL A   1      39.419  35.590  38.931  1.00  0.00     0.200 A 
ATOM     73  F   UNL A   1      40.858  37.109  37.836  1.00  0.00    -0.200 F 
ATOM     74  F   UNL A   1      39.302  36.429  39.969  1.00  0.00    -0.200 F 
ENDBRANCH  50  64
BRANCH  51  75
ATOM     75  C   UNL A   1      40.533  28.074  28.640  1.00  0.00     0.064 A 
ATOM     76  C   UNL A   1      41.314  28.503  27.557  1.00  0.00     0.173 A 
ATOM     77  C   UNL A   1      39.902  26.827  28.535  1.00  0.00     0.173 A 
ATOM     78  F   UNL A   1      41.920  29.699  27.602  1.00  0.00    -0.203 F 
ATOM     79  C   UNL A   1      41.441  27.727  26.407  1.00  0.00     0.198 A 
ATOM     80  C   UNL A   1      40.054  26.038  27.396  1.00  0.00     0.198 A 
ATOM     81  F   UNL A   1      39.148  26.368  29.544  1.00  0.00    -0.203 F 
ATOM     82  F   UNL A   1      42.155  28.182  25.370  1.00  0.00    -0.200 F 
ATOM     83  C   UNL A   1      40.816  26.492  26.330  1.00  0.00     0.200 A 
ATOM     84  F   UNL A   1      39.458  24.840  27.331  1.00  0.00    -0.200 F 
ATOM     85  F   UNL A   1      40.939  25.744  25.225  1.00  0.00    -0.200 F 
ENDBRANCH  51  75
BRANCH  63  86
ATOM     86  C   UNL A   1      43.841  28.319  34.766  1.00  0.00     0.064 A 
ATOM     87  C   UNL A   1      43.598  27.122  35.454  1.00  0.00     0.173 A 
ATOM     88  C   UNL A   1      45.174  28.722  34.596  1.00  0.00     0.173 A 
ATOM     89  F   UNL A   1      42.339  26.702  35.656  1.00  0.00    -0.203 F 
ATOM     90  C   UNL A   1      44.649  26.369  35.973  1.00  0.00     0.198 A 
ATOM     91  C   UNL A   1      46.224  27.951  35.090  1.00  0.00     0.198 A 
ATOM     92  F   UNL A   1      45.461  29.855  33.940  1.00  0.00    -0.203 F 
ATOM     93  F   UNL A   1      44.390  25.253  36.669  1.00  0.00    -0.200 F 
ATOM     94  C   UNL A   1      45.959  26.780  35.784  1.00  0.00     0.200 A 
ATOM     95  F   UNL A   1      47.490  28.342  34.893  1.00  0.00    -0.200 F 
ATOM     96  F   UNL A   1      46.969  26.050  36.277  1.00  0.00    -0.200 F 
ENDBRANCH  63  86
ENDBRANCH  37  38
ENDBRANCH  29  32
ENDBRANCH  27  28
ENDBRANCH  26  27
ENDBRANCH   1  26
TORSDOF 15
ENDMDL
MODEL 2
REMARK VINA RESULT:     -13.4      0.168      1.936
REMARK SMILES C[C@](NC(=O)C[C@@H]1CCCCO1)(C(=O)NCCCCNC(=O)c1ccc(-c2c3nc(c(-c4c(F)c(F)c(F)c(F)c4F)c4ccc([nH]4)c(-c4c(F)c(F)c(F)c(F)c4F)c4nc(c(-c5c(F)c(F)c(F)c(F)c5F)c5ccc2[nH]5)C=C4)C=C3)cc1)c1ccccc1
REMARK SMILES IDX 17 1 16 2 15 3 13 4 14 5 2 7 1 8 86 9 87 10 91 11 88 12
REMARK SMILES IDX 90 13 89 14 3 15 4 16 5 18 6 19 7 20 8 21 12 22 9 23 11 24
REMARK SMILES IDX 10 25 18 26 19 27 20 28 21 29 22 31 23 32 24 33 85 34 25 35
REMARK SMILES IDX 84 36 26 37 27 38 28 39 78 40 29 41 83 42 77 43 79 44 30 45
REMARK SMILES IDX 82 46 76 47 75 48 31 50 63 51 43 52 62 53 44 54 47 55 61 56
REMARK SMILES IDX 80 57 45 58 46 59 60 61 81 62 48 63 32 64 33 65 41 66 34 67
REMARK SMILES IDX 35 68 39 69 42 70 36 71 37 72 40 73 38 74 64 75 65 76 73 77
REMARK SMILES IDX 66 78 67 79 71 80 74 81 68 82 69 83 72 84 70 85 49 86 50 87
REMARK SMILES IDX 58 88 51 89 52 90 56 91 59 92 53 93 54 94 57 95 55 96
REMARK H PARENT 15 6 3 17 20 30 79 49 47 60
REMARK Flexibility Score: inf
ROOT
ATOM      1  C   UNL A   1      31.804  30.665  26.748  1.00  0.00     0.023 C 
ENDROOT
BRANCH   1   2
ATOM      2  C   UNL A   1      31.470  30.166  25.350  1.00  0.00     0.116 C 
BRANCH   2   3
ATOM      3  N   UNL A   1      32.626  29.735  24.590  1.00  0.00    -0.354 N 
ATOM      4  C   UNL A   1      32.746  28.818  23.575  1.00  0.00     0.250 C 
ATOM      5  O   UNL A   1      33.769  28.946  22.891  1.00  0.00    -0.272 OA
ATOM      6  H   UNL A   1      33.469  30.175  24.845  1.00  0.00     0.163 HD
BRANCH   4   7
ATOM      7  C   UNL A   1      31.576  27.804  23.180  1.00  0.00     0.141 C 
ATOM      8  C   UNL A   1      31.307  27.063  24.503  1.00  0.00     0.051 C 
BRANCH   7   9
ATOM      9  C   UNL A   1      30.292  28.543  22.726  1.00  0.00    -0.013 A 
ATOM     10  C   UNL A   1      30.343  29.684  21.904  1.00  0.00     0.007 A 
ATOM     11  C   UNL A   1      29.016  28.085  23.114  1.00  0.00     0.007 A 
ATOM     12  C   UNL A   1      29.184  30.394  21.576  1.00  0.00     0.000 A 
ATOM     13  C   UNL A   1      27.858  28.794  22.783  1.00  0.00     0.000 A 
ATOM     14  C   UNL A   1      27.944  29.959  22.028  1.00  0.00     0.000 A 
ENDBRANCH   7   9
BRANCH   7  15
ATOM     15  N   UNL A   1      32.041  27.011  22.014  1.00  0.00    -0.338 N 
ATOM     16  C   UNL A   1      32.701  25.857  21.762  1.00  0.00     0.223 C 
ATOM     17  H   UNL A   1      31.797  27.460  21.172  1.00  0.00     0.164 HD
ATOM     18  O   UNL A   1      32.978  25.631  20.579  1.00  0.00    -0.275 OA
BRANCH  16  19
ATOM     19  C   UNL A   1      33.141  24.880  22.823  1.00  0.00     0.132 C 
BRANCH  19  20
ATOM     20  C   UNL A   1      33.603  23.527  22.276  1.00  0.00     0.127 C 
ATOM     21  C   UNL A   1      32.703  22.319  22.566  1.00  0.00     0.033 C 
ATOM     22  O   UNL A   1      34.965  23.278  22.645  1.00  0.00    -0.378 OA
ATOM     23  C   UNL A   1      32.922  21.718  23.948  1.00  0.00     0.005 C 
ATOM     24  C   UNL A   1      35.129  22.877  24.003  1.00  0.00     0.160 C 
ATOM     25  C   UNL A   1      34.408  21.562  24.244  1.00  0.00     0.029 C 
ENDBRANCH  19  20
ENDBRANCH  16  19
ENDBRANCH   7  15
ENDBRANCH   4   7
ENDBRANCH   2   3
ENDBRANCH   1   2
BRANCH   1  26
ATOM     26  C   UNL A   1      31.520  32.144  26.980  1.00  0.00     0.023 C 
BRANCH  26  27
ATOM     27  C   UNL A   1      32.749  33.002  27.261  1.00  0.00     0.116 C 
BRANCH  27  28
ATOM     28  N   UNL A   1      32.428  34.357  27.687  1.00  0.00    -0.352 N 
ATOM     29  C   UNL A   1      33.002  35.114  28.685  1.00  0.00     0.251 C 
ATOM     30  H   UNL A   1      31.698  34.794  27.192  1.00  0.00     0.163 HD
ATOM     31  O   UNL A   1      32.538  36.202  28.987  1.00  0.00    -0.269 OA
BRANCH  29  32
ATOM     32  C   UNL A   1      34.167  34.573  29.419  1.00  0.00     0.039 A 
ATOM     33  C   UNL A   1      33.955  33.921  30.636  1.00  0.00     0.014 A 
ATOM     34  C   UNL A   1      35.453  34.661  28.881  1.00  0.00     0.014 A 
ATOM     35  C   UNL A   1      35.021  33.278  31.268  1.00  0.00     0.010 A 
ATOM     36  C   UNL A   1      36.493  33.946  29.465  1.00  0.00     0.010 A 
ATOM     37  C   UNL A   1      36.287  33.243  30.661  1.00  0.00    -0.014 A 
BRANCH  37  38
ATOM     38  C   UNL A   1      37.409  32.471  31.255  1.00  0.00     0.031 A 
ATOM     39  C   UNL A   1      37.931  32.828  32.619  1.00  0.00     0.074 A 
ATOM     40  C   UNL A   1      38.010  31.503  30.536  1.00  0.00     0.049 A 
ATOM     41  N   UNL A   1      38.951  32.332  33.273  1.00  0.00    -0.248 NA
ATOM     42  C   UNL A   1      37.232  33.910  33.331  1.00  0.00     0.031 C 
ATOM     43  C   UNL A   1      37.635  31.097  29.180  1.00  0.00     0.029 A 
ATOM     44  N   UNL A   1      39.074  30.690  30.840  1.00  0.00    -0.354 N 
ATOM     45  C   UNL A   1      39.027  33.054  34.456  1.00  0.00     0.074 A 
ATOM     46  C   UNL A   1      37.987  34.056  34.409  1.00  0.00     0.031 C 
ATOM     47  C   UNL A   1      38.435  30.097  28.781  1.00  0.00     0.029 A 
ATOM     48  C   UNL A   1      39.407  29.816  29.834  1.00  0.00     0.049 A 
ATOM     49  H   UNL A   1      39.554  30.730  31.699  1.00  0.00     0.167 HD
ATOM     50  C   UNL A   1      39.873  32.879  35.499  1.00  0.00     0.037 A 
ATOM     51  C   UNL A   1      40.388  28.896  29.767  1.00  0.00     0.037 A 
ATOM     52  C   UNL A   1      40.885  31.857  35.559  1.00  0.00     0.049 A 
ATOM     53  C   UNL A   1      41.314  28.721  30.941  1.00  0.00     0.074 A 
ATOM     54  C   UNL A   1      41.742  31.550  36.601  1.00  0.00     0.029 A 
ATOM     55  N   UNL A   1      41.179  30.976  34.527  1.00  0.00    -0.354 N 
ATOM     56  N   UNL A   1      41.327  29.357  32.087  1.00  0.00    -0.248 NA
ATOM     57  C   UNL A   1      42.359  27.697  30.812  1.00  0.00     0.031 C 
ATOM     58  C   UNL A   1      42.586  30.517  36.183  1.00  0.00     0.029 A 
ATOM     59  C   UNL A   1      42.221  30.142  34.901  1.00  0.00     0.049 A 
ATOM     60  H   UNL A   1      40.715  30.949  33.659  1.00  0.00     0.167 HD
ATOM     61  C   UNL A   1      42.355  28.791  32.826  1.00  0.00     0.074 A 
ATOM     62  C   UNL A   1      42.937  27.750  32.003  1.00  0.00     0.031 C 
ATOM     63  C   UNL A   1      42.781  29.104  34.074  1.00  0.00     0.037 A 
BRANCH  50  64
ATOM     64  C   UNL A   1      39.737  33.812  36.667  1.00  0.00     0.064 A 
ATOM     65  C   UNL A   1      40.390  35.054  36.699  1.00  0.00     0.173 A 
ATOM     66  C   UNL A   1      38.916  33.476  37.754  1.00  0.00     0.173 A 
ATOM     67  F   UNL A   1      41.195  35.418  35.690  1.00  0.00    -0.203 F 
ATOM     68  C   UNL A   1      40.251  35.910  37.788  1.00  0.00     0.198 A 
ATOM     69  C   UNL A   1      38.754  34.348  38.828  1.00  0.00     0.198 A 
ATOM     70  F   UNL A   1      38.263  32.304  37.773  1.00  0.00    -0.203 F 
ATOM     71  F   UNL A   1      40.927  37.066  37.819  1.00  0.00    -0.200 F 
ATOM     72  C   UNL A   1      39.429  35.560  38.847  1.00  0.00     0.200 A 
ATOM     73  F   UNL A   1      37.948  34.015  39.845  1.00  0.00    -0.200 F 
ATOM     74  F   UNL A   1      39.291  36.387  39.893  1.00  0.00    -0.200 F 
ENDBRANCH  50  64
BRANCH  51  75
ATOM     75  C   UNL A   1      40.529  28.045  28.556  1.00  0.00     0.064 A 
ATOM     76  C   UNL A   1      39.910  26.788  28.487  1.00  0.00     0.173 A 
ATOM     77  C   UNL A   1      41.288  28.460  27.452  1.00  0.00     0.173 A 
ATOM     78  F   UNL A   1      39.192  26.339  29.526  1.00  0.00    -0.203 F 
ATOM     79  C   UNL A   1      40.061  25.971  27.369  1.00  0.00     0.198 A 
ATOM     80  C   UNL A   1      41.414  27.653  26.322  1.00  0.00     0.198 A 
ATOM     81  F   UNL A   1      41.897  29.654  27.466  1.00  0.00    -0.203 F 
ATOM     82  F   UNL A   1      39.498  24.756  27.349  1.00  0.00    -0.200 F 
ATOM     83  C   UNL A   1      40.809  26.405  26.285  1.00  0.00     0.200 A 
ATOM     84  F   UNL A   1      42.127  28.083  25.273  1.00  0.00    -0.200 F 
ATOM     85  F   UNL A   1      40.953  25.620  25.209  1.00  0.00    -0.200 F 
ENDBRANCH  51  75
BRANCH  63  86
ATOM     86  C   UNL A   1      43.904  28.287  34.645  1.00  0.00     0.064 A 
ATOM     87  C   UNL A   1      45.244  28.676  34.506  1.00  0.00     0.173 A 
ATOM     88  C   UNL A   1      43.629  27.122  35.379  1.00  0.00     0.173 A 
ATOM     89  F   UNL A   1      45.558  29.774  33.801  1.00  0.00    -0.203 F 
ATOM     90  C   UNL A   1      46.271  27.914  35.058  1.00  0.00     0.198 A 
ATOM     91  C   UNL A   1      44.656  26.380  35.955  1.00  0.00     0.198 A 
ATOM     92  F   UNL A   1      42.364  26.711  35.548  1.00  0.00    -0.203 F 
ATOM     93  F   UNL A   1      47.547  28.279  34.871  1.00  0.00    -0.200 F 
ATOM     94  C   UNL A   1      45.976  26.773  35.788  1.00  0.00     0.200 A 
ATOM     95  F   UNL A   1      44.369  25.286  36.673  1.00  0.00    -0.200 F 
ATOM     96  F   UNL A   1      46.965  26.046  36.326  1.00  0.00    -0.200 F 
ENDBRANCH  63  86
ENDBRANCH  37  38
ENDBRANCH  29  32
ENDBRANCH  27  28
ENDBRANCH  26  27
ENDBRANCH   1  26
TORSDOF 15
ENDMDL
MODEL 3
REMARK VINA RESULT:     -13.4      0.507      7.414
REMARK SMILES C[C@](NC(=O)C[C@@H]1CCCCO1)(C(=O)NCCCCNC(=O)c1ccc(-c2c3nc(c(-c4c(F)c(F)c(F)c(F)c4F)c4ccc([nH]4)c(-c4c(F)c(F)c(F)c(F)c4F)c4nc(c(-c5c(F)c(F)c(F)c(F)c5F)c5ccc2[nH]5)C=C4)C=C3)cc1)c1ccccc1
REMARK SMILES IDX 17 1 16 2 15 3 13 4 14 5 2 7 1 8 86 9 87 10 91 11 88 12
REMARK SMILES IDX 90 13 89 14 3 15 4 16 5 18 6 19 7 20 8 21 12 22 9 23 11 24
REMARK SMILES IDX 10 25 18 26 19 27 20 28 21 29 22 31 23 32 24 33 85 34 25 35
REMARK SMILES IDX 84 36 26 37 27 38 28 39 78 40 29 41 83 42 77 43 79 44 30 45
REMARK SMILES IDX 82 46 76 47 75 48 31 50 63 51 43 52 62 53 44 54 47 55 61 56
REMARK SMILES IDX 80 57 45 58 46 59 60 61 81 62 48 63 32 64 33 65 41 66 34 67
REMARK SMILES IDX 35 68 39 69 42 70 36 71 37 72 40 73 38 74 64 75 65 76 73 77
REMARK SMILES IDX 66 78 67 79 71 80 74 81 68 82 69 83 72 84 70 85 49 86 50 87
REMARK SMILES IDX 58 88 51 89 52 90 56 91 59 92 53 93 54 94 57 95 55 96
REMARK H PARENT 15 6 3 17 20 30 79 49 47 60
REMARK Flexibility Score: inf
ROOT
ATOM      1  C   UNL A   1      32.037  30.508  26.775  1.00  0.00     0.023 C 
ENDROOT
BRANCH   1   2
ATOM      2  C   UNL A   1      31.585  29.878  25.465  1.00  0.00     0.116 C 
BRANCH   2   3
ATOM      3  N   UNL A   1      32.673  29.565  24.560  1.00  0.00    -0.354 N 
ATOM      4  C   UNL A   1      32.715  28.765  23.445  1.00  0.00     0.250 C 
ATOM      5  O   UNL A   1      33.666  28.996  22.687  1.00  0.00    -0.272 OA
ATOM      6  H   UNL A   1      33.528  30.000  24.782  1.00  0.00     0.163 HD
BRANCH   4   7
ATOM      7  C   UNL A   1      31.533  27.765  23.051  1.00  0.00     0.141 C 
ATOM      8  C   UNL A   1      31.330  26.952  24.343  1.00  0.00     0.051 C 
BRANCH   7   9
ATOM      9  C   UNL A   1      30.225  28.516  22.696  1.00  0.00    -0.013 A 
ATOM     10  C   UNL A   1      30.227  29.672  21.894  1.00  0.00     0.007 A 
ATOM     11  C   UNL A   1      28.976  28.056  23.160  1.00  0.00     0.007 A 
ATOM     12  C   UNL A   1      29.052  30.392  21.657  1.00  0.00     0.000 A 
ATOM     13  C   UNL A   1      27.802  28.774  22.920  1.00  0.00     0.000 A 
ATOM     14  C   UNL A   1      27.843  29.953  22.183  1.00  0.00     0.000 A 
ENDBRANCH   7   9
BRANCH   7  15
ATOM     15  N   UNL A   1      31.948  27.038  21.824  1.00  0.00    -0.338 N 
ATOM     16  C   UNL A   1      32.789  26.041  21.462  1.00  0.00     0.223 C 
ATOM     17  H   UNL A   1      31.468  27.387  21.038  1.00  0.00     0.164 HD
ATOM     18  O   UNL A   1      32.896  25.827  20.250  1.00  0.00    -0.275 OA
BRANCH  16  19
ATOM     19  C   UNL A   1      33.611  25.229  22.431  1.00  0.00     0.132 C 
BRANCH  19  20
ATOM     20  C   UNL A   1      33.406  23.717  22.313  1.00  0.00     0.127 C 
ATOM     21  C   UNL A   1      32.188  23.125  23.032  1.00  0.00     0.033 C 
ATOM     22  O   UNL A   1      34.613  23.022  22.648  1.00  0.00    -0.378 OA
ATOM     23  C   UNL A   1      32.424  22.872  24.516  1.00  0.00     0.005 C 
ATOM     24  C   UNL A   1      34.871  22.960  24.049  1.00  0.00     0.160 C 
ATOM     25  C   UNL A   1      33.765  22.187  24.743  1.00  0.00     0.029 C 
ENDBRANCH  19  20
ENDBRANCH  16  19
ENDBRANCH   7  15
ENDBRANCH   4   7
ENDBRANCH   2   3
ENDBRANCH   1   2
BRANCH   1  26
ATOM     26  C   UNL A   1      31.708  31.989  26.914  1.00  0.00     0.023 C 
BRANCH  26  27
ATOM     27  C   UNL A   1      32.871  32.872  27.355  1.00  0.00     0.116 C 
BRANCH  27  28
ATOM     28  N   UNL A   1      32.476  34.234  27.685  1.00  0.00    -0.352 N 
ATOM     29  C   UNL A   1      32.997  35.084  28.636  1.00  0.00     0.251 C 
ATOM     30  H   UNL A   1      31.731  34.599  27.155  1.00  0.00     0.163 HD
ATOM     31  O   UNL A   1      32.474  36.165  28.859  1.00  0.00    -0.269 OA
BRANCH  29  32
ATOM     32  C   UNL A   1      34.178  34.654  29.417  1.00  0.00     0.039 A 
ATOM     33  C   UNL A   1      33.989  34.156  30.707  1.00  0.00     0.014 A 
ATOM     34  C   UNL A   1      35.456  34.692  28.855  1.00  0.00     0.014 A 
ATOM     35  C   UNL A   1      35.071  33.610  31.400  1.00  0.00     0.010 A 
ATOM     36  C   UNL A   1      36.514  34.069  29.510  1.00  0.00     0.010 A 
ATOM     37  C   UNL A   1      36.332  33.518  30.787  1.00  0.00    -0.014 A 
BRANCH  37  38
ATOM     38  C   UNL A   1      37.471  32.841  31.457  1.00  0.00     0.031 A 
ATOM     39  C   UNL A   1      38.160  31.684  30.788  1.00  0.00     0.074 A 
ATOM     40  C   UNL A   1      37.834  33.213  32.701  1.00  0.00     0.049 A 
ATOM     41  N   UNL A   1      39.114  30.912  31.241  1.00  0.00    -0.248 NA
ATOM     42  C   UNL A   1      37.691  31.327  29.439  1.00  0.00     0.031 C 
ATOM     43  C   UNL A   1      37.210  34.283  33.481  1.00  0.00     0.029 A 
ATOM     44  N   UNL A   1      38.810  32.723  33.534  1.00  0.00    -0.354 N 
ATOM     45  C   UNL A   1      39.342  29.970  30.247  1.00  0.00     0.074 A 
ATOM     46  C   UNL A   1      38.393  30.233  29.189  1.00  0.00     0.031 C 
ATOM     47  C   UNL A   1      37.835  34.388  34.664  1.00  0.00     0.029 A 
ATOM     48  C   UNL A   1      38.875  33.367  34.745  1.00  0.00     0.049 A 
ATOM     49  H   UNL A   1      39.407  31.980  33.286  1.00  0.00     0.167 HD
ATOM     50  C   UNL A   1      40.277  28.991  30.209  1.00  0.00     0.037 A 
ATOM     51  C   UNL A   1      39.680  33.154  35.804  1.00  0.00     0.037 A 
ATOM     52  C   UNL A   1      41.244  28.754  31.248  1.00  0.00     0.049 A 
ATOM     53  C   UNL A   1      40.712  32.060  35.735  1.00  0.00     0.074 A 
ATOM     54  C   UNL A   1      42.280  27.836  31.271  1.00  0.00     0.029 A 
ATOM     55  N   UNL A   1      41.293  29.441  32.453  1.00  0.00    -0.354 N 
ATOM     56  N   UNL A   1      40.970  31.226  34.757  1.00  0.00    -0.248 NA
ATOM     57  C   UNL A   1      41.566  31.880  36.917  1.00  0.00     0.031 C 
ATOM     58  C   UNL A   1      42.924  27.934  32.508  1.00  0.00     0.029 A 
ATOM     59  C   UNL A   1      42.325  28.949  33.236  1.00  0.00     0.049 A 
ATOM     60  H   UNL A   1      40.683  30.169  32.712  1.00  0.00     0.167 HD
ATOM     61  C   UNL A   1      42.033  30.447  35.191  1.00  0.00     0.074 A 
ATOM     62  C   UNL A   1      42.381  30.916  36.517  1.00  0.00     0.031 C 
ATOM     63  C   UNL A   1      42.665  29.434  34.549  1.00  0.00     0.037 A 
BRANCH  50  64
ATOM     64  C   UNL A   1      40.302  28.103  29.000  1.00  0.00     0.064 A 
ATOM     65  C   UNL A   1      41.043  28.436  27.854  1.00  0.00     0.173 A 
ATOM     66  C   UNL A   1      39.604  26.885  28.996  1.00  0.00     0.173 A 
ATOM     67  F   UNL A   1      41.718  29.594  27.801  1.00  0.00    -0.203 F 
ATOM     68  C   UNL A   1      41.058  27.600  26.741  1.00  0.00     0.198 A 
ATOM     69  C   UNL A   1      39.648  26.036  27.894  1.00  0.00     0.198 A 
ATOM     70  F   UNL A   1      38.886  26.515  30.067  1.00  0.00    -0.203 F 
ATOM     71  F   UNL A   1      41.728  27.965  25.640  1.00  0.00    -0.200 F 
ATOM     72  C   UNL A   1      40.367  26.399  26.764  1.00  0.00     0.200 A 
ATOM     73  F   UNL A   1      38.990  24.869  27.921  1.00  0.00    -0.200 F 
ATOM     74  F   UNL A   1      40.387  25.591  25.694  1.00  0.00    -0.200 F 
ENDBRANCH  50  64
BRANCH  51  75
ATOM     75  C   UNL A   1      39.567  34.015  37.011  1.00  0.00     0.064 A 
ATOM     76  C   UNL A   1      38.796  33.609  38.110  1.00  0.00     0.173 A 
ATOM     77  C   UNL A   1      40.212  35.257  37.090  1.00  0.00     0.173 A 
ATOM     78  F   UNL A   1      38.141  32.440  38.073  1.00  0.00    -0.203 F 
ATOM     79  C   UNL A   1      38.658  34.422  39.233  1.00  0.00     0.198 A 
ATOM     80  C   UNL A   1      40.098  36.056  38.226  1.00  0.00     0.198 A 
ATOM     81  F   UNL A   1      40.965  35.689  36.068  1.00  0.00    -0.203 F 
ATOM     82  F   UNL A   1      37.879  34.031  40.249  1.00  0.00    -0.200 F 
ATOM     83  C   UNL A   1      39.314  35.642  39.293  1.00  0.00     0.200 A 
ATOM     84  F   UNL A   1      40.744  37.228  38.285  1.00  0.00    -0.200 F 
ATOM     85  F   UNL A   1      39.184  36.423  40.374  1.00  0.00    -0.200 F 
ENDBRANCH  51  75
BRANCH  63  86
ATOM     86  C   UNL A   1      43.824  28.788  35.253  1.00  0.00     0.064 A 
ATOM     87  C   UNL A   1      45.140  29.235  35.068  1.00  0.00     0.173 A 
ATOM     88  C   UNL A   1      43.607  27.736  36.155  1.00  0.00     0.173 A 
ATOM     89  F   UNL A   1      45.401  30.229  34.204  1.00  0.00    -0.203 F 
ATOM     90  C   UNL A   1      46.200  28.635  35.743  1.00  0.00     0.198 A 
ATOM     91  C   UNL A   1      44.665  27.159  36.851  1.00  0.00     0.198 A 
ATOM     92  F   UNL A   1      42.366  27.276  36.373  1.00  0.00    -0.203 F 
ATOM     93  F   UNL A   1      47.455  29.047  35.515  1.00  0.00    -0.200 F 
ATOM     94  C   UNL A   1      45.962  27.605  36.639  1.00  0.00     0.200 A 
ATOM     95  F   UNL A   1      44.431  26.174  37.728  1.00  0.00    -0.200 F 
ATOM     96  F   UNL A   1      46.982  27.034  37.294  1.00  0.00    -0.200 F 
ENDBRANCH  63  86
ENDBRANCH  37  38
ENDBRANCH  29  32
ENDBRANCH  27  28
ENDBRANCH  26  27
ENDBRANCH   1  26
TORSDOF 15
ENDMDL
