MODEL 1
REMARK VINA RESULT:     -13.0      0.000      0.000
REMARK SMILES CCc1cc(=O)oc2c3c(cc(OCC(=O)NCC(=O)NCCCCNC(=O)c4ccc(-c5c6nc(c(-c7c(F)c(F)c(F)c(F)c7F)c7ccc([nH]7)c(-c7c(F)c(F)c(F)c(F)c7F)c7nc(c(-c8c(F)c(F)c(F)c(F)c8F)c8ccc5[nH]8)C=C7)C=C6)cc4)c12)OC(C)(C)CC3
REMARK SMILES IDX 22 1 21 2 19 3 20 4 18 6 17 7 15 8 16 9 14 11 13 12 12 13
REMARK SMILES IDX 3 14 4 15 92 16 5 17 8 18 6 19 7 20 9 21 11 22 10 23 98 24
REMARK SMILES IDX 93 25 97 26 94 27 95 28 96 29 2 30 1 31 23 32 24 33 25 34
REMARK SMILES IDX 26 35 27 36 28 38 29 39 30 40 91 41 31 42 90 43 32 44 33 45
REMARK SMILES IDX 34 46 84 47 35 48 89 49 83 50 85 51 36 52 88 53 82 54 81 55
REMARK SMILES IDX 37 57 69 58 49 59 68 60 50 61 53 62 67 63 86 64 51 65 52 66
REMARK SMILES IDX 66 68 87 69 54 70 38 71 39 72 47 73 40 74 41 75 45 76 48 77
REMARK SMILES IDX 42 78 43 79 46 80 44 81 70 82 71 83 79 84 72 85 73 86 77 87
REMARK SMILES IDX 80 88 74 89 75 90 78 91 76 92 55 93 56 94 64 95 57 96 58 97
REMARK SMILES IDX 62 98 65 99 59 100 60 101 63 102 61 103
REMARK H PARENT 21 5 17 10 26 37 85 56 53 67
REMARK Flexibility Score: inf
ROOT
ATOM      1  C   UNL A   1      34.611  32.602  27.941  1.00  0.00     0.116 C 
ENDROOT
BRANCH   1   2
ATOM      2  N   UNL A   1      35.856  31.870  27.940  1.00  0.00    -0.355 N 
ATOM      3  C   UNL A   1      36.038  30.535  27.698  1.00  0.00     0.239 C 
ATOM      4  O   UNL A   1      37.187  30.115  27.554  1.00  0.00    -0.273 OA
ATOM      5  H   UNL A   1      36.669  32.392  28.135  1.00  0.00     0.163 HD
BRANCH   3   6
ATOM      6  C   UNL A   1      34.824  29.605  27.550  1.00  0.00     0.216 C 
BRANCH   6   7
ATOM      7  N   UNL A   1      34.239  29.675  26.222  1.00  0.00    -0.344 N 
ATOM      8  C   UNL A   1      33.176  28.989  25.716  1.00  0.00     0.258 C 
ATOM      9  O   UNL A   1      32.757  29.307  24.601  1.00  0.00    -0.271 OA
ATOM     10  H   UNL A   1      34.669  30.307  25.602  1.00  0.00     0.164 HD
BRANCH   8  11
ATOM     11  C   UNL A   1      32.510  27.863  26.526  1.00  0.00     0.329 C 
BRANCH  11  12
ATOM     12  O   UNL A   1      32.109  26.692  25.832  1.00  0.00    -0.483 OA
BRANCH  12  13
ATOM     13  C   UNL A   1      33.019  25.979  25.095  1.00  0.00     0.135 A 
ATOM     14  C   UNL A   1      31.640  26.442  22.943  1.00  0.00    -0.026 A 
ATOM     15  C   UNL A   1      31.562  26.233  21.619  1.00  0.00     0.098 A 
ATOM     16  C   UNL A   1      32.811  25.905  23.697  1.00  0.00     0.063 A 
ATOM     17  C   UNL A   1      32.597  25.569  20.830  1.00  0.00     0.336 A 
ATOM     18  C   UNL A   1      33.745  25.148  22.965  1.00  0.00     0.149 A 
ATOM     19  O   UNL A   1      32.466  25.438  19.619  1.00  0.00    -0.246 OA
ATOM     20  O   UNL A   1      33.681  25.109  21.550  1.00  0.00    -0.422 OA
ATOM     21  C   UNL A   1      34.742  24.345  23.563  1.00  0.00     0.038 A 
ATOM     22  C   UNL A   1      34.086  25.276  25.684  1.00  0.00     0.094 A 
ATOM     23  C   UNL A   1      34.886  24.409  24.939  1.00  0.00     0.130 A 
ATOM     24  C   UNL A   1      35.523  23.327  22.782  1.00  0.00     0.047 C 
ATOM     25  O   UNL A   1      35.765  23.643  25.657  1.00  0.00    -0.487 OA
ATOM     26  C   UNL A   1      36.682  22.744  23.570  1.00  0.00     0.053 C 
ATOM     27  C   UNL A   1      36.270  22.453  25.018  1.00  0.00     0.104 C 
ATOM     28  C   UNL A   1      37.519  22.032  25.804  1.00  0.00     0.056 C 
ATOM     29  C   UNL A   1      35.237  21.319  25.147  1.00  0.00     0.056 C 
BRANCH  14  30
ATOM     30  C   UNL A   1      30.459  27.121  23.595  1.00  0.00     0.033 C 
ATOM     31  C   UNL A   1      29.810  28.167  22.701  1.00  0.00     0.009 C 
ENDBRANCH  14  30
ENDBRANCH  12  13
ENDBRANCH  11  12
ENDBRANCH   8  11
ENDBRANCH   6   7
ENDBRANCH   3   6
ENDBRANCH   1   2
BRANCH   1  32
ATOM     32  C   UNL A   1      34.532  33.660  29.033  1.00  0.00     0.023 C 
BRANCH  32  33
ATOM     33  C   UNL A   1      33.257  34.503  29.043  1.00  0.00     0.023 C 
BRANCH  33  34
ATOM     34  C   UNL A   1      33.417  35.959  29.483  1.00  0.00     0.116 C 
BRANCH  34  35
ATOM     35  N   UNL A   1      32.603  36.314  30.634  1.00  0.00    -0.352 N 
ATOM     36  C   UNL A   1      32.754  35.995  31.960  1.00  0.00     0.251 C 
ATOM     37  H   UNL A   1      31.819  36.874  30.430  1.00  0.00     0.163 HD
ATOM     38  O   UNL A   1      31.952  36.331  32.820  1.00  0.00    -0.269 OA
BRANCH  36  39
ATOM     39  C   UNL A   1      33.865  35.180  32.412  1.00  0.00     0.039 A 
ATOM     40  C   UNL A   1      33.560  33.889  32.866  1.00  0.00     0.014 A 
ATOM     41  C   UNL A   1      35.153  35.702  32.456  1.00  0.00     0.014 A 
ATOM     42  C   UNL A   1      34.580  33.080  33.320  1.00  0.00     0.010 A 
ATOM     43  C   UNL A   1      36.180  34.871  32.838  1.00  0.00     0.010 A 
ATOM     44  C   UNL A   1      35.888  33.567  33.271  1.00  0.00    -0.014 A 
BRANCH  44  45
ATOM     45  C   UNL A   1      37.010  32.733  33.701  1.00  0.00     0.031 A 
ATOM     46  C   UNL A   1      37.651  33.049  35.009  1.00  0.00     0.074 A 
ATOM     47  C   UNL A   1      37.483  31.830  32.830  1.00  0.00     0.049 A 
ATOM     48  N   UNL A   1      38.793  32.645  35.484  1.00  0.00    -0.248 NA
ATOM     49  C   UNL A   1      36.933  34.004  35.874  1.00  0.00     0.031 C 
ATOM     50  C   UNL A   1      36.893  31.529  31.521  1.00  0.00     0.029 A 
ATOM     51  N   UNL A   1      38.585  31.030  32.893  1.00  0.00    -0.354 N 
ATOM     52  C   UNL A   1      38.957  33.331  36.680  1.00  0.00     0.074 A 
ATOM     53  C   UNL A   1      37.814  34.201  36.843  1.00  0.00     0.031 C 
ATOM     54  C   UNL A   1      37.648  30.611  30.901  1.00  0.00     0.029 A 
ATOM     55  C   UNL A   1      38.786  30.296  31.752  1.00  0.00     0.049 A 
ATOM     56  H   UNL A   1      39.175  30.983  33.679  1.00  0.00     0.167 HD
ATOM     57  C   UNL A   1      39.984  33.222  37.552  1.00  0.00     0.037 A 
ATOM     58  C   UNL A   1      39.804  29.477  31.442  1.00  0.00     0.037 A 
ATOM     59  C   UNL A   1      41.078  32.310  37.343  1.00  0.00     0.049 A 
ATOM     60  C   UNL A   1      40.883  29.307  32.471  1.00  0.00     0.074 A 
ATOM     61  C   UNL A   1      42.166  32.052  38.152  1.00  0.00     0.029 A 
ATOM     62  N   UNL A   1      41.200  31.489  36.225  1.00  0.00    -0.354 N 
ATOM     63  N   UNL A   1      41.035  29.936  33.614  1.00  0.00    -0.248 NA
ATOM     64  C   UNL A   1      41.918  28.312  32.185  1.00  0.00     0.031 C 
ATOM     65  C   UNL A   1      42.955  31.087  37.515  1.00  0.00     0.029 A 
ATOM     66  C   UNL A   1      42.341  30.716  36.326  1.00  0.00     0.049 A 
ATOM     67  H   UNL A   1      40.567  31.463  35.472  1.00  0.00     0.167 HD
ATOM     68  C   UNL A   1      42.170  29.402  34.199  1.00  0.00     0.074 A 
ATOM     69  C   UNL A   1      42.657  28.382  33.285  1.00  0.00     0.031 C 
ATOM     70  C   UNL A   1      42.766  29.718  35.375  1.00  0.00     0.037 A 
BRANCH  57  71
ATOM     71  C   UNL A   1      39.958  34.105  38.765  1.00  0.00     0.064 A 
ATOM     72  C   UNL A   1      40.623  35.342  38.795  1.00  0.00     0.173 A 
ATOM     73  C   UNL A   1      39.284  33.700  39.928  1.00  0.00     0.173 A 
ATOM     74  F   UNL A   1      41.302  35.769  37.719  1.00  0.00    -0.203 F 
ATOM     75  C   UNL A   1      40.647  36.119  39.951  1.00  0.00     0.198 A 
ATOM     76  C   UNL A   1      39.283  34.495  41.072  1.00  0.00     0.198 A 
ATOM     77  F   UNL A   1      38.636  32.526  39.961  1.00  0.00    -0.203 F 
ATOM     78  F   UNL A   1      41.345  37.263  39.972  1.00  0.00    -0.200 F 
ATOM     79  C   UNL A   1      39.974  35.698  41.086  1.00  0.00     0.200 A 
ATOM     80  F   UNL A   1      38.627  34.090  42.168  1.00  0.00    -0.200 F 
ATOM     81  F   UNL A   1      40.000  36.444  42.199  1.00  0.00    -0.200 F 
ENDBRANCH  57  71
BRANCH  58  82
ATOM     82  C   UNL A   1      39.793  28.745  30.152  1.00  0.00     0.064 A 
ATOM     83  C   UNL A   1      40.385  29.304  29.011  1.00  0.00     0.173 A 
ATOM     84  C   UNL A   1      39.270  27.448  30.043  1.00  0.00     0.173 A 
ATOM     85  F   UNL A   1      40.899  30.542  29.065  1.00  0.00    -0.203 F 
ATOM     86  C   UNL A   1      40.442  28.603  27.809  1.00  0.00     0.198 A 
ATOM     87  C   UNL A   1      39.349  26.736  28.848  1.00  0.00     0.198 A 
ATOM     88  F   UNL A   1      38.715  26.856  31.112  1.00  0.00    -0.203 F 
ATOM     89  F   UNL A   1      40.995  29.171  26.730  1.00  0.00    -0.200 F 
ATOM     90  C   UNL A   1      39.931  27.315  27.731  1.00  0.00     0.200 A 
ATOM     91  F   UNL A   1      38.875  25.484  28.782  1.00  0.00    -0.200 F 
ATOM     92  F   UNL A   1      40.003  26.634  26.579  1.00  0.00    -0.200 F 
ENDBRANCH  58  82
BRANCH  70  93
ATOM     93  C   UNL A   1      43.987  28.928  35.725  1.00  0.00     0.064 A 
ATOM     94  C   UNL A   1      43.897  27.738  36.460  1.00  0.00     0.173 A 
ATOM     95  C   UNL A   1      45.251  29.353  35.294  1.00  0.00     0.173 A 
ATOM     96  F   UNL A   1      42.707  27.307  36.905  1.00  0.00    -0.203 F 
ATOM     97  C   UNL A   1      45.040  27.013  36.777  1.00  0.00     0.198 A 
ATOM     98  C   UNL A   1      46.388  28.611  35.590  1.00  0.00     0.198 A 
ATOM     99  F   UNL A   1      45.378  30.483  34.583  1.00  0.00    -0.203 F 
ATOM    100  F   UNL A   1      44.942  25.905  37.523  1.00  0.00    -0.200 F 
ATOM    101  C   UNL A   1      46.283  27.447  36.337  1.00  0.00     0.200 A 
ATOM    102  F   UNL A   1      47.587  29.025  35.156  1.00  0.00    -0.200 F 
ATOM    103  F   UNL A   1      47.383  26.746  36.641  1.00  0.00    -0.200 F 
ENDBRANCH  70  93
ENDBRANCH  44  45
ENDBRANCH  36  39
ENDBRANCH  34  35
ENDBRANCH  33  34
ENDBRANCH  32  33
ENDBRANCH   1  32
TORSDOF 16
ENDMDL
MODEL 2
REMARK VINA RESULT:     -12.6      2.805      8.582
REMARK SMILES CCc1cc(=O)oc2c3c(cc(OCC(=O)NCC(=O)NCCCCNC(=O)c4ccc(-c5c6nc(c(-c7c(F)c(F)c(F)c(F)c7F)c7ccc([nH]7)c(-c7c(F)c(F)c(F)c(F)c7F)c7nc(c(-c8c(F)c(F)c(F)c(F)c8F)c8ccc5[nH]8)C=C7)C=C6)cc4)c12)OC(C)(C)CC3
REMARK SMILES IDX 22 1 21 2 19 3 20 4 18 6 17 7 15 8 16 9 14 11 13 12 12 13
REMARK SMILES IDX 3 14 4 15 92 16 5 17 8 18 6 19 7 20 9 21 11 22 10 23 98 24
REMARK SMILES IDX 93 25 97 26 94 27 95 28 96 29 2 30 1 31 23 32 24 33 25 34
REMARK SMILES IDX 26 35 27 36 28 38 29 39 30 40 91 41 31 42 90 43 32 44 33 45
REMARK SMILES IDX 34 46 84 47 35 48 89 49 83 50 85 51 36 52 88 53 82 54 81 55
REMARK SMILES IDX 37 57 69 58 49 59 68 60 50 61 53 62 67 63 86 64 51 65 52 66
REMARK SMILES IDX 66 68 87 69 54 70 38 71 39 72 47 73 40 74 41 75 45 76 48 77
REMARK SMILES IDX 42 78 43 79 46 80 44 81 70 82 71 83 79 84 72 85 73 86 77 87
REMARK SMILES IDX 80 88 74 89 75 90 78 91 76 92 55 93 56 94 64 95 57 96 58 97
REMARK SMILES IDX 62 98 65 99 59 100 60 101 63 102 61 103
REMARK H PARENT 21 5 17 10 26 37 85 56 53 67
REMARK Flexibility Score: inf
ROOT
ATOM      1  C   UNL A   1      30.740  28.591  23.308  1.00  0.00     0.116 C 
ENDROOT
BRANCH   1   2
ATOM      2  N   UNL A   1      29.451  27.962  23.478  1.00  0.00    -0.355 N 
ATOM      3  C   UNL A   1      29.196  26.683  23.892  1.00  0.00     0.239 C 
ATOM      4  O   UNL A   1      28.034  26.372  24.159  1.00  0.00    -0.273 OA
ATOM      5  H   UNL A   1      28.664  28.519  23.272  1.00  0.00     0.163 HD
BRANCH   3   6
ATOM      6  C   UNL A   1      30.350  25.686  24.076  1.00  0.00     0.216 C 
BRANCH   6   7
ATOM      7  N   UNL A   1      30.523  25.299  25.467  1.00  0.00    -0.344 N 
ATOM      8  C   UNL A   1      30.914  24.099  25.980  1.00  0.00     0.258 C 
ATOM      9  O   UNL A   1      31.132  24.029  27.191  1.00  0.00    -0.271 OA
ATOM     10  H   UNL A   1      30.332  26.001  26.129  1.00  0.00     0.164 HD
BRANCH   8  11
ATOM     11  C   UNL A   1      31.096  22.874  25.066  1.00  0.00     0.329 C 
BRANCH  11  12
ATOM     12  O   UNL A   1      32.340  22.721  24.400  1.00  0.00    -0.483 OA
BRANCH  12  13
ATOM     13  C   UNL A   1      33.129  21.628  24.652  1.00  0.00     0.135 A 
ATOM     14  C   UNL A   1      35.241  23.140  24.595  1.00  0.00    -0.026 A 
ATOM     15  C   UNL A   1      36.579  23.167  24.707  1.00  0.00     0.098 A 
ATOM     16  C   UNL A   1      34.520  21.847  24.793  1.00  0.00     0.063 A 
ATOM     17  C   UNL A   1      37.395  22.016  25.087  1.00  0.00     0.336 A 
ATOM     18  C   UNL A   1      35.313  20.707  25.027  1.00  0.00     0.149 A 
ATOM     19  O   UNL A   1      38.610  22.125  25.193  1.00  0.00    -0.246 OA
ATOM     20  O   UNL A   1      36.698  20.843  25.291  1.00  0.00    -0.422 OA
ATOM     21  C   UNL A   1      34.821  19.385  24.955  1.00  0.00     0.038 A 
ATOM     22  C   UNL A   1      32.617  20.319  24.700  1.00  0.00     0.094 A 
ATOM     23  C   UNL A   1      33.459  19.209  24.770  1.00  0.00     0.130 A 
ATOM     24  C   UNL A   1      35.734  18.193  24.913  1.00  0.00     0.047 C 
ATOM     25  O   UNL A   1      32.854  17.990  24.620  1.00  0.00    -0.487 OA
ATOM     26  C   UNL A   1      34.992  16.878  25.060  1.00  0.00     0.053 C 
ATOM     27  C   UNL A   1      33.697  16.883  24.241  1.00  0.00     0.104 C 
ATOM     28  C   UNL A   1      32.911  15.605  24.565  1.00  0.00     0.056 C 
ATOM     29  C   UNL A   1      33.932  16.910  22.719  1.00  0.00     0.056 C 
BRANCH  14  30
ATOM     30  C   UNL A   1      34.568  24.421  24.164  1.00  0.00     0.033 C 
ATOM     31  C   UNL A   1      34.308  25.372  25.322  1.00  0.00     0.009 C 
ENDBRANCH  14  30
ENDBRANCH  12  13
ENDBRANCH  11  12
ENDBRANCH   8  11
ENDBRANCH   6   7
ENDBRANCH   3   6
ENDBRANCH   1   2
BRANCH   1  32
ATOM     32  C   UNL A   1      31.399  28.987  24.621  1.00  0.00     0.023 C 
BRANCH  32  33
ATOM     33  C   UNL A   1      32.758  28.345  24.898  1.00  0.00     0.023 C 
BRANCH  33  34
ATOM     34  C   UNL A   1      33.770  29.210  25.649  1.00  0.00     0.116 C 
BRANCH  34  35
ATOM     35  N   UNL A   1      33.202  30.431  26.197  1.00  0.00    -0.352 N 
ATOM     36  C   UNL A   1      33.668  31.259  27.187  1.00  0.00     0.251 C 
ATOM     37  H   UNL A   1      32.348  30.709  25.793  1.00  0.00     0.163 HD
ATOM     38  O   UNL A   1      33.049  32.239  27.579  1.00  0.00    -0.269 OA
BRANCH  36  39
ATOM     39  C   UNL A   1      34.915  30.981  27.872  1.00  0.00     0.039 A 
ATOM     40  C   UNL A   1      35.865  32.011  27.901  1.00  0.00     0.014 A 
ATOM     41  C   UNL A   1      35.164  29.720  28.402  1.00  0.00     0.014 A 
ATOM     42  C   UNL A   1      37.073  31.791  28.527  1.00  0.00     0.010 A 
ATOM     43  C   UNL A   1      36.338  29.524  29.092  1.00  0.00     0.010 A 
ATOM     44  C   UNL A   1      37.287  30.558  29.148  1.00  0.00    -0.014 A 
BRANCH  44  45
ATOM     45  C   UNL A   1      38.534  30.290  29.863  1.00  0.00     0.031 A 
ATOM     46  C   UNL A   1      39.493  29.326  29.252  1.00  0.00     0.074 A 
ATOM     47  C   UNL A   1      38.673  30.814  31.089  1.00  0.00     0.049 A 
ATOM     48  N   UNL A   1      40.518  28.732  29.791  1.00  0.00    -0.248 NA
ATOM     49  C   UNL A   1      39.222  28.930  27.858  1.00  0.00     0.031 C 
ATOM     50  C   UNL A   1      37.724  31.733  31.727  1.00  0.00     0.029 A 
ATOM     51  N   UNL A   1      39.640  30.623  32.031  1.00  0.00    -0.354 N 
ATOM     52  C   UNL A   1      40.985  27.855  28.822  1.00  0.00     0.074 A 
ATOM     53  C   UNL A   1      40.115  27.971  27.674  1.00  0.00     0.031 C 
ATOM     54  C   UNL A   1      38.156  32.020  32.964  1.00  0.00     0.029 A 
ATOM     55  C   UNL A   1      39.383  31.276  33.210  1.00  0.00     0.049 A 
ATOM     56  H   UNL A   1      40.442  30.073  31.879  1.00  0.00     0.167 HD
ATOM     57  C   UNL A   1      42.057  27.036  28.908  1.00  0.00     0.037 A 
ATOM     58  C   UNL A   1      40.072  31.243  34.362  1.00  0.00     0.037 A 
ATOM     59  C   UNL A   1      42.901  26.993  30.073  1.00  0.00     0.049 A 
ATOM     60  C   UNL A   1      41.309  30.394  34.395  1.00  0.00     0.074 A 
ATOM     61  C   UNL A   1      44.045  26.251  30.295  1.00  0.00     0.029 A 
ATOM     62  N   UNL A   1      42.683  27.754  31.218  1.00  0.00    -0.354 N 
ATOM     63  N   UNL A   1      41.771  29.578  33.475  1.00  0.00    -0.248 NA
ATOM     64  C   UNL A   1      42.128  30.467  35.607  1.00  0.00     0.031 C 
ATOM     65  C   UNL A   1      44.508  26.553  31.582  1.00  0.00     0.029 A 
ATOM     66  C   UNL A   1      43.674  27.508  32.149  1.00  0.00     0.049 A 
ATOM     67  H   UNL A   1      41.931  28.376  31.347  1.00  0.00     0.167 HD
ATOM     68  C   UNL A   1      42.947  29.053  33.983  1.00  0.00     0.074 A 
ATOM     69  C   UNL A   1      43.133  29.661  35.289  1.00  0.00     0.031 C 
ATOM     70  C   UNL A   1      43.797  28.151  33.434  1.00  0.00     0.037 A 
BRANCH  57  71
ATOM     71  C   UNL A   1      42.341  26.143  27.735  1.00  0.00     0.064 A 
ATOM     72  C   UNL A   1      41.683  24.914  27.563  1.00  0.00     0.173 A 
ATOM     73  C   UNL A   1      43.306  26.504  26.782  1.00  0.00     0.173 A 
ATOM     74  F   UNL A   1      40.768  24.509  28.456  1.00  0.00    -0.203 F 
ATOM     75  C   UNL A   1      42.007  24.066  26.507  1.00  0.00     0.198 A 
ATOM     76  C   UNL A   1      43.605  25.667  25.709  1.00  0.00     0.198 A 
ATOM     77  F   UNL A   1      43.972  27.663  26.898  1.00  0.00    -0.203 F 
ATOM     78  F   UNL A   1      41.411  22.869  26.404  1.00  0.00    -0.200 F 
ATOM     79  C   UNL A   1      42.964  24.444  25.578  1.00  0.00     0.200 A 
ATOM     80  F   UNL A   1      44.526  26.037  24.808  1.00  0.00    -0.200 F 
ATOM     81  F   UNL A   1      43.277  23.626  24.564  1.00  0.00    -0.200 F 
ENDBRANCH  57  71
BRANCH  58  82
ATOM     82  C   UNL A   1      39.627  32.072  35.509  1.00  0.00     0.064 A 
ATOM     83  C   UNL A   1      40.037  33.407  35.624  1.00  0.00     0.173 A 
ATOM     84  C   UNL A   1      38.727  31.583  36.467  1.00  0.00     0.173 A 
ATOM     85  F   UNL A   1      40.897  33.920  34.732  1.00  0.00    -0.203 F 
ATOM     86  C   UNL A   1      39.575  34.218  36.658  1.00  0.00     0.198 A 
ATOM     87  C   UNL A   1      38.246  32.401  37.488  1.00  0.00     0.198 A 
ATOM     88  F   UNL A   1      38.283  30.319  36.388  1.00  0.00    -0.203 F 
ATOM     89  F   UNL A   1      40.000  35.484  36.755  1.00  0.00    -0.200 F 
ATOM     90  C   UNL A   1      38.673  33.716  37.585  1.00  0.00     0.200 A 
ATOM     91  F   UNL A   1      37.356  31.920  38.368  1.00  0.00    -0.200 F 
ATOM     92  F   UNL A   1      38.215  34.502  38.569  1.00  0.00    -0.200 F 
ENDBRANCH  58  82
BRANCH  70  93
ATOM     93  C   UNL A   1      45.002  27.805  34.250  1.00  0.00     0.064 A 
ATOM     94  C   UNL A   1      44.993  26.722  35.139  1.00  0.00     0.173 A 
ATOM     95  C   UNL A   1      46.183  28.548  34.114  1.00  0.00     0.173 A 
ATOM     96  F   UNL A   1      43.877  25.998  35.309  1.00  0.00    -0.203 F 
ATOM     97  C   UNL A   1      46.121  26.412  35.890  1.00  0.00     0.198 A 
ATOM     98  C   UNL A   1      47.317  28.218  34.846  1.00  0.00     0.198 A 
ATOM     99  F   UNL A   1      46.235  29.589  33.268  1.00  0.00    -0.203 F 
ATOM    100  F   UNL A   1      46.079  25.405  36.772  1.00  0.00    -0.200 F 
ATOM    101  C   UNL A   1      47.283  27.156  35.738  1.00  0.00     0.200 A 
ATOM    102  F   UNL A   1      48.442  28.930  34.693  1.00  0.00    -0.200 F 
ATOM    103  F   UNL A   1      48.370  26.854  36.460  1.00  0.00    -0.200 F 
ENDBRANCH  70  93
ENDBRANCH  44  45
ENDBRANCH  36  39
ENDBRANCH  34  35
ENDBRANCH  33  34
ENDBRANCH  32  33
ENDBRANCH   1  32
TORSDOF 16
ENDMDL
MODEL 3
REMARK VINA RESULT:     -12.0      2.258      8.008
REMARK SMILES CCc1cc(=O)oc2c3c(cc(OCC(=O)NCC(=O)NCCCCNC(=O)c4ccc(-c5c6nc(c(-c7c(F)c(F)c(F)c(F)c7F)c7ccc([nH]7)c(-c7c(F)c(F)c(F)c(F)c7F)c7nc(c(-c8c(F)c(F)c(F)c(F)c8F)c8ccc5[nH]8)C=C7)C=C6)cc4)c12)OC(C)(C)CC3
REMARK SMILES IDX 22 1 21 2 19 3 20 4 18 6 17 7 15 8 16 9 14 11 13 12 12 13
REMARK SMILES IDX 3 14 4 15 92 16 5 17 8 18 6 19 7 20 9 21 11 22 10 23 98 24
REMARK SMILES IDX 93 25 97 26 94 27 95 28 96 29 2 30 1 31 23 32 24 33 25 34
REMARK SMILES IDX 26 35 27 36 28 38 29 39 30 40 91 41 31 42 90 43 32 44 33 45
REMARK SMILES IDX 34 46 84 47 35 48 89 49 83 50 85 51 36 52 88 53 82 54 81 55
REMARK SMILES IDX 37 57 69 58 49 59 68 60 50 61 53 62 67 63 86 64 51 65 52 66
REMARK SMILES IDX 66 68 87 69 54 70 38 71 39 72 47 73 40 74 41 75 45 76 48 77
REMARK SMILES IDX 42 78 43 79 46 80 44 81 70 82 71 83 79 84 72 85 73 86 77 87
REMARK SMILES IDX 80 88 74 89 75 90 78 91 76 92 55 93 56 94 64 95 57 96 58 97
REMARK SMILES IDX 62 98 65 99 59 100 60 101 63 102 61 103
REMARK H PARENT 21 5 17 10 26 37 85 56 53 67
REMARK Flexibility Score: inf
ROOT
ATOM      1  C   UNL A   1      31.600  28.704  25.625  1.00  0.00     0.116 C 
ENDROOT
BRANCH   1   2
ATOM      2  N   UNL A   1      30.528  28.324  24.735  1.00  0.00    -0.355 N 
ATOM      3  C   UNL A   1      30.216  27.066  24.295  1.00  0.00     0.239 C 
ATOM      4  O   UNL A   1      29.157  26.901  23.688  1.00  0.00    -0.273 OA
ATOM      5  H   UNL A   1      29.955  29.055  24.406  1.00  0.00     0.163 HD
BRANCH   3   6
ATOM      6  C   UNL A   1      31.145  25.884  24.614  1.00  0.00     0.216 C 
BRANCH   6   7
ATOM      7  N   UNL A   1      30.765  25.204  25.841  1.00  0.00    -0.344 N 
ATOM      8  C   UNL A   1      30.750  23.870  26.112  1.00  0.00     0.258 C 
ATOM      9  O   UNL A   1      30.525  23.515  27.271  1.00  0.00    -0.271 OA
ATOM     10  H   UNL A   1      30.479  25.790  26.579  1.00  0.00     0.164 HD
BRANCH   8  11
ATOM     11  C   UNL A   1      31.025  22.839  25.003  1.00  0.00     0.329 C 
BRANCH  11  12
ATOM     12  O   UNL A   1      32.340  22.769  24.472  1.00  0.00    -0.483 OA
BRANCH  12  13
ATOM     13  C   UNL A   1      33.127  21.674  24.716  1.00  0.00     0.135 A 
ATOM     14  C   UNL A   1      35.242  23.181  24.660  1.00  0.00    -0.026 A 
ATOM     15  C   UNL A   1      36.580  23.205  24.766  1.00  0.00     0.098 A 
ATOM     16  C   UNL A   1      34.520  21.889  24.853  1.00  0.00     0.063 A 
ATOM     17  C   UNL A   1      37.395  22.051  25.138  1.00  0.00     0.336 A 
ATOM     18  C   UNL A   1      35.311  20.747  25.080  1.00  0.00     0.149 A 
ATOM     19  O   UNL A   1      38.611  22.157  25.241  1.00  0.00    -0.246 OA
ATOM     20  O   UNL A   1      36.697  20.879  25.340  1.00  0.00    -0.422 OA
ATOM     21  C   UNL A   1      34.816  19.426  25.004  1.00  0.00     0.038 A 
ATOM     22  C   UNL A   1      32.613  20.365  24.761  1.00  0.00     0.094 A 
ATOM     23  C   UNL A   1      33.453  19.254  24.823  1.00  0.00     0.130 A 
ATOM     24  C   UNL A   1      35.727  18.233  24.953  1.00  0.00     0.047 C 
ATOM     25  O   UNL A   1      32.845  18.037  24.670  1.00  0.00    -0.487 OA
ATOM     26  C   UNL A   1      34.983  16.918  25.098  1.00  0.00     0.053 C 
ATOM     27  C   UNL A   1      33.685  16.930  24.283  1.00  0.00     0.104 C 
ATOM     28  C   UNL A   1      32.897  15.652  24.604  1.00  0.00     0.056 C 
ATOM     29  C   UNL A   1      33.915  16.962  22.761  1.00  0.00     0.056 C 
BRANCH  14  30
ATOM     30  C   UNL A   1      34.570  24.466  24.236  1.00  0.00     0.033 C 
ATOM     31  C   UNL A   1      34.432  25.464  25.375  1.00  0.00     0.009 C 
ENDBRANCH  14  30
ENDBRANCH  12  13
ENDBRANCH  11  12
ENDBRANCH   8  11
ENDBRANCH   6   7
ENDBRANCH   3   6
ENDBRANCH   1   2
BRANCH   1  32
ATOM     32  C   UNL A   1      32.028  30.156  25.472  1.00  0.00     0.023 C 
BRANCH  32  33
ATOM     33  C   UNL A   1      31.832  31.036  26.706  1.00  0.00     0.023 C 
BRANCH  33  34
ATOM     34  C   UNL A   1      33.028  31.896  27.116  1.00  0.00     0.116 C 
BRANCH  34  35
ATOM     35  N   UNL A   1      32.659  33.215  27.605  1.00  0.00    -0.352 N 
ATOM     36  C   UNL A   1      33.263  34.014  28.543  1.00  0.00     0.251 C 
ATOM     37  H   UNL A   1      31.848  33.596  27.197  1.00  0.00     0.163 HD
ATOM     38  O   UNL A   1      32.806  35.093  28.889  1.00  0.00    -0.269 OA
BRANCH  36  39
ATOM     39  C   UNL A   1      34.469  33.587  29.226  1.00  0.00     0.039 A 
ATOM     40  C   UNL A   1      34.303  32.789  30.366  1.00  0.00     0.014 A 
ATOM     41  C   UNL A   1      35.717  34.024  28.796  1.00  0.00     0.014 A 
ATOM     42  C   UNL A   1      35.418  32.370  31.059  1.00  0.00     0.010 A 
ATOM     43  C   UNL A   1      36.833  33.546  29.442  1.00  0.00     0.010 A 
ATOM     44  C   UNL A   1      36.678  32.725  30.571  1.00  0.00    -0.014 A 
BRANCH  44  45
ATOM     45  C   UNL A   1      37.893  32.270  31.245  1.00  0.00     0.031 A 
ATOM     46  C   UNL A   1      38.668  31.166  30.612  1.00  0.00     0.074 A 
ATOM     47  C   UNL A   1      38.156  32.773  32.460  1.00  0.00     0.049 A 
ATOM     48  N   UNL A   1      39.607  30.422  31.121  1.00  0.00    -0.248 NA
ATOM     49  C   UNL A   1      38.289  30.809  29.232  1.00  0.00     0.031 C 
ATOM     50  C   UNL A   1      37.385  33.831  33.121  1.00  0.00     0.029 A 
ATOM     51  N   UNL A   1      39.115  32.439  33.370  1.00  0.00    -0.354 N 
ATOM     52  C   UNL A   1      39.898  29.478  30.146  1.00  0.00     0.074 A 
ATOM     53  C   UNL A   1      39.016  29.722  29.028  1.00  0.00     0.031 C 
ATOM     54  C   UNL A   1      37.900  34.055  34.338  1.00  0.00     0.029 A 
ATOM     55  C   UNL A   1      39.005  33.130  34.550  1.00  0.00     0.049 A 
ATOM     56  H   UNL A   1      39.815  31.770  33.196  1.00  0.00     0.167 HD
ATOM     57  C   UNL A   1      40.832  28.502  30.204  1.00  0.00     0.037 A 
ATOM     58  C   UNL A   1      39.721  32.996  35.678  1.00  0.00     0.037 A 
ATOM     59  C   UNL A   1      41.701  28.335  31.339  1.00  0.00     0.049 A 
ATOM     60  C   UNL A   1      40.812  31.965  35.677  1.00  0.00     0.074 A 
ATOM     61  C   UNL A   1      42.722  27.426  31.529  1.00  0.00     0.029 A 
ATOM     62  N   UNL A   1      41.644  29.127  32.483  1.00  0.00    -0.354 N 
ATOM     63  N   UNL A   1      41.108  31.083  34.751  1.00  0.00    -0.248 NA
ATOM     64  C   UNL A   1      41.675  31.917  36.858  1.00  0.00     0.031 C 
ATOM     65  C   UNL A   1      43.273  27.658  32.796  1.00  0.00     0.029 A 
ATOM     66  C   UNL A   1      42.618  28.735  33.381  1.00  0.00     0.049 A 
ATOM     67  H   UNL A   1      41.003  29.859  32.631  1.00  0.00     0.167 HD
ATOM     68  C   UNL A   1      42.205  30.384  35.223  1.00  0.00     0.074 A 
ATOM     69  C   UNL A   1      42.530  30.962  36.515  1.00  0.00     0.031 C 
ATOM     70  C   UNL A   1      42.886  29.358  34.655  1.00  0.00     0.037 A 
BRANCH  57  71
ATOM     71  C   UNL A   1      40.932  27.570  29.031  1.00  0.00     0.064 A 
ATOM     72  C   UNL A   1      41.917  27.727  28.043  1.00  0.00     0.173 A 
ATOM     73  C   UNL A   1      40.013  26.521  28.875  1.00  0.00     0.173 A 
ATOM     74  F   UNL A   1      42.807  28.727  28.130  1.00  0.00    -0.203 F 
ATOM     75  C   UNL A   1      41.954  26.896  26.925  1.00  0.00     0.198 A 
ATOM     76  C   UNL A   1      40.073  25.672  27.772  1.00  0.00     0.198 A 
ATOM     77  F   UNL A   1      39.046  26.326  29.784  1.00  0.00    -0.203 F 
ATOM     78  F   UNL A   1      42.863  27.109  25.964  1.00  0.00    -0.200 F 
ATOM     79  C   UNL A   1      41.036  25.866  26.793  1.00  0.00     0.200 A 
ATOM     80  F   UNL A   1      39.188  24.672  27.649  1.00  0.00    -0.200 F 
ATOM     81  F   UNL A   1      41.070  25.069  25.716  1.00  0.00    -0.200 F 
ENDBRANCH  57  71
BRANCH  58  82
ATOM     82  C   UNL A   1      39.452  33.890  36.830  1.00  0.00     0.064 A 
ATOM     83  C   UNL A   1      38.705  33.435  37.925  1.00  0.00     0.173 A 
ATOM     84  C   UNL A   1      39.996  35.181  36.905  1.00  0.00     0.173 A 
ATOM     85  F   UNL A   1      38.165  32.207  37.900  1.00  0.00    -0.203 F 
ATOM     86  C   UNL A   1      38.500  34.239  39.044  1.00  0.00     0.198 A 
ATOM     87  C   UNL A   1      39.811  35.976  38.035  1.00  0.00     0.198 A 
ATOM     88  F   UNL A   1      40.740  35.656  35.895  1.00  0.00    -0.203 F 
ATOM     89  F   UNL A   1      37.765  33.784  40.067  1.00  0.00    -0.200 F 
ATOM     90  C   UNL A   1      39.060  35.506  39.102  1.00  0.00     0.200 A 
ATOM     91  F   UNL A   1      40.374  37.192  38.097  1.00  0.00    -0.200 F 
ATOM     92  F   UNL A   1      38.878  36.272  40.186  1.00  0.00    -0.200 F 
ENDBRANCH  58  82
BRANCH  70  93
ATOM     93  C   UNL A   1      44.051  28.833  35.432  1.00  0.00     0.064 A 
ATOM     94  C   UNL A   1      43.904  27.772  36.335  1.00  0.00     0.173 A 
ATOM     95  C   UNL A   1      45.328  29.380  35.244  1.00  0.00     0.173 A 
ATOM     96  F   UNL A   1      42.696  27.233  36.554  1.00  0.00    -0.203 F 
ATOM     97  C   UNL A   1      44.997  27.294  37.050  1.00  0.00     0.198 A 
ATOM     98  C   UNL A   1      46.422  28.881  35.941  1.00  0.00     0.198 A 
ATOM     99  F   UNL A   1      45.510  30.393  34.384  1.00  0.00    -0.203 F 
ATOM    100  F   UNL A   1      44.830  26.312  37.946  1.00  0.00    -0.200 F 
ATOM    101  C   UNL A   1      46.255  27.844  36.847  1.00  0.00     0.200 A 
ATOM    102  F   UNL A   1      47.638  29.406  35.738  1.00  0.00    -0.200 F 
ATOM    103  F   UNL A   1      47.307  27.381  37.535  1.00  0.00    -0.200 F 
ENDBRANCH  70  93
ENDBRANCH  44  45
ENDBRANCH  36  39
ENDBRANCH  34  35
ENDBRANCH  33  34
ENDBRANCH  32  33
ENDBRANCH   1  32
TORSDOF 16
ENDMDL
