MODEL 1
REMARK VINA RESULT:     -12.9      0.000      0.000
REMARK SMILES Cc1ccc(S(=O)(=O)Nc2ccc(Cl)c(C(=O)NCCCCNC(=O)c3ccc(-c4c5nc(c(-c6c(F)c(F)c(F)c(F)c6F)c6ccc([nH]6)c(-c6c(F)c(F)c(F)c(F)c6F)c6nc(c(-c7c(F)c(F)c(F)c(F)c7F)c7ccc4[nH]7)C=C6)C=C5)cc3)c2)cc1Cl
REMARK SMILES IDX 20 1 19 2 18 3 16 4 17 5 15 7 10 8 11 9 89 10 12 11 13 12
REMARK SMILES IDX 14 13 9 14 6 16 7 17 8 18 5 19 1 20 2 21 3 22 91 23 4 24
REMARK SMILES IDX 90 25 92 26 21 27 22 28 23 29 24 30 25 32 26 33 27 34 88 35
REMARK SMILES IDX 28 36 87 37 29 38 30 39 31 40 81 41 32 42 86 43 80 44 82 45
REMARK SMILES IDX 33 46 85 47 79 48 78 49 34 51 66 52 46 53 65 54 47 55 50 56
REMARK SMILES IDX 64 57 83 58 48 59 49 60 63 62 84 63 51 64 35 65 36 66 44 67
REMARK SMILES IDX 37 68 38 69 42 70 45 71 39 72 40 73 43 74 41 75 67 76 68 77
REMARK SMILES IDX 76 78 69 79 70 80 74 81 77 82 71 83 72 84 75 85 73 86 52 87
REMARK SMILES IDX 53 88 61 89 54 90 55 91 59 92 62 93 56 94 57 95 60 96 58 97
REMARK H PARENT 18 6 9 15 23 31 82 50 50 61
REMARK Flexibility Score: inf
ROOT
ATOM      1  C   UNL A   1      33.475  29.178  23.243  1.00  0.00     0.023 C 
ENDROOT
BRANCH   1   2
ATOM      2  C   UNL A   1      33.950  27.826  22.704  1.00  0.00     0.116 C 
BRANCH   2   3
ATOM      3  N   UNL A   1      32.988  27.301  21.754  1.00  0.00    -0.352 N 
ATOM      4  C   UNL A   1      31.893  26.483  21.887  1.00  0.00     0.252 C 
ATOM      5  O   UNL A   1      31.405  26.052  20.845  1.00  0.00    -0.269 OA
ATOM      6  H   UNL A   1      33.155  27.589  20.827  1.00  0.00     0.163 HD
BRANCH   4   7
ATOM      7  C   UNL A   1      31.274  26.139  23.204  1.00  0.00     0.060 A 
ATOM      8  C   UNL A   1      31.388  25.054  25.382  1.00  0.00     0.050 A 
ATOM      9  C   UNL A   1      30.149  25.586  25.726  1.00  0.00     0.028 A 
ATOM     10  C   UNL A   1      31.876  25.225  24.086  1.00  0.00     0.042 A 
ATOM     11  C   UNL A   1      29.485  26.422  24.834  1.00  0.00     0.023 A 
ATOM     12  C   UNL A   1      30.064  26.744  23.599  1.00  0.00     0.053 A 
ATOM     13  Cl  UNL A   1      29.238  27.961  22.689  1.00  0.00    -0.083 Cl
BRANCH   8  14
ATOM     14  N   UNL A   1      32.131  24.436  26.424  1.00  0.00    -0.280 N 
ATOM     15  H   UNL A   1      32.578  25.025  27.074  1.00  0.00     0.180 HD
BRANCH  14  16
ATOM     16  S   UNL A   1      32.307  22.776  26.632  1.00  0.00     0.261 S 
ATOM     17  O   UNL A   1      31.246  22.128  25.876  1.00  0.00    -0.201 OA
ATOM     18  O   UNL A   1      32.463  22.569  28.041  1.00  0.00    -0.201 OA
BRANCH  16  19
ATOM     19  C   UNL A   1      33.831  22.251  25.864  1.00  0.00     0.089 A 
ATOM     20  C   UNL A   1      37.787  20.802  24.933  1.00  0.00     0.046 C 
ATOM     21  C   UNL A   1      36.416  21.356  25.209  1.00  0.00    -0.032 A 
ATOM     22  C   UNL A   1      35.291  20.553  24.961  1.00  0.00     0.006 A 
ATOM     23  C   UNL A   1      36.215  22.659  25.688  1.00  0.00     0.045 A 
ATOM     24  C   UNL A   1      34.002  21.004  25.262  1.00  0.00     0.022 A 
ATOM     25  C   UNL A   1      34.934  23.099  26.030  1.00  0.00     0.043 A 
ATOM     26  Cl  UNL A   1      37.532  23.749  25.929  1.00  0.00    -0.084 Cl
ENDBRANCH  16  19
ENDBRANCH  14  16
ENDBRANCH   8  14
ENDBRANCH   4   7
ENDBRANCH   2   3
ENDBRANCH   1   2
BRANCH   1  27
ATOM     27  C   UNL A   1      32.622  29.066  24.508  1.00  0.00     0.023 C 
BRANCH  27  28
ATOM     28  C   UNL A   1      33.319  29.559  25.769  1.00  0.00     0.116 C 
BRANCH  28  29
ATOM     29  N   UNL A   1      32.791  30.825  26.257  1.00  0.00    -0.352 N 
ATOM     30  C   UNL A   1      33.348  31.659  27.198  1.00  0.00     0.251 C 
ATOM     31  H   UNL A   1      31.937  31.120  25.867  1.00  0.00     0.163 HD
ATOM     32  O   UNL A   1      32.760  32.656  27.596  1.00  0.00    -0.269 OA
BRANCH  30  33
ATOM     33  C   UNL A   1      34.662  31.295  27.761  1.00  0.00     0.039 A 
ATOM     34  C   UNL A   1      35.653  32.276  27.851  1.00  0.00     0.014 A 
ATOM     35  C   UNL A   1      34.877  30.011  28.267  1.00  0.00     0.014 A 
ATOM     36  C   UNL A   1      36.845  31.988  28.517  1.00  0.00     0.010 A 
ATOM     37  C   UNL A   1      36.040  29.745  28.977  1.00  0.00     0.010 A 
ATOM     38  C   UNL A   1      37.029  30.732  29.115  1.00  0.00    -0.014 A 
BRANCH  38  39
ATOM     39  C   UNL A   1      38.253  30.404  29.885  1.00  0.00     0.031 A 
ATOM     40  C   UNL A   1      39.241  29.432  29.313  1.00  0.00     0.074 A 
ATOM     41  C   UNL A   1      38.418  30.891  31.130  1.00  0.00     0.049 A 
ATOM     42  N   UNL A   1      40.262  28.851  29.888  1.00  0.00    -0.248 NA
ATOM     43  C   UNL A   1      39.028  29.031  27.913  1.00  0.00     0.031 C 
ATOM     44  C   UNL A   1      37.513  31.824  31.802  1.00  0.00     0.029 A 
ATOM     45  N   UNL A   1      39.395  30.644  32.061  1.00  0.00    -0.354 N 
ATOM     46  C   UNL A   1      40.787  27.989  28.934  1.00  0.00     0.074 A 
ATOM     47  C   UNL A   1      39.960  28.103  27.753  1.00  0.00     0.031 C 
ATOM     48  C   UNL A   1      37.980  32.073  33.037  1.00  0.00     0.029 A 
ATOM     49  C   UNL A   1      39.189  31.286  33.258  1.00  0.00     0.049 A 
ATOM     50  H   UNL A   1      40.170  30.062  31.887  1.00  0.00     0.167 HD
ATOM     51  C   UNL A   1      41.870  27.183  29.035  1.00  0.00     0.037 A 
ATOM     52  C   UNL A   1      39.889  31.227  34.406  1.00  0.00     0.037 A 
ATOM     53  C   UNL A   1      42.715  27.107  30.197  1.00  0.00     0.049 A 
ATOM     54  C   UNL A   1      41.104  30.344  34.484  1.00  0.00     0.074 A 
ATOM     55  C   UNL A   1      43.862  26.356  30.383  1.00  0.00     0.029 A 
ATOM     56  N   UNL A   1      42.508  27.821  31.367  1.00  0.00    -0.354 N 
ATOM     57  N   UNL A   1      41.608  29.552  33.570  1.00  0.00    -0.248 NA
ATOM     58  C   UNL A   1      41.848  30.346  35.752  1.00  0.00     0.031 C 
ATOM     59  C   UNL A   1      44.338  26.599  31.676  1.00  0.00     0.029 A 
ATOM     60  C   UNL A   1      43.505  27.528  32.281  1.00  0.00     0.049 A 
ATOM     61  H   UNL A   1      41.762  28.445  31.525  1.00  0.00     0.167 HD
ATOM     62  C   UNL A   1      42.743  28.988  34.137  1.00  0.00     0.074 A 
ATOM     63  C   UNL A   1      42.855  29.528  35.476  1.00  0.00     0.031 C 
ATOM     64  C   UNL A   1      43.614  28.102  33.596  1.00  0.00     0.037 A 
BRANCH  51  65
ATOM     65  C   UNL A   1      42.196  26.315  27.859  1.00  0.00     0.064 A 
ATOM     66  C   UNL A   1      43.142  26.703  26.899  1.00  0.00     0.173 A 
ATOM     67  C   UNL A   1      41.569  25.070  27.700  1.00  0.00     0.173 A 
ATOM     68  F   UNL A   1      43.755  27.892  27.000  1.00  0.00    -0.203 F 
ATOM     69  C   UNL A   1      43.430  25.889  25.808  1.00  0.00     0.198 A 
ATOM     70  C   UNL A   1      41.879  24.246  26.622  1.00  0.00     0.198 A 
ATOM     71  F   UNL A   1      40.659  24.652  28.591  1.00  0.00    -0.203 F 
ATOM     72  F   UNL A   1      44.303  26.300  24.879  1.00  0.00    -0.200 F 
ATOM     73  C   UNL A   1      42.803  24.658  25.673  1.00  0.00     0.200 A 
ATOM     74  F   UNL A   1      41.280  23.054  26.496  1.00  0.00    -0.200 F 
ATOM     75  F   UNL A   1      43.085  23.873  24.624  1.00  0.00    -0.200 F 
ENDBRANCH  51  65
BRANCH  52  76
ATOM     76  C   UNL A   1      39.467  32.043  35.573  1.00  0.00     0.064 A 
ATOM     77  C   UNL A   1      38.550  31.537  36.505  1.00  0.00     0.173 A 
ATOM     78  C   UNL A   1      39.966  33.336  35.781  1.00  0.00     0.173 A 
ATOM     79  F   UNL A   1      38.031  30.313  36.334  1.00  0.00    -0.203 F 
ATOM     80  C   UNL A   1      38.138  32.300  37.595  1.00  0.00     0.198 A 
ATOM     81  C   UNL A   1      39.569  34.090  36.884  1.00  0.00     0.198 A 
ATOM     82  F   UNL A   1      40.847  33.863  34.919  1.00  0.00    -0.203 F 
ATOM     83  F   UNL A   1      37.232  31.806  38.451  1.00  0.00    -0.200 F 
ATOM     84  C   UNL A   1      38.650  33.574  37.786  1.00  0.00     0.200 A 
ATOM     85  F   UNL A   1      40.074  35.317  37.071  1.00  0.00    -0.200 F 
ATOM     86  F   UNL A   1      38.254  34.307  38.835  1.00  0.00    -0.200 F 
ENDBRANCH  52  76
BRANCH  64  87
ATOM     87  C   UNL A   1      44.797  27.705  34.424  1.00  0.00     0.064 A 
ATOM     88  C   UNL A   1      45.986  28.446  34.410  1.00  0.00     0.173 A 
ATOM     89  C   UNL A   1      44.710  26.607  35.294  1.00  0.00     0.173 A 
ATOM     90  F   UNL A   1      46.118  29.494  33.584  1.00  0.00    -0.203 F 
ATOM     91  C   UNL A   1      47.052  28.097  35.234  1.00  0.00     0.198 A 
ATOM     92  C   UNL A   1      45.770  26.274  36.130  1.00  0.00     0.198 A 
ATOM     93  F   UNL A   1      43.590  25.872  35.343  1.00  0.00    -0.203 F 
ATOM     94  F   UNL A   1      48.189  28.804  35.190  1.00  0.00    -0.200 F 
ATOM     95  C   UNL A   1      46.941  27.018  36.099  1.00  0.00     0.200 A 
ATOM     96  F   UNL A   1      45.658  25.237  36.972  1.00  0.00    -0.200 F 
ATOM     97  F   UNL A   1      47.964  26.692  36.901  1.00  0.00    -0.200 F 
ENDBRANCH  64  87
ENDBRANCH  38  39
ENDBRANCH  30  33
ENDBRANCH  28  29
ENDBRANCH  27  28
ENDBRANCH   1  27
TORSDOF 14
ENDMDL
MODEL 2
REMARK VINA RESULT:     -12.9      1.850      2.951
REMARK SMILES Cc1ccc(S(=O)(=O)Nc2ccc(Cl)c(C(=O)NCCCCNC(=O)c3ccc(-c4c5nc(c(-c6c(F)c(F)c(F)c(F)c6F)c6ccc([nH]6)c(-c6c(F)c(F)c(F)c(F)c6F)c6nc(c(-c7c(F)c(F)c(F)c(F)c7F)c7ccc4[nH]7)C=C6)C=C5)cc3)c2)cc1Cl
REMARK SMILES IDX 20 1 19 2 18 3 16 4 17 5 15 7 10 8 11 9 89 10 12 11 13 12
REMARK SMILES IDX 14 13 9 14 6 16 7 17 8 18 5 19 1 20 2 21 3 22 91 23 4 24
REMARK SMILES IDX 90 25 92 26 21 27 22 28 23 29 24 30 25 32 26 33 27 34 88 35
REMARK SMILES IDX 28 36 87 37 29 38 30 39 31 40 81 41 32 42 86 43 80 44 82 45
REMARK SMILES IDX 33 46 85 47 79 48 78 49 34 51 66 52 46 53 65 54 47 55 50 56
REMARK SMILES IDX 64 57 83 58 48 59 49 60 63 62 84 63 51 64 35 65 36 66 44 67
REMARK SMILES IDX 37 68 38 69 42 70 45 71 39 72 40 73 43 74 41 75 67 76 68 77
REMARK SMILES IDX 76 78 69 79 70 80 74 81 77 82 71 83 72 84 75 85 73 86 52 87
REMARK SMILES IDX 53 88 61 89 54 90 55 91 59 92 62 93 56 94 57 95 60 96 58 97
REMARK H PARENT 18 6 9 15 23 31 82 50 50 61
REMARK Flexibility Score: inf
ROOT
ATOM      1  C   UNL A   1      31.901  30.615  25.904  1.00  0.00     0.023 C 
ENDROOT
BRANCH   1   2
ATOM      2  C   UNL A   1      33.214  29.834  25.805  1.00  0.00     0.116 C 
BRANCH   2   3
ATOM      3  N   UNL A   1      33.423  29.379  24.445  1.00  0.00    -0.352 N 
ATOM      4  C   UNL A   1      33.002  28.269  23.754  1.00  0.00     0.252 C 
ATOM      5  O   UNL A   1      33.532  28.072  22.663  1.00  0.00    -0.269 OA
ATOM      6  H   UNL A   1      33.981  29.988  23.908  1.00  0.00     0.163 HD
BRANCH   4   7
ATOM      7  C   UNL A   1      31.936  27.345  24.248  1.00  0.00     0.060 A 
ATOM      8  C   UNL A   1      31.203  25.545  25.717  1.00  0.00     0.050 A 
ATOM      9  C   UNL A   1      29.899  25.680  25.253  1.00  0.00     0.028 A 
ATOM     10  C   UNL A   1      32.227  26.282  25.121  1.00  0.00     0.042 A 
ATOM     11  C   UNL A   1      29.597  26.665  24.317  1.00  0.00     0.023 A 
ATOM     12  C   UNL A   1      30.596  27.531  23.854  1.00  0.00     0.053 A 
ATOM     13  Cl  UNL A   1      30.041  28.840  22.868  1.00  0.00    -0.083 Cl
BRANCH   8  14
ATOM     14  N   UNL A   1      31.396  24.714  26.855  1.00  0.00    -0.280 N 
ATOM     15  H   UNL A   1      31.347  25.139  27.741  1.00  0.00     0.180 HD
BRANCH  14  16
ATOM     16  S   UNL A   1      31.700  23.061  26.803  1.00  0.00     0.261 S 
ATOM     17  O   UNL A   1      30.560  22.429  26.155  1.00  0.00    -0.201 OA
ATOM     18  O   UNL A   1      32.115  22.694  28.124  1.00  0.00    -0.201 OA
BRANCH  16  19
ATOM     19  C   UNL A   1      33.092  22.759  25.725  1.00  0.00     0.089 A 
ATOM     20  C   UNL A   1      36.418  23.002  22.989  1.00  0.00     0.046 C 
ATOM     21  C   UNL A   1      35.239  22.859  23.911  1.00  0.00    -0.032 A 
ATOM     22  C   UNL A   1      35.463  22.650  25.281  1.00  0.00     0.006 A 
ATOM     23  C   UNL A   1      33.915  22.906  23.449  1.00  0.00     0.045 A 
ATOM     24  C   UNL A   1      34.396  22.575  26.183  1.00  0.00     0.022 A 
ATOM     25  C   UNL A   1      32.848  22.874  24.350  1.00  0.00     0.043 A 
ATOM     26  Cl  UNL A   1      33.546  23.062  21.770  1.00  0.00    -0.084 Cl
ENDBRANCH  16  19
ENDBRANCH  14  16
ENDBRANCH   8  14
ENDBRANCH   4   7
ENDBRANCH   2   3
ENDBRANCH   1   2
BRANCH   1  27
ATOM     27  C   UNL A   1      31.802  31.489  27.157  1.00  0.00     0.023 C 
BRANCH  27  28
ATOM     28  C   UNL A   1      32.948  32.479  27.311  1.00  0.00     0.116 C 
BRANCH  28  29
ATOM     29  N   UNL A   1      32.498  33.840  27.562  1.00  0.00    -0.352 N 
ATOM     30  C   UNL A   1      33.008  34.738  28.470  1.00  0.00     0.251 C 
ATOM     31  H   UNL A   1      31.740  34.156  27.018  1.00  0.00     0.163 HD
ATOM     32  O   UNL A   1      32.481  35.828  28.656  1.00  0.00    -0.269 OA
BRANCH  30  33
ATOM     33  C   UNL A   1      34.187  34.337  29.260  1.00  0.00     0.039 A 
ATOM     34  C   UNL A   1      34.000  33.566  30.410  1.00  0.00     0.014 A 
ATOM     35  C   UNL A   1      35.471  34.658  28.814  1.00  0.00     0.014 A 
ATOM     36  C   UNL A   1      35.110  33.052  31.080  1.00  0.00     0.010 A 
ATOM     37  C   UNL A   1      36.572  34.100  29.450  1.00  0.00     0.010 A 
ATOM     38  C   UNL A   1      36.401  33.287  30.583  1.00  0.00    -0.014 A 
BRANCH  38  39
ATOM     39  C   UNL A   1      37.605  32.710  31.228  1.00  0.00     0.031 A 
ATOM     40  C   UNL A   1      38.328  31.582  30.553  1.00  0.00     0.074 A 
ATOM     41  C   UNL A   1      37.976  33.122  32.455  1.00  0.00     0.049 A 
ATOM     42  N   UNL A   1      39.268  30.801  31.021  1.00  0.00    -0.248 NA
ATOM     43  C   UNL A   1      37.912  31.269  29.177  1.00  0.00     0.031 C 
ATOM     44  C   UNL A   1      37.336  34.191  33.220  1.00  0.00     0.029 A 
ATOM     45  N   UNL A   1      38.970  32.666  33.284  1.00  0.00    -0.354 N 
ATOM     46  C   UNL A   1      39.525  29.882  30.014  1.00  0.00     0.074 A 
ATOM     47  C   UNL A   1      38.628  30.184  28.920  1.00  0.00     0.031 C 
ATOM     48  C   UNL A   1      37.955  34.313  34.406  1.00  0.00     0.029 A 
ATOM     49  C   UNL A   1      39.005  33.303  34.501  1.00  0.00     0.049 A 
ATOM     50  H   UNL A   1      39.598  31.952  33.031  1.00  0.00     0.167 HD
ATOM     51  C   UNL A   1      40.436  28.881  30.002  1.00  0.00     0.037 A 
ATOM     52  C   UNL A   1      39.784  33.080  35.576  1.00  0.00     0.037 A 
ATOM     53  C   UNL A   1      41.356  28.613  31.075  1.00  0.00     0.049 A 
ATOM     54  C   UNL A   1      40.809  31.979  35.527  1.00  0.00     0.074 A 
ATOM     55  C   UNL A   1      42.349  27.651  31.142  1.00  0.00     0.029 A 
ATOM     56  N   UNL A   1      41.401  29.321  32.266  1.00  0.00    -0.354 N 
ATOM     57  N   UNL A   1      41.062  31.130  34.562  1.00  0.00    -0.248 NA
ATOM     58  C   UNL A   1      41.654  31.804  36.717  1.00  0.00     0.031 C 
ATOM     59  C   UNL A   1      42.981  27.764  32.384  1.00  0.00     0.029 A 
ATOM     60  C   UNL A   1      42.404  28.818  33.076  1.00  0.00     0.049 A 
ATOM     61  H   UNL A   1      40.807  30.071  32.501  1.00  0.00     0.167 HD
ATOM     62  C   UNL A   1      42.115  30.345  35.011  1.00  0.00     0.074 A 
ATOM     63  C   UNL A   1      42.454  30.817  36.337  1.00  0.00     0.031 C 
ATOM     64  C   UNL A   1      42.744  29.324  34.380  1.00  0.00     0.037 A 
BRANCH  51  65
ATOM     65  C   UNL A   1      40.477  28.000  28.791  1.00  0.00     0.064 A 
ATOM     66  C   UNL A   1      41.238  28.337  27.662  1.00  0.00     0.173 A 
ATOM     67  C   UNL A   1      39.763  26.792  28.768  1.00  0.00     0.173 A 
ATOM     68  F   UNL A   1      41.923  29.489  27.631  1.00  0.00    -0.203 F 
ATOM     69  C   UNL A   1      41.261  27.510  26.543  1.00  0.00     0.198 A 
ATOM     70  C   UNL A   1      39.810  25.954  27.657  1.00  0.00     0.198 A 
ATOM     71  F   UNL A   1      39.023  26.423  29.824  1.00  0.00    -0.203 F 
ATOM     72  F   UNL A   1      41.957  27.874  25.458  1.00  0.00    -0.200 F 
ATOM     73  C   UNL A   1      40.553  26.317  26.543  1.00  0.00     0.200 A 
ATOM     74  F   UNL A   1      39.132  24.798  27.661  1.00  0.00    -0.200 F 
ATOM     75  F   UNL A   1      40.579  25.521  25.466  1.00  0.00    -0.200 F 
ENDBRANCH  51  65
BRANCH  52  76
ATOM     76  C   UNL A   1      39.639  33.930  36.785  1.00  0.00     0.064 A 
ATOM     77  C   UNL A   1      40.302  35.161  36.877  1.00  0.00     0.173 A 
ATOM     78  C   UNL A   1      38.839  33.534  37.866  1.00  0.00     0.173 A 
ATOM     79  F   UNL A   1      41.094  35.569  35.875  1.00  0.00    -0.203 F 
ATOM     80  C   UNL A   1      40.183  35.959  38.012  1.00  0.00     0.198 A 
ATOM     81  C   UNL A   1      38.703  34.344  38.992  1.00  0.00     0.198 A 
ATOM     82  F   UNL A   1      38.182  32.366  37.824  1.00  0.00    -0.203 F 
ATOM     83  F   UNL A   1      40.858  37.114  38.090  1.00  0.00    -0.200 F 
ATOM     84  C   UNL A   1      39.380  35.552  39.067  1.00  0.00     0.200 A 
ATOM     85  F   UNL A   1      37.919  33.953  40.005  1.00  0.00    -0.200 F 
ATOM     86  F   UNL A   1      39.265  36.322  40.158  1.00  0.00    -0.200 F 
ENDBRANCH  52  76
BRANCH  64  87
ATOM     87  C   UNL A   1      43.900  28.685  35.085  1.00  0.00     0.064 A 
ATOM     88  C   UNL A   1      43.737  27.543  35.880  1.00  0.00     0.173 A 
ATOM     89  C   UNL A   1      45.199  29.185  34.903  1.00  0.00     0.173 A 
ATOM     90  F   UNL A   1      42.512  27.039  36.092  1.00  0.00    -0.203 F 
ATOM     91  C   UNL A   1      44.833  26.927  36.475  1.00  0.00     0.198 A 
ATOM     92  C   UNL A   1      46.294  28.555  35.484  1.00  0.00     0.198 A 
ATOM     93  F   UNL A   1      45.404  30.274  34.147  1.00  0.00    -0.203 F 
ATOM     94  F   UNL A   1      44.653  25.849  37.251  1.00  0.00    -0.200 F 
ATOM     95  C   UNL A   1      46.110  27.427  36.271  1.00  0.00     0.200 A 
ATOM     96  F   UNL A   1      47.529  29.034  35.277  1.00  0.00    -0.200 F 
ATOM     97  F   UNL A   1      47.166  26.824  36.835  1.00  0.00    -0.200 F 
ENDBRANCH  64  87
ENDBRANCH  38  39
ENDBRANCH  30  33
ENDBRANCH  28  29
ENDBRANCH  27  28
ENDBRANCH   1  27
TORSDOF 14
ENDMDL
MODEL 3
REMARK VINA RESULT:     -12.9      2.031      2.865
REMARK SMILES Cc1ccc(S(=O)(=O)Nc2ccc(Cl)c(C(=O)NCCCCNC(=O)c3ccc(-c4c5nc(c(-c6c(F)c(F)c(F)c(F)c6F)c6ccc([nH]6)c(-c6c(F)c(F)c(F)c(F)c6F)c6nc(c(-c7c(F)c(F)c(F)c(F)c7F)c7ccc4[nH]7)C=C6)C=C5)cc3)c2)cc1Cl
REMARK SMILES IDX 20 1 19 2 18 3 16 4 17 5 15 7 10 8 11 9 89 10 12 11 13 12
REMARK SMILES IDX 14 13 9 14 6 16 7 17 8 18 5 19 1 20 2 21 3 22 91 23 4 24
REMARK SMILES IDX 90 25 92 26 21 27 22 28 23 29 24 30 25 32 26 33 27 34 88 35
REMARK SMILES IDX 28 36 87 37 29 38 30 39 31 40 81 41 32 42 86 43 80 44 82 45
REMARK SMILES IDX 33 46 85 47 79 48 78 49 34 51 66 52 46 53 65 54 47 55 50 56
REMARK SMILES IDX 64 57 83 58 48 59 49 60 63 62 84 63 51 64 35 65 36 66 44 67
REMARK SMILES IDX 37 68 38 69 42 70 45 71 39 72 40 73 43 74 41 75 67 76 68 77
REMARK SMILES IDX 76 78 69 79 70 80 74 81 77 82 71 83 72 84 75 85 73 86 52 87
REMARK SMILES IDX 53 88 61 89 54 90 55 91 59 92 62 93 56 94 57 95 60 96 58 97
REMARK H PARENT 18 6 9 15 23 31 82 50 50 61
REMARK Flexibility Score: inf
ROOT
ATOM      1  C   UNL A   1      32.427  30.285  26.847  1.00  0.00     0.023 C 
ENDROOT
BRANCH   1   2
ATOM      2  C   UNL A   1      31.896  29.734  25.521  1.00  0.00     0.116 C 
BRANCH   2   3
ATOM      3  N   UNL A   1      32.934  29.782  24.509  1.00  0.00    -0.352 N 
ATOM      4  C   UNL A   1      33.413  28.855  23.615  1.00  0.00     0.252 C 
ATOM      5  O   UNL A   1      34.452  29.150  23.029  1.00  0.00    -0.269 OA
ATOM      6  H   UNL A   1      33.386  30.655  24.452  1.00  0.00     0.163 HD
BRANCH   4   7
ATOM      7  C   UNL A   1      32.722  27.564  23.316  1.00  0.00     0.060 A 
ATOM      8  C   UNL A   1      32.548  25.146  23.559  1.00  0.00     0.050 A 
ATOM      9  C   UNL A   1      31.357  25.147  22.839  1.00  0.00     0.028 A 
ATOM     10  C   UNL A   1      33.282  26.326  23.677  1.00  0.00     0.042 A 
ATOM     11  C   UNL A   1      30.824  26.350  22.388  1.00  0.00     0.023 A 
ATOM     12  C   UNL A   1      31.471  27.561  22.668  1.00  0.00     0.053 A 
ATOM     13  Cl  UNL A   1      30.589  28.987  22.242  1.00  0.00    -0.083 Cl
BRANCH   8  14
ATOM     14  N   UNL A   1      32.898  23.936  24.217  1.00  0.00    -0.280 N 
ATOM     15  H   UNL A   1      32.539  23.791  25.122  1.00  0.00     0.180 HD
BRANCH  14  16
ATOM     16  S   UNL A   1      33.877  22.732  23.569  1.00  0.00     0.261 S 
ATOM     17  O   UNL A   1      34.353  23.206  22.278  1.00  0.00    -0.201 OA
ATOM     18  O   UNL A   1      33.140  21.511  23.699  1.00  0.00    -0.201 OA
BRANCH  16  19
ATOM     19  C   UNL A   1      35.337  22.561  24.584  1.00  0.00     0.089 A 
ATOM     20  C   UNL A   1      39.331  22.183  26.171  1.00  0.00     0.046 C 
ATOM     21  C   UNL A   1      37.917  22.268  25.664  1.00  0.00    -0.032 A 
ATOM     22  C   UNL A   1      37.217  23.479  25.789  1.00  0.00     0.006 A 
ATOM     23  C   UNL A   1      37.260  21.172  25.086  1.00  0.00     0.045 A 
ATOM     24  C   UNL A   1      35.924  23.621  25.274  1.00  0.00     0.022 A 
ATOM     25  C   UNL A   1      35.986  21.320  24.534  1.00  0.00     0.043 A 
ATOM     26  Cl  UNL A   1      38.008  19.619  24.981  1.00  0.00    -0.084 Cl
ENDBRANCH  16  19
ENDBRANCH  14  16
ENDBRANCH   8  14
ENDBRANCH   4   7
ENDBRANCH   2   3
ENDBRANCH   1   2
BRANCH   1  27
ATOM     27  C   UNL A   1      31.937  31.701  27.160  1.00  0.00     0.023 C 
BRANCH  27  28
ATOM     28  C   UNL A   1      33.058  32.711  27.363  1.00  0.00     0.116 C 
BRANCH  28  29
ATOM     29  N   UNL A   1      32.573  34.050  27.668  1.00  0.00    -0.352 N 
ATOM     30  C   UNL A   1      33.053  34.919  28.619  1.00  0.00     0.251 C 
ATOM     31  H   UNL A   1      31.814  34.371  27.130  1.00  0.00     0.163 HD
ATOM     32  O   UNL A   1      32.499  35.987  28.846  1.00  0.00    -0.269 OA
BRANCH  30  33
ATOM     33  C   UNL A   1      34.234  34.511  29.404  1.00  0.00     0.039 A 
ATOM     34  C   UNL A   1      34.041  33.887  30.639  1.00  0.00     0.014 A 
ATOM     35  C   UNL A   1      35.517  34.677  28.877  1.00  0.00     0.014 A 
ATOM     36  C   UNL A   1      35.140  33.360  31.320  1.00  0.00     0.010 A 
ATOM     37  C   UNL A   1      36.600  34.104  29.529  1.00  0.00     0.010 A 
ATOM     38  C   UNL A   1      36.420  33.435  30.752  1.00  0.00    -0.014 A 
BRANCH  38  39
ATOM     39  C   UNL A   1      37.604  32.835  31.411  1.00  0.00     0.031 A 
ATOM     40  C   UNL A   1      38.291  31.669  30.764  1.00  0.00     0.074 A 
ATOM     41  C   UNL A   1      37.990  33.265  32.627  1.00  0.00     0.049 A 
ATOM     42  N   UNL A   1      39.206  30.870  31.251  1.00  0.00    -0.248 NA
ATOM     43  C   UNL A   1      37.865  31.336  29.396  1.00  0.00     0.031 C 
ATOM     44  C   UNL A   1      37.384  34.373  33.366  1.00  0.00     0.029 A 
ATOM     45  N   UNL A   1      38.969  32.798  33.468  1.00  0.00    -0.354 N 
ATOM     46  C   UNL A   1      39.433  29.918  30.267  1.00  0.00     0.074 A 
ATOM     47  C   UNL A   1      38.546  30.223  29.165  1.00  0.00     0.031 C 
ATOM     48  C   UNL A   1      38.007  34.503  34.549  1.00  0.00     0.029 A 
ATOM     49  C   UNL A   1      39.024  33.462  34.669  1.00  0.00     0.049 A 
ATOM     50  H   UNL A   1      39.573  32.058  33.233  1.00  0.00     0.167 HD
ATOM     51  C   UNL A   1      40.311  28.888  30.280  1.00  0.00     0.037 A 
ATOM     52  C   UNL A   1      39.796  33.241  35.750  1.00  0.00     0.037 A 
ATOM     53  C   UNL A   1      41.223  28.618  31.359  1.00  0.00     0.049 A 
ATOM     54  C   UNL A   1      40.785  32.107  35.728  1.00  0.00     0.074 A 
ATOM     55  C   UNL A   1      42.184  27.626  31.450  1.00  0.00     0.029 A 
ATOM     56  N   UNL A   1      41.291  29.353  32.533  1.00  0.00    -0.354 N 
ATOM     57  N   UNL A   1      41.011  31.227  34.784  1.00  0.00    -0.248 NA
ATOM     58  C   UNL A   1      41.624  31.933  36.922  1.00  0.00     0.031 C 
ATOM     59  C   UNL A   1      42.820  27.749  32.690  1.00  0.00     0.029 A 
ATOM     60  C   UNL A   1      42.277  28.837  33.356  1.00  0.00     0.049 A 
ATOM     61  H   UNL A   1      40.721  30.127  32.749  1.00  0.00     0.167 HD
ATOM     62  C   UNL A   1      42.038  30.419  35.252  1.00  0.00     0.074 A 
ATOM     63  C   UNL A   1      42.392  30.912  36.566  1.00  0.00     0.031 C 
ATOM     64  C   UNL A   1      42.634  29.364  34.647  1.00  0.00     0.037 A 
BRANCH  51  65
ATOM     65  C   UNL A   1      40.324  27.977  29.091  1.00  0.00     0.064 A 
ATOM     66  C   UNL A   1      41.076  28.274  27.945  1.00  0.00     0.173 A 
ATOM     67  C   UNL A   1      39.590  26.781  29.106  1.00  0.00     0.173 A 
ATOM     68  F   UNL A   1      41.780  29.414  27.878  1.00  0.00    -0.203 F 
ATOM     69  C   UNL A   1      41.073  27.420  26.846  1.00  0.00     0.198 A 
ATOM     70  C   UNL A   1      39.610  25.916  28.016  1.00  0.00     0.198 A 
ATOM     71  F   UNL A   1      38.857  26.451  30.179  1.00  0.00    -0.203 F 
ATOM     72  F   UNL A   1      41.762  27.746  25.745  1.00  0.00    -0.200 F 
ATOM     73  C   UNL A   1      40.345  26.239  26.885  1.00  0.00     0.200 A 
ATOM     74  F   UNL A   1      38.914  24.772  28.056  1.00  0.00    -0.200 F 
ATOM     75  F   UNL A   1      40.346  25.416  25.827  1.00  0.00    -0.200 F 
ENDBRANCH  51  65
BRANCH  52  76
ATOM     76  C   UNL A   1      39.678  34.124  36.937  1.00  0.00     0.064 A 
ATOM     77  C   UNL A   1      38.880  33.751  38.028  1.00  0.00     0.173 A 
ATOM     78  C   UNL A   1      40.356  35.348  37.010  1.00  0.00     0.173 A 
ATOM     79  F   UNL A   1      38.197  32.598  37.993  1.00  0.00    -0.203 F 
ATOM     80  C   UNL A   1      38.752  34.579  39.141  1.00  0.00     0.198 A 
ATOM     81  C   UNL A   1      40.245  36.165  38.134  1.00  0.00     0.198 A 
ATOM     82  F   UNL A   1      41.135  35.747  35.994  1.00  0.00    -0.203 F 
ATOM     83  F   UNL A   1      37.952  34.217  40.154  1.00  0.00    -0.200 F 
ATOM     84  C   UNL A   1      39.437  35.783  39.195  1.00  0.00     0.200 A 
ATOM     85  F   UNL A   1      40.916  37.323  38.187  1.00  0.00    -0.200 F 
ATOM     86  F   UNL A   1      39.315  36.578  40.267  1.00  0.00    -0.200 F 
ENDBRANCH  52  76
BRANCH  64  87
ATOM     87  C   UNL A   1      43.769  28.706  35.368  1.00  0.00     0.064 A 
ATOM     88  C   UNL A   1      45.096  29.111  35.174  1.00  0.00     0.173 A 
ATOM     89  C   UNL A   1      43.514  27.704  36.317  1.00  0.00     0.173 A 
ATOM     90  F   UNL A   1      45.388  30.055  34.268  1.00  0.00    -0.203 F 
ATOM     91  C   UNL A   1      46.131  28.530  35.901  1.00  0.00     0.198 A 
ATOM     92  C   UNL A   1      44.548  27.140  37.055  1.00  0.00     0.198 A 
ATOM     93  F   UNL A   1      42.258  27.288  36.538  1.00  0.00    -0.203 F 
ATOM     94  F   UNL A   1      47.396  28.914  35.685  1.00  0.00    -0.200 F 
ATOM     95  C   UNL A   1      45.856  27.552  36.846  1.00  0.00     0.200 A 
ATOM     96  F   UNL A   1      44.280  26.202  37.975  1.00  0.00    -0.200 F 
ATOM     97  F   UNL A   1      46.853  27.003  37.554  1.00  0.00    -0.200 F 
ENDBRANCH  64  87
ENDBRANCH  38  39
ENDBRANCH  30  33
ENDBRANCH  28  29
ENDBRANCH  27  28
ENDBRANCH   1  27
TORSDOF 14
ENDMDL
