MODEL 1
REMARK VINA RESULT:     -13.2      0.000      0.000
REMARK SMILES O=C(NCCCCNC(=O)c1ccc(F)cc1NC(=O)[C@H]1CCS(=O)(=O)C1)c1ccc(-c2c3nc(c(-c4c(F)c(F)c(F)c(F)c4F)c4ccc([nH]4)c(-c4c(F)c(F)c(F)c(F)c4F)c4nc(c(-c5c(F)c(F)c(F)c(F)c5F)c5ccc2[nH]5)C=C4)C=C3)cc1
REMARK SMILES IDX 5 1 4 2 3 3 1 4 2 5 28 7 29 8 90 9 30 10 89 11 31 12 32 13
REMARK SMILES IDX 33 14 83 15 34 16 88 17 82 18 84 19 35 20 87 21 81 22 80 23
REMARK SMILES IDX 36 25 68 26 48 27 67 28 49 29 52 30 66 31 85 32 50 33 51 34
REMARK SMILES IDX 65 36 86 37 53 38 37 39 38 40 46 41 39 42 40 43 44 44 47 45
REMARK SMILES IDX 41 46 42 47 45 48 43 49 69 50 70 51 78 52 71 53 72 54 76 55
REMARK SMILES IDX 79 56 73 57 74 58 77 59 75 60 54 61 55 62 63 63 56 64 57 65
REMARK SMILES IDX 61 66 64 67 58 68 59 69 62 70 60 71 6 72 7 73 8 74 9 75
REMARK SMILES IDX 10 77 11 78 12 79 17 80 13 81 16 82 14 83 15 84 18 85 19 86
REMARK SMILES IDX 20 88 21 89 22 90 27 91 23 92 24 93 25 94 26 95
REMARK H PARENT 3 6 84 24 52 35 8 76 18 87
REMARK Flexibility Score: inf
ROOT
ATOM      1  C   UNL A   1      31.710  31.860  27.006  1.00  0.00     0.023 C 
ENDROOT
BRANCH   1   2
ATOM      2  C   UNL A   1      32.887  32.769  27.331  1.00  0.00     0.116 C 
BRANCH   2   3
ATOM      3  N   UNL A   1      32.491  34.132  27.661  1.00  0.00    -0.352 N 
ATOM      4  O   UNL A   1      32.454  36.058  28.847  1.00  0.00    -0.269 OA
ATOM      5  C   UNL A   1      32.995  34.981  28.620  1.00  0.00     0.251 C 
ATOM      6  H   UNL A   1      31.755  34.500  27.118  1.00  0.00     0.163 HD
BRANCH   5   7
ATOM      7  C   UNL A   1      34.172  34.561  29.406  1.00  0.00     0.039 A 
ATOM      8  C   UNL A   1      35.449  34.659  28.856  1.00  0.00     0.014 A 
ATOM      9  C   UNL A   1      33.991  33.994  30.671  1.00  0.00     0.014 A 
ATOM     10  C   UNL A   1      36.502  33.988  29.458  1.00  0.00     0.010 A 
ATOM     11  C   UNL A   1      35.085  33.433  31.338  1.00  0.00     0.010 A 
ATOM     12  C   UNL A   1      36.339  33.372  30.711  1.00  0.00    -0.014 A 
BRANCH  12  13
ATOM     13  C   UNL A   1      37.508  32.705  31.342  1.00  0.00     0.031 A 
ATOM     14  C   UNL A   1      37.969  33.070  32.727  1.00  0.00     0.074 A 
ATOM     15  C   UNL A   1      38.119  31.710  30.669  1.00  0.00     0.049 A 
ATOM     16  N   UNL A   1      38.945  32.552  33.432  1.00  0.00    -0.248 NA
ATOM     17  C   UNL A   1      37.254  34.159  33.410  1.00  0.00     0.031 C 
ATOM     18  C   UNL A   1      37.762  31.269  29.319  1.00  0.00     0.029 A 
ATOM     19  N   UNL A   1      39.141  30.871  31.032  1.00  0.00    -0.354 N 
ATOM     20  C   UNL A   1      38.970  33.258  34.628  1.00  0.00     0.074 A 
ATOM     21  C   UNL A   1      37.938  34.268  34.541  1.00  0.00     0.031 C 
ATOM     22  C   UNL A   1      38.502  30.202  28.994  1.00  0.00     0.029 A 
ATOM     23  C   UNL A   1      39.443  29.933  30.075  1.00  0.00     0.049 A 
ATOM     24  H   UNL A   1      39.612  30.935  31.893  1.00  0.00     0.167 HD
ATOM     25  C   UNL A   1      39.773  33.070  35.703  1.00  0.00     0.037 A 
ATOM     26  C   UNL A   1      40.383  28.971  30.055  1.00  0.00     0.037 A 
ATOM     27  C   UNL A   1      40.791  32.053  35.786  1.00  0.00     0.049 A 
ATOM     28  C   UNL A   1      41.282  28.807  31.243  1.00  0.00     0.074 A 
ATOM     29  C   UNL A   1      41.644  31.771  36.839  1.00  0.00     0.029 A 
ATOM     30  N   UNL A   1      41.098  31.151  34.775  1.00  0.00    -0.354 N 
ATOM     31  N   UNL A   1      41.286  29.474  32.373  1.00  0.00    -0.248 NA
ATOM     32  C   UNL A   1      42.308  27.761  31.158  1.00  0.00     0.031 C 
ATOM     33  C   UNL A   1      42.505  30.743  36.446  1.00  0.00     0.029 A 
ATOM     34  C   UNL A   1      42.142  30.330  35.174  1.00  0.00     0.049 A 
ATOM     35  H   UNL A   1      40.642  31.103  33.904  1.00  0.00     0.167 HD
ATOM     36  C   UNL A   1      42.297  28.915  33.141  1.00  0.00     0.074 A 
ATOM     37  C   UNL A   1      42.873  27.843  32.355  1.00  0.00     0.031 C 
ATOM     38  C   UNL A   1      42.706  29.262  34.386  1.00  0.00     0.037 A 
BRANCH  25  39
ATOM     39  C   UNL A   1      39.598  33.985  36.885  1.00  0.00     0.064 A 
ATOM     40  C   UNL A   1      40.277  35.213  36.941  1.00  0.00     0.173 A 
ATOM     41  C   UNL A   1      38.821  33.618  37.994  1.00  0.00     0.173 A 
ATOM     42  F   UNL A   1      41.041  35.611  35.914  1.00  0.00    -0.203 F 
ATOM     43  C   UNL A   1      40.194  36.030  38.066  1.00  0.00     0.198 A 
ATOM     44  C   UNL A   1      38.714  34.453  39.104  1.00  0.00     0.198 A 
ATOM     45  F   UNL A   1      38.143  32.461  37.991  1.00  0.00    -0.203 F 
ATOM     46  F   UNL A   1      40.882  37.179  38.110  1.00  0.00    -0.200 F 
ATOM     47  C   UNL A   1      39.409  35.652  39.144  1.00  0.00     0.200 A 
ATOM     48  F   UNL A   1      37.932  34.099  40.134  1.00  0.00    -0.200 F 
ATOM     49  F   UNL A   1      39.319  36.446  40.220  1.00  0.00    -0.200 F 
ENDBRANCH  25  39
BRANCH  26  50
ATOM     50  C   UNL A   1      40.495  28.093  28.863  1.00  0.00     0.064 A 
ATOM     51  C   UNL A   1      41.261  28.473  27.749  1.00  0.00     0.173 A 
ATOM     52  C   UNL A   1      39.787  26.886  28.786  1.00  0.00     0.173 A 
ATOM     53  F   UNL A   1      41.949  29.624  27.769  1.00  0.00    -0.203 F 
ATOM     54  C   UNL A   1      41.289  27.696  26.594  1.00  0.00     0.198 A 
ATOM     55  C   UNL A   1      39.842  26.093  27.641  1.00  0.00     0.198 A 
ATOM     56  F   UNL A   1      39.052  26.473  29.829  1.00  0.00    -0.203 F 
ATOM     57  F   UNL A   1      41.984  28.110  25.527  1.00  0.00    -0.200 F 
ATOM     58  C   UNL A   1      40.582  26.504  26.543  1.00  0.00     0.200 A 
ATOM     59  F   UNL A   1      39.175  24.931  27.603  1.00  0.00    -0.200 F 
ATOM     60  F   UNL A   1      40.614  25.753  25.434  1.00  0.00    -0.200 F 
ENDBRANCH  26  50
BRANCH  38  61
ATOM     61  C   UNL A   1      43.813  28.454  35.002  1.00  0.00     0.064 A 
ATOM     62  C   UNL A   1      43.516  27.320  35.774  1.00  0.00     0.173 A 
ATOM     63  C   UNL A   1      45.159  28.834  34.887  1.00  0.00     0.173 A 
ATOM     64  F   UNL A   1      42.244  26.917  35.923  1.00  0.00    -0.203 F 
ATOM     65  C   UNL A   1      44.521  26.607  36.418  1.00  0.00     0.198 A 
ATOM     66  C   UNL A   1      46.165  28.096  35.505  1.00  0.00     0.198 A 
ATOM     67  F   UNL A   1      45.498  29.902  34.150  1.00  0.00    -0.203 F 
ATOM     68  F   UNL A   1      44.207  25.549  37.181  1.00  0.00    -0.200 F 
ATOM     69  C   UNL A   1      45.845  26.991  36.279  1.00  0.00     0.200 A 
ATOM     70  F   UNL A   1      47.447  28.452  35.344  1.00  0.00    -0.200 F 
ATOM     71  F   UNL A   1      46.814  26.294  36.887  1.00  0.00    -0.200 F 
ENDBRANCH  38  61
ENDBRANCH  12  13
ENDBRANCH   5   7
ENDBRANCH   2   3
ENDBRANCH   1   2
BRANCH   1  72
ATOM     72  C   UNL A   1      32.063  30.619  26.197  1.00  0.00     0.023 C 
BRANCH  72  73
ATOM     73  C   UNL A   1      32.059  29.319  26.987  1.00  0.00     0.116 C 
BRANCH  73  74
ATOM     74  N   UNL A   1      32.997  28.335  26.470  1.00  0.00    -0.352 N 
ATOM     75  C   UNL A   1      32.748  27.325  25.573  1.00  0.00     0.253 C 
ATOM     76  H   UNL A   1      33.922  28.402  26.802  1.00  0.00     0.163 HD
ATOM     77  O   UNL A   1      33.580  26.446  25.374  1.00  0.00    -0.269 OA
BRANCH  75  78
ATOM     78  C   UNL A   1      31.442  27.267  24.874  1.00  0.00     0.063 A 
ATOM     79  C   UNL A   1      31.179  28.236  23.890  1.00  0.00     0.019 A 
ATOM     80  C   UNL A   1      30.474  26.292  25.230  1.00  0.00     0.056 A 
ATOM     81  C   UNL A   1      29.916  28.315  23.323  1.00  0.00     0.040 A 
ATOM     82  C   UNL A   1      29.276  26.296  24.523  1.00  0.00     0.066 A 
ATOM     83  C   UNL A   1      28.982  27.340  23.639  1.00  0.00     0.125 A 
ATOM     84  F   UNL A   1      27.762  27.410  23.092  1.00  0.00    -0.207 F 
BRANCH  80  85
ATOM     85  N   UNL A   1      30.785  25.385  26.263  1.00  0.00    -0.325 N 
ATOM     86  C   UNL A   1      31.119  24.085  26.415  1.00  0.00     0.228 C 
ATOM     87  H   UNL A   1      30.748  25.835  27.138  1.00  0.00     0.169 HD
ATOM     88  O   UNL A   1      31.402  23.754  27.579  1.00  0.00    -0.274 OA
BRANCH  86  89
ATOM     89  C   UNL A   1      31.214  22.982  25.369  1.00  0.00     0.095 C 
ATOM     90  C   UNL A   1      31.447  23.271  23.890  1.00  0.00     0.030 C 
ATOM     91  C   UNL A   1      32.164  21.916  25.894  1.00  0.00     0.150 C 
ATOM     92  C   UNL A   1      32.161  22.097  23.228  1.00  0.00     0.138 C 
ATOM     93  S   UNL A   1      32.754  21.010  24.499  1.00  0.00     0.151 S 
ATOM     94  O   UNL A   1      32.026  19.764  24.408  1.00  0.00    -0.229 OA
ATOM     95  O   UNL A   1      34.203  21.063  24.513  1.00  0.00    -0.229 OA
ENDBRANCH  86  89
ENDBRANCH  80  85
ENDBRANCH  75  78
ENDBRANCH  73  74
ENDBRANCH  72  73
ENDBRANCH   1  72
TORSDOF 13
ENDMDL
MODEL 2
REMARK VINA RESULT:     -13.2      0.240      1.601
REMARK SMILES O=C(NCCCCNC(=O)c1ccc(F)cc1NC(=O)[C@H]1CCS(=O)(=O)C1)c1ccc(-c2c3nc(c(-c4c(F)c(F)c(F)c(F)c4F)c4ccc([nH]4)c(-c4c(F)c(F)c(F)c(F)c4F)c4nc(c(-c5c(F)c(F)c(F)c(F)c5F)c5ccc2[nH]5)C=C4)C=C3)cc1
REMARK SMILES IDX 5 1 4 2 3 3 1 4 2 5 28 7 29 8 90 9 30 10 89 11 31 12 32 13
REMARK SMILES IDX 33 14 83 15 34 16 88 17 82 18 84 19 35 20 87 21 81 22 80 23
REMARK SMILES IDX 36 25 68 26 48 27 67 28 49 29 52 30 66 31 85 32 50 33 51 34
REMARK SMILES IDX 65 36 86 37 53 38 37 39 38 40 46 41 39 42 40 43 44 44 47 45
REMARK SMILES IDX 41 46 42 47 45 48 43 49 69 50 70 51 78 52 71 53 72 54 76 55
REMARK SMILES IDX 79 56 73 57 74 58 77 59 75 60 54 61 55 62 63 63 56 64 57 65
REMARK SMILES IDX 61 66 64 67 58 68 59 69 62 70 60 71 6 72 7 73 8 74 9 75
REMARK SMILES IDX 10 77 11 78 12 79 17 80 13 81 16 82 14 83 15 84 18 85 19 86
REMARK SMILES IDX 20 88 21 89 22 90 27 91 23 92 24 93 25 94 26 95
REMARK H PARENT 3 6 84 24 52 35 8 76 18 87
REMARK Flexibility Score: inf
ROOT
ATOM      1  C   UNL A   1      31.713  31.745  26.873  1.00  0.00     0.023 C 
ENDROOT
BRANCH   1   2
ATOM      2  C   UNL A   1      32.880  32.594  27.356  1.00  0.00     0.116 C 
BRANCH   2   3
ATOM      3  N   UNL A   1      32.507  33.971  27.659  1.00  0.00    -0.352 N 
ATOM      4  O   UNL A   1      32.509  35.922  28.802  1.00  0.00    -0.269 OA
ATOM      5  C   UNL A   1      33.032  34.833  28.595  1.00  0.00     0.251 C 
ATOM      6  H   UNL A   1      31.773  34.338  27.114  1.00  0.00     0.163 HD
BRANCH   5   7
ATOM      7  C   UNL A   1      34.209  34.412  29.381  1.00  0.00     0.039 A 
ATOM      8  C   UNL A   1      35.492  34.606  28.873  1.00  0.00     0.014 A 
ATOM      9  C   UNL A   1      34.026  33.751  30.598  1.00  0.00     0.014 A 
ATOM     10  C   UNL A   1      36.562  33.942  29.454  1.00  0.00     0.010 A 
ATOM     11  C   UNL A   1      35.129  33.194  31.254  1.00  0.00     0.010 A 
ATOM     12  C   UNL A   1      36.399  33.234  30.657  1.00  0.00    -0.014 A 
BRANCH  12  13
ATOM     13  C   UNL A   1      37.583  32.578  31.271  1.00  0.00     0.031 A 
ATOM     14  C   UNL A   1      38.048  32.932  32.657  1.00  0.00     0.074 A 
ATOM     15  C   UNL A   1      38.206  31.603  30.580  1.00  0.00     0.049 A 
ATOM     16  N   UNL A   1      39.037  32.421  33.349  1.00  0.00    -0.248 NA
ATOM     17  C   UNL A   1      37.319  33.999  33.360  1.00  0.00     0.031 C 
ATOM     18  C   UNL A   1      37.847  31.174  29.227  1.00  0.00     0.029 A 
ATOM     19  N   UNL A   1      39.244  30.776  30.925  1.00  0.00    -0.354 N 
ATOM     20  C   UNL A   1      39.059  33.111  34.555  1.00  0.00     0.074 A 
ATOM     21  C   UNL A   1      38.009  34.105  34.488  1.00  0.00     0.031 C 
ATOM     22  C   UNL A   1      38.601  30.124  28.882  1.00  0.00     0.029 A 
ATOM     23  C   UNL A   1      39.554  29.856  29.953  1.00  0.00     0.049 A 
ATOM     24  H   UNL A   1      39.720  30.835  31.784  1.00  0.00     0.167 HD
ATOM     25  C   UNL A   1      39.872  32.921  35.621  1.00  0.00     0.037 A 
ATOM     26  C   UNL A   1      40.510  28.910  29.914  1.00  0.00     0.037 A 
ATOM     27  C   UNL A   1      40.908  31.920  35.683  1.00  0.00     0.049 A 
ATOM     28  C   UNL A   1      41.420  28.745  31.094  1.00  0.00     0.074 A 
ATOM     29  C   UNL A   1      41.772  31.639  36.727  1.00  0.00     0.029 A 
ATOM     30  N   UNL A   1      41.222  31.038  34.658  1.00  0.00    -0.354 N 
ATOM     31  N   UNL A   1      41.421  29.397  32.232  1.00  0.00    -0.248 NA
ATOM     32  C   UNL A   1      42.462  27.717  30.988  1.00  0.00     0.031 C 
ATOM     33  C   UNL A   1      42.647  30.631  36.314  1.00  0.00     0.029 A 
ATOM     34  C   UNL A   1      42.282  30.229  35.039  1.00  0.00     0.049 A 
ATOM     35  H   UNL A   1      40.761  30.994  33.790  1.00  0.00     0.167 HD
ATOM     36  C   UNL A   1      42.446  28.844  32.986  1.00  0.00     0.074 A 
ATOM     37  C   UNL A   1      43.034  27.793  32.181  1.00  0.00     0.031 C 
ATOM     38  C   UNL A   1      42.858  29.181  34.232  1.00  0.00     0.037 A 
BRANCH  25  39
ATOM     39  C   UNL A   1      39.691  33.817  36.816  1.00  0.00     0.064 A 
ATOM     40  C   UNL A   1      38.863  33.425  37.881  1.00  0.00     0.173 A 
ATOM     41  C   UNL A   1      40.273  35.092  36.879  1.00  0.00     0.173 A 
ATOM     42  F   UNL A   1      38.273  32.221  37.872  1.00  0.00    -0.203 F 
ATOM     43  C   UNL A   1      38.616  34.280  38.953  1.00  0.00     0.198 A 
ATOM     44  C   UNL A   1      40.050  35.932  37.968  1.00  0.00     0.198 A 
ATOM     45  F   UNL A   1      41.081  35.515  35.895  1.00  0.00    -0.203 F 
ATOM     46  F   UNL A   1      37.792  33.897  39.938  1.00  0.00    -0.200 F 
ATOM     47  C   UNL A   1      39.214  35.530  38.998  1.00  0.00     0.200 A 
ATOM     48  F   UNL A   1      40.651  37.129  38.023  1.00  0.00    -0.200 F 
ATOM     49  F   UNL A   1      38.987  36.346  40.038  1.00  0.00    -0.200 F 
ENDBRANCH  25  39
BRANCH  26  50
ATOM     50  C   UNL A   1      40.628  28.049  28.709  1.00  0.00     0.064 A 
ATOM     51  C   UNL A   1      41.392  28.451  27.601  1.00  0.00     0.173 A 
ATOM     52  C   UNL A   1      39.929  26.839  28.615  1.00  0.00     0.173 A 
ATOM     53  F   UNL A   1      42.071  29.608  27.637  1.00  0.00    -0.203 F 
ATOM     54  C   UNL A   1      41.424  27.691  26.435  1.00  0.00     0.198 A 
ATOM     55  C   UNL A   1      39.990  26.062  27.460  1.00  0.00     0.198 A 
ATOM     56  F   UNL A   1      39.197  26.406  29.652  1.00  0.00    -0.203 F 
ATOM     57  F   UNL A   1      42.116  28.126  25.374  1.00  0.00    -0.200 F 
ATOM     58  C   UNL A   1      40.727  26.495  26.367  1.00  0.00     0.200 A 
ATOM     59  F   UNL A   1      39.332  24.897  27.405  1.00  0.00    -0.200 F 
ATOM     60  F   UNL A   1      40.763  25.761  25.247  1.00  0.00    -0.200 F 
ENDBRANCH  26  50
BRANCH  38  61
ATOM     61  C   UNL A   1      43.983  28.383  34.831  1.00  0.00     0.064 A 
ATOM     62  C   UNL A   1      45.317  28.740  34.575  1.00  0.00     0.173 A 
ATOM     63  C   UNL A   1      43.747  27.235  35.600  1.00  0.00     0.173 A 
ATOM     64  F   UNL A   1      45.598  29.826  33.839  1.00  0.00    -0.203 F 
ATOM     65  C   UNL A   1      46.370  27.968  35.054  1.00  0.00     0.198 A 
ATOM     66  C   UNL A   1      44.805  26.484  36.107  1.00  0.00     0.198 A 
ATOM     67  F   UNL A   1      42.491  26.859  35.885  1.00  0.00    -0.203 F 
ATOM     68  F   UNL A   1      47.634  28.307  34.764  1.00  0.00    -0.200 F 
ATOM     69  C   UNL A   1      46.114  26.844  35.824  1.00  0.00     0.200 A 
ATOM     70  F   UNL A   1      44.556  25.415  36.876  1.00  0.00    -0.200 F 
ATOM     71  F   UNL A   1      47.130  26.110  36.298  1.00  0.00    -0.200 F 
ENDBRANCH  38  61
ENDBRANCH  12  13
ENDBRANCH   5   7
ENDBRANCH   2   3
ENDBRANCH   1   2
BRANCH   1  72
ATOM     72  C   UNL A   1      32.108  30.508  26.078  1.00  0.00     0.023 C 
BRANCH  72  73
ATOM     73  C   UNL A   1      32.177  29.222  26.888  1.00  0.00     0.116 C 
BRANCH  73  74
ATOM     74  N   UNL A   1      33.073  28.233  26.312  1.00  0.00    -0.352 N 
ATOM     75  C   UNL A   1      32.770  27.253  25.399  1.00  0.00     0.253 C 
ATOM     76  H   UNL A   1      34.011  28.270  26.613  1.00  0.00     0.163 HD
ATOM     77  O   UNL A   1      33.574  26.361  25.146  1.00  0.00    -0.269 OA
BRANCH  75  78
ATOM     78  C   UNL A   1      31.439  27.242  24.745  1.00  0.00     0.063 A 
ATOM     79  C   UNL A   1      31.190  28.199  23.745  1.00  0.00     0.019 A 
ATOM     80  C   UNL A   1      30.438  26.326  25.158  1.00  0.00     0.056 A 
ATOM     81  C   UNL A   1      29.914  28.326  23.219  1.00  0.00     0.040 A 
ATOM     82  C   UNL A   1      29.218  26.371  24.493  1.00  0.00     0.066 A 
ATOM     83  C   UNL A   1      28.945  27.406  23.591  1.00  0.00     0.125 A 
ATOM     84  F   UNL A   1      27.711  27.523  23.084  1.00  0.00    -0.207 F 
BRANCH  80  85
ATOM     85  N   UNL A   1      30.741  25.430  26.204  1.00  0.00    -0.325 N 
ATOM     86  C   UNL A   1      31.074  24.131  26.373  1.00  0.00     0.228 C 
ATOM     87  H   UNL A   1      30.694  25.889  27.074  1.00  0.00     0.169 HD
ATOM     88  O   UNL A   1      31.347  23.813  27.543  1.00  0.00    -0.274 OA
BRANCH  86  89
ATOM     89  C   UNL A   1      31.181  23.018  25.340  1.00  0.00     0.095 C 
ATOM     90  C   UNL A   1      31.412  23.292  23.858  1.00  0.00     0.030 C 
ATOM     91  C   UNL A   1      32.140  21.967  25.878  1.00  0.00     0.150 C 
ATOM     92  C   UNL A   1      32.137  22.117  23.210  1.00  0.00     0.138 C 
ATOM     93  S   UNL A   1      32.740  21.051  24.494  1.00  0.00     0.151 S 
ATOM     94  O   UNL A   1      32.024  19.797  24.416  1.00  0.00    -0.229 OA
ATOM     95  O   UNL A   1      34.188  21.118  24.508  1.00  0.00    -0.229 OA
ENDBRANCH  86  89
ENDBRANCH  80  85
ENDBRANCH  75  78
ENDBRANCH  73  74
ENDBRANCH  72  73
ENDBRANCH   1  72
TORSDOF 13
ENDMDL
MODEL 3
REMARK VINA RESULT:     -13.1      0.396      1.979
REMARK SMILES O=C(NCCCCNC(=O)c1ccc(F)cc1NC(=O)[C@H]1CCS(=O)(=O)C1)c1ccc(-c2c3nc(c(-c4c(F)c(F)c(F)c(F)c4F)c4ccc([nH]4)c(-c4c(F)c(F)c(F)c(F)c4F)c4nc(c(-c5c(F)c(F)c(F)c(F)c5F)c5ccc2[nH]5)C=C4)C=C3)cc1
REMARK SMILES IDX 5 1 4 2 3 3 1 4 2 5 28 7 29 8 90 9 30 10 89 11 31 12 32 13
REMARK SMILES IDX 33 14 83 15 34 16 88 17 82 18 84 19 35 20 87 21 81 22 80 23
REMARK SMILES IDX 36 25 68 26 48 27 67 28 49 29 52 30 66 31 85 32 50 33 51 34
REMARK SMILES IDX 65 36 86 37 53 38 37 39 38 40 46 41 39 42 40 43 44 44 47 45
REMARK SMILES IDX 41 46 42 47 45 48 43 49 69 50 70 51 78 52 71 53 72 54 76 55
REMARK SMILES IDX 79 56 73 57 74 58 77 59 75 60 54 61 55 62 63 63 56 64 57 65
REMARK SMILES IDX 61 66 64 67 58 68 59 69 62 70 60 71 6 72 7 73 8 74 9 75
REMARK SMILES IDX 10 77 11 78 12 79 17 80 13 81 16 82 14 83 15 84 18 85 19 86
REMARK SMILES IDX 20 88 21 89 22 90 27 91 23 92 24 93 25 94 26 95
REMARK H PARENT 3 6 84 24 52 35 8 76 18 87
REMARK Flexibility Score: inf
ROOT
ATOM      1  C   UNL A   1      31.571  31.888  26.883  1.00  0.00     0.023 C 
ENDROOT
BRANCH   1   2
ATOM      2  C   UNL A   1      32.772  32.708  27.330  1.00  0.00     0.116 C 
BRANCH   2   3
ATOM      3  N   UNL A   1      32.445  34.097  27.626  1.00  0.00    -0.352 N 
ATOM      4  O   UNL A   1      32.527  36.057  28.752  1.00  0.00    -0.269 OA
ATOM      5  C   UNL A   1      33.013  34.951  28.544  1.00  0.00     0.251 C 
ATOM      6  H   UNL A   1      31.712  34.481  27.092  1.00  0.00     0.163 HD
BRANCH   5   7
ATOM      7  C   UNL A   1      34.192  34.503  29.313  1.00  0.00     0.039 A 
ATOM      8  C   UNL A   1      35.466  34.609  28.759  1.00  0.00     0.014 A 
ATOM      9  C   UNL A   1      34.014  33.902  30.562  1.00  0.00     0.014 A 
ATOM     10  C   UNL A   1      36.519  33.915  29.336  1.00  0.00     0.010 A 
ATOM     11  C   UNL A   1      35.108  33.316  31.207  1.00  0.00     0.010 A 
ATOM     12  C   UNL A   1      36.359  33.266  30.572  1.00  0.00    -0.014 A 
BRANCH  12  13
ATOM     13  C   UNL A   1      37.527  32.575  31.178  1.00  0.00     0.031 A 
ATOM     14  C   UNL A   1      38.000  32.902  32.568  1.00  0.00     0.074 A 
ATOM     15  C   UNL A   1      38.127  31.594  30.476  1.00  0.00     0.049 A 
ATOM     16  N   UNL A   1      38.977  32.360  33.254  1.00  0.00    -0.248 NA
ATOM     17  C   UNL A   1      37.297  33.977  33.284  1.00  0.00     0.031 C 
ATOM     18  C   UNL A   1      37.758  31.190  29.117  1.00  0.00     0.029 A 
ATOM     19  N   UNL A   1      39.145  30.739  30.810  1.00  0.00    -0.354 N 
ATOM     20  C   UNL A   1      39.015  33.035  34.467  1.00  0.00     0.074 A 
ATOM     21  C   UNL A   1      37.989  34.054  34.413  1.00  0.00     0.031 C 
ATOM     22  C   UNL A   1      38.488  30.126  28.760  1.00  0.00     0.029 A 
ATOM     23  C   UNL A   1      39.434  29.824  29.828  1.00  0.00     0.049 A 
ATOM     24  H   UNL A   1      39.623  30.777  31.670  1.00  0.00     0.167 HD
ATOM     25  C   UNL A   1      39.823  32.813  35.532  1.00  0.00     0.037 A 
ATOM     26  C   UNL A   1      40.368  28.856  29.777  1.00  0.00     0.037 A 
ATOM     27  C   UNL A   1      40.835  31.788  35.581  1.00  0.00     0.049 A 
ATOM     28  C   UNL A   1      41.274  28.656  30.955  1.00  0.00     0.074 A 
ATOM     29  C   UNL A   1      41.693  31.474  36.622  1.00  0.00     0.029 A 
ATOM     30  N   UNL A   1      41.129  30.910  34.546  1.00  0.00    -0.354 N 
ATOM     31  N   UNL A   1      41.290  29.294  32.101  1.00  0.00    -0.248 NA
ATOM     32  C   UNL A   1      42.291  27.605  30.836  1.00  0.00     0.031 C 
ATOM     33  C   UNL A   1      42.544  30.450  36.196  1.00  0.00     0.029 A 
ATOM     34  C   UNL A   1      42.169  30.072  34.917  1.00  0.00     0.049 A 
ATOM     35  H   UNL A   1      40.667  30.887  33.677  1.00  0.00     0.167 HD
ATOM     36  C   UNL A   1      42.301  28.708  32.848  1.00  0.00     0.074 A 
ATOM     37  C   UNL A   1      42.865  27.653  32.030  1.00  0.00     0.031 C 
ATOM     38  C   UNL A   1      42.721  29.021  34.098  1.00  0.00     0.037 A 
BRANCH  25  39
ATOM     39  C   UNL A   1      39.663  33.699  36.737  1.00  0.00     0.064 A 
ATOM     40  C   UNL A   1      38.815  33.320  37.792  1.00  0.00     0.173 A 
ATOM     41  C   UNL A   1      40.286  34.953  36.820  1.00  0.00     0.173 A 
ATOM     42  F   UNL A   1      38.186  32.136  37.762  1.00  0.00    -0.203 F 
ATOM     43  C   UNL A   1      38.589  34.169  38.873  1.00  0.00     0.198 A 
ATOM     44  C   UNL A   1      40.083  35.785  37.920  1.00  0.00     0.198 A 
ATOM     45  F   UNL A   1      41.114  35.362  35.847  1.00  0.00    -0.203 F 
ATOM     46  F   UNL A   1      37.746  33.800  39.847  1.00  0.00    -0.200 F 
ATOM     47  C   UNL A   1      39.227  35.397  38.938  1.00  0.00     0.200 A 
ATOM     48  F   UNL A   1      40.722  36.961  37.994  1.00  0.00    -0.200 F 
ATOM     49  F   UNL A   1      39.019  36.207  39.987  1.00  0.00    -0.200 F 
ENDBRANCH  25  39
BRANCH  26  50
ATOM     50  C   UNL A   1      40.466  28.007  28.562  1.00  0.00     0.064 A 
ATOM     51  C   UNL A   1      39.825  26.759  28.494  1.00  0.00     0.173 A 
ATOM     52  C   UNL A   1      41.253  28.396  27.471  1.00  0.00     0.173 A 
ATOM     53  F   UNL A   1      39.069  26.336  29.518  1.00  0.00    -0.203 F 
ATOM     54  C   UNL A   1      39.996  25.921  27.396  1.00  0.00     0.198 A 
ATOM     55  C   UNL A   1      41.397  27.570  26.358  1.00  0.00     0.198 A 
ATOM     56  F   UNL A   1      41.874  29.585  27.483  1.00  0.00    -0.203 F 
ATOM     57  F   UNL A   1      39.418  24.713  27.382  1.00  0.00    -0.200 F 
ATOM     58  C   UNL A   1      40.778  26.329  26.326  1.00  0.00     0.200 A 
ATOM     59  F   UNL A   1      42.136  27.977  25.317  1.00  0.00    -0.200 F 
ATOM     60  F   UNL A   1      40.938  25.525  25.267  1.00  0.00    -0.200 F 
ENDBRANCH  26  50
BRANCH  38  61
ATOM     61  C   UNL A   1      43.827  28.190  34.687  1.00  0.00     0.064 A 
ATOM     62  C   UNL A   1      45.167  28.565  34.503  1.00  0.00     0.173 A 
ATOM     63  C   UNL A   1      43.568  26.995  35.373  1.00  0.00     0.173 A 
ATOM     64  F   UNL A   1      45.470  29.696  33.846  1.00  0.00    -0.203 F 
ATOM     65  C   UNL A   1      46.206  27.767  34.971  1.00  0.00     0.198 A 
ATOM     66  C   UNL A   1      44.610  26.216  35.871  1.00  0.00     0.198 A 
ATOM     67  F   UNL A   1      42.305  26.599  35.588  1.00  0.00    -0.203 F 
ATOM     68  F   UNL A   1      47.478  28.127  34.750  1.00  0.00    -0.200 F 
ATOM     69  C   UNL A   1      45.927  26.597  35.660  1.00  0.00     0.200 A 
ATOM     70  F   UNL A   1      44.338  25.101  36.563  1.00  0.00    -0.200 F 
ATOM     71  F   UNL A   1      46.928  25.837  36.125  1.00  0.00    -0.200 F 
ENDBRANCH  38  61
ENDBRANCH  12  13
ENDBRANCH   5   7
ENDBRANCH   2   3
ENDBRANCH   1   2
BRANCH   1  72
ATOM     72  C   UNL A   1      31.909  30.650  26.062  1.00  0.00     0.023 C 
BRANCH  72  73
ATOM     73  C   UNL A   1      31.972  29.354  26.856  1.00  0.00     0.116 C 
BRANCH  73  74
ATOM     74  N   UNL A   1      32.874  28.373  26.275  1.00  0.00    -0.352 N 
ATOM     75  C   UNL A   1      32.594  27.444  25.303  1.00  0.00     0.253 C 
ATOM     76  H   UNL A   1      33.798  28.375  26.619  1.00  0.00     0.163 HD
ATOM     77  O   UNL A   1      33.390  26.547  25.045  1.00  0.00    -0.269 OA
BRANCH  75  78
ATOM     78  C   UNL A   1      31.294  27.493  24.591  1.00  0.00     0.063 A 
ATOM     79  C   UNL A   1      31.115  28.494  23.619  1.00  0.00     0.019 A 
ATOM     80  C   UNL A   1      30.252  26.589  24.922  1.00  0.00     0.056 A 
ATOM     81  C   UNL A   1      29.867  28.675  23.042  1.00  0.00     0.040 A 
ATOM     82  C   UNL A   1      29.065  26.691  24.205  1.00  0.00     0.066 A 
ATOM     83  C   UNL A   1      28.860  27.767  23.333  1.00  0.00     0.125 A 
ATOM     84  F   UNL A   1      27.654  27.936  22.777  1.00  0.00    -0.207 F 
BRANCH  80  85
ATOM     85  N   UNL A   1      30.484  25.646  25.945  1.00  0.00    -0.325 N 
ATOM     86  C   UNL A   1      30.859  24.354  26.078  1.00  0.00     0.228 C 
ATOM     87  H   UNL A   1      30.325  26.050  26.828  1.00  0.00     0.169 HD
ATOM     88  O   UNL A   1      31.021  23.979  27.252  1.00  0.00    -0.274 OA
BRANCH  86  89
ATOM     89  C   UNL A   1      31.126  23.309  25.003  1.00  0.00     0.095 C 
ATOM     90  C   UNL A   1      31.549  23.678  23.586  1.00  0.00     0.030 C 
ATOM     91  C   UNL A   1      32.026  22.238  25.601  1.00  0.00     0.150 C 
ATOM     92  C   UNL A   1      32.380  22.556  22.972  1.00  0.00     0.138 C 
ATOM     93  S   UNL A   1      32.826  21.418  24.259  1.00  0.00     0.151 S 
ATOM     94  O   UNL A   1      32.152  20.162  24.009  1.00  0.00    -0.229 OA
ATOM     95  O   UNL A   1      34.257  21.502  24.474  1.00  0.00    -0.229 OA
ENDBRANCH  86  89
ENDBRANCH  80  85
ENDBRANCH  75  78
ENDBRANCH  73  74
ENDBRANCH  72  73
ENDBRANCH   1  72
TORSDOF 13
ENDMDL
