MODEL 1
REMARK VINA RESULT:     -12.8      0.000      0.000
REMARK SMILES Cc1ccc([C@@H](C[NH+](C)C)N2C[C@@H](C(=O)NCCCCNC(=O)c3ccc(-c4c5nc(c(-c6c(F)c(F)c(F)c(F)c6F)c6ccc([nH]6)c(-c6c(F)c(F)c(F)c(F)c6F)c6nc(c(-c7c(F)c(F)c(F)c(F)c7F)c7ccc4[nH]7)C=C6)C=C5)cc3)CC2=O)cc1C
REMARK SMILES IDX 18 1 17 2 16 3 14 4 15 5 13 7 11 8 12 9 88 10 87 11 89 12
REMARK SMILES IDX 6 13 5 14 1 15 2 16 3 17 91 18 4 19 90 20 92 21 7 22 8 23
REMARK SMILES IDX 9 24 10 25 19 27 20 28 21 29 22 30 23 32 24 33 25 34 86 35
REMARK SMILES IDX 26 36 85 37 27 38 28 39 29 40 79 41 30 42 84 43 78 44 80 45
REMARK SMILES IDX 31 46 83 47 77 48 76 49 32 51 64 52 44 53 63 54 45 55 48 56
REMARK SMILES IDX 62 57 81 58 46 59 47 60 61 62 82 63 49 64 33 65 34 66 42 67
REMARK SMILES IDX 35 68 36 69 40 70 43 71 37 72 38 73 41 74 39 75 65 76 66 77
REMARK SMILES IDX 74 78 67 79 68 80 72 81 75 82 69 83 70 84 73 85 71 86 50 87
REMARK SMILES IDX 51 88 59 89 52 90 53 91 57 92 60 93 54 94 55 95 58 96 56 97
REMARK H PARENT 16 6 8 26 21 31 80 50 48 61
REMARK Flexibility Score: inf
ROOT
ATOM      1  C   UNL A   1      37.249  20.477  24.584  1.00  0.00     0.023 C 
ENDROOT
BRANCH   1   2
ATOM      2  C   UNL A   1      36.528  21.159  25.741  1.00  0.00     0.116 C 
BRANCH   2   3
ATOM      3  N   UNL A   1      37.206  22.366  26.174  1.00  0.00    -0.356 N 
ATOM      4  C   UNL A   1      36.913  23.674  25.953  1.00  0.00     0.225 C 
ATOM      5  O   UNL A   1      37.659  24.515  26.462  1.00  0.00    -0.275 OA
ATOM      6  H   UNL A   1      38.011  22.212  26.721  1.00  0.00     0.163 HD
BRANCH   4   7
ATOM      7  C   UNL A   1      35.721  24.118  25.130  1.00  0.00     0.107 C 
ATOM      8  N   UNL A   1      33.762  23.023  24.399  1.00  0.00    -0.329 N 
ATOM      9  C   UNL A   1      34.419  23.485  25.598  1.00  0.00     0.134 C 
ATOM     10  C   UNL A   1      34.469  23.343  23.247  1.00  0.00     0.224 C 
ATOM     11  C   UNL A   1      35.837  23.831  23.640  1.00  0.00     0.115 C 
ATOM     12  O   UNL A   1      34.087  23.232  22.097  1.00  0.00    -0.275 OA
BRANCH   8  13
ATOM     13  C   UNL A   1      32.403  22.453  24.369  1.00  0.00     0.170 C 
BRANCH  13  14
ATOM     14  C   UNL A   1      32.416  20.929  24.426  1.00  0.00    -0.020 A 
ATOM     15  C   UNL A   1      33.169  16.670  24.490  1.00  0.00     0.044 C 
ATOM     16  C   UNL A   1      32.824  18.132  24.448  1.00  0.00    -0.048 A 
ATOM     17  C   UNL A   1      32.942  18.889  25.625  1.00  0.00     0.004 A 
ATOM     18  C   UNL A   1      32.441  18.773  23.257  1.00  0.00    -0.048 A 
ATOM     19  C   UNL A   1      32.749  20.271  25.613  1.00  0.00     0.006 A 
ATOM     20  C   UNL A   1      32.204  20.157  23.273  1.00  0.00     0.009 A 
ATOM     21  C   UNL A   1      32.403  18.080  21.922  1.00  0.00     0.044 C 
ENDBRANCH  13  14
BRANCH  13  22
ATOM     22  C   UNL A   1      31.370  23.058  25.407  1.00  0.00     0.292 C 
BRANCH  22  23
ATOM     23  N   UNL A   1      30.375  24.037  24.891  1.00  0.00    -0.338 N 
ATOM     24  C   UNL A   1      30.447  25.306  25.624  1.00  0.00     0.332 C 
ATOM     25  C   UNL A   1      30.567  24.331  23.462  1.00  0.00     0.332 C 
ATOM     26  H   UNL A   1      29.462  23.600  25.025  1.00  0.00     0.347 HD
ENDBRANCH  22  23
ENDBRANCH  13  22
ENDBRANCH   8  13
ENDBRANCH   4   7
ENDBRANCH   2   3
ENDBRANCH   1   2
BRANCH   1  27
ATOM     27  C   UNL A   1      38.221  19.374  24.997  1.00  0.00     0.023 C 
BRANCH  27  28
ATOM     28  C   UNL A   1      39.483  19.852  25.707  1.00  0.00     0.116 C 
BRANCH  28  29
ATOM     29  N   UNL A   1      40.490  18.811  25.839  1.00  0.00    -0.352 N 
ATOM     30  C   UNL A   1      41.834  18.922  26.098  1.00  0.00     0.251 C 
ATOM     31  H   UNL A   1      40.159  17.890  25.726  1.00  0.00     0.163 HD
ATOM     32  O   UNL A   1      42.555  17.931  26.037  1.00  0.00    -0.269 OA
BRANCH  30  33
ATOM     33  C   UNL A   1      42.421  20.242  26.417  1.00  0.00     0.039 A 
ATOM     34  C   UNL A   1      43.109  20.931  25.416  1.00  0.00     0.014 A 
ATOM     35  C   UNL A   1      42.284  20.807  27.688  1.00  0.00     0.014 A 
ATOM     36  C   UNL A   1      43.593  22.217  25.668  1.00  0.00     0.010 A 
ATOM     37  C   UNL A   1      42.694  22.120  27.912  1.00  0.00     0.010 A 
ATOM     38  C   UNL A   1      43.349  22.841  26.903  1.00  0.00    -0.014 A 
BRANCH  38  39
ATOM     39  C   UNL A   1      43.753  24.252  27.137  1.00  0.00     0.031 A 
ATOM     40  C   UNL A   1      42.749  25.271  27.601  1.00  0.00     0.074 A 
ATOM     41  C   UNL A   1      45.025  24.627  26.886  1.00  0.00     0.049 A 
ATOM     42  N   UNL A   1      42.912  26.550  27.828  1.00  0.00    -0.248 NA
ATOM     43  C   UNL A   1      41.374  24.796  27.818  1.00  0.00     0.031 C 
ATOM     44  C   UNL A   1      46.080  23.748  26.380  1.00  0.00     0.029 A 
ATOM     45  N   UNL A   1      45.644  25.846  27.015  1.00  0.00    -0.354 N 
ATOM     46  C   UNL A   1      41.666  27.030  28.211  1.00  0.00     0.074 A 
ATOM     47  C   UNL A   1      40.742  25.920  28.127  1.00  0.00     0.031 C 
ATOM     48  C   UNL A   1      47.221  24.447  26.268  1.00  0.00     0.029 A 
ATOM     49  C   UNL A   1      46.969  25.832  26.653  1.00  0.00     0.049 A 
ATOM     50  H   UNL A   1      45.182  26.654  27.336  1.00  0.00     0.167 HD
ATOM     51  C   UNL A   1      41.329  28.275  28.623  1.00  0.00     0.037 A 
ATOM     52  C   UNL A   1      47.879  26.825  26.627  1.00  0.00     0.037 A 
ATOM     53  C   UNL A   1      42.253  29.377  28.717  1.00  0.00     0.049 A 
ATOM     54  C   UNL A   1      47.469  28.205  27.070  1.00  0.00     0.074 A 
ATOM     55  C   UNL A   1      42.016  30.666  29.167  1.00  0.00     0.029 A 
ATOM     56  N   UNL A   1      43.589  29.323  28.350  1.00  0.00    -0.354 N 
ATOM     57  N   UNL A   1      46.305  28.626  27.502  1.00  0.00    -0.248 NA
ATOM     58  C   UNL A   1      48.505  29.246  27.030  1.00  0.00     0.031 C 
ATOM     59  C   UNL A   1      43.195  31.404  29.020  1.00  0.00     0.029 A 
ATOM     60  C   UNL A   1      44.182  30.562  28.538  1.00  0.00     0.049 A 
ATOM     61  H   UNL A   1      44.049  28.522  28.005  1.00  0.00     0.167 HD
ATOM     62  C   UNL A   1      46.476  29.968  27.812  1.00  0.00     0.074 A 
ATOM     63  C   UNL A   1      47.863  30.285  27.543  1.00  0.00     0.031 C 
ATOM     64  C   UNL A   1      45.566  30.861  28.271  1.00  0.00     0.037 A 
BRANCH  51  65
ATOM     65  C   UNL A   1      39.900  28.519  29.018  1.00  0.00     0.064 A 
ATOM     66  C   UNL A   1      39.451  28.285  30.327  1.00  0.00     0.173 A 
ATOM     67  C   UNL A   1      38.985  29.051  28.096  1.00  0.00     0.173 A 
ATOM     68  F   UNL A   1      40.281  27.768  31.244  1.00  0.00    -0.203 F 
ATOM     69  C   UNL A   1      38.134  28.555  30.692  1.00  0.00     0.198 A 
ATOM     70  C   UNL A   1      37.679  29.351  28.474  1.00  0.00     0.198 A 
ATOM     71  F   UNL A   1      39.363  29.300  26.834  1.00  0.00    -0.203 F 
ATOM     72  F   UNL A   1      37.718  28.284  31.937  1.00  0.00    -0.200 F 
ATOM     73  C   UNL A   1      37.253  29.097  29.770  1.00  0.00     0.200 A 
ATOM     74  F   UNL A   1      36.832  29.888  27.585  1.00  0.00    -0.200 F 
ATOM     75  F   UNL A   1      35.990  29.372  30.128  1.00  0.00    -0.200 F 
ENDBRANCH  51  65
BRANCH  52  76
ATOM     76  C   UNL A   1      49.270  26.557  26.171  1.00  0.00     0.064 A 
ATOM     77  C   UNL A   1      50.243  26.077  27.059  1.00  0.00     0.173 A 
ATOM     78  C   UNL A   1      49.665  26.811  24.849  1.00  0.00     0.173 A 
ATOM     79  F   UNL A   1      49.922  25.839  28.339  1.00  0.00    -0.203 F 
ATOM     80  C   UNL A   1      51.563  25.894  26.653  1.00  0.00     0.198 A 
ATOM     81  C   UNL A   1      50.977  26.593  24.434  1.00  0.00     0.198 A 
ATOM     82  F   UNL A   1      48.774  27.266  23.956  1.00  0.00    -0.203 F 
ATOM     83  F   UNL A   1      52.486  25.499  27.540  1.00  0.00    -0.200 F 
ATOM     84  C   UNL A   1      51.928  26.149  25.339  1.00  0.00     0.200 A 
ATOM     85  F   UNL A   1      51.321  26.824  23.159  1.00  0.00    -0.200 F 
ATOM     86  F   UNL A   1      53.199  25.977  24.950  1.00  0.00    -0.200 F 
ENDBRANCH  52  76
BRANCH  64  87
ATOM     87  C   UNL A   1      46.052  32.257  28.548  1.00  0.00     0.064 A 
ATOM     88  C   UNL A   1      46.579  32.622  29.797  1.00  0.00     0.173 A 
ATOM     89  C   UNL A   1      46.007  33.237  27.545  1.00  0.00     0.173 A 
ATOM     90  F   UNL A   1      46.632  31.726  30.795  1.00  0.00    -0.203 F 
ATOM     91  C   UNL A   1      47.004  33.925  30.041  1.00  0.00     0.198 A 
ATOM     92  C   UNL A   1      46.468  34.529  27.782  1.00  0.00     0.198 A 
ATOM     93  F   UNL A   1      45.522  32.941  26.329  1.00  0.00    -0.203 F 
ATOM     94  F   UNL A   1      47.443  34.265  31.261  1.00  0.00    -0.200 F 
ATOM     95  C   UNL A   1      46.954  34.875  29.033  1.00  0.00     0.200 A 
ATOM     96  F   UNL A   1      46.435  35.441  26.800  1.00  0.00    -0.200 F 
ATOM     97  F   UNL A   1      47.368  36.128  29.269  1.00  0.00    -0.200 F 
ENDBRANCH  64  87
ENDBRANCH  38  39
ENDBRANCH  30  33
ENDBRANCH  28  29
ENDBRANCH  27  28
ENDBRANCH   1  27
TORSDOF 15
ENDMDL
MODEL 2
REMARK VINA RESULT:     -12.7      0.333      7.199
REMARK SMILES Cc1ccc([C@@H](C[NH+](C)C)N2C[C@@H](C(=O)NCCCCNC(=O)c3ccc(-c4c5nc(c(-c6c(F)c(F)c(F)c(F)c6F)c6ccc([nH]6)c(-c6c(F)c(F)c(F)c(F)c6F)c6nc(c(-c7c(F)c(F)c(F)c(F)c7F)c7ccc4[nH]7)C=C6)C=C5)cc3)CC2=O)cc1C
REMARK SMILES IDX 18 1 17 2 16 3 14 4 15 5 13 7 11 8 12 9 88 10 87 11 89 12
REMARK SMILES IDX 6 13 5 14 1 15 2 16 3 17 91 18 4 19 90 20 92 21 7 22 8 23
REMARK SMILES IDX 9 24 10 25 19 27 20 28 21 29 22 30 23 32 24 33 25 34 86 35
REMARK SMILES IDX 26 36 85 37 27 38 28 39 29 40 79 41 30 42 84 43 78 44 80 45
REMARK SMILES IDX 31 46 83 47 77 48 76 49 32 51 64 52 44 53 63 54 45 55 48 56
REMARK SMILES IDX 62 57 81 58 46 59 47 60 61 62 82 63 49 64 33 65 34 66 42 67
REMARK SMILES IDX 35 68 36 69 40 70 43 71 37 72 38 73 41 74 39 75 65 76 66 77
REMARK SMILES IDX 74 78 67 79 68 80 72 81 75 82 69 83 70 84 73 85 71 86 50 87
REMARK SMILES IDX 51 88 59 89 52 90 53 91 57 92 60 93 54 94 55 95 58 96 56 97
REMARK H PARENT 16 6 8 26 21 31 80 50 48 61
REMARK Flexibility Score: inf
ROOT
ATOM      1  C   UNL A   1      37.366  20.290  24.637  1.00  0.00     0.023 C 
ENDROOT
BRANCH   1   2
ATOM      2  C   UNL A   1      36.521  21.074  25.634  1.00  0.00     0.116 C 
BRANCH   2   3
ATOM      3  N   UNL A   1      37.196  22.268  26.106  1.00  0.00    -0.356 N 
ATOM      4  C   UNL A   1      36.897  23.582  25.934  1.00  0.00     0.225 C 
ATOM      5  O   UNL A   1      37.643  24.407  26.468  1.00  0.00    -0.275 OA
ATOM      6  H   UNL A   1      38.005  22.098  26.642  1.00  0.00     0.163 HD
BRANCH   4   7
ATOM      7  C   UNL A   1      35.698  24.049  25.134  1.00  0.00     0.107 C 
ATOM      8  N   UNL A   1      33.743  22.971  24.370  1.00  0.00    -0.329 N 
ATOM      9  C   UNL A   1      34.403  23.391  25.583  1.00  0.00     0.134 C 
ATOM     10  C   UNL A   1      34.442  23.340  23.229  1.00  0.00     0.224 C 
ATOM     11  C   UNL A   1      35.809  23.821  23.633  1.00  0.00     0.115 C 
ATOM     12  O   UNL A   1      34.055  23.271  22.077  1.00  0.00    -0.275 OA
BRANCH   8  13
ATOM     13  C   UNL A   1      32.387  22.394  24.325  1.00  0.00     0.170 C 
BRANCH  13  14
ATOM     14  C   UNL A   1      32.407  20.871  24.385  1.00  0.00    -0.020 A 
ATOM     15  C   UNL A   1      33.175  16.614  24.428  1.00  0.00     0.044 C 
ATOM     16  C   UNL A   1      32.824  18.075  24.397  1.00  0.00    -0.048 A 
ATOM     17  C   UNL A   1      32.992  18.836  25.566  1.00  0.00     0.004 A 
ATOM     18  C   UNL A   1      32.387  18.711  23.222  1.00  0.00    -0.048 A 
ATOM     19  C   UNL A   1      32.795  20.217  25.558  1.00  0.00     0.006 A 
ATOM     20  C   UNL A   1      32.147  20.094  23.245  1.00  0.00     0.009 A 
ATOM     21  C   UNL A   1      32.292  18.014  21.892  1.00  0.00     0.044 C 
ENDBRANCH  13  14
BRANCH  13  22
ATOM     22  C   UNL A   1      31.338  22.996  25.349  1.00  0.00     0.292 C 
BRANCH  22  23
ATOM     23  N   UNL A   1      30.453  24.088  24.859  1.00  0.00    -0.338 N 
ATOM     24  C   UNL A   1      30.710  25.342  25.575  1.00  0.00     0.332 C 
ATOM     25  C   UNL A   1      30.625  24.347  23.420  1.00  0.00     0.332 C 
ATOM     26  H   UNL A   1      29.499  23.769  25.032  1.00  0.00     0.347 HD
ENDBRANCH  22  23
ENDBRANCH  13  22
ENDBRANCH   8  13
ENDBRANCH   4   7
ENDBRANCH   2   3
ENDBRANCH   1   2
BRANCH   1  27
ATOM     27  C   UNL A   1      38.305  19.261  25.263  1.00  0.00     0.023 C 
BRANCH  27  28
ATOM     28  C   UNL A   1      39.616  19.821  25.804  1.00  0.00     0.116 C 
BRANCH  28  29
ATOM     29  N   UNL A   1      40.680  18.831  25.852  1.00  0.00    -0.352 N 
ATOM     30  C   UNL A   1      42.028  19.004  26.044  1.00  0.00     0.251 C 
ATOM     31  H   UNL A   1      40.391  17.897  25.728  1.00  0.00     0.163 HD
ATOM     32  O   UNL A   1      42.795  18.054  25.915  1.00  0.00    -0.269 OA
BRANCH  30  33
ATOM     33  C   UNL A   1      42.564  20.344  26.373  1.00  0.00     0.039 A 
ATOM     34  C   UNL A   1      43.149  21.101  25.357  1.00  0.00     0.014 A 
ATOM     35  C   UNL A   1      42.477  20.860  27.669  1.00  0.00     0.014 A 
ATOM     36  C   UNL A   1      43.579  22.403  25.623  1.00  0.00     0.010 A 
ATOM     37  C   UNL A   1      42.831  22.185  27.914  1.00  0.00     0.010 A 
ATOM     38  C   UNL A   1      43.382  22.973  26.893  1.00  0.00    -0.014 A 
BRANCH  38  39
ATOM     39  C   UNL A   1      43.724  24.396  27.151  1.00  0.00     0.031 A 
ATOM     40  C   UNL A   1      45.129  24.895  26.954  1.00  0.00     0.074 A 
ATOM     41  C   UNL A   1      42.771  25.233  27.610  1.00  0.00     0.049 A 
ATOM     42  N   UNL A   1      45.619  26.092  27.158  1.00  0.00    -0.248 NA
ATOM     43  C   UNL A   1      46.123  23.915  26.488  1.00  0.00     0.031 C 
ATOM     44  C   UNL A   1      41.385  24.859  27.895  1.00  0.00     0.029 A 
ATOM     45  N   UNL A   1      42.825  26.569  27.924  1.00  0.00    -0.354 N 
ATOM     46  C   UNL A   1      46.970  26.008  26.848  1.00  0.00     0.074 A 
ATOM     47  C   UNL A   1      47.239  24.630  26.501  1.00  0.00     0.031 C 
ATOM     48  C   UNL A   1      40.713  25.944  28.314  1.00  0.00     0.029 A 
ATOM     49  C   UNL A   1      41.629  27.078  28.368  1.00  0.00     0.049 A 
ATOM     50  H   UNL A   1      43.643  27.110  27.839  1.00  0.00     0.167 HD
ATOM     51  C   UNL A   1      47.895  26.997  26.826  1.00  0.00     0.037 A 
ATOM     52  C   UNL A   1      41.307  28.319  28.782  1.00  0.00     0.037 A 
ATOM     53  C   UNL A   1      47.624  28.372  27.161  1.00  0.00     0.049 A 
ATOM     54  C   UNL A   1      42.363  29.393  28.767  1.00  0.00     0.074 A 
ATOM     55  C   UNL A   1      48.486  29.455  27.125  1.00  0.00     0.029 A 
ATOM     56  N   UNL A   1      46.399  28.852  27.599  1.00  0.00    -0.354 N 
ATOM     57  N   UNL A   1      43.619  29.316  28.398  1.00  0.00    -0.248 NA
ATOM     58  C   UNL A   1      41.953  30.730  29.218  1.00  0.00     0.031 C 
ATOM     59  C   UNL A   1      47.797  30.579  27.593  1.00  0.00     0.029 A 
ATOM     60  C   UNL A   1      46.489  30.211  27.861  1.00  0.00     0.049 A 
ATOM     61  H   UNL A   1      45.584  28.308  27.708  1.00  0.00     0.167 HD
ATOM     62  C   UNL A   1      44.138  30.595  28.545  1.00  0.00     0.074 A 
ATOM     63  C   UNL A   1      43.056  31.435  29.011  1.00  0.00     0.031 C 
ATOM     64  C   UNL A   1      45.400  31.035  28.320  1.00  0.00     0.037 A 
BRANCH  51  65
ATOM     65  C   UNL A   1      49.295  26.636  26.415  1.00  0.00     0.064 A 
ATOM     66  C   UNL A   1      49.737  26.803  25.093  1.00  0.00     0.173 A 
ATOM     67  C   UNL A   1      50.223  26.179  27.363  1.00  0.00     0.173 A 
ATOM     68  F   UNL A   1      48.888  27.227  24.145  1.00  0.00    -0.203 F 
ATOM     69  C   UNL A   1      51.049  26.505  24.733  1.00  0.00     0.198 A 
ATOM     70  C   UNL A   1      51.542  25.914  27.006  1.00  0.00     0.198 A 
ATOM     71  F   UNL A   1      49.855  26.008  28.642  1.00  0.00    -0.203 F 
ATOM     72  F   UNL A   1      51.436  26.632  23.456  1.00  0.00    -0.200 F 
ATOM     73  C   UNL A   1      51.953  26.071  25.690  1.00  0.00     0.200 A 
ATOM     74  F   UNL A   1      52.418  25.509  27.935  1.00  0.00    -0.200 F 
ATOM     75  F   UNL A   1      53.219  25.801  25.344  1.00  0.00    -0.200 F 
ENDBRANCH  51  65
BRANCH  52  76
ATOM     76  C   UNL A   1      39.924  28.624  29.240  1.00  0.00     0.064 A 
ATOM     77  C   UNL A   1      39.536  28.401  30.569  1.00  0.00     0.173 A 
ATOM     78  C   UNL A   1      38.952  29.109  28.352  1.00  0.00     0.173 A 
ATOM     79  F   UNL A   1      40.422  27.918  31.453  1.00  0.00    -0.203 F 
ATOM     80  C   UNL A   1      38.223  28.617  30.983  1.00  0.00     0.198 A 
ATOM     81  C   UNL A   1      37.649  29.359  28.776  1.00  0.00     0.198 A 
ATOM     82  F   UNL A   1      39.270  29.345  27.071  1.00  0.00    -0.203 F 
ATOM     83  F   UNL A   1      37.865  28.331  32.242  1.00  0.00    -0.200 F 
ATOM     84  C   UNL A   1      37.281  29.100  30.086  1.00  0.00     0.200 A 
ATOM     85  F   UNL A   1      36.747  29.843  27.910  1.00  0.00    -0.200 F 
ATOM     86  F   UNL A   1      36.018  29.304  30.484  1.00  0.00    -0.200 F 
ENDBRANCH  52  76
BRANCH  64  87
ATOM     87  C   UNL A   1      45.668  32.498  28.540  1.00  0.00     0.064 A 
ATOM     88  C   UNL A   1      46.113  32.990  29.778  1.00  0.00     0.173 A 
ATOM     89  C   UNL A   1      45.494  33.418  27.495  1.00  0.00     0.173 A 
ATOM     90  F   UNL A   1      46.282  32.154  30.814  1.00  0.00    -0.203 F 
ATOM     91  C   UNL A   1      46.335  34.350  29.970  1.00  0.00     0.198 A 
ATOM     92  C   UNL A   1      45.753  34.773  27.680  1.00  0.00     0.198 A 
ATOM     93  F   UNL A   1      45.080  33.002  26.289  1.00  0.00    -0.203 F 
ATOM     94  F   UNL A   1      46.698  34.803  31.178  1.00  0.00    -0.200 F 
ATOM     95  C   UNL A   1      46.161  35.240  28.920  1.00  0.00     0.200 A 
ATOM     96  F   UNL A   1      45.601  35.628  26.659  1.00  0.00    -0.200 F 
ATOM     97  F   UNL A   1      46.380  36.549  29.106  1.00  0.00    -0.200 F 
ENDBRANCH  64  87
ENDBRANCH  38  39
ENDBRANCH  30  33
ENDBRANCH  28  29
ENDBRANCH  27  28
ENDBRANCH   1  27
TORSDOF 15
ENDMDL
MODEL 3
REMARK VINA RESULT:     -12.5      1.700      3.297
REMARK SMILES Cc1ccc([C@@H](C[NH+](C)C)N2C[C@@H](C(=O)NCCCCNC(=O)c3ccc(-c4c5nc(c(-c6c(F)c(F)c(F)c(F)c6F)c6ccc([nH]6)c(-c6c(F)c(F)c(F)c(F)c6F)c6nc(c(-c7c(F)c(F)c(F)c(F)c7F)c7ccc4[nH]7)C=C6)C=C5)cc3)CC2=O)cc1C
REMARK SMILES IDX 18 1 17 2 16 3 14 4 15 5 13 7 11 8 12 9 88 10 87 11 89 12
REMARK SMILES IDX 6 13 5 14 1 15 2 16 3 17 91 18 4 19 90 20 92 21 7 22 8 23
REMARK SMILES IDX 9 24 10 25 19 27 20 28 21 29 22 30 23 32 24 33 25 34 86 35
REMARK SMILES IDX 26 36 85 37 27 38 28 39 29 40 79 41 30 42 84 43 78 44 80 45
REMARK SMILES IDX 31 46 83 47 77 48 76 49 32 51 64 52 44 53 63 54 45 55 48 56
REMARK SMILES IDX 62 57 81 58 46 59 47 60 61 62 82 63 49 64 33 65 34 66 42 67
REMARK SMILES IDX 35 68 36 69 40 70 43 71 37 72 38 73 41 74 39 75 65 76 66 77
REMARK SMILES IDX 74 78 67 79 68 80 72 81 75 82 69 83 70 84 73 85 71 86 50 87
REMARK SMILES IDX 51 88 59 89 52 90 53 91 57 92 60 93 54 94 55 95 58 96 56 97
REMARK H PARENT 16 6 8 26 21 31 80 50 48 61
REMARK Flexibility Score: inf
ROOT
ATOM      1  C   UNL A   1      36.827  20.726  24.945  1.00  0.00     0.023 C 
ENDROOT
BRANCH   1   2
ATOM      2  C   UNL A   1      36.958  21.909  25.896  1.00  0.00     0.116 C 
BRANCH   2   3
ATOM      3  N   UNL A   1      35.690  22.272  26.499  1.00  0.00    -0.356 N 
ATOM      4  C   UNL A   1      34.826  23.279  26.207  1.00  0.00     0.225 C 
ATOM      5  O   UNL A   1      33.792  23.351  26.877  1.00  0.00    -0.275 OA
ATOM      6  H   UNL A   1      35.407  21.691  27.243  1.00  0.00     0.163 HD
BRANCH   4   7
ATOM      7  C   UNL A   1      35.085  24.284  25.103  1.00  0.00     0.107 C 
ATOM      8  N   UNL A   1      33.805  26.037  24.177  1.00  0.00    -0.329 N 
ATOM      9  C   UNL A   1      34.473  25.645  25.395  1.00  0.00     0.134 C 
ATOM     10  C   UNL A   1      33.977  25.114  23.154  1.00  0.00     0.224 C 
ATOM     11  C   UNL A   1      34.580  23.861  23.731  1.00  0.00     0.115 C 
ATOM     12  O   UNL A   1      33.676  25.251  21.983  1.00  0.00    -0.275 OA
BRANCH   8  13
ATOM     13  C   UNL A   1      33.177  27.354  23.966  1.00  0.00     0.170 C 
BRANCH  13  14
ATOM     14  C   UNL A   1      31.658  27.293  24.089  1.00  0.00    -0.020 A 
ATOM     15  C   UNL A   1      27.382  26.672  23.868  1.00  0.00     0.044 C 
ATOM     16  C   UNL A   1      28.852  26.962  23.990  1.00  0.00    -0.048 A 
ATOM     17  C   UNL A   1      29.661  26.066  24.709  1.00  0.00     0.004 A 
ATOM     18  C   UNL A   1      29.447  28.069  23.361  1.00  0.00    -0.048 A 
ATOM     19  C   UNL A   1      31.047  26.224  24.750  1.00  0.00     0.006 A 
ATOM     20  C   UNL A   1      30.838  28.239  23.454  1.00  0.00     0.009 A 
ATOM     21  C   UNL A   1      28.693  29.016  22.469  1.00  0.00     0.044 C 
ENDBRANCH  13  14
BRANCH  13  22
ATOM     22  C   UNL A   1      33.774  28.554  24.810  1.00  0.00     0.292 C 
BRANCH  22  23
ATOM     23  N   UNL A   1      33.066  28.928  26.065  1.00  0.00    -0.338 N 
ATOM     24  C   UNL A   1      33.929  28.746  27.237  1.00  0.00     0.332 C 
ATOM     25  C   UNL A   1      32.607  30.326  26.055  1.00  0.00     0.332 C 
ATOM     26  H   UNL A   1      32.257  28.308  26.120  1.00  0.00     0.347 HD
ENDBRANCH  22  23
ENDBRANCH  13  22
ENDBRANCH   8  13
ENDBRANCH   4   7
ENDBRANCH   2   3
ENDBRANCH   1   2
BRANCH   1  27
ATOM     27  C   UNL A   1      38.097  19.895  24.776  1.00  0.00     0.023 C 
BRANCH  27  28
ATOM     28  C   UNL A   1      39.215  20.209  25.764  1.00  0.00     0.116 C 
BRANCH  28  29
ATOM     29  N   UNL A   1      40.184  19.132  25.887  1.00  0.00    -0.352 N 
ATOM     30  C   UNL A   1      41.537  19.194  26.118  1.00  0.00     0.251 C 
ATOM     31  H   UNL A   1      39.817  18.223  25.789  1.00  0.00     0.163 HD
ATOM     32  O   UNL A   1      42.218  18.175  26.052  1.00  0.00    -0.269 OA
BRANCH  30  33
ATOM     33  C   UNL A   1      42.179  20.494  26.413  1.00  0.00     0.039 A 
ATOM     34  C   UNL A   1      42.666  21.258  25.351  1.00  0.00     0.014 A 
ATOM     35  C   UNL A   1      42.289  20.966  27.724  1.00  0.00     0.014 A 
ATOM     36  C   UNL A   1      43.194  22.527  25.597  1.00  0.00     0.010 A 
ATOM     37  C   UNL A   1      42.740  22.263  27.959  1.00  0.00     0.010 A 
ATOM     38  C   UNL A   1      43.194  23.060  26.897  1.00  0.00    -0.014 A 
BRANCH  38  39
ATOM     39  C   UNL A   1      43.641  24.455  27.150  1.00  0.00     0.031 A 
ATOM     40  C   UNL A   1      42.673  25.493  27.648  1.00  0.00     0.074 A 
ATOM     41  C   UNL A   1      44.918  24.799  26.886  1.00  0.00     0.049 A 
ATOM     42  N   UNL A   1      42.875  26.763  27.895  1.00  0.00    -0.248 NA
ATOM     43  C   UNL A   1      41.288  25.053  27.878  1.00  0.00     0.031 C 
ATOM     44  C   UNL A   1      45.940  23.900  26.348  1.00  0.00     0.029 A 
ATOM     45  N   UNL A   1      45.573  25.998  27.027  1.00  0.00    -0.354 N 
ATOM     46  C   UNL A   1      41.649  27.270  28.306  1.00  0.00     0.074 A 
ATOM     47  C   UNL A   1      40.693  26.188  28.216  1.00  0.00     0.031 C 
ATOM     48  C   UNL A   1      47.099  24.569  26.231  1.00  0.00     0.029 A 
ATOM     49  C   UNL A   1      46.892  25.953  26.644  1.00  0.00     0.049 A 
ATOM     50  H   UNL A   1      45.139  26.812  27.370  1.00  0.00     0.167 HD
ATOM     51  C   UNL A   1      41.354  28.517  28.745  1.00  0.00     0.037 A 
ATOM     52  C   UNL A   1      47.829  26.920  26.621  1.00  0.00     0.037 A 
ATOM     53  C   UNL A   1      42.309  29.590  28.844  1.00  0.00     0.049 A 
ATOM     54  C   UNL A   1      47.465  28.303  27.095  1.00  0.00     0.074 A 
ATOM     55  C   UNL A   1      42.116  30.876  29.320  1.00  0.00     0.029 A 
ATOM     56  N   UNL A   1      43.638  29.505  28.455  1.00  0.00    -0.354 N 
ATOM     57  N   UNL A   1      46.320  28.748  27.553  1.00  0.00    -0.248 NA
ATOM     58  C   UNL A   1      48.529  29.316  27.058  1.00  0.00     0.031 C 
ATOM     59  C   UNL A   1      43.313  31.584  29.169  1.00  0.00     0.029 A 
ATOM     60  C   UNL A   1      44.269  30.723  28.657  1.00  0.00     0.049 A 
ATOM     61  H   UNL A   1      44.069  28.699  28.089  1.00  0.00     0.167 HD
ATOM     62  C   UNL A   1      46.534  30.080  27.884  1.00  0.00     0.074 A 
ATOM     63  C   UNL A   1      47.924  30.363  27.599  1.00  0.00     0.031 C 
ATOM     64  C   UNL A   1      45.656  30.989  28.373  1.00  0.00     0.037 A 
BRANCH  51  65
ATOM     65  C   UNL A   1      39.938  28.793  29.166  1.00  0.00     0.064 A 
ATOM     66  C   UNL A   1      38.987  29.287  28.259  1.00  0.00     0.173 A 
ATOM     67  C   UNL A   1      39.510  28.504  30.471  1.00  0.00     0.173 A 
ATOM     68  F   UNL A   1      39.345  29.589  27.002  1.00  0.00    -0.203 F 
ATOM     69  C   UNL A   1      37.667  29.499  28.649  1.00  0.00     0.198 A 
ATOM     70  C   UNL A   1      38.182  28.687  30.847  1.00  0.00     0.198 A 
ATOM     71  F   UNL A   1      40.376  28.025  31.376  1.00  0.00    -0.203 F 
ATOM     72  F   UNL A   1      36.787  30.010  27.776  1.00  0.00    -0.200 F 
ATOM     73  C   UNL A   1      37.263  29.190  29.938  1.00  0.00     0.200 A 
ATOM     74  F   UNL A   1      37.790  28.374  32.090  1.00  0.00    -0.200 F 
ATOM     75  F   UNL A   1      35.988  29.380  30.306  1.00  0.00    -0.200 F 
ENDBRANCH  51  65
BRANCH  52  76
ATOM     76  C   UNL A   1      49.205  26.623  26.139  1.00  0.00     0.064 A 
ATOM     77  C   UNL A   1      50.176  26.095  27.003  1.00  0.00     0.173 A 
ATOM     78  C   UNL A   1      49.589  26.893  24.818  1.00  0.00     0.173 A 
ATOM     79  F   UNL A   1      49.866  25.838  28.282  1.00  0.00    -0.203 F 
ATOM     80  C   UNL A   1      51.485  25.883  26.573  1.00  0.00     0.198 A 
ATOM     81  C   UNL A   1      50.888  26.646  24.379  1.00  0.00     0.198 A 
ATOM     82  F   UNL A   1      48.699  27.393  23.948  1.00  0.00    -0.203 F 
ATOM     83  F   UNL A   1      52.408  25.441  27.438  1.00  0.00    -0.200 F 
ATOM     84  C   UNL A   1      51.838  26.155  25.260  1.00  0.00     0.200 A 
ATOM     85  F   UNL A   1      51.220  26.895  23.104  1.00  0.00    -0.200 F 
ATOM     86  F   UNL A   1      53.098  25.955  24.848  1.00  0.00    -0.200 F 
ENDBRANCH  52  76
BRANCH  64  87
ATOM     87  C   UNL A   1      46.185  32.365  28.667  1.00  0.00     0.064 A 
ATOM     88  C   UNL A   1      46.809  32.673  29.887  1.00  0.00     0.173 A 
ATOM     89  C   UNL A   1      46.083  33.385  27.709  1.00  0.00     0.173 A 
ATOM     90  F   UNL A   1      46.920  31.737  30.843  1.00  0.00    -0.203 F 
ATOM     91  C   UNL A   1      47.273  33.958  30.150  1.00  0.00     0.198 A 
ATOM     92  C   UNL A   1      46.583  34.660  27.962  1.00  0.00     0.198 A 
ATOM     93  F   UNL A   1      45.505  33.145  26.523  1.00  0.00    -0.203 F 
ATOM     94  F   UNL A   1      47.807  34.243  31.346  1.00  0.00    -0.200 F 
ATOM     95  C   UNL A   1      47.166  34.948  29.186  1.00  0.00     0.200 A 
ATOM     96  F   UNL A   1      46.494  35.611  27.021  1.00  0.00    -0.200 F 
ATOM     97  F   UNL A   1      47.618  36.184  29.439  1.00  0.00    -0.200 F 
ENDBRANCH  64  87
ENDBRANCH  38  39
ENDBRANCH  30  33
ENDBRANCH  28  29
ENDBRANCH  27  28
ENDBRANCH   1  27
TORSDOF 15
ENDMDL
