MODEL 1
REMARK VINA RESULT:     -12.9      0.000      0.000
REMARK SMILES O=C(CSc1nnc(-c2ccncc2)s1)Nc1cccc(C(=O)NCCCCNC(=O)c2ccc(-c3c4nc(c(-c5c(F)c(F)c(F)c(F)c5F)c5ccc([nH]5)c(-c5c(F)c(F)c(F)c(F)c5F)c5nc(c(-c6c(F)c(F)c(F)c(F)c6F)c6ccc3[nH]6)C=C5)C=C4)cc2)c1
REMARK SMILES IDX 25 1 24 2 22 3 23 4 21 6 17 7 18 8 95 9 19 10 20 11 16 12
REMARK SMILES IDX 1 13 2 14 3 16 4 17 5 18 6 19 15 20 7 21 8 22 9 23 10 24
REMARK SMILES IDX 14 25 11 26 13 27 12 28 26 29 27 30 28 31 29 32 30 33 31 35
REMARK SMILES IDX 32 36 33 37 94 38 34 39 93 40 35 41 36 42 37 43 87 44 38 45
REMARK SMILES IDX 92 46 86 47 88 48 39 49 91 50 85 51 84 52 40 54 72 55 52 56
REMARK SMILES IDX 71 57 53 58 56 59 70 60 89 61 54 62 55 63 69 65 90 66 57 67
REMARK SMILES IDX 41 68 42 69 50 70 43 71 44 72 48 73 51 74 45 75 46 76 49 77
REMARK SMILES IDX 47 78 73 79 74 80 82 81 75 82 76 83 80 84 83 85 77 86 78 87
REMARK SMILES IDX 81 88 79 89 58 90 59 91 67 92 60 93 61 94 65 95 68 96 62 97
REMARK SMILES IDX 63 98 66 99 64 100
REMARK H PARENT 24 5 16 15 29 34 88 53 56 64
REMARK Flexibility Score: inf
ROOT
ATOM      1  C   UNL A   1      29.524  31.682  24.334  1.00  0.00     0.116 C 
ENDROOT
BRANCH   1   2
ATOM      2  N   UNL A   1      29.588  31.350  22.916  1.00  0.00    -0.352 N 
ATOM      3  C   UNL A   1      29.203  30.196  22.260  1.00  0.00     0.251 C 
ATOM      4  O   UNL A   1      29.374  30.106  21.047  1.00  0.00    -0.269 OA
ATOM      5  H   UNL A   1      29.961  32.054  22.339  1.00  0.00     0.163 HD
BRANCH   3   6
ATOM      6  C   UNL A   1      28.656  29.039  23.012  1.00  0.00     0.041 A 
ATOM      7  C   UNL A   1      28.987  26.826  23.933  1.00  0.00     0.041 A 
ATOM      8  C   UNL A   1      27.600  26.677  24.039  1.00  0.00     0.026 A 
ATOM      9  C   UNL A   1      29.499  28.057  23.534  1.00  0.00     0.040 A 
ATOM     10  C   UNL A   1      26.745  27.723  23.672  1.00  0.00     0.003 A 
ATOM     11  C   UNL A   1      27.271  28.894  23.126  1.00  0.00     0.014 A 
BRANCH   7  12
ATOM     12  N   UNL A   1      29.796  25.680  24.093  1.00  0.00    -0.325 N 
ATOM     13  O   UNL A   1      29.976  25.537  26.412  1.00  0.00    -0.274 OA
ATOM     14  C   UNL A   1      30.316  25.191  25.281  1.00  0.00     0.234 C 
ATOM     15  H   UNL A   1      30.014  25.175  23.276  1.00  0.00     0.169 HD
BRANCH  14  16
ATOM     16  C   UNL A   1      31.511  24.263  25.130  1.00  0.00     0.177 C 
BRANCH  16  17
ATOM     17  S   UNL A   1      31.496  23.244  23.644  1.00  0.00    -0.084 SA
BRANCH  17  18
ATOM     18  C   UNL A   1      32.205  21.770  24.246  1.00  0.00     0.175 A 
ATOM     19  N   UNL A   1      32.650  21.713  25.479  1.00  0.00    -0.131 NA
ATOM     20  S   UNL A   1      32.365  20.316  23.358  1.00  0.00    -0.086 S 
ATOM     21  N   UNL A   1      33.111  20.454  25.799  1.00  0.00    -0.137 NA
ATOM     22  C   UNL A   1      33.022  19.615  24.787  1.00  0.00     0.148 A 
BRANCH  22  23
ATOM     23  C   UNL A   1      33.333  18.190  24.864  1.00  0.00     0.015 A 
ATOM     24  C   UNL A   1      34.420  17.624  24.195  1.00  0.00     0.031 A 
ATOM     25  C   UNL A   1      32.527  17.367  25.657  1.00  0.00     0.031 A 
ATOM     26  C   UNL A   1      34.643  16.265  24.341  1.00  0.00     0.111 A 
ATOM     27  C   UNL A   1      32.826  16.020  25.731  1.00  0.00     0.111 A 
ATOM     28  N   UNL A   1      33.866  15.450  25.087  1.00  0.00    -0.265 NA
ENDBRANCH  22  23
ENDBRANCH  17  18
ENDBRANCH  16  17
ENDBRANCH  14  16
ENDBRANCH   7  12
ENDBRANCH   3   6
ENDBRANCH   1   2
BRANCH   1  29
ATOM     29  C   UNL A   1      30.755  31.278  25.134  1.00  0.00     0.023 C 
BRANCH  29  30
ATOM     30  C   UNL A   1      30.900  31.907  26.513  1.00  0.00     0.023 C 
BRANCH  30  31
ATOM     31  C   UNL A   1      32.269  32.491  26.841  1.00  0.00     0.116 C 
BRANCH  31  32
ATOM     32  N   UNL A   1      32.218  33.829  27.415  1.00  0.00    -0.352 N 
ATOM     33  C   UNL A   1      33.061  34.435  28.319  1.00  0.00     0.251 C 
ATOM     34  H   UNL A   1      31.466  34.385  27.109  1.00  0.00     0.163 HD
ATOM     35  O   UNL A   1      32.804  35.551  28.751  1.00  0.00    -0.269 OA
BRANCH  33  36
ATOM     36  C   UNL A   1      34.259  33.717  28.808  1.00  0.00     0.039 A 
ATOM     37  C   UNL A   1      35.510  34.332  28.688  1.00  0.00     0.014 A 
ATOM     38  C   UNL A   1      34.154  32.460  29.408  1.00  0.00     0.014 A 
ATOM     39  C   UNL A   1      36.634  33.734  29.260  1.00  0.00     0.010 A 
ATOM     40  C   UNL A   1      35.257  31.906  30.050  1.00  0.00     0.010 A 
ATOM     41  C   UNL A   1      36.508  32.542  29.992  1.00  0.00    -0.014 A 
BRANCH  41  42
ATOM     42  C   UNL A   1      37.660  31.952  30.721  1.00  0.00     0.031 A 
ATOM     43  C   UNL A   1      38.488  30.875  30.080  1.00  0.00     0.074 A 
ATOM     44  C   UNL A   1      37.906  32.324  31.992  1.00  0.00     0.049 A 
ATOM     45  N   UNL A   1      39.471  30.171  30.587  1.00  0.00    -0.248 NA
ATOM     46  C   UNL A   1      38.147  30.518  28.694  1.00  0.00     0.031 C 
ATOM     47  C   UNL A   1      37.142  33.318  32.747  1.00  0.00     0.029 A 
ATOM     48  N   UNL A   1      38.862  31.897  32.881  1.00  0.00    -0.354 N 
ATOM     49  C   UNL A   1      39.847  29.279  29.593  1.00  0.00     0.074 A 
ATOM     50  C   UNL A   1      38.956  29.493  28.472  1.00  0.00     0.031 C 
ATOM     51  C   UNL A   1      37.673  33.443  33.974  1.00  0.00     0.029 A 
ATOM     52  C   UNL A   1      38.788  32.511  34.107  1.00  0.00     0.049 A 
ATOM     53  H   UNL A   1      39.537  31.216  32.660  1.00  0.00     0.167 HD
ATOM     54  C   UNL A   1      40.860  28.380  29.603  1.00  0.00     0.037 A 
ATOM     55  C   UNL A   1      39.532  32.338  35.216  1.00  0.00     0.037 A 
ATOM     56  C   UNL A   1      41.764  28.189  30.707  1.00  0.00     0.049 A 
ATOM     57  C   UNL A   1      40.654  31.336  35.202  1.00  0.00     0.074 A 
ATOM     58  C   UNL A   1      42.862  27.351  30.789  1.00  0.00     0.029 A 
ATOM     59  N   UNL A   1      41.672  28.848  31.924  1.00  0.00    -0.354 N 
ATOM     60  N   UNL A   1      41.045  30.547  34.231  1.00  0.00    -0.248 NA
ATOM     61  C   UNL A   1      41.440  31.205  36.436  1.00  0.00     0.031 C 
ATOM     62  C   UNL A   1      43.412  27.474  32.069  1.00  0.00     0.029 A 
ATOM     63  C   UNL A   1      42.683  28.422  32.770  1.00  0.00     0.049 A 
ATOM     64  H   UNL A   1      40.990  29.520  32.153  1.00  0.00     0.167 HD
ATOM     65  C   UNL A   1      42.137  29.847  34.726  1.00  0.00     0.074 A 
ATOM     66  C   UNL A   1      42.354  30.313  36.079  1.00  0.00     0.031 C 
ATOM     67  C   UNL A   1      42.891  28.902  34.113  1.00  0.00     0.037 A 
BRANCH  54  68
ATOM     68  C   UNL A   1      41.044  27.535  28.376  1.00  0.00     0.064 A 
ATOM     69  C   UNL A   1      40.338  26.334  28.199  1.00  0.00     0.173 A 
ATOM     70  C   UNL A   1      41.918  27.938  27.357  1.00  0.00     0.173 A 
ATOM     71  F   UNL A   1      39.499  25.898  29.151  1.00  0.00    -0.203 F 
ATOM     72  C   UNL A   1      40.529  25.552  27.064  1.00  0.00     0.198 A 
ATOM     73  C   UNL A   1      42.084  27.167  26.208  1.00  0.00     0.198 A 
ATOM     74  F   UNL A   1      42.613  29.080  27.472  1.00  0.00    -0.203 F 
ATOM     75  F   UNL A   1      39.886  24.382  26.943  1.00  0.00    -0.200 F 
ATOM     76  C   UNL A   1      41.396  25.971  26.066  1.00  0.00     0.200 A 
ATOM     77  F   UNL A   1      42.912  27.581  25.239  1.00  0.00    -0.200 F 
ATOM     78  F   UNL A   1      41.576  25.219  24.973  1.00  0.00    -0.200 F 
ENDBRANCH  54  68
BRANCH  55  79
ATOM     79  C   UNL A   1      39.262  33.159  36.425  1.00  0.00     0.064 A 
ATOM     80  C   UNL A   1      39.854  34.420  36.581  1.00  0.00     0.173 A 
ATOM     81  C   UNL A   1      38.409  32.708  37.442  1.00  0.00     0.173 A 
ATOM     82  F   UNL A   1      40.694  34.885  35.643  1.00  0.00    -0.203 F 
ATOM     83  C   UNL A   1      39.616  35.192  37.715  1.00  0.00     0.198 A 
ATOM     84  C   UNL A   1      38.151  33.492  38.564  1.00  0.00     0.198 A 
ATOM     85  F   UNL A   1      37.814  31.510  37.338  1.00  0.00    -0.203 F 
ATOM     86  F   UNL A   1      40.226  36.377  37.857  1.00  0.00    -0.200 F 
ATOM     87  C   UNL A   1      38.760  34.730  38.703  1.00  0.00     0.200 A 
ATOM     88  F   UNL A   1      37.314  33.048  39.512  1.00  0.00    -0.200 F 
ATOM     89  F   UNL A   1      38.527  35.475  39.792  1.00  0.00    -0.200 F 
ENDBRANCH  55  79
BRANCH  67  90
ATOM     90  C   UNL A   1      44.044  28.333  34.886  1.00  0.00     0.064 A 
ATOM     91  C   UNL A   1      45.317  28.918  34.844  1.00  0.00     0.173 A 
ATOM     92  C   UNL A   1      43.860  27.214  35.713  1.00  0.00     0.173 A 
ATOM     93  F   UNL A   1      45.547  29.979  34.056  1.00  0.00    -0.203 F 
ATOM     94  C   UNL A   1      46.372  28.389  35.584  1.00  0.00     0.198 A 
ATOM     95  C   UNL A   1      44.909  26.706  36.473  1.00  0.00     0.198 A 
ATOM     96  F   UNL A   1      42.659  26.622  35.792  1.00  0.00    -0.203 F 
ATOM     97  F   UNL A   1      47.591  28.937  35.495  1.00  0.00    -0.200 F 
ATOM     98  C   UNL A   1      46.164  27.289  36.404  1.00  0.00     0.200 A 
ATOM     99  F   UNL A   1      44.704  25.649  37.273  1.00  0.00    -0.200 F 
ATOM    100  F   UNL A   1      47.179  26.787  37.121  1.00  0.00    -0.200 F 
ENDBRANCH  67  90
ENDBRANCH  41  42
ENDBRANCH  33  36
ENDBRANCH  31  32
ENDBRANCH  30  31
ENDBRANCH  29  30
ENDBRANCH   1  29
TORSDOF 16
ENDMDL
MODEL 2
REMARK VINA RESULT:     -12.8      0.577      7.110
REMARK SMILES O=C(CSc1nnc(-c2ccncc2)s1)Nc1cccc(C(=O)NCCCCNC(=O)c2ccc(-c3c4nc(c(-c5c(F)c(F)c(F)c(F)c5F)c5ccc([nH]5)c(-c5c(F)c(F)c(F)c(F)c5F)c5nc(c(-c6c(F)c(F)c(F)c(F)c6F)c6ccc3[nH]6)C=C5)C=C4)cc2)c1
REMARK SMILES IDX 25 1 24 2 22 3 23 4 21 6 17 7 18 8 95 9 19 10 20 11 16 12
REMARK SMILES IDX 1 13 2 14 3 16 4 17 5 18 6 19 15 20 7 21 8 22 9 23 10 24
REMARK SMILES IDX 14 25 11 26 13 27 12 28 26 29 27 30 28 31 29 32 30 33 31 35
REMARK SMILES IDX 32 36 33 37 94 38 34 39 93 40 35 41 36 42 37 43 87 44 38 45
REMARK SMILES IDX 92 46 86 47 88 48 39 49 91 50 85 51 84 52 40 54 72 55 52 56
REMARK SMILES IDX 71 57 53 58 56 59 70 60 89 61 54 62 55 63 69 65 90 66 57 67
REMARK SMILES IDX 41 68 42 69 50 70 43 71 44 72 48 73 51 74 45 75 46 76 49 77
REMARK SMILES IDX 47 78 73 79 74 80 82 81 75 82 76 83 80 84 83 85 77 86 78 87
REMARK SMILES IDX 81 88 79 89 58 90 59 91 67 92 60 93 61 94 65 95 68 96 62 97
REMARK SMILES IDX 63 98 66 99 64 100
REMARK H PARENT 24 5 16 15 29 34 88 53 56 64
REMARK Flexibility Score: inf
ROOT
ATOM      1  C   UNL A   1      29.496  31.710  24.311  1.00  0.00     0.116 C 
ENDROOT
BRANCH   1   2
ATOM      2  N   UNL A   1      29.570  31.381  22.893  1.00  0.00    -0.352 N 
ATOM      3  C   UNL A   1      29.207  30.223  22.233  1.00  0.00     0.251 C 
ATOM      4  O   UNL A   1      29.384  30.138  21.020  1.00  0.00    -0.269 OA
ATOM      5  H   UNL A   1      29.935  32.091  22.318  1.00  0.00     0.163 HD
BRANCH   3   6
ATOM      6  C   UNL A   1      28.673  29.056  22.980  1.00  0.00     0.041 A 
ATOM      7  C   UNL A   1      29.027  26.838  23.880  1.00  0.00     0.041 A 
ATOM      8  C   UNL A   1      27.642  26.679  23.997  1.00  0.00     0.026 A 
ATOM      9  C   UNL A   1      29.527  28.076  23.487  1.00  0.00     0.040 A 
ATOM     10  C   UNL A   1      26.777  27.722  23.646  1.00  0.00     0.003 A 
ATOM     11  C   UNL A   1      27.291  28.901  23.105  1.00  0.00     0.014 A 
BRANCH   7  12
ATOM     12  N   UNL A   1      29.845  25.696  24.025  1.00  0.00    -0.325 N 
ATOM     13  O   UNL A   1      30.255  25.683  26.319  1.00  0.00    -0.274 OA
ATOM     14  C   UNL A   1      30.480  25.271  25.181  1.00  0.00     0.234 C 
ATOM     15  H   UNL A   1      29.979  25.144  23.220  1.00  0.00     0.169 HD
BRANCH  14  16
ATOM     16  C   UNL A   1      31.651  24.326  24.966  1.00  0.00     0.177 C 
BRANCH  16  17
ATOM     17  S   UNL A   1      31.486  23.225  23.549  1.00  0.00    -0.084 SA
BRANCH  17  18
ATOM     18  C   UNL A   1      32.163  21.753  24.191  1.00  0.00     0.175 A 
ATOM     19  N   UNL A   1      32.542  21.701  25.447  1.00  0.00    -0.131 NA
ATOM     20  S   UNL A   1      32.371  20.298  23.318  1.00  0.00    -0.086 S 
ATOM     21  N   UNL A   1      32.987  20.443  25.795  1.00  0.00    -0.137 NA
ATOM     22  C   UNL A   1      32.952  19.601  24.781  1.00  0.00     0.148 A 
BRANCH  22  23
ATOM     23  C   UNL A   1      33.260  18.177  24.879  1.00  0.00     0.015 A 
ATOM     24  C   UNL A   1      32.528  17.307  25.689  1.00  0.00     0.031 A 
ATOM     25  C   UNL A   1      34.311  17.661  24.115  1.00  0.00     0.031 A 
ATOM     26  C   UNL A   1      32.885  15.969  25.705  1.00  0.00     0.111 A 
ATOM     27  C   UNL A   1      34.598  16.312  24.207  1.00  0.00     0.111 A 
ATOM     28  N   UNL A   1      33.909  15.455  24.989  1.00  0.00    -0.265 NA
ENDBRANCH  22  23
ENDBRANCH  17  18
ENDBRANCH  16  17
ENDBRANCH  14  16
ENDBRANCH   7  12
ENDBRANCH   3   6
ENDBRANCH   1   2
BRANCH   1  29
ATOM     29  C   UNL A   1      30.697  31.257  25.129  1.00  0.00     0.023 C 
BRANCH  29  30
ATOM     30  C   UNL A   1      30.916  31.971  26.456  1.00  0.00     0.023 C 
BRANCH  30  31
ATOM     31  C   UNL A   1      32.328  32.483  26.714  1.00  0.00     0.116 C 
BRANCH  31  32
ATOM     32  N   UNL A   1      32.374  33.796  27.343  1.00  0.00    -0.352 N 
ATOM     33  C   UNL A   1      33.268  34.306  28.258  1.00  0.00     0.251 C 
ATOM     34  H   UNL A   1      31.657  34.413  27.072  1.00  0.00     0.163 HD
ATOM     35  O   UNL A   1      33.091  35.418  28.739  1.00  0.00    -0.269 OA
BRANCH  33  36
ATOM     36  C   UNL A   1      34.422  33.491  28.697  1.00  0.00     0.039 A 
ATOM     37  C   UNL A   1      35.702  34.053  28.649  1.00  0.00     0.014 A 
ATOM     38  C   UNL A   1      34.247  32.193  29.183  1.00  0.00     0.014 A 
ATOM     39  C   UNL A   1      36.787  33.353  29.181  1.00  0.00     0.010 A 
ATOM     40  C   UNL A   1      35.311  31.532  29.787  1.00  0.00     0.010 A 
ATOM     41  C   UNL A   1      36.591  32.110  29.803  1.00  0.00    -0.014 A 
BRANCH  41  42
ATOM     42  C   UNL A   1      37.702  31.402  30.492  1.00  0.00     0.031 A 
ATOM     43  C   UNL A   1      38.067  31.763  31.904  1.00  0.00     0.074 A 
ATOM     44  C   UNL A   1      38.436  30.497  29.817  1.00  0.00     0.049 A 
ATOM     45  N   UNL A   1      39.061  31.329  32.640  1.00  0.00    -0.248 NA
ATOM     46  C   UNL A   1      37.223  32.769  32.567  1.00  0.00     0.031 C 
ATOM     47  C   UNL A   1      38.220  30.099  28.425  1.00  0.00     0.029 A 
ATOM     48  N   UNL A   1      39.526  29.758  30.206  1.00  0.00    -0.354 N 
ATOM     49  C   UNL A   1      38.971  32.023  33.839  1.00  0.00     0.074 A 
ATOM     50  C   UNL A   1      37.860  32.942  33.714  1.00  0.00     0.031 C 
ATOM     51  C   UNL A   1      39.130  29.172  28.085  1.00  0.00     0.029 A 
ATOM     52  C   UNL A   1      40.017  28.938  29.220  1.00  0.00     0.049 A 
ATOM     53  H   UNL A   1      39.918  29.810  31.108  1.00  0.00     0.167 HD
ATOM     54  C   UNL A   1      39.731  31.888  34.953  1.00  0.00     0.037 A 
ATOM     55  C   UNL A   1      41.069  28.097  29.228  1.00  0.00     0.037 A 
ATOM     56  C   UNL A   1      40.816  30.952  35.086  1.00  0.00     0.049 A 
ATOM     57  C   UNL A   1      41.896  27.963  30.477  1.00  0.00     0.074 A 
ATOM     58  C   UNL A   1      41.602  30.693  36.194  1.00  0.00     0.029 A 
ATOM     59  N   UNL A   1      41.268  30.120  34.072  1.00  0.00    -0.354 N 
ATOM     60  N   UNL A   1      41.758  28.573  31.629  1.00  0.00    -0.248 NA
ATOM     61  C   UNL A   1      43.020  27.017  30.429  1.00  0.00     0.031 C 
ATOM     62  C   UNL A   1      42.555  29.733  35.841  1.00  0.00     0.029 A 
ATOM     63  C   UNL A   1      42.335  29.361  34.524  1.00  0.00     0.049 A 
ATOM     64  H   UNL A   1      40.887  30.077  33.165  1.00  0.00     0.167 HD
ATOM     65  C   UNL A   1      42.758  28.068  32.449  1.00  0.00     0.074 A 
ATOM     66  C   UNL A   1      43.487  27.092  31.667  1.00  0.00     0.031 C 
ATOM     67  C   UNL A   1      43.046  28.386  33.735  1.00  0.00     0.037 A 
BRANCH  54  68
ATOM     68  C   UNL A   1      39.407  32.776  36.119  1.00  0.00     0.064 A 
ATOM     69  C   UNL A   1      38.470  32.396  37.093  1.00  0.00     0.173 A 
ATOM     70  C   UNL A   1      40.055  34.009  36.279  1.00  0.00     0.173 A 
ATOM     71  F   UNL A   1      37.814  31.231  36.980  1.00  0.00    -0.203 F 
ATOM     72  C   UNL A   1      38.167  33.235  38.161  1.00  0.00     0.198 A 
ATOM     73  C   UNL A   1      39.772  34.832  37.366  1.00  0.00     0.198 A 
ATOM     74  F   UNL A   1      40.964  34.418  35.381  1.00  0.00    -0.203 F 
ATOM     75  F   UNL A   1      37.228  32.875  39.048  1.00  0.00    -0.200 F 
ATOM     76  C   UNL A   1      38.822  34.449  38.302  1.00  0.00     0.200 A 
ATOM     77  F   UNL A   1      40.415  35.999  37.506  1.00  0.00    -0.200 F 
ATOM     78  F   UNL A   1      38.533  35.253  39.333  1.00  0.00    -0.200 F 
ENDBRANCH  54  68
BRANCH  55  79
ATOM     79  C   UNL A   1      41.382  27.290  28.019  1.00  0.00     0.064 A 
ATOM     80  C   UNL A   1      42.296  27.757  27.065  1.00  0.00     0.173 A 
ATOM     81  C   UNL A   1      40.782  26.043  27.795  1.00  0.00     0.173 A 
ATOM     82  F   UNL A   1      42.880  28.954  27.226  1.00  0.00    -0.203 F 
ATOM     83  C   UNL A   1      42.588  27.014  25.923  1.00  0.00     0.198 A 
ATOM     84  C   UNL A   1      41.094  25.289  26.666  1.00  0.00     0.198 A 
ATOM     85  F   UNL A   1      39.904  25.551  28.680  1.00  0.00    -0.203 F 
ATOM     86  F   UNL A   1      43.437  27.501  25.008  1.00  0.00    -0.200 F 
ATOM     87  C   UNL A   1      41.991  25.778  25.728  1.00  0.00     0.200 A 
ATOM     88  F   UNL A   1      40.525  24.089  26.486  1.00  0.00    -0.200 F 
ATOM     89  F   UNL A   1      42.275  25.060  24.633  1.00  0.00    -0.200 F 
ENDBRANCH  55  79
BRANCH  67  90
ATOM     90  C   UNL A   1      44.175  27.647  34.390  1.00  0.00     0.064 A 
ATOM     91  C   UNL A   1      43.975  26.414  35.025  1.00  0.00     0.173 A 
ATOM     92  C   UNL A   1      45.480  28.162  34.345  1.00  0.00     0.173 A 
ATOM     93  F   UNL A   1      42.744  25.888  35.108  1.00  0.00    -0.203 F 
ATOM     94  C   UNL A   1      45.038  25.731  35.611  1.00  0.00     0.198 A 
ATOM     95  C   UNL A   1      46.544  27.463  34.908  1.00  0.00     0.198 A 
ATOM     96  F   UNL A   1      45.723  29.337  33.746  1.00  0.00    -0.203 F 
ATOM     97  F   UNL A   1      44.818  24.574  36.250  1.00  0.00    -0.200 F 
ATOM     98  C   UNL A   1      46.322  26.253  35.545  1.00  0.00     0.200 A 
ATOM     99  F   UNL A   1      47.786  27.964  34.833  1.00  0.00    -0.200 F 
ATOM    100  F   UNL A   1      47.345  25.590  36.103  1.00  0.00    -0.200 F 
ENDBRANCH  67  90
ENDBRANCH  41  42
ENDBRANCH  33  36
ENDBRANCH  31  32
ENDBRANCH  30  31
ENDBRANCH  29  30
ENDBRANCH   1  29
TORSDOF 16
ENDMDL
MODEL 3
REMARK VINA RESULT:     -12.7      0.956      7.313
REMARK SMILES O=C(CSc1nnc(-c2ccncc2)s1)Nc1cccc(C(=O)NCCCCNC(=O)c2ccc(-c3c4nc(c(-c5c(F)c(F)c(F)c(F)c5F)c5ccc([nH]5)c(-c5c(F)c(F)c(F)c(F)c5F)c5nc(c(-c6c(F)c(F)c(F)c(F)c6F)c6ccc3[nH]6)C=C5)C=C4)cc2)c1
REMARK SMILES IDX 25 1 24 2 22 3 23 4 21 6 17 7 18 8 95 9 19 10 20 11 16 12
REMARK SMILES IDX 1 13 2 14 3 16 4 17 5 18 6 19 15 20 7 21 8 22 9 23 10 24
REMARK SMILES IDX 14 25 11 26 13 27 12 28 26 29 27 30 28 31 29 32 30 33 31 35
REMARK SMILES IDX 32 36 33 37 94 38 34 39 93 40 35 41 36 42 37 43 87 44 38 45
REMARK SMILES IDX 92 46 86 47 88 48 39 49 91 50 85 51 84 52 40 54 72 55 52 56
REMARK SMILES IDX 71 57 53 58 56 59 70 60 89 61 54 62 55 63 69 65 90 66 57 67
REMARK SMILES IDX 41 68 42 69 50 70 43 71 44 72 48 73 51 74 45 75 46 76 49 77
REMARK SMILES IDX 47 78 73 79 74 80 82 81 75 82 76 83 80 84 83 85 77 86 78 87
REMARK SMILES IDX 81 88 79 89 58 90 59 91 67 92 60 93 61 94 65 95 68 96 62 97
REMARK SMILES IDX 63 98 66 99 64 100
REMARK H PARENT 24 5 16 15 29 34 88 53 56 64
REMARK Flexibility Score: inf
ROOT
ATOM      1  C   UNL A   1      30.029  31.096  24.890  1.00  0.00     0.116 C 
ENDROOT
BRANCH   1   2
ATOM      2  N   UNL A   1      30.168  30.851  23.460  1.00  0.00    -0.352 N 
ATOM      3  C   UNL A   1      30.055  29.671  22.750  1.00  0.00     0.251 C 
ATOM      4  O   UNL A   1      30.244  29.677  21.536  1.00  0.00    -0.269 OA
ATOM      5  H   UNL A   1      30.373  31.646  22.918  1.00  0.00     0.163 HD
BRANCH   3   6
ATOM      6  C   UNL A   1      29.782  28.387  23.444  1.00  0.00     0.041 A 
ATOM      7  C   UNL A   1      30.625  26.323  24.383  1.00  0.00     0.041 A 
ATOM      8  C   UNL A   1      29.328  25.799  24.362  1.00  0.00     0.026 A 
ATOM      9  C   UNL A   1      30.814  27.657  24.037  1.00  0.00     0.040 A 
ATOM     10  C   UNL A   1      28.255  26.583  23.923  1.00  0.00     0.003 A 
ATOM     11  C   UNL A   1      28.486  27.868  23.432  1.00  0.00     0.014 A 
BRANCH   7  12
ATOM     12  N   UNL A   1      31.701  25.436  24.611  1.00  0.00    -0.325 N 
ATOM     13  O   UNL A   1      31.442  24.938  26.873  1.00  0.00    -0.274 OA
ATOM     14  C   UNL A   1      32.095  24.907  25.830  1.00  0.00     0.234 C 
ATOM     15  H   UNL A   1      32.225  25.165  23.823  1.00  0.00     0.169 HD
BRANCH  14  16
ATOM     16  C   UNL A   1      33.523  24.388  25.878  1.00  0.00     0.177 C 
BRANCH  16  17
ATOM     17  S   UNL A   1      34.166  23.792  24.303  1.00  0.00    -0.084 SA
BRANCH  17  18
ATOM     18  C   UNL A   1      33.718  22.109  24.378  1.00  0.00     0.175 A 
ATOM     19  N   UNL A   1      32.627  21.694  23.777  1.00  0.00    -0.131 NA
ATOM     20  S   UNL A   1      34.608  20.884  25.173  1.00  0.00    -0.086 S 
ATOM     21  N   UNL A   1      32.471  20.329  23.886  1.00  0.00    -0.137 NA
ATOM     22  C   UNL A   1      33.435  19.768  24.588  1.00  0.00     0.148 A 
BRANCH  22  23
ATOM     23  C   UNL A   1      33.590  18.328  24.777  1.00  0.00     0.015 A 
ATOM     24  C   UNL A   1      34.731  17.638  24.364  1.00  0.00     0.031 A 
ATOM     25  C   UNL A   1      32.568  17.619  25.416  1.00  0.00     0.031 A 
ATOM     26  C   UNL A   1      34.793  16.274  24.600  1.00  0.00     0.111 A 
ATOM     27  C   UNL A   1      32.720  16.258  25.597  1.00  0.00     0.111 A 
ATOM     28  N   UNL A   1      33.810  15.569  25.199  1.00  0.00    -0.265 NA
ENDBRANCH  22  23
ENDBRANCH  17  18
ENDBRANCH  16  17
ENDBRANCH  14  16
ENDBRANCH   7  12
ENDBRANCH   3   6
ENDBRANCH   1   2
BRANCH   1  29
ATOM     29  C   UNL A   1      31.342  31.094  25.663  1.00  0.00     0.023 C 
BRANCH  29  30
ATOM     30  C   UNL A   1      31.372  31.918  26.943  1.00  0.00     0.023 C 
BRANCH  30  31
ATOM     31  C   UNL A   1      32.630  32.744  27.177  1.00  0.00     0.116 C 
BRANCH  31  32
ATOM     32  N   UNL A   1      32.368  34.126  27.555  1.00  0.00    -0.352 N 
ATOM     33  C   UNL A   1      32.990  34.919  28.493  1.00  0.00     0.251 C 
ATOM     34  H   UNL A   1      31.633  34.559  27.064  1.00  0.00     0.163 HD
ATOM     35  O   UNL A   1      32.568  36.043  28.729  1.00  0.00    -0.269 OA
BRANCH  33  36
ATOM     36  C   UNL A   1      34.146  34.394  29.253  1.00  0.00     0.039 A 
ATOM     37  C   UNL A   1      33.909  33.670  30.426  1.00  0.00     0.014 A 
ATOM     38  C   UNL A   1      35.454  34.585  28.802  1.00  0.00     0.014 A 
ATOM     39  C   UNL A   1      34.974  33.054  31.087  1.00  0.00     0.010 A 
ATOM     40  C   UNL A   1      36.502  33.902  29.412  1.00  0.00     0.010 A 
ATOM     41  C   UNL A   1      36.272  33.120  30.556  1.00  0.00    -0.014 A 
BRANCH  41  42
ATOM     42  C   UNL A   1      37.400  32.368  31.163  1.00  0.00     0.031 A 
ATOM     43  C   UNL A   1      37.911  32.742  32.526  1.00  0.00     0.074 A 
ATOM     44  C   UNL A   1      38.020  31.407  30.452  1.00  0.00     0.049 A 
ATOM     45  N   UNL A   1      38.942  32.270  33.183  1.00  0.00    -0.248 NA
ATOM     46  C   UNL A   1      37.186  33.809  33.232  1.00  0.00     0.031 C 
ATOM     47  C   UNL A   1      37.657  30.987  29.098  1.00  0.00     0.029 A 
ATOM     48  N   UNL A   1      39.099  30.617  30.764  1.00  0.00    -0.354 N 
ATOM     49  C   UNL A   1      38.999  32.997  34.364  1.00  0.00     0.074 A 
ATOM     50  C   UNL A   1      37.933  33.974  34.313  1.00  0.00     0.031 C 
ATOM     51  C   UNL A   1      38.481  30.002  28.705  1.00  0.00     0.029 A 
ATOM     52  C   UNL A   1      39.454  29.747  29.762  1.00  0.00     0.049 A 
ATOM     53  H   UNL A   1      39.573  30.668  31.625  1.00  0.00     0.167 HD
ATOM     54  C   UNL A   1      39.848  32.846  35.409  1.00  0.00     0.037 A 
ATOM     55  C   UNL A   1      40.455  28.848  29.701  1.00  0.00     0.037 A 
ATOM     56  C   UNL A   1      40.889  31.854  35.472  1.00  0.00     0.049 A 
ATOM     57  C   UNL A   1      41.383  28.697  30.875  1.00  0.00     0.074 A 
ATOM     58  C   UNL A   1      41.757  31.578  36.513  1.00  0.00     0.029 A 
ATOM     59  N   UNL A   1      41.202  30.974  34.447  1.00  0.00    -0.354 N 
ATOM     60  N   UNL A   1      41.384  29.342  32.016  1.00  0.00    -0.248 NA
ATOM     61  C   UNL A   1      42.445  27.689  30.754  1.00  0.00     0.031 C 
ATOM     62  C   UNL A   1      42.621  30.557  36.104  1.00  0.00     0.029 A 
ATOM     63  C   UNL A   1      42.262  30.166  34.824  1.00  0.00     0.049 A 
ATOM     64  H   UNL A   1      40.738  30.929  33.579  1.00  0.00     0.167 HD
ATOM     65  C   UNL A   1      42.425  28.801  32.758  1.00  0.00     0.074 A 
ATOM     66  C   UNL A   1      43.026  27.767  31.943  1.00  0.00     0.031 C 
ATOM     67  C   UNL A   1      42.844  29.134  34.004  1.00  0.00     0.037 A 
BRANCH  54  68
ATOM     68  C   UNL A   1      39.681  33.779  36.574  1.00  0.00     0.064 A 
ATOM     69  C   UNL A   1      40.324  35.027  36.612  1.00  0.00     0.173 A 
ATOM     70  C   UNL A   1      38.854  33.434  37.651  1.00  0.00     0.173 A 
ATOM     71  F   UNL A   1      41.136  35.399  35.611  1.00  0.00    -0.203 F 
ATOM     72  C   UNL A   1      40.173  35.876  37.705  1.00  0.00     0.198 A 
ATOM     73  C   UNL A   1      38.681  34.300  38.728  1.00  0.00     0.198 A 
ATOM     74  F   UNL A   1      38.211  32.257  37.662  1.00  0.00    -0.203 F 
ATOM     75  F   UNL A   1      40.841  37.038  37.745  1.00  0.00    -0.200 F 
ATOM     76  C   UNL A   1      39.347  35.516  38.759  1.00  0.00     0.200 A 
ATOM     77  F   UNL A   1      37.873  33.955  39.740  1.00  0.00    -0.200 F 
ATOM     78  F   UNL A   1      39.200  36.336  39.808  1.00  0.00    -0.200 F 
ENDBRANCH  54  68
BRANCH  55  79
ATOM     79  C   UNL A   1      40.612  27.996  28.494  1.00  0.00     0.064 A 
ATOM     80  C   UNL A   1      40.003  26.735  28.425  1.00  0.00     0.173 A 
ATOM     81  C   UNL A   1      41.364  28.419  27.389  1.00  0.00     0.173 A 
ATOM     82  F   UNL A   1      39.290  26.278  29.466  1.00  0.00    -0.203 F 
ATOM     83  C   UNL A   1      40.152  25.923  27.302  1.00  0.00     0.198 A 
ATOM     84  C   UNL A   1      41.492  27.618  26.257  1.00  0.00     0.198 A 
ATOM     85  F   UNL A   1      41.963  29.619  27.405  1.00  0.00    -0.203 F 
ATOM     86  F   UNL A   1      39.591  24.707  27.278  1.00  0.00    -0.200 F 
ATOM     87  C   UNL A   1      40.892  26.368  26.218  1.00  0.00     0.200 A 
ATOM     88  F   UNL A   1      42.198  28.055  25.205  1.00  0.00    -0.200 F 
ATOM     89  F   UNL A   1      41.032  25.589  25.136  1.00  0.00    -0.200 F 
ENDBRANCH  55  79
BRANCH  67  90
ATOM     90  C   UNL A   1      43.987  28.348  34.577  1.00  0.00     0.064 A 
ATOM     91  C   UNL A   1      43.777  27.156  35.284  1.00  0.00     0.173 A 
ATOM     92  C   UNL A   1      45.310  28.773  34.379  1.00  0.00     0.173 A 
ATOM     93  F   UNL A   1      42.530  26.717  35.513  1.00  0.00    -0.203 F 
ATOM     94  C   UNL A   1      44.850  26.428  35.793  1.00  0.00     0.198 A 
ATOM     95  C   UNL A   1      46.380  28.028  34.864  1.00  0.00     0.198 A 
ATOM     96  F   UNL A   1      45.563  29.905  33.705  1.00  0.00    -0.203 F 
ATOM     97  F   UNL A   1      44.625  25.314  36.502  1.00  0.00    -0.200 F 
ATOM     98  C   UNL A   1      46.150  26.861  35.576  1.00  0.00     0.200 A 
ATOM     99  F   UNL A   1      47.636  28.442  34.644  1.00  0.00    -0.200 F 
ATOM    100  F   UNL A   1      47.181  26.154  36.059  1.00  0.00    -0.200 F 
ENDBRANCH  67  90
ENDBRANCH  41  42
ENDBRANCH  33  36
ENDBRANCH  31  32
ENDBRANCH  30  31
ENDBRANCH  29  30
ENDBRANCH   1  29
TORSDOF 16
ENDMDL
