MODEL 1
REMARK VINA RESULT:     -12.0      0.000      0.000
REMARK SMILES O=C(C[N@@H+](Cc1nnc(-c2cccs2)o1)CC(F)(F)F)NCCCCNC(=O)c1ccc(-c2c3nc(c(-c4c(F)c(F)c(F)c(F)c4F)c4ccc([nH]4)c(-c4c(F)c(F)c(F)c(F)c4F)c4nc(c(-c5c(F)c(F)c(F)c(F)c5F)c5ccc2[nH]5)C=C4)C=C3)cc1
REMARK SMILES IDX 22 1 21 2 1 3 2 4 3 6 4 7 5 9 6 10 7 11 15 12 8 13 9 14
REMARK SMILES IDX 10 15 11 16 14 17 12 18 13 19 16 20 17 21 18 22 19 23 20 24
REMARK SMILES IDX 23 25 24 26 25 27 26 28 27 29 28 31 29 32 30 33 91 34 31 35
REMARK SMILES IDX 90 36 32 37 33 38 34 39 84 40 35 41 89 42 83 43 85 44 36 45
REMARK SMILES IDX 88 46 82 47 81 48 37 50 69 51 49 52 68 53 50 54 53 55 67 56
REMARK SMILES IDX 86 57 51 58 52 59 66 61 87 62 54 63 38 64 39 65 47 66 40 67
REMARK SMILES IDX 41 68 45 69 48 70 42 71 43 72 46 73 44 74 70 75 71 76 79 77
REMARK SMILES IDX 72 78 73 79 77 80 80 81 74 82 75 83 78 84 76 85 55 86 56 87
REMARK SMILES IDX 64 88 57 89 58 90 62 91 65 92 59 93 60 94 63 95 61 96
REMARK H PARENT 21 5 4 8 26 30 85 49 53 60
REMARK Flexibility Score: inf
ROOT
ATOM      1  C   UNL A   1      33.060  30.097  26.131  1.00  0.00     0.116 C 
ENDROOT
BRANCH   1   2
ATOM      2  N   UNL A   1      33.192  29.689  24.746  1.00  0.00    -0.351 N 
ATOM      3  O   UNL A   1      32.840  27.466  25.171  1.00  0.00    -0.269 OA
ATOM      4  C   UNL A   1      33.081  28.368  24.373  1.00  0.00     0.275 C 
ATOM      5  H   UNL A   1      33.365  30.372  24.057  1.00  0.00     0.163 HD
BRANCH   4   6
ATOM      6  C   UNL A   1      33.284  28.093  22.882  1.00  0.00     0.364 C 
BRANCH   6   7
ATOM      7  N   UNL A   1      32.010  28.037  22.119  1.00  0.00    -0.312 N 
ATOM      8  H   UNL A   1      32.259  28.127  21.134  1.00  0.00     0.349 HD
BRANCH   7   9
ATOM      9  C   UNL A   1      31.336  26.718  22.288  1.00  0.00     0.363 C 
BRANCH   9  10
ATOM     10  C   UNL A   1      32.173  25.485  22.139  1.00  0.00     0.271 A 
ATOM     11  N   UNL A   1      32.929  25.105  21.134  1.00  0.00    -0.106 NA
ATOM     12  O   UNL A   1      32.208  24.604  23.189  1.00  0.00    -0.414 OA
ATOM     13  N   UNL A   1      33.578  23.964  21.544  1.00  0.00    -0.107 NA
ATOM     14  C   UNL A   1      33.147  23.691  22.760  1.00  0.00     0.258 A 
BRANCH  14  15
ATOM     15  C   UNL A   1      33.587  22.571  23.531  1.00  0.00     0.091 A 
ATOM     16  C   UNL A   1      32.868  21.432  23.832  1.00  0.00     0.025 A 
ATOM     17  S   UNL A   1      35.164  22.519  24.190  1.00  0.00    -0.139 S 
ATOM     18  C   UNL A   1      33.632  20.500  24.597  1.00  0.00     0.012 A 
ATOM     19  C   UNL A   1      34.896  20.973  24.873  1.00  0.00     0.065 A 
ENDBRANCH  14  15
ENDBRANCH   9  10
ENDBRANCH   7   9
BRANCH   7  20
ATOM     20  C   UNL A   1      31.102  29.193  22.383  1.00  0.00     0.380 C 
BRANCH  20  21
ATOM     21  C   UNL A   1      29.812  29.093  23.231  1.00  0.00     0.438 C 
ATOM     22  F   UNL A   1      29.925  28.224  24.250  1.00  0.00    -0.165 F 
ATOM     23  F   UNL A   1      29.509  30.306  23.751  1.00  0.00    -0.165 F 
ATOM     24  F   UNL A   1      28.762  28.721  22.467  1.00  0.00    -0.165 F 
ENDBRANCH  20  21
ENDBRANCH   7  20
ENDBRANCH   6   7
ENDBRANCH   4   6
ENDBRANCH   1   2
BRANCH   1  25
ATOM     25  C   UNL A   1      31.647  30.568  26.462  1.00  0.00     0.023 C 
BRANCH  25  26
ATOM     26  C   UNL A   1      31.496  32.083  26.605  1.00  0.00     0.023 C 
BRANCH  26  27
ATOM     27  C   UNL A   1      32.676  32.794  27.258  1.00  0.00     0.116 C 
BRANCH  27  28
ATOM     28  N   UNL A   1      32.385  34.173  27.619  1.00  0.00    -0.352 N 
ATOM     29  C   UNL A   1      32.970  34.964  28.578  1.00  0.00     0.251 C 
ATOM     30  H   UNL A   1      31.664  34.600  27.103  1.00  0.00     0.163 HD
ATOM     31  O   UNL A   1      32.498  36.067  28.840  1.00  0.00    -0.269 OA
BRANCH  29  32
ATOM     32  C   UNL A   1      34.150  34.476  29.324  1.00  0.00     0.039 A 
ATOM     33  C   UNL A   1      33.956  33.863  30.565  1.00  0.00     0.014 A 
ATOM     34  C   UNL A   1      35.440  34.612  28.805  1.00  0.00     0.014 A 
ATOM     35  C   UNL A   1      35.047  33.323  31.250  1.00  0.00     0.010 A 
ATOM     36  C   UNL A   1      36.515  34.002  29.449  1.00  0.00     0.010 A 
ATOM     37  C   UNL A   1      36.330  33.350  30.678  1.00  0.00    -0.014 A 
BRANCH  37  38
ATOM     38  C   UNL A   1      37.484  32.693  31.346  1.00  0.00     0.031 A 
ATOM     39  C   UNL A   1      38.196  31.548  30.680  1.00  0.00     0.074 A 
ATOM     40  C   UNL A   1      37.852  33.085  32.582  1.00  0.00     0.049 A 
ATOM     41  N   UNL A   1      39.175  30.805  31.133  1.00  0.00    -0.248 NA
ATOM     42  C   UNL A   1      37.728  31.171  29.338  1.00  0.00     0.031 C 
ATOM     43  C   UNL A   1      37.213  34.151  33.354  1.00  0.00     0.029 A 
ATOM     44  N   UNL A   1      38.845  32.625  33.411  1.00  0.00    -0.354 N 
ATOM     45  C   UNL A   1      39.432  29.871  30.138  1.00  0.00     0.074 A 
ATOM     46  C   UNL A   1      38.468  30.101  29.084  1.00  0.00     0.031 C 
ATOM     47  C   UNL A   1      37.842  34.277  34.534  1.00  0.00     0.029 A 
ATOM     48  C   UNL A   1      38.899  33.274  34.619  1.00  0.00     0.049 A 
ATOM     49  H   UNL A   1      39.459  31.897  33.162  1.00  0.00     0.167 HD
ATOM     50  C   UNL A   1      40.403  28.926  30.094  1.00  0.00     0.037 A 
ATOM     51  C   UNL A   1      39.701  33.076  35.684  1.00  0.00     0.037 A 
ATOM     52  C   UNL A   1      41.369  28.708  31.138  1.00  0.00     0.049 A 
ATOM     53  C   UNL A   1      40.756  32.004  35.620  1.00  0.00     0.074 A 
ATOM     54  C   UNL A   1      42.421  27.808  31.167  1.00  0.00     0.029 A 
ATOM     55  N   UNL A   1      41.400  29.394  32.344  1.00  0.00    -0.354 N 
ATOM     56  N   UNL A   1      41.032  31.172  34.646  1.00  0.00    -0.248 NA
ATOM     57  C   UNL A   1      41.614  31.849  36.803  1.00  0.00     0.031 C 
ATOM     58  C   UNL A   1      43.051  27.911  32.412  1.00  0.00     0.029 A 
ATOM     59  C   UNL A   1      42.434  28.918  33.134  1.00  0.00     0.049 A 
ATOM     60  H   UNL A   1      40.778  30.114  32.601  1.00  0.00     0.167 HD
ATOM     61  C   UNL A   1      42.113  30.417  35.084  1.00  0.00     0.074 A 
ATOM     62  C   UNL A   1      42.451  30.901  36.406  1.00  0.00     0.031 C 
ATOM     63  C   UNL A   1      42.765  29.412  34.448  1.00  0.00     0.037 A 
BRANCH  50  64
ATOM     64  C   UNL A   1      40.465  28.052  28.872  1.00  0.00     0.064 A 
ATOM     65  C   UNL A   1      39.755  26.843  28.793  1.00  0.00     0.173 A 
ATOM     66  C   UNL A   1      41.217  28.443  27.753  1.00  0.00     0.173 A 
ATOM     67  F   UNL A   1      39.029  26.418  29.838  1.00  0.00    -0.203 F 
ATOM     68  C   UNL A   1      39.824  26.044  27.656  1.00  0.00     0.198 A 
ATOM     69  C   UNL A   1      41.255  27.657  26.604  1.00  0.00     0.198 A 
ATOM     70  F   UNL A   1      41.910  29.592  27.770  1.00  0.00    -0.203 F 
ATOM     71  F   UNL A   1      39.184  24.866  27.627  1.00  0.00    -0.200 F 
ATOM     72  C   UNL A   1      40.567  26.454  26.559  1.00  0.00     0.200 A 
ATOM     73  F   UNL A   1      41.960  28.063  25.540  1.00  0.00    -0.200 F 
ATOM     74  F   UNL A   1      40.627  25.686  25.463  1.00  0.00    -0.200 F 
ENDBRANCH  50  64
BRANCH  51  75
ATOM     75  C   UNL A   1      39.547  33.923  36.896  1.00  0.00     0.064 A 
ATOM     76  C   UNL A   1      38.786  33.487  37.991  1.00  0.00     0.173 A 
ATOM     77  C   UNL A   1      40.150  35.186  36.985  1.00  0.00     0.173 A 
ATOM     78  F   UNL A   1      38.172  32.296  37.946  1.00  0.00    -0.203 F 
ATOM     79  C   UNL A   1      38.614  34.291  39.116  1.00  0.00     0.198 A 
ATOM     80  C   UNL A   1      40.005  35.976  38.124  1.00  0.00     0.198 A 
ATOM     81  F   UNL A   1      40.893  35.649  35.969  1.00  0.00    -0.203 F 
ATOM     82  F   UNL A   1      37.839  33.871  40.125  1.00  0.00    -0.200 F 
ATOM     83  C   UNL A   1      39.230  35.532  39.184  1.00  0.00     0.200 A 
ATOM     84  F   UNL A   1      40.616  37.167  38.192  1.00  0.00    -0.200 F 
ATOM     85  F   UNL A   1      39.069  36.303  40.269  1.00  0.00    -0.200 F 
ENDBRANCH  51  75
BRANCH  63  86
ATOM     86  C   UNL A   1      43.938  28.794  35.154  1.00  0.00     0.064 A 
ATOM     87  C   UNL A   1      45.242  29.288  34.995  1.00  0.00     0.173 A 
ATOM     88  C   UNL A   1      43.750  27.715  36.031  1.00  0.00     0.173 A 
ATOM     89  F   UNL A   1      45.480  30.309  34.156  1.00  0.00    -0.203 F 
ATOM     90  C   UNL A   1      46.315  28.707  35.666  1.00  0.00     0.198 A 
ATOM     91  C   UNL A   1      44.820  27.159  36.728  1.00  0.00     0.198 A 
ATOM     92  F   UNL A   1      42.523  27.208  36.225  1.00  0.00    -0.203 F 
ATOM     93  F   UNL A   1      47.558  29.163  35.458  1.00  0.00    -0.200 F 
ATOM     94  C   UNL A   1      46.102  27.650  36.537  1.00  0.00     0.200 A 
ATOM     95  F   UNL A   1      44.609  26.149  37.582  1.00  0.00    -0.200 F 
ATOM     96  F   UNL A   1      47.135  27.099  37.190  1.00  0.00    -0.200 F 
ENDBRANCH  63  86
ENDBRANCH  37  38
ENDBRANCH  29  32
ENDBRANCH  27  28
ENDBRANCH  26  27
ENDBRANCH  25  26
ENDBRANCH   1  25
TORSDOF 17
ENDMDL
MODEL 2
REMARK VINA RESULT:     -11.8      2.213      8.040
REMARK SMILES O=C(C[N@@H+](Cc1nnc(-c2cccs2)o1)CC(F)(F)F)NCCCCNC(=O)c1ccc(-c2c3nc(c(-c4c(F)c(F)c(F)c(F)c4F)c4ccc([nH]4)c(-c4c(F)c(F)c(F)c(F)c4F)c4nc(c(-c5c(F)c(F)c(F)c(F)c5F)c5ccc2[nH]5)C=C4)C=C3)cc1
REMARK SMILES IDX 22 1 21 2 1 3 2 4 3 6 4 7 5 9 6 10 7 11 15 12 8 13 9 14
REMARK SMILES IDX 10 15 11 16 14 17 12 18 13 19 16 20 17 21 18 22 19 23 20 24
REMARK SMILES IDX 23 25 24 26 25 27 26 28 27 29 28 31 29 32 30 33 91 34 31 35
REMARK SMILES IDX 90 36 32 37 33 38 34 39 84 40 35 41 89 42 83 43 85 44 36 45
REMARK SMILES IDX 88 46 82 47 81 48 37 50 69 51 49 52 68 53 50 54 53 55 67 56
REMARK SMILES IDX 86 57 51 58 52 59 66 61 87 62 54 63 38 64 39 65 47 66 40 67
REMARK SMILES IDX 41 68 45 69 48 70 42 71 43 72 46 73 44 74 70 75 71 76 79 77
REMARK SMILES IDX 72 78 73 79 77 80 80 81 74 82 75 83 78 84 76 85 55 86 56 87
REMARK SMILES IDX 64 88 57 89 58 90 62 91 65 92 59 93 60 94 63 95 61 96
REMARK H PARENT 21 5 4 8 26 30 85 49 53 60
REMARK Flexibility Score: inf
ROOT
ATOM      1  C   UNL A   1      32.248  29.758  26.897  1.00  0.00     0.116 C 
ENDROOT
BRANCH   1   2
ATOM      2  N   UNL A   1      32.596  28.593  26.107  1.00  0.00    -0.351 N 
ATOM      3  O   UNL A   1      31.017  27.238  27.066  1.00  0.00    -0.269 OA
ATOM      4  C   UNL A   1      31.942  27.392  26.272  1.00  0.00     0.275 C 
ATOM      5  H   UNL A   1      33.316  28.662  25.438  1.00  0.00     0.163 HD
BRANCH   4   6
ATOM      6  C   UNL A   1      32.450  26.247  25.394  1.00  0.00     0.364 C 
BRANCH   6   7
ATOM      7  N   UNL A   1      31.357  25.430  24.809  1.00  0.00    -0.312 N 
ATOM      8  H   UNL A   1      30.537  25.578  25.399  1.00  0.00     0.349 HD
BRANCH   7   9
ATOM      9  C   UNL A   1      31.006  25.897  23.437  1.00  0.00     0.363 C 
BRANCH   9  10
ATOM     10  C   UNL A   1      29.870  26.862  23.301  1.00  0.00     0.271 A 
ATOM     11  N   UNL A   1      28.625  26.751  23.705  1.00  0.00    -0.106 NA
ATOM     12  O   UNL A   1      30.123  28.067  22.695  1.00  0.00    -0.414 OA
ATOM     13  N   UNL A   1      28.021  27.959  23.445  1.00  0.00    -0.107 NA
ATOM     14  C   UNL A   1      28.922  28.723  22.860  1.00  0.00     0.258 A 
BRANCH  14  15
ATOM     15  C   UNL A   1      28.675  30.063  22.429  1.00  0.00     0.091 A 
ATOM     16  C   UNL A   1      28.318  30.480  21.163  1.00  0.00     0.025 A 
ATOM     17  S   UNL A   1      28.790  31.374  23.521  1.00  0.00    -0.139 S 
ATOM     18  C   UNL A   1      28.120  31.892  21.098  1.00  0.00     0.012 A 
ATOM     19  C   UNL A   1      28.356  32.503  22.310  1.00  0.00     0.065 A 
ENDBRANCH  14  15
ENDBRANCH   9  10
ENDBRANCH   7   9
BRANCH   7  20
ATOM     20  C   UNL A   1      31.605  23.959  24.877  1.00  0.00     0.380 C 
BRANCH  20  21
ATOM     21  C   UNL A   1      31.341  23.102  26.137  1.00  0.00     0.438 C 
ATOM     22  F   UNL A   1      31.346  23.827  27.269  1.00  0.00    -0.165 F 
ATOM     23  F   UNL A   1      30.134  22.495  26.038  1.00  0.00    -0.165 F 
ATOM     24  F   UNL A   1      32.263  22.122  26.255  1.00  0.00    -0.165 F 
ENDBRANCH  20  21
ENDBRANCH   7  20
ENDBRANCH   6   7
ENDBRANCH   4   6
ENDBRANCH   1   2
BRANCH   1  25
ATOM     25  C   UNL A   1      31.541  30.827  26.068  1.00  0.00     0.023 C 
BRANCH  25  26
ATOM     26  C   UNL A   1      31.342  32.163  26.785  1.00  0.00     0.023 C 
BRANCH  26  27
ATOM     27  C   UNL A   1      32.625  32.876  27.196  1.00  0.00     0.116 C 
BRANCH  27  28
ATOM     28  N   UNL A   1      32.403  34.246  27.633  1.00  0.00    -0.352 N 
ATOM     29  C   UNL A   1      33.037  34.958  28.622  1.00  0.00     0.251 C 
ATOM     30  H   UNL A   1      31.696  34.732  27.151  1.00  0.00     0.163 HD
ATOM     31  O   UNL A   1      32.621  36.066  28.948  1.00  0.00    -0.269 OA
BRANCH  29  32
ATOM     32  C   UNL A   1      34.204  34.379  29.323  1.00  0.00     0.039 A 
ATOM     33  C   UNL A   1      33.985  33.587  30.452  1.00  0.00     0.014 A 
ATOM     34  C   UNL A   1      35.506  34.605  28.868  1.00  0.00     0.014 A 
ATOM     35  C   UNL A   1      35.065  32.963  31.082  1.00  0.00     0.010 A 
ATOM     36  C   UNL A   1      36.571  33.918  29.447  1.00  0.00     0.010 A 
ATOM     37  C   UNL A   1      36.363  33.089  30.559  1.00  0.00    -0.014 A 
BRANCH  37  38
ATOM     38  C   UNL A   1      37.508  32.353  31.157  1.00  0.00     0.031 A 
ATOM     39  C   UNL A   1      38.030  32.733  32.514  1.00  0.00     0.074 A 
ATOM     40  C   UNL A   1      38.121  31.384  30.448  1.00  0.00     0.049 A 
ATOM     41  N   UNL A   1      39.060  32.258  33.169  1.00  0.00    -0.248 NA
ATOM     42  C   UNL A   1      37.316  33.809  33.219  1.00  0.00     0.031 C 
ATOM     43  C   UNL A   1      37.741  30.953  29.102  1.00  0.00     0.029 A 
ATOM     44  N   UNL A   1      39.200  30.594  30.757  1.00  0.00    -0.354 N 
ATOM     45  C   UNL A   1      39.121  32.979  34.354  1.00  0.00     0.074 A 
ATOM     46  C   UNL A   1      38.064  33.966  34.302  1.00  0.00     0.031 C 
ATOM     47  C   UNL A   1      38.559  29.964  28.710  1.00  0.00     0.029 A 
ATOM     48  C   UNL A   1      39.547  29.720  29.756  1.00  0.00     0.049 A 
ATOM     49  H   UNL A   1      39.680  30.648  31.615  1.00  0.00     0.167 HD
ATOM     50  C   UNL A   1      39.964  32.816  35.403  1.00  0.00     0.037 A 
ATOM     51  C   UNL A   1      40.557  28.830  29.682  1.00  0.00     0.037 A 
ATOM     52  C   UNL A   1      41.007  31.825  35.458  1.00  0.00     0.049 A 
ATOM     53  C   UNL A   1      41.494  28.684  30.851  1.00  0.00     0.074 A 
ATOM     54  C   UNL A   1      41.881  31.549  36.494  1.00  0.00     0.029 A 
ATOM     55  N   UNL A   1      41.321  30.949  34.428  1.00  0.00    -0.354 N 
ATOM     56  N   UNL A   1      41.500  29.327  31.993  1.00  0.00    -0.248 NA
ATOM     57  C   UNL A   1      42.562  27.684  30.721  1.00  0.00     0.031 C 
ATOM     58  C   UNL A   1      42.760  30.546  36.071  1.00  0.00     0.029 A 
ATOM     59  C   UNL A   1      42.394  30.152  34.795  1.00  0.00     0.049 A 
ATOM     60  H   UNL A   1      40.851  30.901  33.564  1.00  0.00     0.167 HD
ATOM     61  C   UNL A   1      42.548  28.789  32.728  1.00  0.00     0.074 A 
ATOM     62  C   UNL A   1      43.146  27.757  31.908  1.00  0.00     0.031 C 
ATOM     63  C   UNL A   1      42.977  29.122  33.971  1.00  0.00     0.037 A 
BRANCH  50  64
ATOM     64  C   UNL A   1      39.792  33.735  36.580  1.00  0.00     0.064 A 
ATOM     65  C   UNL A   1      40.442  34.978  36.646  1.00  0.00     0.173 A 
ATOM     66  C   UNL A   1      38.942  33.385  37.640  1.00  0.00     0.173 A 
ATOM     67  F   UNL A   1      41.273  35.358  35.664  1.00  0.00    -0.203 F 
ATOM     68  C   UNL A   1      40.275  35.818  37.743  1.00  0.00     0.198 A 
ATOM     69  C   UNL A   1      38.751  34.243  38.721  1.00  0.00     0.198 A 
ATOM     70  F   UNL A   1      38.290  32.212  37.628  1.00  0.00    -0.203 F 
ATOM     71  F   UNL A   1      40.952  36.973  37.810  1.00  0.00    -0.200 F 
ATOM     72  C   UNL A   1      39.424  35.454  38.777  1.00  0.00     0.200 A 
ATOM     73  F   UNL A   1      37.916  33.897  39.709  1.00  0.00    -0.200 F 
ATOM     74  F   UNL A   1      39.260  36.267  39.829  1.00  0.00    -0.200 F 
ENDBRANCH  50  64
BRANCH  51  75
ATOM     75  C   UNL A   1      40.723  27.997  28.462  1.00  0.00     0.064 A 
ATOM     76  C   UNL A   1      40.125  26.732  28.363  1.00  0.00     0.173 A 
ATOM     77  C   UNL A   1      41.488  28.442  27.374  1.00  0.00     0.173 A 
ATOM     78  F   UNL A   1      39.402  26.252  29.385  1.00  0.00    -0.203 F 
ATOM     79  C   UNL A   1      40.305  25.936  27.232  1.00  0.00     0.198 A 
ATOM     80  C   UNL A   1      41.640  27.660  26.231  1.00  0.00     0.198 A 
ATOM     81  F   UNL A   1      42.077  29.647  27.414  1.00  0.00    -0.203 F 
ATOM     82  F   UNL A   1      39.764  24.711  27.187  1.00  0.00    -0.200 F 
ATOM     83  C   UNL A   1      41.056  26.404  26.165  1.00  0.00     0.200 A 
ATOM     84  F   UNL A   1      42.353  28.123  25.195  1.00  0.00    -0.200 F 
ATOM     85  F   UNL A   1      41.224  25.640  25.076  1.00  0.00    -0.200 F 
ENDBRANCH  51  75
BRANCH  63  86
ATOM     86  C   UNL A   1      44.124  28.336  34.541  1.00  0.00     0.064 A 
ATOM     87  C   UNL A   1      45.452  28.774  34.422  1.00  0.00     0.173 A 
ATOM     88  C   UNL A   1      43.887  27.149  35.249  1.00  0.00     0.173 A 
ATOM     89  F   UNL A   1      45.735  29.895  33.741  1.00  0.00    -0.203 F 
ATOM     90  C   UNL A   1      46.501  28.036  34.965  1.00  0.00     0.198 A 
ATOM     91  C   UNL A   1      44.934  26.432  35.822  1.00  0.00     0.198 A 
ATOM     92  F   UNL A   1      42.636  26.689  35.399  1.00  0.00    -0.203 F 
ATOM     93  F   UNL A   1      47.765  28.446  34.794  1.00  0.00    -0.200 F 
ATOM     94  C   UNL A   1      46.241  26.872  35.672  1.00  0.00     0.200 A 
ATOM     95  F   UNL A   1      44.679  25.317  36.519  1.00  0.00    -0.200 F 
ATOM     96  F   UNL A   1      47.250  26.168  36.203  1.00  0.00    -0.200 F 
ENDBRANCH  63  86
ENDBRANCH  37  38
ENDBRANCH  29  32
ENDBRANCH  27  28
ENDBRANCH  26  27
ENDBRANCH  25  26
ENDBRANCH   1  25
TORSDOF 17
ENDMDL
MODEL 3
REMARK VINA RESULT:     -11.7      2.118      4.043
REMARK SMILES O=C(C[N@@H+](Cc1nnc(-c2cccs2)o1)CC(F)(F)F)NCCCCNC(=O)c1ccc(-c2c3nc(c(-c4c(F)c(F)c(F)c(F)c4F)c4ccc([nH]4)c(-c4c(F)c(F)c(F)c(F)c4F)c4nc(c(-c5c(F)c(F)c(F)c(F)c5F)c5ccc2[nH]5)C=C4)C=C3)cc1
REMARK SMILES IDX 22 1 21 2 1 3 2 4 3 6 4 7 5 9 6 10 7 11 15 12 8 13 9 14
REMARK SMILES IDX 10 15 11 16 14 17 12 18 13 19 16 20 17 21 18 22 19 23 20 24
REMARK SMILES IDX 23 25 24 26 25 27 26 28 27 29 28 31 29 32 30 33 91 34 31 35
REMARK SMILES IDX 90 36 32 37 33 38 34 39 84 40 35 41 89 42 83 43 85 44 36 45
REMARK SMILES IDX 88 46 82 47 81 48 37 50 69 51 49 52 68 53 50 54 53 55 67 56
REMARK SMILES IDX 86 57 51 58 52 59 66 61 87 62 54 63 38 64 39 65 47 66 40 67
REMARK SMILES IDX 41 68 45 69 48 70 42 71 43 72 46 73 44 74 70 75 71 76 79 77
REMARK SMILES IDX 72 78 73 79 77 80 80 81 74 82 75 83 78 84 76 85 55 86 56 87
REMARK SMILES IDX 64 88 57 89 58 90 62 91 65 92 59 93 60 94 63 95 61 96
REMARK H PARENT 21 5 4 8 26 30 85 49 53 60
REMARK Flexibility Score: inf
ROOT
ATOM      1  C   UNL A   1      32.833  30.194  26.203  1.00  0.00     0.116 C 
ENDROOT
BRANCH   1   2
ATOM      2  N   UNL A   1      33.242  29.485  25.006  1.00  0.00    -0.351 N 
ATOM      3  O   UNL A   1      32.432  27.458  25.701  1.00  0.00    -0.269 OA
ATOM      4  C   UNL A   1      33.013  28.135  24.856  1.00  0.00     0.275 C 
ATOM      5  H   UNL A   1      33.694  29.980  24.283  1.00  0.00     0.163 HD
BRANCH   4   6
ATOM      6  C   UNL A   1      33.537  27.525  23.555  1.00  0.00     0.364 C 
BRANCH   6   7
ATOM      7  N   UNL A   1      32.815  26.290  23.156  1.00  0.00    -0.312 N 
ATOM      8  H   UNL A   1      32.308  25.972  23.983  1.00  0.00     0.349 HD
BRANCH   7   9
ATOM      9  C   UNL A   1      31.804  26.572  22.097  1.00  0.00     0.363 C 
BRANCH   9  10
ATOM     10  C   UNL A   1      30.625  27.417  22.468  1.00  0.00     0.271 A 
ATOM     11  N   UNL A   1      29.608  27.135  23.251  1.00  0.00    -0.106 NA
ATOM     12  O   UNL A   1      30.566  28.691  21.963  1.00  0.00    -0.414 OA
ATOM     13  N   UNL A   1      28.867  28.289  23.358  1.00  0.00    -0.107 NA
ATOM     14  C   UNL A   1      29.452  29.196  22.601  1.00  0.00     0.258 A 
BRANCH  14  15
ATOM     15  C   UNL A   1      28.977  30.534  22.444  1.00  0.00     0.091 A 
ATOM     16  C   UNL A   1      29.020  31.549  23.378  1.00  0.00     0.025 A 
ATOM     17  S   UNL A   1      28.272  31.052  20.975  1.00  0.00    -0.139 S 
ATOM     18  C   UNL A   1      28.483  32.770  22.870  1.00  0.00     0.012 A 
ATOM     19  C   UNL A   1      28.029  32.635  21.577  1.00  0.00     0.065 A 
ENDBRANCH  14  15
ENDBRANCH   9  10
ENDBRANCH   7   9
BRANCH   7  20
ATOM     20  C   UNL A   1      33.718  25.152  22.810  1.00  0.00     0.380 C 
BRANCH  20  21
ATOM     21  C   UNL A   1      34.387  24.237  23.863  1.00  0.00     0.438 C 
ATOM     22  F   UNL A   1      35.440  23.563  23.372  1.00  0.00    -0.165 F 
ATOM     23  F   UNL A   1      34.820  24.980  24.909  1.00  0.00    -0.165 F 
ATOM     24  F   UNL A   1      33.501  23.345  24.357  1.00  0.00    -0.165 F 
ENDBRANCH  20  21
ENDBRANCH   7  20
ENDBRANCH   6   7
ENDBRANCH   4   6
ENDBRANCH   1   2
BRANCH   1  25
ATOM     25  C   UNL A   1      31.458  30.837  26.052  1.00  0.00     0.023 C 
BRANCH  25  26
ATOM     26  C   UNL A   1      31.345  32.246  26.636  1.00  0.00     0.023 C 
BRANCH  26  27
ATOM     27  C   UNL A   1      32.672  32.947  26.902  1.00  0.00     0.116 C 
BRANCH  27  28
ATOM     28  N   UNL A   1      32.520  34.207  27.613  1.00  0.00    -0.352 N 
ATOM     29  C   UNL A   1      33.208  34.678  28.706  1.00  0.00     0.251 C 
ATOM     30  H   UNL A   1      31.825  34.807  27.262  1.00  0.00     0.163 HD
ATOM     31  O   UNL A   1      32.848  35.712  29.262  1.00  0.00    -0.269 OA
BRANCH  29  32
ATOM     32  C   UNL A   1      34.363  33.923  29.239  1.00  0.00     0.039 A 
ATOM     33  C   UNL A   1      35.653  34.369  28.939  1.00  0.00     0.014 A 
ATOM     34  C   UNL A   1      34.182  32.790  30.035  1.00  0.00     0.014 A 
ATOM     35  C   UNL A   1      36.758  33.721  29.496  1.00  0.00     0.010 A 
ATOM     36  C   UNL A   1      35.279  32.195  30.655  1.00  0.00     0.010 A 
ATOM     37  C   UNL A   1      36.579  32.654  30.393  1.00  0.00    -0.014 A 
BRANCH  37  38
ATOM     38  C   UNL A   1      37.738  32.017  31.073  1.00  0.00     0.031 A 
ATOM     39  C   UNL A   1      38.537  30.953  30.374  1.00  0.00     0.074 A 
ATOM     40  C   UNL A   1      38.031  32.352  32.345  1.00  0.00     0.049 A 
ATOM     41  N   UNL A   1      39.534  30.234  30.826  1.00  0.00    -0.248 NA
ATOM     42  C   UNL A   1      38.148  30.635  28.992  1.00  0.00     0.031 C 
ATOM     43  C   UNL A   1      37.304  33.335  33.149  1.00  0.00     0.029 A 
ATOM     44  N   UNL A   1      39.011  31.893  33.190  1.00  0.00    -0.354 N 
ATOM     45  C   UNL A   1      39.884  29.378  29.791  1.00  0.00     0.074 A 
ATOM     46  C   UNL A   1      38.954  29.621  28.710  1.00  0.00     0.031 C 
ATOM     47  C   UNL A   1      37.875  33.420  34.361  1.00  0.00     0.029 A 
ATOM     48  C   UNL A   1      38.980  32.469  34.436  1.00  0.00     0.049 A 
ATOM     49  H   UNL A   1      39.674  31.214  32.927  1.00  0.00     0.167 HD
ATOM     50  C   UNL A   1      40.905  28.488  29.736  1.00  0.00     0.037 A 
ATOM     51  C   UNL A   1      39.745  32.248  35.522  1.00  0.00     0.037 A 
ATOM     52  C   UNL A   1      41.836  28.256  30.808  1.00  0.00     0.049 A 
ATOM     53  C   UNL A   1      40.858  31.237  35.443  1.00  0.00     0.074 A 
ATOM     54  C   UNL A   1      42.933  27.411  30.832  1.00  0.00     0.029 A 
ATOM     55  N   UNL A   1      41.779  28.868  32.053  1.00  0.00    -0.354 N 
ATOM     56  N   UNL A   1      41.219  30.481  34.436  1.00  0.00    -0.248 NA
ATOM     57  C   UNL A   1      41.672  31.054  36.653  1.00  0.00     0.031 C 
ATOM     58  C   UNL A   1      43.503  27.469  32.108  1.00  0.00     0.029 A 
ATOM     59  C   UNL A   1      42.803  28.398  32.860  1.00  0.00     0.049 A 
ATOM     60  H   UNL A   1      41.109  29.538  32.323  1.00  0.00     0.167 HD
ATOM     61  C   UNL A   1      42.319  29.757  34.877  1.00  0.00     0.074 A 
ATOM     62  C   UNL A   1      42.575  30.176  36.239  1.00  0.00     0.031 C 
ATOM     63  C   UNL A   1      43.051  28.828  34.214  1.00  0.00     0.037 A 
BRANCH  50  64
ATOM     64  C   UNL A   1      41.066  27.695  28.469  1.00  0.00     0.064 A 
ATOM     65  C   UNL A   1      41.903  28.128  27.429  1.00  0.00     0.173 A 
ATOM     66  C   UNL A   1      40.402  26.469  28.306  1.00  0.00     0.173 A 
ATOM     67  F   UNL A   1      42.554  29.297  27.529  1.00  0.00    -0.203 F 
ATOM     68  C   UNL A   1      42.041  27.384  26.261  1.00  0.00     0.198 A 
ATOM     69  C   UNL A   1      40.570  25.710  27.150  1.00  0.00     0.198 A 
ATOM     70  F   UNL A   1      39.594  26.002  29.270  1.00  0.00    -0.203 F 
ATOM     71  F   UNL A   1      42.801  27.848  25.258  1.00  0.00    -0.200 F 
ATOM     72  C   UNL A   1      41.381  26.172  26.125  1.00  0.00     0.200 A 
ATOM     73  F   UNL A   1      39.944  24.532  27.028  1.00  0.00    -0.200 F 
ATOM     74  F   UNL A   1      41.520  25.453  25.003  1.00  0.00    -0.200 F 
ENDBRANCH  50  64
BRANCH  51  75
ATOM     75  C   UNL A   1      39.495  33.010  36.774  1.00  0.00     0.064 A 
ATOM     76  C   UNL A   1      40.227  34.167  37.075  1.00  0.00     0.173 A 
ATOM     77  C   UNL A   1      38.525  32.596  37.699  1.00  0.00     0.173 A 
ATOM     78  F   UNL A   1      41.181  34.593  36.233  1.00  0.00    -0.203 F 
ATOM     79  C   UNL A   1      40.016  34.867  38.262  1.00  0.00     0.198 A 
ATOM     80  C   UNL A   1      38.291  33.314  38.869  1.00  0.00     0.198 A 
ATOM     81  F   UNL A   1      37.791  31.498  37.457  1.00  0.00    -0.203 F 
ATOM     82  F   UNL A   1      40.766  35.939  38.547  1.00  0.00    -0.200 F 
ATOM     83  C   UNL A   1      39.043  34.443  39.155  1.00  0.00     0.200 A 
ATOM     84  F   UNL A   1      37.338  32.910  39.721  1.00  0.00    -0.200 F 
ATOM     85  F   UNL A   1      38.836  35.119  40.294  1.00  0.00    -0.200 F 
ENDBRANCH  51  75
BRANCH  63  86
ATOM     86  C   UNL A   1      44.225  28.228  34.935  1.00  0.00     0.064 A 
ATOM     87  C   UNL A   1      44.113  27.036  35.667  1.00  0.00     0.173 A 
ATOM     88  C   UNL A   1      45.488  28.833  34.859  1.00  0.00     0.173 A 
ATOM     89  F   UNL A   1      42.925  26.424  35.783  1.00  0.00    -0.203 F 
ATOM     90  C   UNL A   1      45.215  26.490  36.320  1.00  0.00     0.198 A 
ATOM     91  C   UNL A   1      46.596  28.266  35.484  1.00  0.00     0.198 A 
ATOM     92  F   UNL A   1      45.653  29.970  34.166  1.00  0.00    -0.203 F 
ATOM     93  F   UNL A   1      45.073  25.380  37.056  1.00  0.00    -0.200 F 
ATOM     94  C   UNL A   1      46.456  27.100  36.221  1.00  0.00     0.200 A 
ATOM     95  F   UNL A   1      47.798  28.848  35.372  1.00  0.00    -0.200 F 
ATOM     96  F   UNL A   1      47.518  26.568  36.841  1.00  0.00    -0.200 F 
ENDBRANCH  63  86
ENDBRANCH  37  38
ENDBRANCH  29  32
ENDBRANCH  27  28
ENDBRANCH  26  27
ENDBRANCH  25  26
ENDBRANCH   1  25
TORSDOF 17
ENDMDL
