MODEL 1
REMARK VINA RESULT:     -12.5      0.000      0.000
REMARK SMILES Nc1cc(F)c([C@H]([NH3+])C(=O)NCCCCNC(=O)c2ccc(-c3c4nc(c(-c5c(F)c(F)c(F)c(F)c5F)c5ccc([nH]5)c(-c5c(F)c(F)c(F)c(F)c5F)c5nc(c(-c6c(F)c(F)c(F)c(F)c6F)c6ccc3[nH]6)C=C5)C=C4)cc2)cc1F
REMARK SMILES IDX 13 1 12 2 11 3 9 4 10 5 7 7 6 8 2 9 3 10 83 11 4 12 82 13
REMARK SMILES IDX 84 14 5 15 1 16 8 19 14 23 15 24 16 25 17 26 18 28 19 29
REMARK SMILES IDX 20 30 81 31 21 32 80 33 22 34 23 35 24 36 74 37 25 38 79 39
REMARK SMILES IDX 73 40 75 41 26 42 78 43 72 44 71 45 27 47 59 48 39 49 58 50
REMARK SMILES IDX 40 51 43 52 57 53 76 54 41 55 42 56 56 58 77 59 44 60 28 61
REMARK SMILES IDX 29 62 37 63 30 64 31 65 35 66 38 67 32 68 33 69 36 70 34 71
REMARK SMILES IDX 60 72 61 73 69 74 62 75 63 76 67 77 70 78 64 79 65 80 68 81
REMARK SMILES IDX 66 82 45 83 46 84 54 85 47 86 48 87 52 88 55 89 49 90 50 91
REMARK SMILES IDX 53 92 51 93
REMARK H PARENT 11 6 1 17 1 18 8 20 8 21 8 22 16 27 75 46 43 57
REMARK Flexibility Score: inf
ROOT
ATOM      1  C   UNL A   1      31.814  30.550  26.404  1.00  0.00     0.023 C 
ENDROOT
BRANCH   1   2
ATOM      2  C   UNL A   1      31.406  30.092  25.004  1.00  0.00     0.116 C 
BRANCH   2   3
ATOM      3  N   UNL A   1      30.271  30.842  24.507  1.00  0.00    -0.351 N 
ATOM      4  C   UNL A   1      29.482  30.626  23.414  1.00  0.00     0.283 C 
ATOM      5  O   UNL A   1      28.515  31.379  23.260  1.00  0.00    -0.268 OA
ATOM      6  H   UNL A   1      30.031  31.633  25.042  1.00  0.00     0.163 HD
BRANCH   4   7
ATOM      7  C   UNL A   1      29.828  29.546  22.358  1.00  0.00     0.305 C 
BRANCH   7   8
ATOM      8  C   UNL A   1      29.956  28.120  22.866  1.00  0.00     0.058 A 
ATOM      9  C   UNL A   1      30.214  25.424  23.750  1.00  0.00     0.071 A 
ATOM     10  C   UNL A   1      29.010  26.109  23.896  1.00  0.00     0.068 A 
ATOM     11  C   UNL A   1      31.287  26.104  23.162  1.00  0.00     0.146 A 
ATOM     12  C   UNL A   1      28.882  27.422  23.435  1.00  0.00     0.135 A 
ATOM     13  C   UNL A   1      31.163  27.417  22.710  1.00  0.00     0.055 A 
ATOM     14  F   UNL A   1      32.466  25.479  23.018  1.00  0.00    -0.205 F 
ATOM     15  F   UNL A   1      27.686  28.010  23.578  1.00  0.00    -0.206 F 
BRANCH   9  16
ATOM     16  N   UNL A   1      30.373  24.151  24.281  1.00  0.00    -0.396 N 
ATOM     17  H   UNL A   1      31.267  23.736  24.307  1.00  0.00     0.156 HD
ATOM     18  H   UNL A   1      29.594  23.661  24.630  1.00  0.00     0.156 HD
ENDBRANCH   9  16
ENDBRANCH   7   8
BRANCH   7  19
ATOM     19  N   UNL A   1      31.016  29.992  21.584  1.00  0.00    -0.343 N 
ATOM     20  H   UNL A   1      30.865  29.809  20.593  1.00  0.00     0.345 HD
ATOM     21  H   UNL A   1      31.840  29.481  21.903  1.00  0.00     0.345 HD
ATOM     22  H   UNL A   1      31.159  30.992  21.727  1.00  0.00     0.345 HD
ENDBRANCH   7  19
ENDBRANCH   4   7
ENDBRANCH   2   3
ENDBRANCH   1   2
BRANCH   1  23
ATOM     23  C   UNL A   1      31.517  32.019  26.707  1.00  0.00     0.023 C 
BRANCH  23  24
ATOM     24  C   UNL A   1      32.674  32.799  27.321  1.00  0.00     0.116 C 
BRANCH  24  25
ATOM     25  N   UNL A   1      32.327  34.176  27.642  1.00  0.00    -0.352 N 
ATOM     26  C   UNL A   1      32.909  35.019  28.560  1.00  0.00     0.251 C 
ATOM     27  H   UNL A   1      31.576  34.554  27.133  1.00  0.00     0.163 HD
ATOM     28  O   UNL A   1      32.417  36.116  28.801  1.00  0.00    -0.269 OA
BRANCH  26  29
ATOM     29  C   UNL A   1      34.113  34.571  29.288  1.00  0.00     0.039 A 
ATOM     30  C   UNL A   1      35.367  34.629  28.677  1.00  0.00     0.014 A 
ATOM     31  C   UNL A   1      33.974  34.032  30.570  1.00  0.00     0.014 A 
ATOM     32  C   UNL A   1      36.448  33.990  29.273  1.00  0.00     0.010 A 
ATOM     33  C   UNL A   1      35.083  33.466  31.204  1.00  0.00     0.010 A 
ATOM     34  C   UNL A   1      36.316  33.394  30.538  1.00  0.00    -0.014 A 
BRANCH  34  35
ATOM     35  C   UNL A   1      37.481  32.695  31.137  1.00  0.00     0.031 A 
ATOM     36  C   UNL A   1      37.940  33.017  32.533  1.00  0.00     0.074 A 
ATOM     37  C   UNL A   1      38.085  31.716  30.438  1.00  0.00     0.049 A 
ATOM     38  N   UNL A   1      38.920  32.488  33.222  1.00  0.00    -0.248 NA
ATOM     39  C   UNL A   1      37.207  34.071  33.249  1.00  0.00     0.031 C 
ATOM     40  C   UNL A   1      37.713  31.302  29.085  1.00  0.00     0.029 A 
ATOM     41  N   UNL A   1      39.111  30.872  30.777  1.00  0.00    -0.354 N 
ATOM     42  C   UNL A   1      38.931  33.151  34.441  1.00  0.00     0.074 A 
ATOM     43  C   UNL A   1      37.878  34.143  34.391  1.00  0.00     0.031 C 
ATOM     44  C   UNL A   1      38.454  30.241  28.733  1.00  0.00     0.029 A 
ATOM     45  C   UNL A   1      39.394  29.942  29.808  1.00  0.00     0.049 A 
ATOM     46  H   UNL A   1      39.596  30.928  31.631  1.00  0.00     0.167 HD
ATOM     47  C   UNL A   1      39.738  32.942  35.509  1.00  0.00     0.037 A 
ATOM     48  C   UNL A   1      40.315  28.961  29.784  1.00  0.00     0.037 A 
ATOM     49  C   UNL A   1      40.774  31.942  35.562  1.00  0.00     0.049 A 
ATOM     50  C   UNL A   1      41.227  28.780  30.961  1.00  0.00     0.074 A 
ATOM     51  C   UNL A   1      41.641  31.653  36.601  1.00  0.00     0.029 A 
ATOM     52  N   UNL A   1      41.079  31.065  34.532  1.00  0.00    -0.354 N 
ATOM     53  N   UNL A   1      41.239  29.427  32.101  1.00  0.00    -0.248 NA
ATOM     54  C   UNL A   1      42.261  27.744  30.843  1.00  0.00     0.031 C 
ATOM     55  C   UNL A   1      42.496  30.626  36.186  1.00  0.00     0.029 A 
ATOM     56  C   UNL A   1      42.131  30.244  34.904  1.00  0.00     0.049 A 
ATOM     57  H   UNL A   1      40.615  31.030  33.663  1.00  0.00     0.167 HD
ATOM     58  C   UNL A   1      42.274  28.874  32.840  1.00  0.00     0.074 A 
ATOM     59  C   UNL A   1      42.856  27.826  32.025  1.00  0.00     0.031 C 
ATOM     60  C   UNL A   1      42.704  29.210  34.080  1.00  0.00     0.037 A 
BRANCH  47  61
ATOM     61  C   UNL A   1      39.545  33.822  36.710  1.00  0.00     0.064 A 
ATOM     62  C   UNL A   1      38.764  33.415  37.802  1.00  0.00     0.173 A 
ATOM     63  C   UNL A   1      40.186  35.069  36.790  1.00  0.00     0.173 A 
ATOM     64  F   UNL A   1      38.120  32.239  37.770  1.00  0.00    -0.203 F 
ATOM     65  C   UNL A   1      38.616  34.231  38.921  1.00  0.00     0.198 A 
ATOM     66  C   UNL A   1      40.057  35.870  37.922  1.00  0.00     0.198 A 
ATOM     67  F   UNL A   1      40.949  35.503  35.776  1.00  0.00    -0.203 F 
ATOM     68  F   UNL A   1      37.834  33.839  39.936  1.00  0.00    -0.200 F 
ATOM     69  C   UNL A   1      39.269  35.454  38.983  1.00  0.00     0.200 A 
ATOM     70  F   UNL A   1      40.696  37.046  37.984  1.00  0.00    -0.200 F 
ATOM     71  F   UNL A   1      39.131  36.235  40.064  1.00  0.00    -0.200 F 
ENDBRANCH  47  61
BRANCH  48  72
ATOM     72  C   UNL A   1      40.388  28.070  28.600  1.00  0.00     0.064 A 
ATOM     73  C   UNL A   1      41.158  28.425  27.485  1.00  0.00     0.173 A 
ATOM     74  C   UNL A   1      39.750  26.820  28.587  1.00  0.00     0.173 A 
ATOM     75  F   UNL A   1      41.771  29.617  27.446  1.00  0.00    -0.203 F 
ATOM     76  C   UNL A   1      41.295  27.558  26.402  1.00  0.00     0.198 A 
ATOM     77  C   UNL A   1      39.908  25.945  27.516  1.00  0.00     0.198 A 
ATOM     78  F   UNL A   1      39.008  26.435  29.635  1.00  0.00    -0.203 F 
ATOM     79  F   UNL A   1      42.026  27.926  25.342  1.00  0.00    -0.200 F 
ATOM     80  C   UNL A   1      40.680  26.314  26.424  1.00  0.00     0.200 A 
ATOM     81  F   UNL A   1      39.328  24.738  27.548  1.00  0.00    -0.200 F 
ATOM     82  F   UNL A   1      40.833  25.472  25.394  1.00  0.00    -0.200 F 
ENDBRANCH  48  72
BRANCH  60  83
ATOM     83  C   UNL A   1      43.855  28.431  34.642  1.00  0.00     0.064 A 
ATOM     84  C   UNL A   1      43.655  27.229  35.336  1.00  0.00     0.173 A 
ATOM     85  C   UNL A   1      45.174  28.861  34.435  1.00  0.00     0.173 A 
ATOM     86  F   UNL A   1      42.411  26.785  35.572  1.00  0.00    -0.203 F 
ATOM     87  C   UNL A   1      44.735  26.494  35.817  1.00  0.00     0.198 A 
ATOM     88  C   UNL A   1      46.252  28.111  34.896  1.00  0.00     0.198 A 
ATOM     89  F   UNL A   1      45.417  30.002  33.771  1.00  0.00    -0.203 F 
ATOM     90  F   UNL A   1      44.520  25.366  36.507  1.00  0.00    -0.200 F 
ATOM     91  C   UNL A   1      46.032  26.930  35.589  1.00  0.00     0.200 A 
ATOM     92  F   UNL A   1      47.505  28.529  34.665  1.00  0.00    -0.200 F 
ATOM     93  F   UNL A   1      47.071  26.216  36.043  1.00  0.00    -0.200 F 
ENDBRANCH  60  83
ENDBRANCH  34  35
ENDBRANCH  26  29
ENDBRANCH  24  25
ENDBRANCH  23  24
ENDBRANCH   1  23
TORSDOF 14
ENDMDL
MODEL 2
REMARK VINA RESULT:     -12.5      1.289      2.320
REMARK SMILES Nc1cc(F)c([C@H]([NH3+])C(=O)NCCCCNC(=O)c2ccc(-c3c4nc(c(-c5c(F)c(F)c(F)c(F)c5F)c5ccc([nH]5)c(-c5c(F)c(F)c(F)c(F)c5F)c5nc(c(-c6c(F)c(F)c(F)c(F)c6F)c6ccc3[nH]6)C=C5)C=C4)cc2)cc1F
REMARK SMILES IDX 13 1 12 2 11 3 9 4 10 5 7 7 6 8 2 9 3 10 83 11 4 12 82 13
REMARK SMILES IDX 84 14 5 15 1 16 8 19 14 23 15 24 16 25 17 26 18 28 19 29
REMARK SMILES IDX 20 30 81 31 21 32 80 33 22 34 23 35 24 36 74 37 25 38 79 39
REMARK SMILES IDX 73 40 75 41 26 42 78 43 72 44 71 45 27 47 59 48 39 49 58 50
REMARK SMILES IDX 40 51 43 52 57 53 76 54 41 55 42 56 56 58 77 59 44 60 28 61
REMARK SMILES IDX 29 62 37 63 30 64 31 65 35 66 38 67 32 68 33 69 36 70 34 71
REMARK SMILES IDX 60 72 61 73 69 74 62 75 63 76 67 77 70 78 64 79 65 80 68 81
REMARK SMILES IDX 66 82 45 83 46 84 54 85 47 86 48 87 52 88 55 89 49 90 50 91
REMARK SMILES IDX 53 92 51 93
REMARK H PARENT 11 6 1 17 1 18 8 20 8 21 8 22 16 27 75 46 43 57
REMARK Flexibility Score: inf
ROOT
ATOM      1  C   UNL A   1      31.883  30.337  26.650  1.00  0.00     0.023 C 
ENDROOT
BRANCH   1   2
ATOM      2  C   UNL A   1      32.951  30.000  25.611  1.00  0.00     0.116 C 
BRANCH   2   3
ATOM      3  N   UNL A   1      33.134  28.569  25.479  1.00  0.00    -0.351 N 
ATOM      4  C   UNL A   1      32.953  27.754  24.399  1.00  0.00     0.283 C 
ATOM      5  O   UNL A   1      33.262  26.565  24.533  1.00  0.00    -0.268 OA
ATOM      6  H   UNL A   1      33.436  28.112  26.297  1.00  0.00     0.163 HD
BRANCH   4   7
ATOM      7  C   UNL A   1      32.301  28.264  23.090  1.00  0.00     0.305 C 
BRANCH   7   8
ATOM      8  C   UNL A   1      30.782  28.321  23.069  1.00  0.00     0.058 A 
ATOM      9  C   UNL A   1      27.935  28.358  22.999  1.00  0.00     0.071 A 
ATOM     10  C   UNL A   1      28.676  29.330  22.331  1.00  0.00     0.068 A 
ATOM     11  C   UNL A   1      28.633  27.372  23.705  1.00  0.00     0.146 A 
ATOM     12  C   UNL A   1      30.072  29.290  22.346  1.00  0.00     0.135 A 
ATOM     13  C   UNL A   1      30.027  27.336  23.728  1.00  0.00     0.055 A 
ATOM     14  F   UNL A   1      27.951  26.428  24.372  1.00  0.00    -0.205 F 
ATOM     15  F   UNL A   1      30.722  30.237  21.656  1.00  0.00    -0.206 F 
BRANCH   9  16
ATOM     16  N   UNL A   1      26.549  28.440  23.058  1.00  0.00    -0.396 N 
ATOM     17  H   UNL A   1      26.057  28.954  22.376  1.00  0.00     0.156 HD
ATOM     18  H   UNL A   1      26.059  27.986  23.781  1.00  0.00     0.156 HD
ENDBRANCH   9  16
ENDBRANCH   7   8
BRANCH   7  19
ATOM     19  N   UNL A   1      32.866  27.508  21.943  1.00  0.00    -0.343 N 
ATOM     20  H   UNL A   1      33.873  27.659  21.899  1.00  0.00     0.345 HD
ATOM     21  H   UNL A   1      32.436  27.833  21.077  1.00  0.00     0.345 HD
ATOM     22  H   UNL A   1      32.676  26.514  22.064  1.00  0.00     0.345 HD
ENDBRANCH   7  19
ENDBRANCH   4   7
ENDBRANCH   2   3
ENDBRANCH   1   2
BRANCH   1  23
ATOM     23  C   UNL A   1      31.612  31.832  26.826  1.00  0.00     0.023 C 
BRANCH  23  24
ATOM     24  C   UNL A   1      32.792  32.647  27.342  1.00  0.00     0.116 C 
BRANCH  24  25
ATOM     25  N   UNL A   1      32.446  34.031  27.632  1.00  0.00    -0.352 N 
ATOM     26  C   UNL A   1      33.014  34.888  28.545  1.00  0.00     0.251 C 
ATOM     27  H   UNL A   1      31.706  34.404  27.102  1.00  0.00     0.163 HD
ATOM     28  O   UNL A   1      32.524  35.992  28.757  1.00  0.00    -0.269 OA
BRANCH  26  29
ATOM     29  C   UNL A   1      34.203  34.448  29.304  1.00  0.00     0.039 A 
ATOM     30  C   UNL A   1      35.481  34.606  28.764  1.00  0.00     0.014 A 
ATOM     31  C   UNL A   1      34.029  33.816  30.538  1.00  0.00     0.014 A 
ATOM     32  C   UNL A   1      36.562  33.979  29.372  1.00  0.00     0.010 A 
ATOM     33  C   UNL A   1      35.131  33.260  31.190  1.00  0.00     0.010 A 
ATOM     34  C   UNL A   1      36.397  33.291  30.586  1.00  0.00    -0.014 A 
BRANCH  34  35
ATOM     35  C   UNL A   1      37.565  32.608  31.197  1.00  0.00     0.031 A 
ATOM     36  C   UNL A   1      38.017  32.949  32.591  1.00  0.00     0.074 A 
ATOM     37  C   UNL A   1      38.180  31.626  30.512  1.00  0.00     0.049 A 
ATOM     38  N   UNL A   1      38.998  32.435  33.290  1.00  0.00    -0.248 NA
ATOM     39  C   UNL A   1      37.273  34.005  33.293  1.00  0.00     0.031 C 
ATOM     40  C   UNL A   1      37.817  31.194  29.162  1.00  0.00     0.029 A 
ATOM     41  N   UNL A   1      39.210  30.794  30.864  1.00  0.00    -0.354 N 
ATOM     42  C   UNL A   1      38.999  33.112  34.502  1.00  0.00     0.074 A 
ATOM     43  C   UNL A   1      37.939  34.096  34.436  1.00  0.00     0.031 C 
ATOM     44  C   UNL A   1      38.566  30.135  28.825  1.00  0.00     0.029 A 
ATOM     45  C   UNL A   1      39.505  29.855  29.907  1.00  0.00     0.049 A 
ATOM     46  H   UNL A   1      39.692  30.863  31.720  1.00  0.00     0.167 HD
ATOM     47  C   UNL A   1      39.804  32.921  35.575  1.00  0.00     0.037 A 
ATOM     48  C   UNL A   1      40.433  28.880  29.898  1.00  0.00     0.037 A 
ATOM     49  C   UNL A   1      40.846  31.930  35.644  1.00  0.00     0.049 A 
ATOM     50  C   UNL A   1      41.342  28.720  31.080  1.00  0.00     0.074 A 
ATOM     51  C   UNL A   1      41.712  31.659  36.689  1.00  0.00     0.029 A 
ATOM     52  N   UNL A   1      41.162  31.043  34.625  1.00  0.00    -0.354 N 
ATOM     53  N   UNL A   1      41.345  29.380  32.212  1.00  0.00    -0.248 NA
ATOM     54  C   UNL A   1      42.384  27.691  30.977  1.00  0.00     0.031 C 
ATOM     55  C   UNL A   1      42.576  30.634  36.289  1.00  0.00     0.029 A 
ATOM     56  C   UNL A   1      42.219  30.235  35.010  1.00  0.00     0.049 A 
ATOM     57  H   UNL A   1      40.702  30.996  33.755  1.00  0.00     0.167 HD
ATOM     58  C   UNL A   1      42.380  28.842  32.962  1.00  0.00     0.074 A 
ATOM     59  C   UNL A   1      42.973  27.790  32.162  1.00  0.00     0.031 C 
ATOM     60  C   UNL A   1      42.803  29.195  34.200  1.00  0.00     0.037 A 
BRANCH  47  61
ATOM     61  C   UNL A   1      39.599  33.813  36.766  1.00  0.00     0.064 A 
ATOM     62  C   UNL A   1      40.165  35.096  36.829  1.00  0.00     0.173 A 
ATOM     63  C   UNL A   1      38.791  33.400  37.836  1.00  0.00     0.173 A 
ATOM     64  F   UNL A   1      40.957  35.533  35.839  1.00  0.00    -0.203 F 
ATOM     65  C   UNL A   1      39.945  35.923  37.928  1.00  0.00     0.198 A 
ATOM     66  C   UNL A   1      38.551  34.239  38.920  1.00  0.00     0.198 A 
ATOM     67  F   UNL A   1      38.221  32.185  37.822  1.00  0.00    -0.203 F 
ATOM     68  F   UNL A   1      40.527  37.128  37.985  1.00  0.00    -0.200 F 
ATOM     69  C   UNL A   1      39.132  35.497  38.969  1.00  0.00     0.200 A 
ATOM     70  F   UNL A   1      37.758  33.830  39.919  1.00  0.00    -0.200 F 
ATOM     71  F   UNL A   1      38.915  36.296  40.022  1.00  0.00    -0.200 F 
ENDBRANCH  47  61
BRANCH  48  72
ATOM     72  C   UNL A   1      40.517  27.977  28.724  1.00  0.00     0.064 A 
ATOM     73  C   UNL A   1      39.793  26.779  28.691  1.00  0.00     0.173 A 
ATOM     74  C   UNL A   1      41.265  28.323  27.588  1.00  0.00     0.173 A 
ATOM     75  F   UNL A   1      39.078  26.398  29.761  1.00  0.00    -0.203 F 
ATOM     76  C   UNL A   1      39.804  25.963  27.561  1.00  0.00     0.198 A 
ATOM     77  C   UNL A   1      41.256  27.521  26.450  1.00  0.00     0.198 A 
ATOM     78  F   UNL A   1      41.969  29.464  27.572  1.00  0.00    -0.203 F 
ATOM     79  F   UNL A   1      39.113  24.816  27.559  1.00  0.00    -0.200 F 
ATOM     80  C   UNL A   1      40.526  26.341  26.438  1.00  0.00     0.200 A 
ATOM     81  F   UNL A   1      41.939  27.898  25.362  1.00  0.00    -0.200 F 
ATOM     82  F   UNL A   1      40.516  25.569  25.343  1.00  0.00    -0.200 F 
ENDBRANCH  48  72
BRANCH  60  83
ATOM     83  C   UNL A   1      43.957  28.432  34.775  1.00  0.00     0.064 A 
ATOM     84  C   UNL A   1      43.764  27.234  35.479  1.00  0.00     0.173 A 
ATOM     85  C   UNL A   1      45.274  28.872  34.571  1.00  0.00     0.173 A 
ATOM     86  F   UNL A   1      42.523  26.781  35.711  1.00  0.00    -0.203 F 
ATOM     87  C   UNL A   1      44.848  26.513  35.972  1.00  0.00     0.198 A 
ATOM     88  C   UNL A   1      46.356  28.135  35.045  1.00  0.00     0.198 A 
ATOM     89  F   UNL A   1      45.511  30.009  33.899  1.00  0.00    -0.203 F 
ATOM     90  F   UNL A   1      44.639  25.389  36.671  1.00  0.00    -0.200 F 
ATOM     91  C   UNL A   1      46.142  26.959  35.748  1.00  0.00     0.200 A 
ATOM     92  F   UNL A   1      47.606  28.563  34.818  1.00  0.00    -0.200 F 
ATOM     93  F   UNL A   1      47.184  26.257  36.214  1.00  0.00    -0.200 F 
ENDBRANCH  60  83
ENDBRANCH  34  35
ENDBRANCH  26  29
ENDBRANCH  24  25
ENDBRANCH  23  24
ENDBRANCH   1  23
TORSDOF 14
ENDMDL
MODEL 3
REMARK VINA RESULT:     -12.4      0.561      7.627
REMARK SMILES Nc1cc(F)c([C@H]([NH3+])C(=O)NCCCCNC(=O)c2ccc(-c3c4nc(c(-c5c(F)c(F)c(F)c(F)c5F)c5ccc([nH]5)c(-c5c(F)c(F)c(F)c(F)c5F)c5nc(c(-c6c(F)c(F)c(F)c(F)c6F)c6ccc3[nH]6)C=C5)C=C4)cc2)cc1F
REMARK SMILES IDX 13 1 12 2 11 3 9 4 10 5 7 7 6 8 2 9 3 10 83 11 4 12 82 13
REMARK SMILES IDX 84 14 5 15 1 16 8 19 14 23 15 24 16 25 17 26 18 28 19 29
REMARK SMILES IDX 20 30 81 31 21 32 80 33 22 34 23 35 24 36 74 37 25 38 79 39
REMARK SMILES IDX 73 40 75 41 26 42 78 43 72 44 71 45 27 47 59 48 39 49 58 50
REMARK SMILES IDX 40 51 43 52 57 53 76 54 41 55 42 56 56 58 77 59 44 60 28 61
REMARK SMILES IDX 29 62 37 63 30 64 31 65 35 66 38 67 32 68 33 69 36 70 34 71
REMARK SMILES IDX 60 72 61 73 69 74 62 75 63 76 67 77 70 78 64 79 65 80 68 81
REMARK SMILES IDX 66 82 45 83 46 84 54 85 47 86 48 87 52 88 55 89 49 90 50 91
REMARK SMILES IDX 53 92 51 93
REMARK H PARENT 11 6 1 17 1 18 8 20 8 21 8 22 16 27 75 46 43 57
REMARK Flexibility Score: inf
ROOT
ATOM      1  C   UNL A   1      31.866  30.544  26.466  1.00  0.00     0.023 C 
ENDROOT
BRANCH   1   2
ATOM      2  C   UNL A   1      31.425  30.085  25.078  1.00  0.00     0.116 C 
BRANCH   2   3
ATOM      3  N   UNL A   1      30.298  30.857  24.594  1.00  0.00    -0.351 N 
ATOM      4  C   UNL A   1      29.497  30.661  23.506  1.00  0.00     0.283 C 
ATOM      5  O   UNL A   1      28.542  31.432  23.363  1.00  0.00    -0.268 OA
ATOM      6  H   UNL A   1      30.076  31.649  25.135  1.00  0.00     0.163 HD
BRANCH   4   7
ATOM      7  C   UNL A   1      29.817  29.583  22.440  1.00  0.00     0.305 C 
BRANCH   7   8
ATOM      8  C   UNL A   1      29.950  28.155  22.944  1.00  0.00     0.058 A 
ATOM      9  C   UNL A   1      30.221  25.458  23.818  1.00  0.00     0.071 A 
ATOM     10  C   UNL A   1      29.001  26.121  23.923  1.00  0.00     0.068 A 
ATOM     11  C   UNL A   1      31.303  26.160  23.275  1.00  0.00     0.146 A 
ATOM     12  C   UNL A   1      28.868  27.435  23.467  1.00  0.00     0.135 A 
ATOM     13  C   UNL A   1      31.174  27.474  22.827  1.00  0.00     0.055 A 
ATOM     14  F   UNL A   1      32.498  25.556  23.172  1.00  0.00    -0.205 F 
ATOM     15  F   UNL A   1      27.657  28.001  23.569  1.00  0.00    -0.206 F 
BRANCH   9  16
ATOM     16  N   UNL A   1      30.382  24.183  24.346  1.00  0.00    -0.396 N 
ATOM     17  H   UNL A   1      29.923  23.417  23.930  1.00  0.00     0.156 HD
ATOM     18  H   UNL A   1      30.954  24.045  25.135  1.00  0.00     0.156 HD
ENDBRANCH   9  16
ENDBRANCH   7   8
BRANCH   7  19
ATOM     19  N   UNL A   1      30.989  30.025  21.642  1.00  0.00    -0.343 N 
ATOM     20  H   UNL A   1      31.066  29.452  20.803  1.00  0.00     0.345 HD
ATOM     21  H   UNL A   1      31.837  29.926  22.201  1.00  0.00     0.345 HD
ATOM     22  H   UNL A   1      30.870  31.003  21.377  1.00  0.00     0.345 HD
ENDBRANCH   7  19
ENDBRANCH   4   7
ENDBRANCH   2   3
ENDBRANCH   1   2
BRANCH   1  23
ATOM     23  C   UNL A   1      31.571  32.012  26.778  1.00  0.00     0.023 C 
BRANCH  23  24
ATOM     24  C   UNL A   1      32.744  32.799  27.351  1.00  0.00     0.116 C 
BRANCH  24  25
ATOM     25  N   UNL A   1      32.414  34.189  27.634  1.00  0.00    -0.352 N 
ATOM     26  C   UNL A   1      32.953  35.026  28.582  1.00  0.00     0.251 C 
ATOM     27  H   UNL A   1      31.712  34.582  27.069  1.00  0.00     0.163 HD
ATOM     28  O   UNL A   1      32.477  36.139  28.777  1.00  0.00    -0.269 OA
BRANCH  26  29
ATOM     29  C   UNL A   1      34.090  34.554  29.398  1.00  0.00     0.039 A 
ATOM     30  C   UNL A   1      35.374  34.503  28.854  1.00  0.00     0.014 A 
ATOM     31  C   UNL A   1      33.854  34.100  30.699  1.00  0.00     0.014 A 
ATOM     32  C   UNL A   1      36.384  33.840  29.541  1.00  0.00     0.010 A 
ATOM     33  C   UNL A   1      34.893  33.510  31.422  1.00  0.00     0.010 A 
ATOM     34  C   UNL A   1      36.151  33.327  30.829  1.00  0.00    -0.014 A 
BRANCH  34  35
ATOM     35  C   UNL A   1      37.240  32.599  31.528  1.00  0.00     0.031 A 
ATOM     36  C   UNL A   1      37.999  31.499  30.838  1.00  0.00     0.074 A 
ATOM     37  C   UNL A   1      37.589  32.982  32.770  1.00  0.00     0.049 A 
ATOM     38  N   UNL A   1      38.995  30.776  31.286  1.00  0.00    -0.248 NA
ATOM     39  C   UNL A   1      37.587  31.162  29.467  1.00  0.00     0.031 C 
ATOM     40  C   UNL A   1      36.940  34.050  33.530  1.00  0.00     0.029 A 
ATOM     41  N   UNL A   1      38.591  32.544  33.596  1.00  0.00    -0.354 N 
ATOM     42  C   UNL A   1      39.317  29.894  30.264  1.00  0.00     0.074 A 
ATOM     43  C   UNL A   1      38.393  30.149  29.180  1.00  0.00     0.031 C 
ATOM     44  C   UNL A   1      37.600  34.229  34.683  1.00  0.00     0.029 A 
ATOM     45  C   UNL A   1      38.676  33.248  34.771  1.00  0.00     0.049 A 
ATOM     46  H   UNL A   1      39.191  31.796  33.369  1.00  0.00     0.167 HD
ATOM     47  C   UNL A   1      40.302  28.963  30.230  1.00  0.00     0.037 A 
ATOM     48  C   UNL A   1      39.523  33.114  35.809  1.00  0.00     0.037 A 
ATOM     49  C   UNL A   1      41.231  28.724  31.305  1.00  0.00     0.049 A 
ATOM     50  C   UNL A   1      40.575  32.047  35.766  1.00  0.00     0.074 A 
ATOM     51  C   UNL A   1      42.265  27.805  31.362  1.00  0.00     0.029 A 
ATOM     52  N   UNL A   1      41.240  29.410  32.510  1.00  0.00    -0.354 N 
ATOM     53  N   UNL A   1      40.857  31.206  34.801  1.00  0.00    -0.248 NA
ATOM     54  C   UNL A   1      41.417  31.900  36.960  1.00  0.00     0.031 C 
ATOM     55  C   UNL A   1      42.876  27.911  32.616  1.00  0.00     0.029 A 
ATOM     56  C   UNL A   1      42.251  28.926  33.324  1.00  0.00     0.049 A 
ATOM     57  H   UNL A   1      40.618  30.136  32.751  1.00  0.00     0.167 HD
ATOM     58  C   UNL A   1      41.912  30.435  35.265  1.00  0.00     0.074 A 
ATOM     59  C   UNL A   1      42.232  30.920  36.592  1.00  0.00     0.031 C 
ATOM     60  C   UNL A   1      42.553  29.414  34.646  1.00  0.00     0.037 A 
BRANCH  47  61
ATOM     61  C   UNL A   1      40.421  28.121  28.993  1.00  0.00     0.064 A 
ATOM     62  C   UNL A   1      39.724  26.911  28.858  1.00  0.00     0.173 A 
ATOM     63  C   UNL A   1      41.206  28.550  27.911  1.00  0.00     0.173 A 
ATOM     64  F   UNL A   1      38.971  26.450  29.867  1.00  0.00    -0.203 F 
ATOM     65  C   UNL A   1      39.823  26.154  27.693  1.00  0.00     0.198 A 
ATOM     66  C   UNL A   1      41.282  27.804  26.739  1.00  0.00     0.198 A 
ATOM     67  F   UNL A   1      41.888  29.703  27.987  1.00  0.00    -0.203 F 
ATOM     68  F   UNL A   1      39.180  24.982  27.600  1.00  0.00    -0.200 F 
ATOM     69  C   UNL A   1      40.596  26.604  26.632  1.00  0.00     0.200 A 
ATOM     70  F   UNL A   1      42.020  28.246  25.712  1.00  0.00    -0.200 F 
ATOM     71  F   UNL A   1      40.685  25.877  25.509  1.00  0.00    -0.200 F 
ENDBRANCH  47  61
BRANCH  48  72
ATOM     72  C   UNL A   1      39.404  34.043  36.960  1.00  0.00     0.064 A 
ATOM     73  C   UNL A   1      38.678  33.678  38.101  1.00  0.00     0.173 A 
ATOM     74  C   UNL A   1      40.068  35.279  36.972  1.00  0.00     0.173 A 
ATOM     75  F   UNL A   1      38.013  32.513  38.127  1.00  0.00    -0.203 F 
ATOM     76  C   UNL A   1      38.628  34.511  39.217  1.00  0.00     0.198 A 
ATOM     77  C   UNL A   1      40.038  36.099  38.097  1.00  0.00     0.198 A 
ATOM     78  F   UNL A   1      40.780  35.667  35.905  1.00  0.00    -0.203 F 
ATOM     79  F   UNL A   1      37.916  34.145  40.291  1.00  0.00    -0.200 F 
ATOM     80  C   UNL A   1      39.317  35.715  39.218  1.00  0.00     0.200 A 
ATOM     81  F   UNL A   1      40.720  37.252  38.101  1.00  0.00    -0.200 F 
ATOM     82  F   UNL A   1      39.289  36.503  40.301  1.00  0.00    -0.200 F 
ENDBRANCH  48  72
BRANCH  60  83
ATOM     83  C   UNL A   1      43.674  28.755  35.391  1.00  0.00     0.064 A 
ATOM     84  C   UNL A   1      45.002  29.180  35.240  1.00  0.00     0.173 A 
ATOM     85  C   UNL A   1      43.412  27.726  36.308  1.00  0.00     0.173 A 
ATOM     86  F   UNL A   1      45.304  30.151  34.365  1.00  0.00    -0.203 F 
ATOM     87  C   UNL A   1      46.029  28.587  35.969  1.00  0.00     0.198 A 
ATOM     88  C   UNL A   1      44.438  27.153  37.052  1.00  0.00     0.198 A 
ATOM     89  F   UNL A   1      42.157  27.288  36.491  1.00  0.00    -0.203 F 
ATOM     90  F   UNL A   1      47.295  28.986  35.784  1.00  0.00    -0.200 F 
ATOM     91  C   UNL A   1      45.746  27.581  36.880  1.00  0.00     0.200 A 
ATOM     92  F   UNL A   1      44.160  26.187  37.940  1.00  0.00    -0.200 F 
ATOM     93  F   UNL A   1      46.734  27.019  37.589  1.00  0.00    -0.200 F 
ENDBRANCH  60  83
ENDBRANCH  34  35
ENDBRANCH  26  29
ENDBRANCH  24  25
ENDBRANCH  23  24
ENDBRANCH   1  23
TORSDOF 14
ENDMDL
