MODEL 1
REMARK VINA RESULT:     -12.6      0.000      0.000
REMARK SMILES Cc1cscc1C(=O)Nc1cc(Br)ccc1C(=O)NCCCCNC(=O)c1ccc(-c2c3nc(c(-c4c(F)c(F)c(F)c(F)c4F)c4ccc([nH]4)c(-c4c(F)c(F)c(F)c(F)c4F)c4nc(c(-c5c(F)c(F)c(F)c(F)c5F)c5ccc2[nH]5)C=C4)C=C3)cc1
REMARK SMILES IDX 21 1 20 2 19 3 17 4 18 5 16 7 10 8 11 9 12 10 15 11 13 12
REMARK SMILES IDX 14 13 9 14 7 15 8 16 6 18 1 19 2 20 3 21 4 22 5 23 22 24
REMARK SMILES IDX 23 25 24 26 25 27 26 29 27 30 28 31 89 32 29 33 88 34 30 35
REMARK SMILES IDX 31 36 32 37 82 38 33 39 87 40 81 41 83 42 34 43 86 44 80 45
REMARK SMILES IDX 79 46 35 48 67 49 47 50 66 51 48 52 51 53 65 54 84 55 49 56
REMARK SMILES IDX 50 57 64 59 85 60 52 61 36 62 37 63 45 64 38 65 39 66 43 67
REMARK SMILES IDX 46 68 40 69 41 70 44 71 42 72 68 73 69 74 77 75 70 76 71 77
REMARK SMILES IDX 75 78 78 79 72 80 73 81 76 82 74 83 53 84 54 85 62 86 55 87
REMARK SMILES IDX 56 88 60 89 63 90 57 91 58 92 61 93 59 94
REMARK H PARENT 19 6 9 17 24 28 83 47 51 58
REMARK Flexibility Score: inf
ROOT
ATOM      1  C   UNL A   1      33.601  28.606  25.130  1.00  0.00     0.023 C 
ENDROOT
BRANCH   1   2
ATOM      2  C   UNL A   1      33.722  28.025  23.730  1.00  0.00     0.116 C 
BRANCH   2   3
ATOM      3  N   UNL A   1      32.571  28.105  22.871  1.00  0.00    -0.352 N 
ATOM      4  C   UNL A   1      31.415  27.357  22.829  1.00  0.00     0.253 C 
ATOM      5  O   UNL A   1      30.598  27.700  21.969  1.00  0.00    -0.269 OA
ATOM      6  H   UNL A   1      32.617  28.818  22.194  1.00  0.00     0.163 HD
BRANCH   4   7
ATOM      7  C   UNL A   1      31.065  26.161  23.687  1.00  0.00     0.063 A 
ATOM      8  C   UNL A   1      31.290  24.783  23.468  1.00  0.00     0.055 A 
ATOM      9  C   UNL A   1      31.001  23.835  24.469  1.00  0.00     0.042 A 
ATOM     10  C   UNL A   1      30.399  24.227  25.660  1.00  0.00     0.020 A 
ATOM     11  C   UNL A   1      30.411  26.509  24.893  1.00  0.00     0.017 A 
ATOM     12  Br  UNL A   1      29.997  22.935  26.976  1.00  0.00    -0.051 Br
ATOM     13  C   UNL A   1      30.070  25.558  25.863  1.00  0.00     0.016 A 
BRANCH   8  14
ATOM     14  N   UNL A   1      31.933  24.284  22.349  1.00  0.00    -0.321 N 
ATOM     15  C   UNL A   1      33.126  23.608  22.194  1.00  0.00     0.256 C 
ATOM     16  O   UNL A   1      33.419  23.401  21.008  1.00  0.00    -0.269 OA
ATOM     17  H   UNL A   1      31.450  24.441  21.506  1.00  0.00     0.170 HD
BRANCH  15  18
ATOM     18  C   UNL A   1      33.957  22.999  23.271  1.00  0.00     0.053 A 
ATOM     19  C   UNL A   1      32.979  20.632  24.100  1.00  0.00     0.046 C 
ATOM     20  C   UNL A   1      33.921  21.788  24.100  1.00  0.00    -0.028 A 
ATOM     21  C   UNL A   1      34.967  21.765  25.014  1.00  0.00     0.069 A 
ATOM     22  S   UNL A   1      36.083  23.019  24.809  1.00  0.00    -0.151 S 
ATOM     23  C   UNL A   1      35.154  23.669  23.547  1.00  0.00     0.079 A 
ENDBRANCH  15  18
ENDBRANCH   8  14
ENDBRANCH   4   7
ENDBRANCH   2   3
ENDBRANCH   1   2
BRANCH   1  24
ATOM     24  C   UNL A   1      32.573  29.712  25.333  1.00  0.00     0.023 C 
BRANCH  24  25
ATOM     25  C   UNL A   1      32.384  30.226  26.756  1.00  0.00     0.116 C 
BRANCH  25  26
ATOM     26  N   UNL A   1      32.403  31.676  26.883  1.00  0.00    -0.352 N 
ATOM     27  C   UNL A   1      33.329  32.504  27.477  1.00  0.00     0.251 C 
ATOM     28  H   UNL A   1      31.632  32.139  26.480  1.00  0.00     0.163 HD
ATOM     29  O   UNL A   1      33.121  33.714  27.546  1.00  0.00    -0.269 OA
BRANCH  27  30
ATOM     30  C   UNL A   1      34.566  31.949  28.074  1.00  0.00     0.039 A 
ATOM     31  C   UNL A   1      35.638  32.807  28.334  1.00  0.00     0.014 A 
ATOM     32  C   UNL A   1      34.678  30.591  28.377  1.00  0.00     0.014 A 
ATOM     33  C   UNL A   1      36.785  32.318  28.965  1.00  0.00     0.010 A 
ATOM     34  C   UNL A   1      35.767  30.130  29.109  1.00  0.00     0.010 A 
ATOM     35  C   UNL A   1      36.846  30.981  29.392  1.00  0.00    -0.014 A 
BRANCH  35  36
ATOM     36  C   UNL A   1      38.048  30.440  30.082  1.00  0.00     0.031 A 
ATOM     37  C   UNL A   1      38.335  30.836  31.507  1.00  0.00     0.074 A 
ATOM     38  C   UNL A   1      38.906  29.637  29.421  1.00  0.00     0.049 A 
ATOM     39  N   UNL A   1      39.351  30.519  32.271  1.00  0.00    -0.248 NA
ATOM     40  C   UNL A   1      37.367  31.740  32.153  1.00  0.00     0.031 C 
ATOM     41  C   UNL A   1      38.777  29.224  28.024  1.00  0.00     0.029 A 
ATOM     42  N   UNL A   1      40.063  29.026  29.840  1.00  0.00    -0.354 N 
ATOM     43  C   UNL A   1      39.152  31.198  33.467  1.00  0.00     0.074 A 
ATOM     44  C   UNL A   1      37.961  32.000  33.307  1.00  0.00     0.031 C 
ATOM     45  C   UNL A   1      39.793  28.402  27.711  1.00  0.00     0.029 A 
ATOM     46  C   UNL A   1      40.666  28.259  28.872  1.00  0.00     0.049 A 
ATOM     47  H   UNL A   1      40.427  29.127  30.749  1.00  0.00     0.167 HD
ATOM     48  C   UNL A   1      39.874  31.132  34.610  1.00  0.00     0.037 A 
ATOM     49  C   UNL A   1      41.794  27.524  28.919  1.00  0.00     0.037 A 
ATOM     50  C   UNL A   1      41.038  30.304  34.782  1.00  0.00     0.049 A 
ATOM     51  C   UNL A   1      42.572  27.458  30.207  1.00  0.00     0.074 A 
ATOM     52  C   UNL A   1      41.808  30.121  35.916  1.00  0.00     0.029 A 
ATOM     53  N   UNL A   1      41.597  29.515  33.787  1.00  0.00    -0.354 N 
ATOM     54  N   UNL A   1      42.331  28.046  31.354  1.00  0.00    -0.248 NA
ATOM     55  C   UNL A   1      43.771  26.609  30.211  1.00  0.00     0.031 C 
ATOM     56  C   UNL A   1      42.863  29.261  35.594  1.00  0.00     0.029 A 
ATOM     57  C   UNL A   1      42.712  28.856  34.278  1.00  0.00     0.049 A 
ATOM     58  H   UNL A   1      41.252  29.435  32.868  1.00  0.00     0.167 HD
ATOM     59  C   UNL A   1      43.321  27.607  32.225  1.00  0.00     0.074 A 
ATOM     60  C   UNL A   1      44.155  26.690  31.477  1.00  0.00     0.031 C 
ATOM     61  C   UNL A   1      43.520  27.930  33.526  1.00  0.00     0.037 A 
BRANCH  48  62
ATOM     62  C   UNL A   1      39.420  31.971  35.770  1.00  0.00     0.064 A 
ATOM     63  C   UNL A   1      38.462  31.507  36.687  1.00  0.00     0.173 A 
ATOM     64  C   UNL A   1      39.973  33.241  35.992  1.00  0.00     0.173 A 
ATOM     65  F   UNL A   1      37.890  30.306  36.516  1.00  0.00    -0.203 F 
ATOM     66  C   UNL A   1      38.054  32.294  37.760  1.00  0.00     0.198 A 
ATOM     67  C   UNL A   1      39.589  34.011  37.087  1.00  0.00     0.198 A 
ATOM     68  F   UNL A   1      40.896  33.733  35.151  1.00  0.00    -0.203 F 
ATOM     69  F   UNL A   1      37.097  31.852  38.588  1.00  0.00    -0.200 F 
ATOM     70  C   UNL A   1      38.624  33.541  37.964  1.00  0.00     0.200 A 
ATOM     71  F   UNL A   1      40.152  35.210  37.291  1.00  0.00    -0.200 F 
ATOM     72  F   UNL A   1      38.238  34.294  39.004  1.00  0.00    -0.200 F 
ENDBRANCH  48  62
BRANCH  49  73
ATOM     73  C   UNL A   1      42.245  26.763  27.721  1.00  0.00     0.064 A 
ATOM     74  C   UNL A   1      41.754  25.476  27.456  1.00  0.00     0.173 A 
ATOM     75  C   UNL A   1      43.201  27.287  26.839  1.00  0.00     0.173 A 
ATOM     76  F   UNL A   1      40.852  24.920  28.280  1.00  0.00    -0.203 F 
ATOM     77  C   UNL A   1      42.225  24.731  26.377  1.00  0.00     0.198 A 
ATOM     78  C   UNL A   1      43.647  26.554  25.740  1.00  0.00     0.198 A 
ATOM     79  F   UNL A   1      43.700  28.515  27.041  1.00  0.00    -0.203 F 
ATOM     80  F   UNL A   1      41.784  23.480  26.186  1.00  0.00    -0.200 F 
ATOM     81  C   UNL A   1      43.168  25.272  25.518  1.00  0.00     0.200 A 
ATOM     82  F   UNL A   1      44.548  27.086  24.903  1.00  0.00    -0.200 F 
ATOM     83  F   UNL A   1      43.625  24.553  24.482  1.00  0.00    -0.200 F 
ENDBRANCH  49  73
BRANCH  61  84
ATOM     84  C   UNL A   1      44.645  27.240  34.245  1.00  0.00     0.064 A 
ATOM     85  C   UNL A   1      44.473  26.003  34.881  1.00  0.00     0.173 A 
ATOM     86  C   UNL A   1      45.923  27.821  34.275  1.00  0.00     0.173 A 
ATOM     87  F   UNL A   1      43.269  25.408  34.892  1.00  0.00    -0.203 F 
ATOM     88  C   UNL A   1      45.527  25.392  35.556  1.00  0.00     0.198 A 
ATOM     89  C   UNL A   1      46.983  27.190  34.918  1.00  0.00     0.198 A 
ATOM     90  F   UNL A   1      46.145  28.999  33.673  1.00  0.00    -0.203 F 
ATOM     91  F   UNL A   1      45.324  24.241  36.212  1.00  0.00    -0.200 F 
ATOM     92  C   UNL A   1      46.782  25.982  35.568  1.00  0.00     0.200 A 
ATOM     93  F   UNL A   1      48.200  27.753  34.911  1.00  0.00    -0.200 F 
ATOM     94  F   UNL A   1      47.797  25.392  36.215  1.00  0.00    -0.200 F 
ENDBRANCH  61  84
ENDBRANCH  35  36
ENDBRANCH  27  30
ENDBRANCH  25  26
ENDBRANCH  24  25
ENDBRANCH   1  24
TORSDOF 13
ENDMDL
MODEL 2
REMARK VINA RESULT:     -12.6      1.688      2.719
REMARK SMILES Cc1cscc1C(=O)Nc1cc(Br)ccc1C(=O)NCCCCNC(=O)c1ccc(-c2c3nc(c(-c4c(F)c(F)c(F)c(F)c4F)c4ccc([nH]4)c(-c4c(F)c(F)c(F)c(F)c4F)c4nc(c(-c5c(F)c(F)c(F)c(F)c5F)c5ccc2[nH]5)C=C4)C=C3)cc1
REMARK SMILES IDX 21 1 20 2 19 3 17 4 18 5 16 7 10 8 11 9 12 10 15 11 13 12
REMARK SMILES IDX 14 13 9 14 7 15 8 16 6 18 1 19 2 20 3 21 4 22 5 23 22 24
REMARK SMILES IDX 23 25 24 26 25 27 26 29 27 30 28 31 89 32 29 33 88 34 30 35
REMARK SMILES IDX 31 36 32 37 82 38 33 39 87 40 81 41 83 42 34 43 86 44 80 45
REMARK SMILES IDX 79 46 35 48 67 49 47 50 66 51 48 52 51 53 65 54 84 55 49 56
REMARK SMILES IDX 50 57 64 59 85 60 52 61 36 62 37 63 45 64 38 65 39 66 43 67
REMARK SMILES IDX 46 68 40 69 41 70 44 71 42 72 68 73 69 74 77 75 70 76 71 77
REMARK SMILES IDX 75 78 78 79 72 80 73 81 76 82 74 83 53 84 54 85 62 86 55 87
REMARK SMILES IDX 56 88 60 89 63 90 57 91 58 92 61 93 59 94
REMARK H PARENT 19 6 9 17 24 28 83 47 51 58
REMARK Flexibility Score: inf
ROOT
ATOM      1  C   UNL A   1      32.177  28.242  27.603  1.00  0.00     0.023 C 
ENDROOT
BRANCH   1   2
ATOM      2  C   UNL A   1      32.247  27.052  26.659  1.00  0.00     0.116 C 
BRANCH   2   3
ATOM      3  N   UNL A   1      31.556  25.850  27.044  1.00  0.00    -0.352 N 
ATOM      4  C   UNL A   1      31.792  24.529  26.734  1.00  0.00     0.253 C 
ATOM      5  O   UNL A   1      31.012  23.722  27.252  1.00  0.00    -0.269 OA
ATOM      6  H   UNL A   1      30.779  25.998  27.630  1.00  0.00     0.163 HD
BRANCH   4   7
ATOM      7  C   UNL A   1      32.861  23.978  25.818  1.00  0.00     0.063 A 
ATOM      8  C   UNL A   1      32.768  23.494  24.493  1.00  0.00     0.055 A 
ATOM      9  C   UNL A   1      33.924  23.148  23.767  1.00  0.00     0.042 A 
ATOM     10  C   UNL A   1      35.176  23.186  24.372  1.00  0.00     0.020 A 
ATOM     11  C   UNL A   1      34.148  23.957  26.408  1.00  0.00     0.017 A 
ATOM     12  Br  UNL A   1      36.709  22.692  23.387  1.00  0.00    -0.051 Br
ATOM     13  C   UNL A   1      35.290  23.556  25.703  1.00  0.00     0.016 A 
BRANCH   8  14
ATOM     14  N   UNL A   1      31.587  23.466  23.773  1.00  0.00    -0.321 N 
ATOM     15  C   UNL A   1      30.760  24.472  23.316  1.00  0.00     0.256 C 
ATOM     16  O   UNL A   1      29.727  24.047  22.779  1.00  0.00    -0.269 OA
ATOM     17  H   UNL A   1      31.279  22.560  23.545  1.00  0.00     0.170 HD
BRANCH  15  18
ATOM     18  C   UNL A   1      31.064  25.930  23.270  1.00  0.00     0.053 A 
ATOM     19  C   UNL A   1      33.509  26.432  22.262  1.00  0.00     0.046 C 
ATOM     20  C   UNL A   1      32.191  26.779  22.867  1.00  0.00    -0.028 A 
ATOM     21  C   UNL A   1      31.928  28.123  23.104  1.00  0.00     0.069 A 
ATOM     22  S   UNL A   1      30.344  28.430  23.612  1.00  0.00    -0.151 S 
ATOM     23  C   UNL A   1      29.996  26.769  23.604  1.00  0.00     0.079 A 
ENDBRANCH  15  18
ENDBRANCH   8  14
ENDBRANCH   4   7
ENDBRANCH   2   3
ENDBRANCH   1   2
BRANCH   1  24
ATOM     24  C   UNL A   1      31.678  29.558  27.020  1.00  0.00     0.023 C 
BRANCH  24  25
ATOM     25  C   UNL A   1      32.715  30.453  26.351  1.00  0.00     0.116 C 
BRANCH  25  26
ATOM     26  N   UNL A   1      32.627  31.860  26.717  1.00  0.00    -0.352 N 
ATOM     27  C   UNL A   1      33.451  32.623  27.514  1.00  0.00     0.251 C 
ATOM     28  H   UNL A   1      31.858  32.342  26.334  1.00  0.00     0.163 HD
ATOM     29  O   UNL A   1      33.158  33.790  27.764  1.00  0.00    -0.269 OA
BRANCH  27  30
ATOM     30  C   UNL A   1      34.676  32.042  28.110  1.00  0.00     0.039 A 
ATOM     31  C   UNL A   1      35.829  32.827  28.190  1.00  0.00     0.014 A 
ATOM     32  C   UNL A   1      34.698  30.731  28.588  1.00  0.00     0.014 A 
ATOM     33  C   UNL A   1      36.974  32.324  28.816  1.00  0.00     0.010 A 
ATOM     34  C   UNL A   1      35.793  30.274  29.313  1.00  0.00     0.010 A 
ATOM     35  C   UNL A   1      36.955  31.054  29.417  1.00  0.00    -0.014 A 
BRANCH  35  36
ATOM     36  C   UNL A   1      38.153  30.503  30.104  1.00  0.00     0.031 A 
ATOM     37  C   UNL A   1      38.446  30.898  31.529  1.00  0.00     0.074 A 
ATOM     38  C   UNL A   1      39.001  29.691  29.443  1.00  0.00     0.049 A 
ATOM     39  N   UNL A   1      39.462  30.572  32.290  1.00  0.00    -0.248 NA
ATOM     40  C   UNL A   1      37.489  31.812  32.175  1.00  0.00     0.031 C 
ATOM     41  C   UNL A   1      38.866  29.277  28.046  1.00  0.00     0.029 A 
ATOM     42  N   UNL A   1      40.154  29.069  29.860  1.00  0.00    -0.354 N 
ATOM     43  C   UNL A   1      39.271  31.254  33.486  1.00  0.00     0.074 A 
ATOM     44  C   UNL A   1      38.087  32.068  33.327  1.00  0.00     0.031 C 
ATOM     45  C   UNL A   1      39.873  28.445  27.732  1.00  0.00     0.029 A 
ATOM     46  C   UNL A   1      40.747  28.296  28.891  1.00  0.00     0.049 A 
ATOM     47  H   UNL A   1      40.520  29.168  30.768  1.00  0.00     0.167 HD
ATOM     48  C   UNL A   1      39.995  31.183  34.628  1.00  0.00     0.037 A 
ATOM     49  C   UNL A   1      41.868  27.550  28.936  1.00  0.00     0.037 A 
ATOM     50  C   UNL A   1      41.151  30.344  34.798  1.00  0.00     0.049 A 
ATOM     51  C   UNL A   1      42.648  27.477  30.224  1.00  0.00     0.074 A 
ATOM     52  C   UNL A   1      41.922  30.154  35.931  1.00  0.00     0.029 A 
ATOM     53  N   UNL A   1      41.700  29.548  33.802  1.00  0.00    -0.354 N 
ATOM     54  N   UNL A   1      42.415  28.070  31.370  1.00  0.00    -0.248 NA
ATOM     55  C   UNL A   1      43.839  26.617  30.226  1.00  0.00     0.031 C 
ATOM     56  C   UNL A   1      42.968  29.284  35.608  1.00  0.00     0.029 A 
ATOM     57  C   UNL A   1      42.810  28.879  34.293  1.00  0.00     0.049 A 
ATOM     58  H   UNL A   1      41.353  29.471  32.884  1.00  0.00     0.167 HD
ATOM     59  C   UNL A   1      43.402  27.621  32.240  1.00  0.00     0.074 A 
ATOM     60  C   UNL A   1      44.226  26.696  31.491  1.00  0.00     0.031 C 
ATOM     61  C   UNL A   1      43.607  27.945  33.540  1.00  0.00     0.037 A 
BRANCH  48  62
ATOM     62  C   UNL A   1      39.551  32.027  35.788  1.00  0.00     0.064 A 
ATOM     63  C   UNL A   1      38.519  31.618  36.648  1.00  0.00     0.173 A 
ATOM     64  C   UNL A   1      40.188  33.246  36.067  1.00  0.00     0.173 A 
ATOM     65  F   UNL A   1      37.866  30.468  36.419  1.00  0.00    -0.203 F 
ATOM     66  C   UNL A   1      38.121  32.409  37.721  1.00  0.00     0.198 A 
ATOM     67  C   UNL A   1      39.813  34.018  37.164  1.00  0.00     0.198 A 
ATOM     68  F   UNL A   1      41.184  33.685  35.283  1.00  0.00    -0.203 F 
ATOM     69  F   UNL A   1      37.096  32.023  38.493  1.00  0.00    -0.200 F 
ATOM     70  C   UNL A   1      38.774  33.604  37.984  1.00  0.00     0.200 A 
ATOM     71  F   UNL A   1      40.454  35.165  37.425  1.00  0.00    -0.200 F 
ATOM     72  F   UNL A   1      38.398  34.360  39.025  1.00  0.00    -0.200 F 
ENDBRANCH  48  62
BRANCH  49  73
ATOM     73  C   UNL A   1      42.309  26.783  27.739  1.00  0.00     0.064 A 
ATOM     74  C   UNL A   1      41.816  25.495  27.484  1.00  0.00     0.173 A 
ATOM     75  C   UNL A   1      43.258  27.303  26.846  1.00  0.00     0.173 A 
ATOM     76  F   UNL A   1      40.921  24.943  28.319  1.00  0.00    -0.203 F 
ATOM     77  C   UNL A   1      42.278  24.744  26.405  1.00  0.00     0.198 A 
ATOM     78  C   UNL A   1      43.694  26.565  25.747  1.00  0.00     0.198 A 
ATOM     79  F   UNL A   1      43.758  28.531  27.039  1.00  0.00    -0.203 F 
ATOM     80  F   UNL A   1      41.835  23.492  26.224  1.00  0.00    -0.200 F 
ATOM     81  C   UNL A   1      43.214  25.281  25.535  1.00  0.00     0.200 A 
ATOM     82  F   UNL A   1      44.588  27.093  24.900  1.00  0.00    -0.200 F 
ATOM     83  F   UNL A   1      43.662  24.558  24.500  1.00  0.00    -0.200 F 
ENDBRANCH  49  73
BRANCH  61  84
ATOM     84  C   UNL A   1      44.727  27.245  34.257  1.00  0.00     0.064 A 
ATOM     85  C   UNL A   1      46.029  27.764  34.291  1.00  0.00     0.173 A 
ATOM     86  C   UNL A   1      44.482  26.044  34.943  1.00  0.00     0.173 A 
ATOM     87  F   UNL A   1      46.320  28.903  33.643  1.00  0.00    -0.203 F 
ATOM     88  C   UNL A   1      47.054  27.086  34.947  1.00  0.00     0.198 A 
ATOM     89  C   UNL A   1      45.500  25.389  35.630  1.00  0.00     0.198 A 
ATOM     90  F   UNL A   1      43.252  25.510  34.953  1.00  0.00    -0.203 F 
ATOM     91  F   UNL A   1      48.303  27.567  34.911  1.00  0.00    -0.200 F 
ATOM     92  C   UNL A   1      46.787  25.904  35.622  1.00  0.00     0.200 A 
ATOM     93  F   UNL A   1      45.235  24.258  36.298  1.00  0.00    -0.200 F 
ATOM     94  F   UNL A   1      47.773  25.255  36.256  1.00  0.00    -0.200 F 
ENDBRANCH  61  84
ENDBRANCH  35  36
ENDBRANCH  27  30
ENDBRANCH  25  26
ENDBRANCH  24  25
ENDBRANCH   1  24
TORSDOF 13
ENDMDL
MODEL 3
REMARK VINA RESULT:     -12.5      4.409      9.027
REMARK SMILES Cc1cscc1C(=O)Nc1cc(Br)ccc1C(=O)NCCCCNC(=O)c1ccc(-c2c3nc(c(-c4c(F)c(F)c(F)c(F)c4F)c4ccc([nH]4)c(-c4c(F)c(F)c(F)c(F)c4F)c4nc(c(-c5c(F)c(F)c(F)c(F)c5F)c5ccc2[nH]5)C=C4)C=C3)cc1
REMARK SMILES IDX 21 1 20 2 19 3 17 4 18 5 16 7 10 8 11 9 12 10 15 11 13 12
REMARK SMILES IDX 14 13 9 14 7 15 8 16 6 18 1 19 2 20 3 21 4 22 5 23 22 24
REMARK SMILES IDX 23 25 24 26 25 27 26 29 27 30 28 31 89 32 29 33 88 34 30 35
REMARK SMILES IDX 31 36 32 37 82 38 33 39 87 40 81 41 83 42 34 43 86 44 80 45
REMARK SMILES IDX 79 46 35 48 67 49 47 50 66 51 48 52 51 53 65 54 84 55 49 56
REMARK SMILES IDX 50 57 64 59 85 60 52 61 36 62 37 63 45 64 38 65 39 66 43 67
REMARK SMILES IDX 46 68 40 69 41 70 44 71 42 72 68 73 69 74 77 75 70 76 71 77
REMARK SMILES IDX 75 78 78 79 72 80 73 81 76 82 74 83 53 84 54 85 62 86 55 87
REMARK SMILES IDX 56 88 60 89 63 90 57 91 58 92 61 93 59 94
REMARK H PARENT 19 6 9 17 24 28 83 47 51 58
REMARK Flexibility Score: inf
ROOT
ATOM      1  C   UNL A   1      34.135  23.430  24.940  1.00  0.00     0.023 C 
ENDROOT
BRANCH   1   2
ATOM      2  C   UNL A   1      33.519  24.402  25.934  1.00  0.00     0.116 C 
BRANCH   2   3
ATOM      3  N   UNL A   1      32.086  24.418  26.056  1.00  0.00    -0.352 N 
ATOM      4  C   UNL A   1      31.191  25.464  26.104  1.00  0.00     0.253 C 
ATOM      5  O   UNL A   1      30.003  25.134  26.192  1.00  0.00    -0.269 OA
ATOM      6  H   UNL A   1      31.673  23.527  26.115  1.00  0.00     0.163 HD
BRANCH   4   7
ATOM      7  C   UNL A   1      31.507  26.944  26.096  1.00  0.00     0.063 A 
ATOM      8  C   UNL A   1      31.799  27.809  25.018  1.00  0.00     0.055 A 
ATOM      9  C   UNL A   1      31.932  29.196  25.220  1.00  0.00     0.042 A 
ATOM     10  C   UNL A   1      31.872  29.732  26.502  1.00  0.00     0.020 A 
ATOM     11  C   UNL A   1      31.499  27.524  27.387  1.00  0.00     0.017 A 
ATOM     12  Br  UNL A   1      32.080  31.592  26.751  1.00  0.00    -0.051 Br
ATOM     13  C   UNL A   1      31.690  28.897  27.593  1.00  0.00     0.016 A 
BRANCH   8  14
ATOM     14  N   UNL A   1      31.826  27.398  23.696  1.00  0.00    -0.321 N 
ATOM     15  C   UNL A   1      30.865  27.408  22.706  1.00  0.00     0.256 C 
ATOM     16  O   UNL A   1      31.240  26.865  21.658  1.00  0.00    -0.269 OA
ATOM     17  H   UNL A   1      32.693  27.030  23.410  1.00  0.00     0.170 HD
BRANCH  15  18
ATOM     18  C   UNL A   1      29.555  28.119  22.737  1.00  0.00     0.053 A 
ATOM     19  C   UNL A   1      27.666  26.723  24.051  1.00  0.00     0.046 C 
ATOM     20  C   UNL A   1      28.207  27.863  23.258  1.00  0.00    -0.028 A 
ATOM     21  C   UNL A   1      27.332  28.893  22.934  1.00  0.00     0.069 A 
ATOM     22  S   UNL A   1      28.080  30.222  22.202  1.00  0.00    -0.151 S 
ATOM     23  C   UNL A   1      29.576  29.421  22.227  1.00  0.00     0.079 A 
ENDBRANCH  15  18
ENDBRANCH   8  14
ENDBRANCH   4   7
ENDBRANCH   2   3
ENDBRANCH   1   2
BRANCH   1  24
ATOM     24  C   UNL A   1      35.617  23.602  24.633  1.00  0.00     0.023 C 
BRANCH  24  25
ATOM     25  C   UNL A   1      36.556  23.750  25.825  1.00  0.00     0.116 C 
BRANCH  25  26
ATOM     26  N   UNL A   1      37.602  22.740  25.900  1.00  0.00    -0.352 N 
ATOM     27  C   UNL A   1      38.897  22.835  26.361  1.00  0.00     0.251 C 
ATOM     28  H   UNL A   1      37.344  21.849  25.571  1.00  0.00     0.163 HD
ATOM     29  O   UNL A   1      39.656  21.873  26.268  1.00  0.00    -0.269 OA
BRANCH  27  30
ATOM     30  C   UNL A   1      39.403  24.102  26.937  1.00  0.00     0.039 A 
ATOM     31  C   UNL A   1      40.037  25.023  26.098  1.00  0.00     0.014 A 
ATOM     32  C   UNL A   1      39.259  24.390  28.295  1.00  0.00     0.014 A 
ATOM     33  C   UNL A   1      40.456  26.256  26.606  1.00  0.00     0.010 A 
ATOM     34  C   UNL A   1      39.567  25.659  28.773  1.00  0.00     0.010 A 
ATOM     35  C   UNL A   1      40.191  26.601  27.942  1.00  0.00    -0.014 A 
BRANCH  35  36
ATOM     36  C   UNL A   1      40.610  27.914  28.502  1.00  0.00     0.031 A 
ATOM     37  C   UNL A   1      42.060  28.159  28.831  1.00  0.00     0.074 A 
ATOM     38  C   UNL A   1      39.691  28.866  28.761  1.00  0.00     0.049 A 
ATOM     39  N   UNL A   1      42.624  29.211  29.372  1.00  0.00    -0.248 NA
ATOM     40  C   UNL A   1      43.000  27.061  28.547  1.00  0.00     0.031 C 
ATOM     41  C   UNL A   1      38.250  28.736  28.545  1.00  0.00     0.029 A 
ATOM     42  N   UNL A   1      39.835  30.134  29.270  1.00  0.00    -0.354 N 
ATOM     43  C   UNL A   1      43.970  28.889  29.508  1.00  0.00     0.074 A 
ATOM     44  C   UNL A   1      44.128  27.524  29.063  1.00  0.00     0.031 C 
ATOM     45  C   UNL A   1      37.647  29.887  28.885  1.00  0.00     0.029 A 
ATOM     46  C   UNL A   1      38.652  30.824  29.379  1.00  0.00     0.049 A 
ATOM     47  H   UNL A   1      40.705  30.514  29.531  1.00  0.00     0.167 HD
ATOM     48  C   UNL A   1      44.990  29.673  29.930  1.00  0.00     0.037 A 
ATOM     49  C   UNL A   1      38.408  32.071  29.825  1.00  0.00     0.037 A 
ATOM     50  C   UNL A   1      44.839  31.044  30.336  1.00  0.00     0.049 A 
ATOM     51  C   UNL A   1      39.563  32.927  30.277  1.00  0.00     0.074 A 
ATOM     52  C   UNL A   1      45.816  31.942  30.727  1.00  0.00     0.029 A 
ATOM     53  N   UNL A   1      43.627  31.717  30.400  1.00  0.00    -0.354 N 
ATOM     54  N   UNL A   1      40.840  32.636  30.331  1.00  0.00    -0.248 NA
ATOM     55  C   UNL A   1      39.242  34.292  30.716  1.00  0.00     0.031 C 
ATOM     56  C   UNL A   1      45.191  33.144  31.076  1.00  0.00     0.029 A 
ATOM     57  C   UNL A   1      43.832  33.016  30.839  1.00  0.00     0.049 A 
ATOM     58  H   UNL A   1      42.752  31.330  30.167  1.00  0.00     0.167 HD
ATOM     59  C   UNL A   1      41.478  33.791  30.766  1.00  0.00     0.074 A 
ATOM     60  C   UNL A   1      40.447  34.791  30.947  1.00  0.00     0.031 C 
ATOM     61  C   UNL A   1      42.797  34.006  30.994  1.00  0.00     0.037 A 
BRANCH  48  62
ATOM     62  C   UNL A   1      46.365  29.068  29.964  1.00  0.00     0.064 A 
ATOM     63  C   UNL A   1      47.211  29.094  28.843  1.00  0.00     0.173 A 
ATOM     64  C   UNL A   1      46.858  28.484  31.141  1.00  0.00     0.173 A 
ATOM     65  F   UNL A   1      46.786  29.627  27.688  1.00  0.00    -0.203 F 
ATOM     66  C   UNL A   1      48.484  28.533  28.891  1.00  0.00     0.198 A 
ATOM     67  C   UNL A   1      48.146  27.957  31.196  1.00  0.00     0.198 A 
ATOM     68  F   UNL A   1      46.095  28.435  32.243  1.00  0.00    -0.203 F 
ATOM     69  F   UNL A   1      49.251  28.521  27.793  1.00  0.00    -0.200 F 
ATOM     70  C   UNL A   1      48.954  27.973  30.069  1.00  0.00     0.200 A 
ATOM     71  F   UNL A   1      48.604  27.429  32.340  1.00  0.00    -0.200 F 
ATOM     72  F   UNL A   1      50.184  27.443  30.117  1.00  0.00    -0.200 F 
ENDBRANCH  48  62
BRANCH  49  73
ATOM     73  C   UNL A   1      37.018  32.607  29.839  1.00  0.00     0.064 A 
ATOM     74  C   UNL A   1      36.496  33.288  28.730  1.00  0.00     0.173 A 
ATOM     75  C   UNL A   1      36.198  32.481  30.969  1.00  0.00     0.173 A 
ATOM     76  F   UNL A   1      37.247  33.454  27.630  1.00  0.00    -0.203 F 
ATOM     77  C   UNL A   1      35.222  33.853  28.763  1.00  0.00     0.198 A 
ATOM     78  C   UNL A   1      34.911  33.016  30.989  1.00  0.00     0.198 A 
ATOM     79  F   UNL A   1      36.644  31.834  32.055  1.00  0.00    -0.203 F 
ATOM     80  F   UNL A   1      34.775  34.554  27.712  1.00  0.00    -0.200 F 
ATOM     81  C   UNL A   1      34.429  33.713  29.891  1.00  0.00     0.200 A 
ATOM     82  F   UNL A   1      34.142  32.866  32.076  1.00  0.00    -0.200 F 
ATOM     83  F   UNL A   1      33.206  34.260  29.925  1.00  0.00    -0.200 F 
ENDBRANCH  49  73
BRANCH  61  84
ATOM     84  C   UNL A   1      43.211  35.392  31.400  1.00  0.00     0.064 A 
ATOM     85  C   UNL A   1      43.248  35.795  32.742  1.00  0.00     0.173 A 
ATOM     86  C   UNL A   1      43.600  36.325  30.425  1.00  0.00     0.173 A 
ATOM     87  F   UNL A   1      42.876  34.946  33.714  1.00  0.00    -0.203 F 
ATOM     88  C   UNL A   1      43.618  37.091  33.092  1.00  0.00     0.198 A 
ATOM     89  C   UNL A   1      44.006  37.608  30.780  1.00  0.00     0.198 A 
ATOM     90  F   UNL A   1      43.594  35.988  29.127  1.00  0.00    -0.203 F 
ATOM     91  F   UNL A   1      43.583  37.473  34.375  1.00  0.00    -0.200 F 
ATOM     92  C   UNL A   1      44.003  37.994  32.111  1.00  0.00     0.200 A 
ATOM     93  F   UNL A   1      44.396  38.472  29.833  1.00  0.00    -0.200 F 
ATOM     94  F   UNL A   1      44.362  39.240  32.450  1.00  0.00    -0.200 F 
ENDBRANCH  61  84
ENDBRANCH  35  36
ENDBRANCH  27  30
ENDBRANCH  25  26
ENDBRANCH  24  25
ENDBRANCH   1  24
TORSDOF 13
ENDMDL
