MODEL 1
REMARK VINA RESULT:     -11.8      0.000      0.000
REMARK SMILES CSCC[C@H](C(=O)NCCCCNC(=O)c1ccc(-c2c3nc(c(-c4c(F)c(F)c(F)c(F)c4F)c4ccc([nH]4)c(-c4c(F)c(F)c(F)c(F)c4F)c4nc(c(-c5c(F)c(F)c(F)c(F)c5F)c5ccc2[nH]5)C=C4)C=C3)cc1)N1C(=O)/C(=C/c2cn(C)c3ccccc23)SC1=S
REMARK SMILES IDX 10 1 9 2 8 3 6 4 7 5 5 7 4 8 3 9 2 10 1 11 79 12 80 13 95 14
REMARK SMILES IDX 81 15 82 16 94 17 96 18 83 19 84 20 85 21 93 22 86 23 88 24
REMARK SMILES IDX 92 25 87 26 89 27 91 28 90 29 11 30 12 31 13 32 14 33 15 35
REMARK SMILES IDX 16 36 17 37 78 38 18 39 77 40 19 41 20 42 21 43 71 44 22 45
REMARK SMILES IDX 76 46 70 47 72 48 23 49 75 50 69 51 68 52 24 54 56 55 36 56
REMARK SMILES IDX 55 57 37 58 40 59 54 60 73 61 38 62 39 63 53 65 74 66 41 67
REMARK SMILES IDX 25 68 26 69 34 70 27 71 28 72 32 73 35 74 29 75 30 76 33 77
REMARK SMILES IDX 31 78 57 79 58 80 66 81 59 82 60 83 64 84 67 85 61 86 62 87
REMARK SMILES IDX 65 88 63 89 42 90 43 91 51 92 44 93 45 94 49 95 52 96 46 97
REMARK SMILES IDX 47 98 50 99 48 100
REMARK H PARENT 8 6 13 34 72 53 40 64
REMARK Flexibility Score: inf
ROOT
ATOM      1  C   UNL A   1      31.754  30.526  26.620  1.00  0.00     0.023 C 
ENDROOT
BRANCH   1   2
ATOM      2  C   UNL A   1      31.442  29.974  25.232  1.00  0.00     0.116 C 
BRANCH   2   3
ATOM      3  N   UNL A   1      32.657  29.753  24.469  1.00  0.00    -0.354 N 
ATOM      4  C   UNL A   1      33.031  28.849  23.517  1.00  0.00     0.243 C 
ATOM      5  O   UNL A   1      34.176  28.964  23.066  1.00  0.00    -0.273 OA
ATOM      6  H   UNL A   1      33.368  30.397  24.686  1.00  0.00     0.163 HD
BRANCH   4   7
ATOM      7  C   UNL A   1      32.081  27.826  22.917  1.00  0.00     0.182 C 
BRANCH   7   8
ATOM      8  C   UNL A   1      32.595  27.233  21.584  1.00  0.00     0.046 C 
BRANCH   8   9
ATOM      9  C   UNL A   1      31.921  26.000  20.941  1.00  0.00     0.072 C 
BRANCH   9  10
ATOM     10  S   UNL A   1      32.727  25.132  19.557  1.00  0.00    -0.165 SA
ATOM     11  C   UNL A   1      31.548  25.397  18.191  1.00  0.00     0.085 C 
ENDBRANCH   9  10
ENDBRANCH   8   9
ENDBRANCH   7   8
BRANCH   7  12
ATOM     12  N   UNL A   1      31.728  26.817  23.962  1.00  0.00    -0.280 N 
ATOM     13  C   UNL A   1      33.078  25.927  24.677  1.00  0.00     0.266 C 
ATOM     14  C   UNL A   1      30.079  26.614  24.494  1.00  0.00     0.149 C 
ATOM     15  O   UNL A   1      34.241  25.961  24.300  1.00  0.00    -0.268 OA
ATOM     16  C   UNL A   1      32.424  24.798  26.172  1.00  0.00     0.081 C 
ATOM     17  S   UNL A   1      29.964  25.248  26.301  1.00  0.00    -0.054 SA
ATOM     18  S   UNL A   1      28.556  26.947  23.856  1.00  0.00    -0.052 S 
ATOM     19  C   UNL A   1      33.094  23.568  25.997  1.00  0.00     0.031 C 
BRANCH  19  20
ATOM     20  C   UNL A   1      32.209  22.465  25.707  1.00  0.00     0.001 A 
ATOM     21  C   UNL A   1      31.491  22.205  24.534  1.00  0.00     0.094 A 
ATOM     22  C   UNL A   1      33.234  21.467  25.738  1.00  0.00     0.007 A 
ATOM     23  N   UNL A   1      32.402  21.759  23.582  1.00  0.00    -0.350 N 
ATOM     24  C   UNL A   1      33.616  22.034  24.144  1.00  0.00     0.048 A 
ATOM     25  C   UNL A   1      34.565  21.674  26.960  1.00  0.00     0.011 A 
ATOM     26  C   UNL A   1      32.230  20.616  22.709  1.00  0.00     0.149 C 
ATOM     27  C   UNL A   1      34.981  22.980  23.709  1.00  0.00     0.027 A 
ATOM     28  C   UNL A   1      36.204  22.696  26.325  1.00  0.00     0.001 A 
ATOM     29  C   UNL A   1      36.258  23.325  24.728  1.00  0.00     0.002 A 
ENDBRANCH  19  20
ENDBRANCH   7  12
ENDBRANCH   4   7
ENDBRANCH   2   3
ENDBRANCH   1   2
BRANCH   1  30
ATOM     30  C   UNL A   1      31.553  32.033  26.755  1.00  0.00     0.023 C 
BRANCH  30  31
ATOM     31  C   UNL A   1      32.771  32.757  27.291  1.00  0.00     0.116 C 
BRANCH  31  32
ATOM     32  N   UNL A   1      32.485  34.156  27.580  1.00  0.00    -0.352 N 
ATOM     33  C   UNL A   1      32.991  34.942  28.586  1.00  0.00     0.251 C 
ATOM     34  H   UNL A   1      31.845  34.595  26.975  1.00  0.00     0.163 HD
ATOM     35  O   UNL A   1      32.495  36.035  28.836  1.00  0.00    -0.269 OA
BRANCH  33  36
ATOM     36  C   UNL A   1      34.132  34.437  29.374  1.00  0.00     0.039 A 
ATOM     37  C   UNL A   1      33.895  33.781  30.582  1.00  0.00     0.014 A 
ATOM     38  C   UNL A   1      35.430  34.569  28.876  1.00  0.00     0.014 A 
ATOM     39  C   UNL A   1      34.965  33.202  31.264  1.00  0.00     0.010 A 
ATOM     40  C   UNL A   1      36.470  33.891  29.491  1.00  0.00     0.010 A 
ATOM     41  C   UNL A   1      36.255  33.223  30.705  1.00  0.00    -0.014 A 
BRANCH  41  42
ATOM     42  C   UNL A   1      37.411  32.596  31.389  1.00  0.00     0.031 A 
ATOM     43  C   UNL A   1      38.126  31.451  30.726  1.00  0.00     0.074 A 
ATOM     44  C   UNL A   1      37.763  33.002  32.623  1.00  0.00     0.049 A 
ATOM     45  N   UNL A   1      39.097  30.702  31.183  1.00  0.00    -0.248 NA
ATOM     46  C   UNL A   1      37.659  31.067  29.383  1.00  0.00     0.031 C 
ATOM     47  C   UNL A   1      37.102  34.060  33.390  1.00  0.00     0.029 A 
ATOM     48  N   UNL A   1      38.760  32.563  33.457  1.00  0.00    -0.354 N 
ATOM     49  C   UNL A   1      39.333  29.752  30.198  1.00  0.00     0.074 A 
ATOM     50  C   UNL A   1      38.360  29.968  29.153  1.00  0.00     0.031 C 
ATOM     51  C   UNL A   1      37.732  34.210  34.565  1.00  0.00     0.029 A 
ATOM     52  C   UNL A   1      38.813  33.235  34.654  1.00  0.00     0.049 A 
ATOM     53  H   UNL A   1      39.381  31.836  33.219  1.00  0.00     0.167 HD
ATOM     54  C   UNL A   1      40.300  28.805  30.153  1.00  0.00     0.037 A 
ATOM     55  C   UNL A   1      39.641  33.074  35.703  1.00  0.00     0.037 A 
ATOM     56  C   UNL A   1      41.289  28.625  31.180  1.00  0.00     0.049 A 
ATOM     57  C   UNL A   1      40.715  32.021  35.624  1.00  0.00     0.074 A 
ATOM     58  C   UNL A   1      42.355  27.745  31.209  1.00  0.00     0.029 A 
ATOM     59  N   UNL A   1      41.330  29.346  32.367  1.00  0.00    -0.354 N 
ATOM     60  N   UNL A   1      40.980  31.178  34.655  1.00  0.00    -0.248 NA
ATOM     61  C   UNL A   1      41.610  31.902  36.782  1.00  0.00     0.031 C 
ATOM     62  C   UNL A   1      43.012  27.898  32.434  1.00  0.00     0.029 A 
ATOM     63  C   UNL A   1      42.392  28.915  33.143  1.00  0.00     0.049 A 
ATOM     64  H   UNL A   1      40.698  30.058  32.618  1.00  0.00     0.167 HD
ATOM     65  C   UNL A   1      42.088  30.453  35.071  1.00  0.00     0.074 A 
ATOM     66  C   UNL A   1      42.455  30.966  36.374  1.00  0.00     0.031 C 
ATOM     67  C   UNL A   1      42.743  29.450  34.434  1.00  0.00     0.037 A 
BRANCH  54  68
ATOM     68  C   UNL A   1      40.338  27.907  28.950  1.00  0.00     0.064 A 
ATOM     69  C   UNL A   1      41.086  28.233  27.807  1.00  0.00     0.173 A 
ATOM     70  C   UNL A   1      39.632  26.694  28.945  1.00  0.00     0.173 A 
ATOM     71  F   UNL A   1      41.766  29.388  27.752  1.00  0.00    -0.203 F 
ATOM     72  C   UNL A   1      41.096  27.398  26.693  1.00  0.00     0.198 A 
ATOM     73  C   UNL A   1      39.675  25.843  27.843  1.00  0.00     0.198 A 
ATOM     74  F   UNL A   1      38.903  26.330  30.010  1.00  0.00    -0.203 F 
ATOM     75  F   UNL A   1      41.769  27.761  25.593  1.00  0.00    -0.200 F 
ATOM     76  C   UNL A   1      40.398  26.201  26.715  1.00  0.00     0.200 A 
ATOM     77  F   UNL A   1      39.009  24.680  27.870  1.00  0.00    -0.200 F 
ATOM     78  F   UNL A   1      40.415  25.394  25.645  1.00  0.00    -0.200 F 
ENDBRANCH  54  68
BRANCH  55  79
ATOM     79  C   UNL A   1      39.512  33.948  36.898  1.00  0.00     0.064 A 
ATOM     80  C   UNL A   1      38.760  33.540  38.010  1.00  0.00     0.173 A 
ATOM     81  C   UNL A   1      40.128  35.206  36.957  1.00  0.00     0.173 A 
ATOM     82  F   UNL A   1      38.136  32.352  37.996  1.00  0.00    -0.203 F 
ATOM     83  C   UNL A   1      38.609  34.365  39.122  1.00  0.00     0.198 A 
ATOM     84  C   UNL A   1      40.003  36.018  38.083  1.00  0.00     0.198 A 
ATOM     85  F   UNL A   1      40.866  35.642  35.926  1.00  0.00    -0.203 F 
ATOM     86  F   UNL A   1      37.844  33.970  40.149  1.00  0.00    -0.200 F 
ATOM     87  C   UNL A   1      39.235  35.602  39.160  1.00  0.00     0.200 A 
ATOM     88  F   UNL A   1      40.624  37.205  38.123  1.00  0.00    -0.200 F 
ATOM     89  F   UNL A   1      39.094  36.394  40.232  1.00  0.00    -0.200 F 
ENDBRANCH  55  79
BRANCH  67  90
ATOM     90  C   UNL A   1      43.946  28.871  35.120  1.00  0.00     0.064 A 
ATOM     91  C   UNL A   1      45.230  29.402  34.929  1.00  0.00     0.173 A 
ATOM     92  C   UNL A   1      43.801  27.801  36.017  1.00  0.00     0.173 A 
ATOM     93  F   UNL A   1      45.422  30.415  34.072  1.00  0.00    -0.203 F 
ATOM     94  C   UNL A   1      46.331  28.862  35.590  1.00  0.00     0.198 A 
ATOM     95  C   UNL A   1      44.899  27.288  36.702  1.00  0.00     0.198 A 
ATOM     96  F   UNL A   1      42.593  27.265  36.242  1.00  0.00    -0.203 F 
ATOM     97  F   UNL A   1      47.556  29.350  35.354  1.00  0.00    -0.200 F 
ATOM     98  C   UNL A   1      46.162  27.813  36.481  1.00  0.00     0.200 A 
ATOM     99  F   UNL A   1      44.732  26.286  37.576  1.00  0.00    -0.200 F 
ATOM    100  F   UNL A   1      47.222  27.303  37.124  1.00  0.00    -0.200 F 
ENDBRANCH  67  90
ENDBRANCH  41  42
ENDBRANCH  33  36
ENDBRANCH  31  32
ENDBRANCH  30  31
ENDBRANCH   1  30
TORSDOF 16
ENDMDL
MODEL 2
REMARK VINA RESULT:     -11.7      5.501     11.047
REMARK SMILES CSCC[C@H](C(=O)NCCCCNC(=O)c1ccc(-c2c3nc(c(-c4c(F)c(F)c(F)c(F)c4F)c4ccc([nH]4)c(-c4c(F)c(F)c(F)c(F)c4F)c4nc(c(-c5c(F)c(F)c(F)c(F)c5F)c5ccc2[nH]5)C=C4)C=C3)cc1)N1C(=O)/C(=C/c2cn(C)c3ccccc23)SC1=S
REMARK SMILES IDX 10 1 9 2 8 3 6 4 7 5 5 7 4 8 3 9 2 10 1 11 79 12 80 13 95 14
REMARK SMILES IDX 81 15 82 16 94 17 96 18 83 19 84 20 85 21 93 22 86 23 88 24
REMARK SMILES IDX 92 25 87 26 89 27 91 28 90 29 11 30 12 31 13 32 14 33 15 35
REMARK SMILES IDX 16 36 17 37 78 38 18 39 77 40 19 41 20 42 21 43 71 44 22 45
REMARK SMILES IDX 76 46 70 47 72 48 23 49 75 50 69 51 68 52 24 54 56 55 36 56
REMARK SMILES IDX 55 57 37 58 40 59 54 60 73 61 38 62 39 63 53 65 74 66 41 67
REMARK SMILES IDX 25 68 26 69 34 70 27 71 28 72 32 73 35 74 29 75 30 76 33 77
REMARK SMILES IDX 31 78 57 79 58 80 66 81 59 82 60 83 64 84 67 85 61 86 62 87
REMARK SMILES IDX 65 88 63 89 42 90 43 91 51 92 44 93 45 94 49 95 52 96 46 97
REMARK SMILES IDX 47 98 50 99 48 100
REMARK H PARENT 8 6 13 34 72 53 40 64
REMARK Flexibility Score: inf
ROOT
ATOM      1  C   UNL A   1      37.262  19.999  24.995  1.00  0.00     0.023 C 
ENDROOT
BRANCH   1   2
ATOM      2  C   UNL A   1      37.450  21.458  24.587  1.00  0.00     0.116 C 
BRANCH   2   3
ATOM      3  N   UNL A   1      36.841  22.356  25.551  1.00  0.00    -0.354 N 
ATOM      4  C   UNL A   1      35.604  22.915  25.680  1.00  0.00     0.243 C 
ATOM      5  O   UNL A   1      35.428  23.650  26.658  1.00  0.00    -0.273 OA
ATOM      6  H   UNL A   1      37.458  22.621  26.271  1.00  0.00     0.163 HD
BRANCH   4   7
ATOM      7  C   UNL A   1      34.434  22.573  24.772  1.00  0.00     0.182 C 
BRANCH   7   8
ATOM      8  C   UNL A   1      34.167  21.052  24.675  1.00  0.00     0.046 C 
BRANCH   8   9
ATOM      9  C   UNL A   1      32.900  20.502  23.982  1.00  0.00     0.072 C 
BRANCH   9  10
ATOM     10  S   UNL A   1      32.516  18.724  24.053  1.00  0.00    -0.165 SA
ATOM     11  C   UNL A   1      34.157  17.981  24.341  1.00  0.00     0.085 C 
ENDBRANCH   9  10
ENDBRANCH   8   9
ENDBRANCH   7   8
BRANCH   7  12
ATOM     12  N   UNL A   1      33.251  23.397  25.170  1.00  0.00    -0.280 N 
ATOM     13  C   UNL A   1      32.878  24.782  24.136  1.00  0.00     0.266 C 
ATOM     14  C   UNL A   1      32.257  22.942  26.530  1.00  0.00     0.149 C 
ATOM     15  O   UNL A   1      33.572  25.202  23.221  1.00  0.00    -0.268 OA
ATOM     16  C   UNL A   1      31.170  25.611  24.712  1.00  0.00     0.081 C 
ATOM     17  S   UNL A   1      30.384  24.218  26.638  1.00  0.00    -0.054 SA
ATOM     18  S   UNL A   1      32.461  22.000  27.912  1.00  0.00    -0.052 S 
ATOM     19  C   UNL A   1      31.425  26.999  24.666  1.00  0.00     0.031 C 
BRANCH  19  20
ATOM     20  C   UNL A   1      31.358  27.641  25.957  1.00  0.00     0.001 A 
ATOM     21  C   UNL A   1      32.290  27.605  27.001  1.00  0.00     0.094 A 
ATOM     22  C   UNL A   1      31.438  28.973  25.441  1.00  0.00     0.007 A 
ATOM     23  N   UNL A   1      33.361  28.409  26.627  1.00  0.00    -0.350 N 
ATOM     24  C   UNL A   1      33.136  28.650  25.302  1.00  0.00     0.048 A 
ATOM     25  C   UNL A   1      30.595  29.311  23.865  1.00  0.00     0.011 A 
ATOM     26  C   UNL A   1      34.017  29.396  27.461  1.00  0.00     0.149 C 
ATOM     27  C   UNL A   1      33.993  28.365  23.841  1.00  0.00     0.027 A 
ATOM     28  C   UNL A   1      31.717  29.075  22.187  1.00  0.00     0.001 A 
ATOM     29  C   UNL A   1      33.351  28.560  22.313  1.00  0.00     0.002 A 
ENDBRANCH  19  20
ENDBRANCH   7  12
ENDBRANCH   4   7
ENDBRANCH   2   3
ENDBRANCH   1   2
BRANCH   1  30
ATOM     30  C   UNL A   1      38.549  19.179  25.001  1.00  0.00     0.023 C 
BRANCH  30  31
ATOM     31  C   UNL A   1      39.567  19.664  26.012  1.00  0.00     0.116 C 
BRANCH  31  32
ATOM     32  N   UNL A   1      40.748  18.812  26.043  1.00  0.00    -0.352 N 
ATOM     33  C   UNL A   1      42.069  19.182  26.118  1.00  0.00     0.251 C 
ATOM     34  H   UNL A   1      40.578  17.843  26.004  1.00  0.00     0.163 HD
ATOM     35  O   UNL A   1      42.960  18.366  25.914  1.00  0.00    -0.269 OA
BRANCH  33  36
ATOM     36  C   UNL A   1      42.393  20.588  26.429  1.00  0.00     0.039 A 
ATOM     37  C   UNL A   1      42.568  20.975  27.757  1.00  0.00     0.014 A 
ATOM     38  C   UNL A   1      42.577  21.502  25.389  1.00  0.00     0.014 A 
ATOM     39  C   UNL A   1      42.989  22.274  28.038  1.00  0.00     0.010 A 
ATOM     40  C   UNL A   1      43.110  22.751  25.664  1.00  0.00     0.010 A 
ATOM     41  C   UNL A   1      43.297  23.160  26.991  1.00  0.00    -0.014 A 
BRANCH  41  42
ATOM     42  C   UNL A   1      43.772  24.541  27.253  1.00  0.00     0.031 A 
ATOM     43  C   UNL A   1      42.800  25.569  27.764  1.00  0.00     0.074 A 
ATOM     44  C   UNL A   1      45.040  24.882  26.959  1.00  0.00     0.049 A 
ATOM     45  N   UNL A   1      42.979  26.848  27.973  1.00  0.00    -0.248 NA
ATOM     46  C   UNL A   1      41.429  25.105  28.040  1.00  0.00     0.031 C 
ATOM     47  C   UNL A   1      46.053  23.984  26.399  1.00  0.00     0.029 A 
ATOM     48  N   UNL A   1      45.693  26.082  27.083  1.00  0.00    -0.354 N 
ATOM     49  C   UNL A   1      41.744  27.339  28.376  1.00  0.00     0.074 A 
ATOM     50  C   UNL A   1      40.807  26.241  28.313  1.00  0.00     0.031 C 
ATOM     51  C   UNL A   1      47.206  24.656  26.259  1.00  0.00     0.029 A 
ATOM     52  C   UNL A   1      47.005  26.039  26.679  1.00  0.00     0.049 A 
ATOM     53  H   UNL A   1      45.262  26.897  27.429  1.00  0.00     0.167 HD
ATOM     54  C   UNL A   1      41.427  28.586  28.796  1.00  0.00     0.037 A 
ATOM     55  C   UNL A   1      47.936  27.011  26.651  1.00  0.00     0.037 A 
ATOM     56  C   UNL A   1      42.377  29.660  28.894  1.00  0.00     0.049 A 
ATOM     57  C   UNL A   1      47.562  28.388  27.133  1.00  0.00     0.074 A 
ATOM     58  C   UNL A   1      42.183  30.943  29.370  1.00  0.00     0.029 A 
ATOM     59  N   UNL A   1      43.707  29.571  28.505  1.00  0.00    -0.354 N 
ATOM     60  N   UNL A   1      46.411  28.823  27.587  1.00  0.00    -0.248 NA
ATOM     61  C   UNL A   1      48.619  29.407  27.108  1.00  0.00     0.031 C 
ATOM     62  C   UNL A   1      43.383  31.647  29.223  1.00  0.00     0.029 A 
ATOM     63  C   UNL A   1      44.340  30.785  28.711  1.00  0.00     0.049 A 
ATOM     64  H   UNL A   1      44.135  28.765  28.137  1.00  0.00     0.167 HD
ATOM     65  C   UNL A   1      46.612  30.153  27.929  1.00  0.00     0.074 A 
ATOM     66  C   UNL A   1      48.001  30.449  27.646  1.00  0.00     0.031 C 
ATOM     67  C   UNL A   1      45.728  31.051  28.431  1.00  0.00     0.037 A 
BRANCH  54  68
ATOM     68  C   UNL A   1      40.001  28.845  29.192  1.00  0.00     0.064 A 
ATOM     69  C   UNL A   1      39.542  28.606  30.497  1.00  0.00     0.173 A 
ATOM     70  C   UNL A   1      39.086  29.356  28.260  1.00  0.00     0.173 A 
ATOM     71  F   UNL A   1      40.371  28.103  31.423  1.00  0.00    -0.203 F 
ATOM     72  C   UNL A   1      38.213  28.835  30.844  1.00  0.00     0.198 A 
ATOM     73  C   UNL A   1      37.766  29.619  28.620  1.00  0.00     0.198 A 
ATOM     74  F   UNL A   1      39.470  29.606  26.999  1.00  0.00    -0.203 F 
ATOM     75  F   UNL A   1      37.785  28.542  32.080  1.00  0.00    -0.200 F 
ATOM     76  C   UNL A   1      37.329  29.349  29.908  1.00  0.00     0.200 A 
ATOM     77  F   UNL A   1      36.915  30.127  27.717  1.00  0.00    -0.200 F 
ATOM     78  F   UNL A   1      36.051  29.575  30.245  1.00  0.00    -0.200 F 
ENDBRANCH  54  68
BRANCH  55  79
ATOM     79  C   UNL A   1      49.315  26.712  26.182  1.00  0.00     0.064 A 
ATOM     80  C   UNL A   1      49.688  26.946  24.850  1.00  0.00     0.173 A 
ATOM     81  C   UNL A   1      50.286  26.186  27.047  1.00  0.00     0.173 A 
ATOM     82  F   UNL A   1      48.792  27.432  23.980  1.00  0.00    -0.203 F 
ATOM     83  C   UNL A   1      50.970  26.641  24.396  1.00  0.00     0.198 A 
ATOM     84  C   UNL A   1      51.576  25.911  26.599  1.00  0.00     0.198 A 
ATOM     85  F   UNL A   1      49.985  25.952  28.332  1.00  0.00    -0.203 F 
ATOM     86  F   UNL A   1      51.284  26.827  23.107  1.00  0.00    -0.200 F 
ATOM     87  C   UNL A   1      51.915  26.129  25.272  1.00  0.00     0.200 A 
ATOM     88  F   UNL A   1      52.492  25.432  27.453  1.00  0.00    -0.200 F 
ATOM     89  F   UNL A   1      53.148  25.839  24.836  1.00  0.00    -0.200 F 
ENDBRANCH  55  79
BRANCH  67  90
ATOM     90  C   UNL A   1      46.246  32.425  28.743  1.00  0.00     0.064 A 
ATOM     91  C   UNL A   1      46.206  33.461  27.800  1.00  0.00     0.173 A 
ATOM     92  C   UNL A   1      46.746  32.717  30.022  1.00  0.00     0.173 A 
ATOM     93  F   UNL A   1      45.749  33.229  26.560  1.00  0.00    -0.203 F 
ATOM     94  C   UNL A   1      46.674  34.733  28.117  1.00  0.00     0.198 A 
ATOM     95  C   UNL A   1      47.181  33.999  30.345  1.00  0.00     0.198 A 
ATOM     96  F   UNL A   1      46.798  31.762  30.963  1.00  0.00    -0.203 F 
ATOM     97  F   UNL A   1      46.673  35.696  27.184  1.00  0.00    -0.200 F 
ATOM     98  C   UNL A   1      47.152  35.003  29.390  1.00  0.00     0.200 A 
ATOM     99  F   UNL A   1      47.626  34.261  31.582  1.00  0.00    -0.200 F 
ATOM    100  F   UNL A   1      47.591  36.231  29.695  1.00  0.00    -0.200 F 
ENDBRANCH  67  90
ENDBRANCH  41  42
ENDBRANCH  33  36
ENDBRANCH  31  32
ENDBRANCH  30  31
ENDBRANCH   1  30
TORSDOF 16
ENDMDL
MODEL 3
REMARK VINA RESULT:     -11.4      5.711     10.387
REMARK SMILES CSCC[C@H](C(=O)NCCCCNC(=O)c1ccc(-c2c3nc(c(-c4c(F)c(F)c(F)c(F)c4F)c4ccc([nH]4)c(-c4c(F)c(F)c(F)c(F)c4F)c4nc(c(-c5c(F)c(F)c(F)c(F)c5F)c5ccc2[nH]5)C=C4)C=C3)cc1)N1C(=O)/C(=C/c2cn(C)c3ccccc23)SC1=S
REMARK SMILES IDX 10 1 9 2 8 3 6 4 7 5 5 7 4 8 3 9 2 10 1 11 79 12 80 13 95 14
REMARK SMILES IDX 81 15 82 16 94 17 96 18 83 19 84 20 85 21 93 22 86 23 88 24
REMARK SMILES IDX 92 25 87 26 89 27 91 28 90 29 11 30 12 31 13 32 14 33 15 35
REMARK SMILES IDX 16 36 17 37 78 38 18 39 77 40 19 41 20 42 21 43 71 44 22 45
REMARK SMILES IDX 76 46 70 47 72 48 23 49 75 50 69 51 68 52 24 54 56 55 36 56
REMARK SMILES IDX 55 57 37 58 40 59 54 60 73 61 38 62 39 63 53 65 74 66 41 67
REMARK SMILES IDX 25 68 26 69 34 70 27 71 28 72 32 73 35 74 29 75 30 76 33 77
REMARK SMILES IDX 31 78 57 79 58 80 66 81 59 82 60 83 64 84 67 85 61 86 62 87
REMARK SMILES IDX 65 88 63 89 42 90 43 91 51 92 44 93 45 94 49 95 52 96 46 97
REMARK SMILES IDX 47 98 50 99 48 100
REMARK H PARENT 8 6 13 34 72 53 40 64
REMARK Flexibility Score: inf
ROOT
ATOM      1  C   UNL A   1      39.286  21.333  25.978  1.00  0.00     0.023 C 
ENDROOT
BRANCH   1   2
ATOM      2  C   UNL A   1      37.952  21.651  25.308  1.00  0.00     0.116 C 
BRANCH   2   3
ATOM      3  N   UNL A   1      37.337  22.828  25.893  1.00  0.00    -0.354 N 
ATOM      4  C   UNL A   1      36.135  23.452  25.734  1.00  0.00     0.243 C 
ATOM      5  O   UNL A   1      35.939  24.460  26.420  1.00  0.00    -0.273 OA
ATOM      6  H   UNL A   1      37.917  23.276  26.551  1.00  0.00     0.163 HD
BRANCH   4   7
ATOM      7  C   UNL A   1      35.014  22.896  24.871  1.00  0.00     0.182 C 
BRANCH   7   8
ATOM      8  C   UNL A   1      34.940  21.351  24.896  1.00  0.00     0.046 C 
BRANCH   8   9
ATOM      9  C   UNL A   1      33.741  20.595  24.281  1.00  0.00     0.072 C 
BRANCH   9  10
ATOM     10  S   UNL A   1      33.102  19.087  25.079  1.00  0.00    -0.165 SA
ATOM     11  C   UNL A   1      34.041  17.771  24.236  1.00  0.00     0.085 C 
ENDBRANCH   9  10
ENDBRANCH   8   9
ENDBRANCH   7   8
BRANCH   7  12
ATOM     12  N   UNL A   1      33.738  23.594  25.220  1.00  0.00    -0.280 N 
ATOM     13  C   UNL A   1      33.256  24.921  24.156  1.00  0.00     0.266 C 
ATOM     14  C   UNL A   1      32.753  23.050  26.554  1.00  0.00     0.149 C 
ATOM     15  O   UNL A   1      33.931  25.403  23.258  1.00  0.00    -0.268 OA
ATOM     16  C   UNL A   1      31.452  25.572  24.666  1.00  0.00     0.081 C 
ATOM     17  S   UNL A   1      30.754  24.122  26.585  1.00  0.00    -0.054 SA
ATOM     18  S   UNL A   1      33.010  22.150  27.954  1.00  0.00    -0.052 S 
ATOM     19  C   UNL A   1      31.561  26.978  24.609  1.00  0.00     0.031 C 
BRANCH  19  20
ATOM     20  C   UNL A   1      31.384  27.622  25.889  1.00  0.00     0.001 A 
ATOM     21  C   UNL A   1      32.280  27.695  26.962  1.00  0.00     0.094 A 
ATOM     22  C   UNL A   1      31.341  28.950  25.357  1.00  0.00     0.007 A 
ATOM     23  N   UNL A   1      33.273  28.603  26.612  1.00  0.00    -0.350 N 
ATOM     24  C   UNL A   1      33.067  28.806  25.277  1.00  0.00     0.048 A 
ATOM     25  C   UNL A   1      30.520  29.182  23.751  1.00  0.00     0.011 A 
ATOM     26  C   UNL A   1      33.794  29.662  27.452  1.00  0.00     0.149 C 
ATOM     27  C   UNL A   1      33.998  28.598  23.848  1.00  0.00     0.027 A 
ATOM     28  C   UNL A   1      31.716  29.048  22.113  1.00  0.00     0.001 A 
ATOM     29  C   UNL A   1      33.390  28.708  22.297  1.00  0.00     0.002 A 
ENDBRANCH  19  20
ENDBRANCH   7  12
ENDBRANCH   4   7
ENDBRANCH   2   3
ENDBRANCH   1   2
BRANCH   1  30
ATOM     30  C   UNL A   1      39.774  19.904  25.758  1.00  0.00     0.023 C 
BRANCH  30  31
ATOM     31  C   UNL A   1      40.893  19.499  26.695  1.00  0.00     0.116 C 
BRANCH  31  32
ATOM     32  N   UNL A   1      41.939  18.760  26.002  1.00  0.00    -0.352 N 
ATOM     33  C   UNL A   1      43.096  19.238  25.438  1.00  0.00     0.251 C 
ATOM     34  H   UNL A   1      41.798  17.788  25.927  1.00  0.00     0.163 HD
ATOM     35  O   UNL A   1      43.772  18.531  24.700  1.00  0.00    -0.269 OA
BRANCH  33  36
ATOM     36  C   UNL A   1      43.499  20.629  25.723  1.00  0.00     0.039 A 
ATOM     37  C   UNL A   1      43.635  21.534  24.670  1.00  0.00     0.014 A 
ATOM     38  C   UNL A   1      43.684  21.040  27.044  1.00  0.00     0.014 A 
ATOM     39  C   UNL A   1      43.900  22.873  24.953  1.00  0.00     0.010 A 
ATOM     40  C   UNL A   1      43.826  22.388  27.328  1.00  0.00     0.010 A 
ATOM     41  C   UNL A   1      43.963  23.316  26.285  1.00  0.00    -0.014 A 
BRANCH  41  42
ATOM     42  C   UNL A   1      44.217  24.737  26.623  1.00  0.00     0.031 A 
ATOM     43  C   UNL A   1      45.617  25.279  26.523  1.00  0.00     0.074 A 
ATOM     44  C   UNL A   1      43.216  25.507  27.089  1.00  0.00     0.049 A 
ATOM     45  N   UNL A   1      46.076  26.458  26.854  1.00  0.00    -0.248 NA
ATOM     46  C   UNL A   1      46.649  24.356  26.019  1.00  0.00     0.031 C 
ATOM     47  C   UNL A   1      41.832  25.071  27.289  1.00  0.00     0.029 A 
ATOM     48  N   UNL A   1      43.210  26.819  27.489  1.00  0.00    -0.354 N 
ATOM     49  C   UNL A   1      47.445  26.406  26.625  1.00  0.00     0.074 A 
ATOM     50  C   UNL A   1      47.755  25.061  26.196  1.00  0.00     0.031 C 
ATOM     51  C   UNL A   1      41.106  26.105  27.742  1.00  0.00     0.029 A 
ATOM     52  C   UNL A   1      41.978  27.263  27.903  1.00  0.00     0.049 A 
ATOM     53  H   UNL A   1      44.013  27.389  27.479  1.00  0.00     0.167 HD
ATOM     54  C   UNL A   1      48.356  27.401  26.726  1.00  0.00     0.037 A 
ATOM     55  C   UNL A   1      41.602  28.471  28.364  1.00  0.00     0.037 A 
ATOM     56  C   UNL A   1      48.030  28.746  27.114  1.00  0.00     0.049 A 
ATOM     57  C   UNL A   1      42.633  29.565  28.458  1.00  0.00     0.074 A 
ATOM     58  C   UNL A   1      48.859  29.850  27.185  1.00  0.00     0.029 A 
ATOM     59  N   UNL A   1      46.763  29.168  27.496  1.00  0.00    -0.354 N 
ATOM     60  N   UNL A   1      43.910  29.528  28.164  1.00  0.00    -0.248 NA
ATOM     61  C   UNL A   1      42.168  30.872  28.941  1.00  0.00     0.031 C 
ATOM     62  C   UNL A   1      48.106  30.929  27.658  1.00  0.00     0.029 A 
ATOM     63  C   UNL A   1      46.794  30.512  27.826  1.00  0.00     0.049 A 
ATOM     64  H   UNL A   1      45.963  28.596  27.529  1.00  0.00     0.167 HD
ATOM     65  C   UNL A   1      44.394  30.808  28.394  1.00  0.00     0.074 A 
ATOM     66  C   UNL A   1      43.268  31.604  28.838  1.00  0.00     0.031 C 
ATOM     67  C   UNL A   1      45.656  31.285  28.255  1.00  0.00     0.037 A 
BRANCH  54  68
ATOM     68  C   UNL A   1      49.785  27.071  26.400  1.00  0.00     0.064 A 
ATOM     69  C   UNL A   1      50.692  26.658  27.390  1.00  0.00     0.173 A 
ATOM     70  C   UNL A   1      50.250  27.149  25.079  1.00  0.00     0.173 A 
ATOM     71  F   UNL A   1      50.304  26.582  28.671  1.00  0.00    -0.203 F 
ATOM     72  C   UNL A   1      52.018  26.372  27.075  1.00  0.00     0.198 A 
ATOM     73  C   UNL A   1      51.568  26.826  24.762  1.00  0.00     0.198 A 
ATOM     74  F   UNL A   1      49.427  27.534  24.093  1.00  0.00    -0.203 F 
ATOM     75  F   UNL A   1      52.878  26.040  28.047  1.00  0.00    -0.200 F 
ATOM     76  C   UNL A   1      52.452  26.449  25.761  1.00  0.00     0.200 A 
ATOM     77  F   UNL A   1      51.983  26.888  23.489  1.00  0.00    -0.200 F 
ATOM     78  F   UNL A   1      53.727  26.166  25.458  1.00  0.00    -0.200 F 
ENDBRANCH  54  68
BRANCH  55  79
ATOM     79  C   UNL A   1      40.185  28.720  28.737  1.00  0.00     0.064 A 
ATOM     80  C   UNL A   1      39.734  28.485  30.045  1.00  0.00     0.173 A 
ATOM     81  C   UNL A   1      39.251  29.192  27.803  1.00  0.00     0.173 A 
ATOM     82  F   UNL A   1      40.583  28.017  30.971  1.00  0.00    -0.203 F 
ATOM     83  C   UNL A   1      38.401  28.688  30.396  1.00  0.00     0.198 A 
ATOM     84  C   UNL A   1      37.926  29.424  28.163  1.00  0.00     0.198 A 
ATOM     85  F   UNL A   1      39.631  29.442  26.542  1.00  0.00    -0.203 F 
ATOM     86  F   UNL A   1      37.987  28.407  31.639  1.00  0.00    -0.200 F 
ATOM     87  C   UNL A   1      37.499  29.163  29.456  1.00  0.00     0.200 A 
ATOM     88  F   UNL A   1      37.061  29.900  27.257  1.00  0.00    -0.200 F 
ATOM     89  F   UNL A   1      36.217  29.361  29.795  1.00  0.00    -0.200 F 
ENDBRANCH  55  79
BRANCH  67  90
ATOM     90  C   UNL A   1      45.877  32.741  28.545  1.00  0.00     0.064 A 
ATOM     91  C   UNL A   1      46.272  33.188  29.814  1.00  0.00     0.173 A 
ATOM     92  C   UNL A   1      45.737  33.694  27.524  1.00  0.00     0.173 A 
ATOM     93  F   UNL A   1      46.406  32.318  30.826  1.00  0.00    -0.203 F 
ATOM     94  C   UNL A   1      46.491  34.542  30.057  1.00  0.00     0.198 A 
ATOM     95  C   UNL A   1      45.991  35.041  27.763  1.00  0.00     0.198 A 
ATOM     96  F   UNL A   1      45.371  33.316  26.290  1.00  0.00    -0.203 F 
ATOM     97  F   UNL A   1      46.818  34.953  31.290  1.00  0.00    -0.200 F 
ATOM     98  C   UNL A   1      46.359  35.464  29.031  1.00  0.00     0.200 A 
ATOM     99  F   UNL A   1      45.880  35.929  26.765  1.00  0.00    -0.200 F 
ATOM    100  F   UNL A   1      46.581  36.765  29.265  1.00  0.00    -0.200 F 
ENDBRANCH  67  90
ENDBRANCH  41  42
ENDBRANCH  33  36
ENDBRANCH  31  32
ENDBRANCH  30  31
ENDBRANCH   1  30
TORSDOF 16
ENDMDL
