MODEL 1
REMARK VINA RESULT:     -12.8      0.000      0.000
REMARK SMILES CCOc1ccc(N2C[C@H](C(=O)NCCCCNC(=O)c3ccc(-c4c5nc(c(-c6c(F)c(F)c(F)c(F)c6F)c6ccc([nH]6)c(-c6c(F)c(F)c(F)c(F)c6F)c6nc(c(-c7c(F)c(F)c(F)c(F)c7F)c7ccc4[nH]7)C=C6)C=C5)cc3)CC2=O)cc1C(F)(F)F
REMARK SMILES IDX 15 1 14 2 13 3 11 4 12 5 10 7 8 8 9 9 85 10 84 11 86 12 7 13
REMARK SMILES IDX 4 14 5 15 88 16 6 17 87 18 3 19 2 20 1 21 89 22 90 23 91 24
REMARK SMILES IDX 92 25 16 26 17 27 18 28 19 29 20 31 21 32 22 33 83 34 23 35
REMARK SMILES IDX 82 36 24 37 25 38 26 39 76 40 27 41 81 42 75 43 77 44 28 45
REMARK SMILES IDX 80 46 74 47 73 48 29 50 61 51 41 52 60 53 42 54 45 55 59 56
REMARK SMILES IDX 78 57 43 58 44 59 58 61 79 62 46 63 30 64 31 65 39 66 32 67
REMARK SMILES IDX 33 68 37 69 40 70 34 71 35 72 38 73 36 74 62 75 63 76 71 77
REMARK SMILES IDX 64 78 65 79 69 80 72 81 66 82 67 83 70 84 68 85 47 86 48 87
REMARK SMILES IDX 56 88 49 89 50 90 54 91 57 92 51 93 52 94 55 95 53 96
REMARK H PARENT 13 6 18 30 77 49 45 60
REMARK Flexibility Score: inf
ROOT
ATOM      1  C   UNL A   1      31.416  30.884  26.666  1.00  0.00     0.023 C 
ENDROOT
BRANCH   1   2
ATOM      2  C   UNL A   1      32.324  30.086  25.725  1.00  0.00     0.116 C 
BRANCH   2   3
ATOM      3  N   UNL A   1      31.581  29.604  24.577  1.00  0.00    -0.356 N 
ATOM      4  C   UNL A   1      32.001  28.982  23.441  1.00  0.00     0.225 C 
ATOM      5  O   UNL A   1      31.145  28.733  22.592  1.00  0.00    -0.275 OA
ATOM      6  H   UNL A   1      30.609  29.751  24.627  1.00  0.00     0.163 HD
BRANCH   4   7
ATOM      7  C   UNL A   1      33.441  28.504  23.303  1.00  0.00     0.107 C 
ATOM      8  N   UNL A   1      33.614  26.160  23.447  1.00  0.00    -0.312 N 
ATOM      9  C   UNL A   1      33.741  27.347  24.259  1.00  0.00     0.139 C 
ATOM     10  C   UNL A   1      33.585  26.464  22.089  1.00  0.00     0.227 C 
ATOM     11  C   UNL A   1      33.806  27.933  21.942  1.00  0.00     0.116 C 
ATOM     12  O   UNL A   1      33.440  25.717  21.131  1.00  0.00    -0.274 OA
BRANCH   8  13
ATOM     13  C   UNL A   1      33.668  24.845  23.952  1.00  0.00     0.044 A 
ATOM     14  C   UNL A   1      33.723  22.279  25.089  1.00  0.00     0.131 A 
ATOM     15  C   UNL A   1      34.673  22.650  24.128  1.00  0.00     0.049 A 
ATOM     16  C   UNL A   1      32.748  23.181  25.505  1.00  0.00     0.100 A 
ATOM     17  C   UNL A   1      34.631  23.924  23.543  1.00  0.00     0.030 A 
ATOM     18  C   UNL A   1      32.729  24.451  24.912  1.00  0.00     0.043 A 
BRANCH  14  19
ATOM     19  O   UNL A   1      33.844  21.069  25.710  1.00  0.00    -0.493 OA
BRANCH  19  20
ATOM     20  C   UNL A   1      33.929  19.971  24.795  1.00  0.00     0.226 C 
ATOM     21  C   UNL A   1      32.531  19.456  24.491  1.00  0.00     0.049 C 
ENDBRANCH  19  20
ENDBRANCH  14  19
BRANCH  16  22
ATOM     22  C   UNL A   1      31.680  22.861  26.512  1.00  0.00     0.420 C 
ATOM     23  F   UNL A   1      30.898  23.937  26.818  1.00  0.00    -0.166 F 
ATOM     24  F   UNL A   1      30.810  21.919  26.040  1.00  0.00    -0.166 F 
ATOM     25  F   UNL A   1      32.128  22.394  27.708  1.00  0.00    -0.166 F 
ENDBRANCH  16  22
ENDBRANCH   8  13
ENDBRANCH   4   7
ENDBRANCH   2   3
ENDBRANCH   1   2
BRANCH   1  26
ATOM     26  C   UNL A   1      31.567  32.402  26.558  1.00  0.00     0.023 C 
BRANCH  26  27
ATOM     27  C   UNL A   1      32.653  33.000  27.440  1.00  0.00     0.116 C 
BRANCH  27  28
ATOM     28  N   UNL A   1      32.412  34.399  27.757  1.00  0.00    -0.352 N 
ATOM     29  C   UNL A   1      33.029  35.190  28.693  1.00  0.00     0.251 C 
ATOM     30  H   UNL A   1      31.708  34.839  27.228  1.00  0.00     0.163 HD
ATOM     31  O   UNL A   1      32.603  36.315  28.929  1.00  0.00    -0.269 OA
BRANCH  29  32
ATOM     32  C   UNL A   1      34.191  34.664  29.438  1.00  0.00     0.039 A 
ATOM     33  C   UNL A   1      33.984  34.123  30.709  1.00  0.00     0.014 A 
ATOM     34  C   UNL A   1      35.471  34.682  28.877  1.00  0.00     0.014 A 
ATOM     35  C   UNL A   1      35.053  33.541  31.390  1.00  0.00     0.010 A 
ATOM     36  C   UNL A   1      36.515  34.027  29.520  1.00  0.00     0.010 A 
ATOM     37  C   UNL A   1      36.318  33.454  30.785  1.00  0.00    -0.014 A 
BRANCH  37  38
ATOM     38  C   UNL A   1      37.438  32.752  31.459  1.00  0.00     0.031 A 
ATOM     39  C   UNL A   1      38.107  31.579  30.800  1.00  0.00     0.074 A 
ATOM     40  C   UNL A   1      37.809  33.132  32.697  1.00  0.00     0.049 A 
ATOM     41  N   UNL A   1      39.079  30.823  31.245  1.00  0.00    -0.248 NA
ATOM     42  C   UNL A   1      37.596  31.184  29.479  1.00  0.00     0.031 C 
ATOM     43  C   UNL A   1      37.189  34.211  33.468  1.00  0.00     0.029 A 
ATOM     44  N   UNL A   1      38.788  32.649  33.527  1.00  0.00    -0.354 N 
ATOM     45  C   UNL A   1      39.282  29.857  30.269  1.00  0.00     0.074 A 
ATOM     46  C   UNL A   1      38.296  30.086  29.236  1.00  0.00     0.031 C 
ATOM     47  C   UNL A   1      37.818  34.324  34.648  1.00  0.00     0.029 A 
ATOM     48  C   UNL A   1      38.858  33.303  34.732  1.00  0.00     0.049 A 
ATOM     49  H   UNL A   1      39.384  31.904  33.282  1.00  0.00     0.167 HD
ATOM     50  C   UNL A   1      40.223  28.882  30.228  1.00  0.00     0.037 A 
ATOM     51  C   UNL A   1      39.664  33.098  35.791  1.00  0.00     0.037 A 
ATOM     52  C   UNL A   1      41.212  28.673  31.252  1.00  0.00     0.049 A 
ATOM     53  C   UNL A   1      40.709  32.018  35.718  1.00  0.00     0.074 A 
ATOM     54  C   UNL A   1      42.261  27.771  31.267  1.00  0.00     0.029 A 
ATOM     55  N   UNL A   1      41.268  29.369  32.453  1.00  0.00    -0.354 N 
ATOM     56  N   UNL A   1      40.958  31.173  34.748  1.00  0.00    -0.248 NA
ATOM     57  C   UNL A   1      41.590  31.872  36.884  1.00  0.00     0.031 C 
ATOM     58  C   UNL A   1      42.910  27.875  32.503  1.00  0.00     0.029 A 
ATOM     59  C   UNL A   1      42.309  28.888  33.232  1.00  0.00     0.049 A 
ATOM     60  H   UNL A   1      40.657  30.095  32.712  1.00  0.00     0.167 HD
ATOM     61  C   UNL A   1      42.034  30.406  35.176  1.00  0.00     0.074 A 
ATOM     62  C   UNL A   1      42.403  30.904  36.486  1.00  0.00     0.031 C 
ATOM     63  C   UNL A   1      42.659  29.384  34.540  1.00  0.00     0.037 A 
BRANCH  50  64
ATOM     64  C   UNL A   1      40.213  27.961  29.041  1.00  0.00     0.064 A 
ATOM     65  C   UNL A   1      40.884  28.278  27.849  1.00  0.00     0.173 A 
ATOM     66  C   UNL A   1      39.534  26.734  29.100  1.00  0.00     0.173 A 
ATOM     67  F   UNL A   1      41.541  29.442  27.732  1.00  0.00    -0.203 F 
ATOM     68  C   UNL A   1      40.837  27.424  26.749  1.00  0.00     0.198 A 
ATOM     69  C   UNL A   1      39.520  25.866  28.011  1.00  0.00     0.198 A 
ATOM     70  F   UNL A   1      38.881  26.375  30.216  1.00  0.00    -0.203 F 
ATOM     71  F   UNL A   1      41.429  27.781  25.600  1.00  0.00    -0.200 F 
ATOM     72  C   UNL A   1      40.162  26.217  26.833  1.00  0.00     0.200 A 
ATOM     73  F   UNL A   1      38.879  24.692  28.099  1.00  0.00    -0.200 F 
ATOM     74  F   UNL A   1      40.118  25.396  25.775  1.00  0.00    -0.200 F 
ENDBRANCH  50  64
BRANCH  51  75
ATOM     75  C   UNL A   1      39.525  33.957  36.995  1.00  0.00     0.064 A 
ATOM     76  C   UNL A   1      40.158  35.204  37.072  1.00  0.00     0.173 A 
ATOM     77  C   UNL A   1      38.731  33.560  38.082  1.00  0.00     0.173 A 
ATOM     78  F   UNL A   1      40.942  35.619  36.067  1.00  0.00    -0.203 F 
ATOM     79  C   UNL A   1      40.013  36.018  38.194  1.00  0.00     0.198 A 
ATOM     80  C   UNL A   1      38.562  34.386  39.190  1.00  0.00     0.198 A 
ATOM     81  F   UNL A   1      38.097  32.378  38.054  1.00  0.00    -0.203 F 
ATOM     82  F   UNL A   1      40.658  37.190  38.256  1.00  0.00    -0.200 F 
ATOM     83  C   UNL A   1      39.207  35.612  39.248  1.00  0.00     0.200 A 
ATOM     84  F   UNL A   1      37.769  33.998  40.197  1.00  0.00    -0.200 F 
ATOM     85  F   UNL A   1      39.057  36.400  40.321  1.00  0.00    -0.200 F 
ENDBRANCH  51  75
BRANCH  63  86
ATOM     86  C   UNL A   1      43.821  28.744  35.246  1.00  0.00     0.064 A 
ATOM     87  C   UNL A   1      43.645  27.677  36.140  1.00  0.00     0.173 A 
ATOM     88  C   UNL A   1      45.131  29.184  35.001  1.00  0.00     0.173 A 
ATOM     89  F   UNL A   1      42.413  27.227  36.420  1.00  0.00    -0.203 F 
ATOM     90  C   UNL A   1      44.734  27.094  36.784  1.00  0.00     0.198 A 
ATOM     91  C   UNL A   1      46.220  28.576  35.620  1.00  0.00     0.198 A 
ATOM     92  F   UNL A   1      45.357  30.196  34.151  1.00  0.00    -0.203 F 
ATOM     93  F   UNL A   1      44.536  26.113  37.675  1.00  0.00    -0.200 F 
ATOM     94  C   UNL A   1      46.021  27.539  36.518  1.00  0.00     0.200 A 
ATOM     95  F   UNL A   1      47.463  28.997  35.349  1.00  0.00    -0.200 F 
ATOM     96  F   UNL A   1      47.067  26.973  37.133  1.00  0.00    -0.200 F 
ENDBRANCH  63  86
ENDBRANCH  37  38
ENDBRANCH  29  32
ENDBRANCH  27  28
ENDBRANCH  26  27
ENDBRANCH   1  26
TORSDOF 15
ENDMDL
MODEL 2
REMARK VINA RESULT:     -12.8      1.024      2.289
REMARK SMILES CCOc1ccc(N2C[C@H](C(=O)NCCCCNC(=O)c3ccc(-c4c5nc(c(-c6c(F)c(F)c(F)c(F)c6F)c6ccc([nH]6)c(-c6c(F)c(F)c(F)c(F)c6F)c6nc(c(-c7c(F)c(F)c(F)c(F)c7F)c7ccc4[nH]7)C=C6)C=C5)cc3)CC2=O)cc1C(F)(F)F
REMARK SMILES IDX 15 1 14 2 13 3 11 4 12 5 10 7 8 8 9 9 85 10 84 11 86 12 7 13
REMARK SMILES IDX 4 14 5 15 88 16 6 17 87 18 3 19 2 20 1 21 89 22 90 23 91 24
REMARK SMILES IDX 92 25 16 26 17 27 18 28 19 29 20 31 21 32 22 33 83 34 23 35
REMARK SMILES IDX 82 36 24 37 25 38 26 39 76 40 27 41 81 42 75 43 77 44 28 45
REMARK SMILES IDX 80 46 74 47 73 48 29 50 61 51 41 52 60 53 42 54 45 55 59 56
REMARK SMILES IDX 78 57 43 58 44 59 58 61 79 62 46 63 30 64 31 65 39 66 32 67
REMARK SMILES IDX 33 68 37 69 40 70 34 71 35 72 38 73 36 74 62 75 63 76 71 77
REMARK SMILES IDX 64 78 65 79 69 80 72 81 66 82 67 83 70 84 68 85 47 86 48 87
REMARK SMILES IDX 56 88 49 89 50 90 54 91 57 92 51 93 52 94 55 95 53 96
REMARK H PARENT 13 6 18 30 77 49 45 60
REMARK Flexibility Score: inf
ROOT
ATOM      1  C   UNL A   1      31.695  30.549  26.874  1.00  0.00     0.023 C 
ENDROOT
BRANCH   1   2
ATOM      2  C   UNL A   1      32.519  30.007  25.701  1.00  0.00     0.116 C 
BRANCH   2   3
ATOM      3  N   UNL A   1      31.664  29.356  24.727  1.00  0.00    -0.356 N 
ATOM      4  C   UNL A   1      31.969  28.569  23.659  1.00  0.00     0.225 C 
ATOM      5  O   UNL A   1      31.030  28.194  22.957  1.00  0.00    -0.275 OA
ATOM      6  H   UNL A   1      30.700  29.508  24.862  1.00  0.00     0.163 HD
BRANCH   4   7
ATOM      7  C   UNL A   1      33.393  28.076  23.437  1.00  0.00     0.107 C 
ATOM      8  N   UNL A   1      33.502  25.731  23.263  1.00  0.00    -0.312 N 
ATOM      9  C   UNL A   1      33.671  26.795  24.225  1.00  0.00     0.139 C 
ATOM     10  C   UNL A   1      33.466  26.215  21.959  1.00  0.00     0.227 C 
ATOM     11  C   UNL A   1      33.727  27.684  22.007  1.00  0.00     0.116 C 
ATOM     12  O   UNL A   1      33.290  25.607  20.912  1.00  0.00    -0.274 OA
BRANCH   8  13
ATOM     13  C   UNL A   1      33.525  24.359  23.587  1.00  0.00     0.044 A 
ATOM     14  C   UNL A   1      33.720  21.631  24.219  1.00  0.00     0.131 A 
ATOM     15  C   UNL A   1      32.603  22.122  23.532  1.00  0.00     0.049 A 
ATOM     16  C   UNL A   1      34.757  22.485  24.586  1.00  0.00     0.100 A 
ATOM     17  C   UNL A   1      32.494  23.488  23.237  1.00  0.00     0.030 A 
ATOM     18  C   UNL A   1      34.630  23.846  24.275  1.00  0.00     0.043 A 
BRANCH  14  19
ATOM     19  O   UNL A   1      33.845  20.285  24.410  1.00  0.00    -0.493 OA
BRANCH  19  20
ATOM     20  C   UNL A   1      32.992  19.780  25.443  1.00  0.00     0.226 C 
ATOM     21  C   UNL A   1      32.654  18.326  25.155  1.00  0.00     0.049 C 
ENDBRANCH  19  20
ENDBRANCH  14  19
BRANCH  16  22
ATOM     22  C   UNL A   1      35.979  22.049  25.343  1.00  0.00     0.420 C 
ATOM     23  F   UNL A   1      35.681  21.439  26.527  1.00  0.00    -0.166 F 
ATOM     24  F   UNL A   1      36.700  21.124  24.643  1.00  0.00    -0.166 F 
ATOM     25  F   UNL A   1      36.851  23.043  25.664  1.00  0.00    -0.166 F 
ENDBRANCH  16  22
ENDBRANCH   8  13
ENDBRANCH   4   7
ENDBRANCH   2   3
ENDBRANCH   1   2
BRANCH   1  26
ATOM     26  C   UNL A   1      31.506  32.067  26.868  1.00  0.00     0.023 C 
BRANCH  26  27
ATOM     27  C   UNL A   1      32.738  32.865  27.265  1.00  0.00     0.116 C 
BRANCH  27  28
ATOM     28  N   UNL A   1      32.426  34.239  27.626  1.00  0.00    -0.352 N 
ATOM     29  C   UNL A   1      32.983  35.021  28.606  1.00  0.00     0.251 C 
ATOM     30  H   UNL A   1      31.716  34.666  27.094  1.00  0.00     0.163 HD
ATOM     31  O   UNL A   1      32.500  36.117  28.871  1.00  0.00    -0.269 OA
BRANCH  29  32
ATOM     32  C   UNL A   1      34.148  34.521  29.363  1.00  0.00     0.039 A 
ATOM     33  C   UNL A   1      33.937  33.946  30.618  1.00  0.00     0.014 A 
ATOM     34  C   UNL A   1      35.437  34.596  28.827  1.00  0.00     0.014 A 
ATOM     35  C   UNL A   1      35.012  33.388  31.308  1.00  0.00     0.010 A 
ATOM     36  C   UNL A   1      36.491  33.964  29.477  1.00  0.00     0.010 A 
ATOM     37  C   UNL A   1      36.290  33.358  30.726  1.00  0.00    -0.014 A 
BRANCH  37  38
ATOM     38  C   UNL A   1      37.422  32.681  31.407  1.00  0.00     0.031 A 
ATOM     39  C   UNL A   1      38.110  31.512  30.760  1.00  0.00     0.074 A 
ATOM     40  C   UNL A   1      37.787  33.081  32.640  1.00  0.00     0.049 A 
ATOM     41  N   UNL A   1      39.094  30.776  31.213  1.00  0.00    -0.248 NA
ATOM     42  C   UNL A   1      37.605  31.094  29.444  1.00  0.00     0.031 C 
ATOM     43  C   UNL A   1      37.151  34.158  33.400  1.00  0.00     0.029 A 
ATOM     44  N   UNL A   1      38.774  32.623  33.475  1.00  0.00    -0.354 N 
ATOM     45  C   UNL A   1      39.312  29.803  30.248  1.00  0.00     0.074 A 
ATOM     46  C   UNL A   1      38.322  30.005  29.213  1.00  0.00     0.031 C 
ATOM     47  C   UNL A   1      37.778  34.294  34.578  1.00  0.00     0.029 A 
ATOM     48  C   UNL A   1      38.834  33.291  34.673  1.00  0.00     0.049 A 
ATOM     49  H   UNL A   1      39.382  31.885  33.238  1.00  0.00     0.167 HD
ATOM     50  C   UNL A   1      40.268  28.843  30.217  1.00  0.00     0.037 A 
ATOM     51  C   UNL A   1      39.644  33.111  35.733  1.00  0.00     0.037 A 
ATOM     52  C   UNL A   1      41.261  28.661  31.244  1.00  0.00     0.049 A 
ATOM     53  C   UNL A   1      40.705  32.047  35.672  1.00  0.00     0.074 A 
ATOM     54  C   UNL A   1      42.325  27.776  31.267  1.00  0.00     0.029 A 
ATOM     55  N   UNL A   1      41.306  29.371  32.436  1.00  0.00    -0.354 N 
ATOM     56  N   UNL A   1      40.968  31.195  34.711  1.00  0.00    -0.248 NA
ATOM     57  C   UNL A   1      41.590  31.928  36.839  1.00  0.00     0.031 C 
ATOM     58  C   UNL A   1      42.972  27.904  32.502  1.00  0.00     0.029 A 
ATOM     59  C   UNL A   1      42.355  28.915  33.220  1.00  0.00     0.049 A 
ATOM     60  H   UNL A   1      40.683  30.090  32.688  1.00  0.00     0.167 HD
ATOM     61  C   UNL A   1      42.056  30.450  35.147  1.00  0.00     0.074 A 
ATOM     62  C   UNL A   1      42.418  30.969  36.451  1.00  0.00     0.031 C 
ATOM     63  C   UNL A   1      42.697  29.431  34.522  1.00  0.00     0.037 A 
BRANCH  50  64
ATOM     64  C   UNL A   1      40.273  27.909  29.041  1.00  0.00     0.064 A 
ATOM     65  C   UNL A   1      39.553  26.703  29.047  1.00  0.00     0.173 A 
ATOM     66  C   UNL A   1      40.998  28.229  27.882  1.00  0.00     0.173 A 
ATOM     67  F   UNL A   1      38.851  26.341  30.131  1.00  0.00    -0.203 F 
ATOM     68  C   UNL A   1      39.595  25.836  27.958  1.00  0.00     0.198 A 
ATOM     69  C   UNL A   1      41.008  27.377  26.781  1.00  0.00     0.198 A 
ATOM     70  F   UNL A   1      41.700  29.371  27.817  1.00  0.00    -0.203 F 
ATOM     71  F   UNL A   1      38.954  24.659  28.015  1.00  0.00    -0.200 F 
ATOM     72  C   UNL A   1      40.317  26.175  26.824  1.00  0.00     0.200 A 
ATOM     73  F   UNL A   1      41.694  27.714  25.680  1.00  0.00    -0.200 F 
ATOM     74  F   UNL A   1      40.356  25.341  25.777  1.00  0.00    -0.200 F 
ENDBRANCH  50  64
BRANCH  51  75
ATOM     75  C   UNL A   1      39.491  33.981  36.928  1.00  0.00     0.064 A 
ATOM     76  C   UNL A   1      38.755  33.558  38.042  1.00  0.00     0.173 A 
ATOM     77  C   UNL A   1      40.102  35.243  36.989  1.00  0.00     0.173 A 
ATOM     78  F   UNL A   1      38.137  32.368  38.023  1.00  0.00    -0.203 F 
ATOM     79  C   UNL A   1      38.626  34.367  39.170  1.00  0.00     0.198 A 
ATOM     80  C   UNL A   1      39.998  36.038  38.128  1.00  0.00     0.198 A 
ATOM     81  F   UNL A   1      40.823  35.691  35.952  1.00  0.00    -0.203 F 
ATOM     82  F   UNL A   1      37.888  33.952  40.208  1.00  0.00    -0.200 F 
ATOM     83  C   UNL A   1      39.255  35.602  39.215  1.00  0.00     0.200 A 
ATOM     84  F   UNL A   1      40.621  37.223  38.174  1.00  0.00    -0.200 F 
ATOM     85  F   UNL A   1      39.142  36.374  40.305  1.00  0.00    -0.200 F 
ENDBRANCH  51  75
BRANCH  63  86
ATOM     86  C   UNL A   1      43.870  28.818  35.235  1.00  0.00     0.064 A 
ATOM     87  C   UNL A   1      45.179  29.282  35.037  1.00  0.00     0.173 A 
ATOM     88  C   UNL A   1      43.677  27.772  36.150  1.00  0.00     0.173 A 
ATOM     89  F   UNL A   1      45.420  30.271  34.162  1.00  0.00    -0.203 F 
ATOM     90  C   UNL A   1      46.254  28.703  35.708  1.00  0.00     0.198 A 
ATOM     91  C   UNL A   1      44.750  27.219  36.845  1.00  0.00     0.198 A 
ATOM     92  F   UNL A   1      42.446  27.293  36.382  1.00  0.00    -0.203 F 
ATOM     93  F   UNL A   1      47.501  29.128  35.461  1.00  0.00    -0.200 F 
ATOM     94  C   UNL A   1      46.038  27.678  36.616  1.00  0.00     0.200 A 
ATOM     95  F   UNL A   1      44.536  26.239  37.734  1.00  0.00    -0.200 F 
ATOM     96  F   UNL A   1      47.072  27.127  37.265  1.00  0.00    -0.200 F 
ENDBRANCH  63  86
ENDBRANCH  37  38
ENDBRANCH  29  32
ENDBRANCH  27  28
ENDBRANCH  26  27
ENDBRANCH   1  26
TORSDOF 15
ENDMDL
MODEL 3
REMARK VINA RESULT:     -12.8      0.580      7.303
REMARK SMILES CCOc1ccc(N2C[C@H](C(=O)NCCCCNC(=O)c3ccc(-c4c5nc(c(-c6c(F)c(F)c(F)c(F)c6F)c6ccc([nH]6)c(-c6c(F)c(F)c(F)c(F)c6F)c6nc(c(-c7c(F)c(F)c(F)c(F)c7F)c7ccc4[nH]7)C=C6)C=C5)cc3)CC2=O)cc1C(F)(F)F
REMARK SMILES IDX 15 1 14 2 13 3 11 4 12 5 10 7 8 8 9 9 85 10 84 11 86 12 7 13
REMARK SMILES IDX 4 14 5 15 88 16 6 17 87 18 3 19 2 20 1 21 89 22 90 23 91 24
REMARK SMILES IDX 92 25 16 26 17 27 18 28 19 29 20 31 21 32 22 33 83 34 23 35
REMARK SMILES IDX 82 36 24 37 25 38 26 39 76 40 27 41 81 42 75 43 77 44 28 45
REMARK SMILES IDX 80 46 74 47 73 48 29 50 61 51 41 52 60 53 42 54 45 55 59 56
REMARK SMILES IDX 78 57 43 58 44 59 58 61 79 62 46 63 30 64 31 65 39 66 32 67
REMARK SMILES IDX 33 68 37 69 40 70 34 71 35 72 38 73 36 74 62 75 63 76 71 77
REMARK SMILES IDX 64 78 65 79 69 80 72 81 66 82 67 83 70 84 68 85 47 86 48 87
REMARK SMILES IDX 56 88 49 89 50 90 54 91 57 92 51 93 52 94 55 95 53 96
REMARK H PARENT 13 6 18 30 77 49 45 60
REMARK Flexibility Score: inf
ROOT
ATOM      1  C   UNL A   1      31.560  30.605  26.816  1.00  0.00     0.023 C 
ENDROOT
BRANCH   1   2
ATOM      2  C   UNL A   1      32.476  30.077  25.706  1.00  0.00     0.116 C 
BRANCH   2   3
ATOM      3  N   UNL A   1      31.702  29.659  24.553  1.00  0.00    -0.356 N 
ATOM      4  C   UNL A   1      32.085  29.055  23.395  1.00  0.00     0.225 C 
ATOM      5  O   UNL A   1      31.211  28.867  22.549  1.00  0.00    -0.275 OA
ATOM      6  H   UNL A   1      30.737  29.843  24.619  1.00  0.00     0.163 HD
BRANCH   4   7
ATOM      7  C   UNL A   1      33.503  28.525  23.226  1.00  0.00     0.107 C 
ATOM      8  N   UNL A   1      33.596  26.178  23.393  1.00  0.00    -0.312 N 
ATOM      9  C   UNL A   1      33.787  27.370  24.187  1.00  0.00     0.139 C 
ATOM     10  C   UNL A   1      33.543  26.469  22.033  1.00  0.00     0.227 C 
ATOM     11  C   UNL A   1      33.812  27.927  21.863  1.00  0.00     0.116 C 
ATOM     12  O   UNL A   1      33.348  25.716  21.088  1.00  0.00    -0.274 OA
BRANCH   8  13
ATOM     13  C   UNL A   1      33.618  24.869  23.913  1.00  0.00     0.044 A 
ATOM     14  C   UNL A   1      33.596  22.312  25.072  1.00  0.00     0.131 A 
ATOM     15  C   UNL A   1      34.621  22.684  24.193  1.00  0.00     0.049 A 
ATOM     16  C   UNL A   1      32.581  23.209  25.397  1.00  0.00     0.100 A 
ATOM     17  C   UNL A   1      34.619  23.952  23.595  1.00  0.00     0.030 A 
ATOM     18  C   UNL A   1      32.604  24.474  24.792  1.00  0.00     0.043 A 
BRANCH  14  19
ATOM     19  O   UNL A   1      33.673  21.108  25.712  1.00  0.00    -0.493 OA
BRANCH  19  20
ATOM     20  C   UNL A   1      33.919  20.012  24.825  1.00  0.00     0.226 C 
ATOM     21  C   UNL A   1      32.609  19.566  24.196  1.00  0.00     0.049 C 
ENDBRANCH  19  20
ENDBRANCH  14  19
BRANCH  16  22
ATOM     22  C   UNL A   1      31.434  22.888  26.311  1.00  0.00     0.420 C 
ATOM     23  F   UNL A   1      30.707  21.811  25.894  1.00  0.00    -0.166 F 
ATOM     24  F   UNL A   1      31.868  22.555  27.563  1.00  0.00    -0.166 F 
ATOM     25  F   UNL A   1      30.526  23.887  26.480  1.00  0.00    -0.166 F 
ENDBRANCH  16  22
ENDBRANCH   8  13
ENDBRANCH   4   7
ENDBRANCH   2   3
ENDBRANCH   1   2
BRANCH   1  26
ATOM     26  C   UNL A   1      31.421  32.127  26.854  1.00  0.00     0.023 C 
BRANCH  26  27
ATOM     27  C   UNL A   1      32.691  32.874  27.233  1.00  0.00     0.116 C 
BRANCH  27  28
ATOM     28  N   UNL A   1      32.435  34.243  27.650  1.00  0.00    -0.352 N 
ATOM     29  C   UNL A   1      33.043  34.971  28.642  1.00  0.00     0.251 C 
ATOM     30  H   UNL A   1      31.727  34.712  27.153  1.00  0.00     0.163 HD
ATOM     31  O   UNL A   1      32.604  36.071  28.959  1.00  0.00    -0.269 OA
BRANCH  29  32
ATOM     32  C   UNL A   1      34.210  34.406  29.348  1.00  0.00     0.039 A 
ATOM     33  C   UNL A   1      33.996  33.665  30.513  1.00  0.00     0.014 A 
ATOM     34  C   UNL A   1      35.504  34.584  28.852  1.00  0.00     0.014 A 
ATOM     35  C   UNL A   1      35.076  33.048  31.143  1.00  0.00     0.010 A 
ATOM     36  C   UNL A   1      36.566  33.899  29.433  1.00  0.00     0.010 A 
ATOM     37  C   UNL A   1      36.364  33.129  30.587  1.00  0.00    -0.014 A 
BRANCH  37  38
ATOM     38  C   UNL A   1      37.504  32.398  31.195  1.00  0.00     0.031 A 
ATOM     39  C   UNL A   1      38.002  32.771  32.563  1.00  0.00     0.074 A 
ATOM     40  C   UNL A   1      38.131  31.441  30.485  1.00  0.00     0.049 A 
ATOM     41  N   UNL A   1      39.002  32.269  33.244  1.00  0.00    -0.248 NA
ATOM     42  C   UNL A   1      37.307  33.873  33.243  1.00  0.00     0.031 C 
ATOM     43  C   UNL A   1      37.783  31.039  29.122  1.00  0.00     0.029 A 
ATOM     44  N   UNL A   1      39.197  30.641  30.807  1.00  0.00    -0.354 N 
ATOM     45  C   UNL A   1      39.064  33.004  34.420  1.00  0.00     0.074 A 
ATOM     46  C   UNL A   1      38.040  34.023  34.335  1.00  0.00     0.031 C 
ATOM     47  C   UNL A   1      38.604  30.051  28.732  1.00  0.00     0.029 A 
ATOM     48  C   UNL A   1      39.559  29.778  29.802  1.00  0.00     0.049 A 
ATOM     49  H   UNL A   1      39.660  30.682  31.675  1.00  0.00     0.167 HD
ATOM     50  C   UNL A   1      39.885  32.828  35.484  1.00  0.00     0.037 A 
ATOM     51  C   UNL A   1      40.553  28.872  29.745  1.00  0.00     0.037 A 
ATOM     52  C   UNL A   1      40.889  31.800  35.567  1.00  0.00     0.049 A 
ATOM     53  C   UNL A   1      41.445  28.687  30.942  1.00  0.00     0.074 A 
ATOM     54  C   UNL A   1      41.713  31.483  36.632  1.00  0.00     0.029 A 
ATOM     55  N   UNL A   1      41.215  30.928  34.537  1.00  0.00    -0.354 N 
ATOM     56  N   UNL A   1      41.431  29.321  32.089  1.00  0.00    -0.248 NA
ATOM     57  C   UNL A   1      42.483  27.652  30.839  1.00  0.00     0.031 C 
ATOM     58  C   UNL A   1      42.581  30.464  36.225  1.00  0.00     0.029 A 
ATOM     59  C   UNL A   1      42.255  30.099  34.929  1.00  0.00     0.049 A 
ATOM     60  H   UNL A   1      40.772  30.903  33.658  1.00  0.00     0.167 HD
ATOM     61  C   UNL A   1      42.443  28.753  32.852  1.00  0.00     0.074 A 
ATOM     62  C   UNL A   1      43.035  27.706  32.043  1.00  0.00     0.031 C 
ATOM     63  C   UNL A   1      42.844  29.069  34.109  1.00  0.00     0.037 A 
BRANCH  50  64
ATOM     64  C   UNL A   1      39.737  33.782  36.636  1.00  0.00     0.064 A 
ATOM     65  C   UNL A   1      40.408  35.015  36.670  1.00  0.00     0.173 A 
ATOM     66  C   UNL A   1      38.901  33.464  37.717  1.00  0.00     0.173 A 
ATOM     67  F   UNL A   1      41.229  35.366  35.669  1.00  0.00    -0.203 F 
ATOM     68  C   UNL A   1      40.282  35.870  37.762  1.00  0.00     0.198 A 
ATOM     69  C   UNL A   1      38.748  34.339  38.790  1.00  0.00     0.198 A 
ATOM     70  F   UNL A   1      38.230  32.303  37.736  1.00  0.00    -0.203 F 
ATOM     71  F   UNL A   1      40.986  37.011  37.802  1.00  0.00    -0.200 F 
ATOM     72  C   UNL A   1      39.448  35.536  38.818  1.00  0.00     0.200 A 
ATOM     73  F   UNL A   1      37.930  34.020  39.803  1.00  0.00    -0.200 F 
ATOM     74  F   UNL A   1      39.327  36.360  39.866  1.00  0.00    -0.200 F 
ENDBRANCH  50  64
BRANCH  51  75
ATOM     75  C   UNL A   1      40.733  28.058  28.515  1.00  0.00     0.064 A 
ATOM     76  C   UNL A   1      40.092  26.823  28.364  1.00  0.00     0.173 A 
ATOM     77  C   UNL A   1      41.530  28.515  27.454  1.00  0.00     0.173 A 
ATOM     78  F   UNL A   1      39.335  26.336  29.359  1.00  0.00    -0.203 F 
ATOM     79  C   UNL A   1      40.246  26.067  27.203  1.00  0.00     0.198 A 
ATOM     80  C   UNL A   1      41.660  27.773  26.281  1.00  0.00     0.198 A 
ATOM     81  F   UNL A   1      42.159  29.695  27.545  1.00  0.00    -0.203 F 
ATOM     82  F   UNL A   1      39.649  24.873  27.099  1.00  0.00    -0.200 F 
ATOM     83  C   UNL A   1      41.022  26.548  26.159  1.00  0.00     0.200 A 
ATOM     84  F   UNL A   1      42.397  28.249  25.269  1.00  0.00    -0.200 F 
ATOM     85  F   UNL A   1      41.160  25.828  25.038  1.00  0.00    -0.200 F 
ENDBRANCH  51  75
BRANCH  63  86
ATOM     86  C   UNL A   1      43.968  28.262  34.695  1.00  0.00     0.064 A 
ATOM     87  C   UNL A   1      45.305  28.676  34.596  1.00  0.00     0.173 A 
ATOM     88  C   UNL A   1      43.701  27.074  35.393  1.00  0.00     0.173 A 
ATOM     89  F   UNL A   1      45.616  29.797  33.927  1.00  0.00    -0.203 F 
ATOM     90  C   UNL A   1      46.333  27.916  35.147  1.00  0.00     0.198 A 
ATOM     91  C   UNL A   1      44.729  26.335  35.973  1.00  0.00     0.198 A 
ATOM     92  F   UNL A   1      42.440  26.635  35.524  1.00  0.00    -0.203 F 
ATOM     93  F   UNL A   1      47.607  28.304  34.992  1.00  0.00    -0.200 F 
ATOM     94  C   UNL A   1      46.044  26.751  35.841  1.00  0.00     0.200 A 
ATOM     95  F   UNL A   1      44.445  25.219  36.657  1.00  0.00    -0.200 F 
ATOM     96  F   UNL A   1      47.035  26.026  36.377  1.00  0.00    -0.200 F 
ENDBRANCH  63  86
ENDBRANCH  37  38
ENDBRANCH  29  32
ENDBRANCH  27  28
ENDBRANCH  26  27
ENDBRANCH   1  26
TORSDOF 15
ENDMDL
