MODEL 1
REMARK VINA RESULT:     -13.2      0.000      0.000
REMARK SMILES O=C(NCCCCNC(=O)[C@@H]1CCCN(c2cnnc(O)c2Cl)C1)c1ccc(-c2c3nc(c(-c4c(F)c(F)c(F)c(F)c4F)c4ccc([nH]4)c(-c4c(F)c(F)c(F)c(F)c4F)c4nc(c(-c5c(F)c(F)c(F)c(F)c5F)c5ccc2[nH]5)C=C4)C=C3)cc1
REMARK SMILES IDX 5 1 4 2 3 3 1 4 2 5 25 7 26 8 87 9 27 10 86 11 28 12 29 13
REMARK SMILES IDX 30 14 80 15 31 16 85 17 79 18 81 19 32 20 84 21 78 22 77 23
REMARK SMILES IDX 33 25 65 26 45 27 64 28 46 29 49 30 63 31 82 32 47 33 48 34
REMARK SMILES IDX 62 36 83 37 50 38 34 39 35 40 43 41 36 42 37 43 41 44 44 45
REMARK SMILES IDX 38 46 39 47 42 48 40 49 66 50 67 51 75 52 68 53 69 54 73 55
REMARK SMILES IDX 76 56 70 57 71 58 74 59 72 60 51 61 52 62 60 63 53 64 54 65
REMARK SMILES IDX 58 66 61 67 55 68 56 69 59 70 57 71 6 72 7 73 8 74 9 75
REMARK SMILES IDX 10 77 11 78 12 79 24 80 13 81 15 82 14 83 16 84 17 85 22 86
REMARK SMILES IDX 18 87 20 88 23 89 19 90 21 91
REMARK H PARENT 3 6 81 24 49 35 8 76 21 92
REMARK Flexibility Score: inf
ROOT
ATOM      1  C   UNL A   1      31.568  31.974  26.679  1.00  0.00     0.023 C 
ENDROOT
BRANCH   1   2
ATOM      2  C   UNL A   1      32.731  32.674  27.377  1.00  0.00     0.116 C 
BRANCH   2   3
ATOM      3  N   UNL A   1      32.445  34.070  27.674  1.00  0.00    -0.352 N 
ATOM      4  O   UNL A   1      32.521  36.001  28.840  1.00  0.00    -0.269 OA
ATOM      5  C   UNL A   1      33.002  34.893  28.623  1.00  0.00     0.251 C 
ATOM      6  H   UNL A   1      31.750  34.484  27.114  1.00  0.00     0.163 HD
BRANCH   5   7
ATOM      7  C   UNL A   1      34.162  34.429  29.411  1.00  0.00     0.039 A 
ATOM      8  C   UNL A   1      35.459  34.529  28.903  1.00  0.00     0.014 A 
ATOM      9  C   UNL A   1      33.939  33.870  30.673  1.00  0.00     0.014 A 
ATOM     10  C   UNL A   1      36.518  33.940  29.592  1.00  0.00     0.010 A 
ATOM     11  C   UNL A   1      35.009  33.325  31.387  1.00  0.00     0.010 A 
ATOM     12  C   UNL A   1      36.298  33.316  30.830  1.00  0.00    -0.014 A 
BRANCH  12  13
ATOM     13  C   UNL A   1      37.414  32.624  31.521  1.00  0.00     0.031 A 
ATOM     14  C   UNL A   1      38.130  31.485  30.848  1.00  0.00     0.074 A 
ATOM     15  C   UNL A   1      37.811  33.048  32.735  1.00  0.00     0.049 A 
ATOM     16  N   UNL A   1      39.113  30.744  31.295  1.00  0.00    -0.248 NA
ATOM     17  C   UNL A   1      37.689  31.135  29.487  1.00  0.00     0.031 C 
ATOM     18  C   UNL A   1      37.218  34.164  33.473  1.00  0.00     0.029 A 
ATOM     19  N   UNL A   1      38.812  32.597  33.557  1.00  0.00    -0.354 N 
ATOM     20  C   UNL A   1      39.411  29.850  30.275  1.00  0.00     0.074 A 
ATOM     21  C   UNL A   1      38.482  30.113  29.197  1.00  0.00     0.031 C 
ATOM     22  C   UNL A   1      37.883  34.327  34.628  1.00  0.00     0.029 A 
ATOM     23  C   UNL A   1      38.914  33.299  34.732  1.00  0.00     0.049 A 
ATOM     24  H   UNL A   1      39.400  31.841  33.326  1.00  0.00     0.167 HD
ATOM     25  C   UNL A   1      40.383  28.908  30.237  1.00  0.00     0.037 A 
ATOM     26  C   UNL A   1      39.739  33.122  35.781  1.00  0.00     0.037 A 
ATOM     27  C   UNL A   1      41.307  28.647  31.310  1.00  0.00     0.049 A 
ATOM     28  C   UNL A   1      40.746  32.005  35.745  1.00  0.00     0.074 A 
ATOM     29  C   UNL A   1      42.316  27.702  31.367  1.00  0.00     0.029 A 
ATOM     30  N   UNL A   1      41.336  29.336  32.512  1.00  0.00    -0.354 N 
ATOM     31  N   UNL A   1      41.012  31.159  34.780  1.00  0.00    -0.248 NA
ATOM     32  C   UNL A   1      41.564  31.814  36.953  1.00  0.00     0.031 C 
ATOM     33  C   UNL A   1      42.936  27.796  32.618  1.00  0.00     0.029 A 
ATOM     34  C   UNL A   1      42.337  28.825  33.324  1.00  0.00     0.049 A 
ATOM     35  H   UNL A   1      40.735  30.077  32.754  1.00  0.00     0.167 HD
ATOM     36  C   UNL A   1      42.036  30.350  35.254  1.00  0.00     0.074 A 
ATOM     37  C   UNL A   1      42.359  30.821  36.584  1.00  0.00     0.031 C 
ATOM     38  C   UNL A   1      42.648  29.306  34.644  1.00  0.00     0.037 A 
BRANCH  25  39
ATOM     39  C   UNL A   1      40.514  28.084  28.991  1.00  0.00     0.064 A 
ATOM     40  C   UNL A   1      39.773  26.906  28.819  1.00  0.00     0.173 A 
ATOM     41  C   UNL A   1      41.310  28.523  27.924  1.00  0.00     0.173 A 
ATOM     42  F   UNL A   1      39.006  26.439  29.816  1.00  0.00    -0.203 F 
ATOM     43  C   UNL A   1      39.825  26.197  27.622  1.00  0.00     0.198 A 
ATOM     44  C   UNL A   1      41.344  27.823  26.721  1.00  0.00     0.198 A 
ATOM     45  F   UNL A   1      42.034  29.647  28.037  1.00  0.00    -0.203 F 
ATOM     46  F   UNL A   1      39.121  25.064  27.485  1.00  0.00    -0.200 F 
ATOM     47  C   UNL A   1      40.602  26.661  26.571  1.00  0.00     0.200 A 
ATOM     48  F   UNL A   1      42.085  28.278  25.702  1.00  0.00    -0.200 F 
ATOM     49  F   UNL A   1      40.633  25.988  25.412  1.00  0.00    -0.200 F 
ENDBRANCH  25  39
BRANCH  26  50
ATOM     50  C   UNL A   1      39.646  34.018  36.962  1.00  0.00     0.064 A 
ATOM     51  C   UNL A   1      38.836  33.682  38.055  1.00  0.00     0.173 A 
ATOM     52  C   UNL A   1      40.340  35.236  37.011  1.00  0.00     0.173 A 
ATOM     53  F   UNL A   1      38.132  32.541  38.043  1.00  0.00    -0.203 F 
ATOM     54  C   UNL A   1      38.710  34.539  39.146  1.00  0.00     0.198 A 
ATOM     55  C   UNL A   1      40.235  36.079  38.114  1.00  0.00     0.198 A 
ATOM     56  F   UNL A   1      41.122  35.604  35.987  1.00  0.00    -0.203 F 
ATOM     57  F   UNL A   1      37.891  34.218  40.157  1.00  0.00    -0.200 F 
ATOM     58  C   UNL A   1      39.414  35.734  39.178  1.00  0.00     0.200 A 
ATOM     59  F   UNL A   1      40.922  37.229  38.144  1.00  0.00    -0.200 F 
ATOM     60  F   UNL A   1      39.290  36.560  40.226  1.00  0.00    -0.200 F 
ENDBRANCH  26  50
BRANCH  38  61
ATOM     61  C   UNL A   1      43.740  28.613  35.403  1.00  0.00     0.064 A 
ATOM     62  C   UNL A   1      45.085  28.979  35.244  1.00  0.00     0.173 A 
ATOM     63  C   UNL A   1      43.438  27.601  36.325  1.00  0.00     0.173 A 
ATOM     64  F   UNL A   1      45.426  29.932  34.363  1.00  0.00    -0.203 F 
ATOM     65  C   UNL A   1      46.090  28.338  35.963  1.00  0.00     0.198 A 
ATOM     66  C   UNL A   1      44.442  26.982  37.063  1.00  0.00     0.198 A 
ATOM     67  F   UNL A   1      42.165  27.221  36.519  1.00  0.00    -0.203 F 
ATOM     68  F   UNL A   1      47.372  28.673  35.763  1.00  0.00    -0.200 F 
ATOM     69  C   UNL A   1      45.767  27.346  36.877  1.00  0.00     0.200 A 
ATOM     70  F   UNL A   1      44.128  26.032  37.954  1.00  0.00    -0.200 F 
ATOM     71  F   UNL A   1      46.735  26.733  37.573  1.00  0.00    -0.200 F 
ENDBRANCH  38  61
ENDBRANCH  12  13
ENDBRANCH   5   7
ENDBRANCH   2   3
ENDBRANCH   1   2
BRANCH   1  72
ATOM     72  C   UNL A   1      31.720  30.460  26.493  1.00  0.00     0.023 C 
BRANCH  72  73
ATOM     73  C   UNL A   1      33.150  29.965  26.297  1.00  0.00     0.116 C 
BRANCH  73  74
ATOM     74  N   UNL A   1      33.529  29.852  24.902  1.00  0.00    -0.356 N 
ATOM     75  C   UNL A   1      33.485  28.771  24.070  1.00  0.00     0.224 C 
ATOM     76  H   UNL A   1      33.867  30.681  24.492  1.00  0.00     0.163 HD
ATOM     77  O   UNL A   1      33.813  28.958  22.898  1.00  0.00    -0.275 OA
BRANCH  75  78
ATOM     78  C   UNL A   1      33.076  27.399  24.604  1.00  0.00     0.098 C 
ATOM     79  C   UNL A   1      33.667  26.251  23.758  1.00  0.00     0.017 C 
ATOM     80  C   UNL A   1      31.560  27.234  24.723  1.00  0.00     0.130 C 
ATOM     81  C   UNL A   1      32.925  26.019  22.432  1.00  0.00     0.022 C 
ATOM     82  N   UNL A   1      30.948  27.017  23.419  1.00  0.00    -0.368 N 
ATOM     83  C   UNL A   1      31.414  25.890  22.627  1.00  0.00     0.116 C 
BRANCH  82  84
ATOM     84  C   UNL A   1      29.985  27.887  22.942  1.00  0.00     0.082 A 
ATOM     85  C   UNL A   1      30.333  28.989  22.166  1.00  0.00     0.163 A 
ATOM     86  C   UNL A   1      28.620  27.759  23.214  1.00  0.00     0.129 A 
ATOM     87  N   UNL A   1      29.458  29.918  21.713  1.00  0.00    -0.153 NA
ATOM     88  C   UNL A   1      27.741  28.722  22.732  1.00  0.00     0.252 A 
ATOM     89  Cl  UNL A   1      28.005  26.461  24.185  1.00  0.00    -0.076 Cl
ATOM     90  N   UNL A   1      28.143  29.783  22.006  1.00  0.00    -0.111 NA
BRANCH  88  91
ATOM     91  O   UNL A   1      26.396  28.666  22.987  1.00  0.00    -0.491 OA
ATOM     92  H   UNL A   1      26.069  28.098  23.657  1.00  0.00     0.295 HD
ENDBRANCH  88  91
ENDBRANCH  82  84
ENDBRANCH  75  78
ENDBRANCH  73  74
ENDBRANCH  72  73
ENDBRANCH   1  72
TORSDOF 13
ENDMDL
MODEL 2
REMARK VINA RESULT:     -13.2      0.463      7.397
REMARK SMILES O=C(NCCCCNC(=O)[C@@H]1CCCN(c2cnnc(O)c2Cl)C1)c1ccc(-c2c3nc(c(-c4c(F)c(F)c(F)c(F)c4F)c4ccc([nH]4)c(-c4c(F)c(F)c(F)c(F)c4F)c4nc(c(-c5c(F)c(F)c(F)c(F)c5F)c5ccc2[nH]5)C=C4)C=C3)cc1
REMARK SMILES IDX 5 1 4 2 3 3 1 4 2 5 25 7 26 8 87 9 27 10 86 11 28 12 29 13
REMARK SMILES IDX 30 14 80 15 31 16 85 17 79 18 81 19 32 20 84 21 78 22 77 23
REMARK SMILES IDX 33 25 65 26 45 27 64 28 46 29 49 30 63 31 82 32 47 33 48 34
REMARK SMILES IDX 62 36 83 37 50 38 34 39 35 40 43 41 36 42 37 43 41 44 44 45
REMARK SMILES IDX 38 46 39 47 42 48 40 49 66 50 67 51 75 52 68 53 69 54 73 55
REMARK SMILES IDX 76 56 70 57 71 58 74 59 72 60 51 61 52 62 60 63 53 64 54 65
REMARK SMILES IDX 58 66 61 67 55 68 56 69 59 70 57 71 6 72 7 73 8 74 9 75
REMARK SMILES IDX 10 77 11 78 12 79 24 80 13 81 15 82 14 83 16 84 17 85 22 86
REMARK SMILES IDX 18 87 20 88 23 89 19 90 21 91
REMARK H PARENT 3 6 81 24 49 35 8 76 21 92
REMARK Flexibility Score: inf
ROOT
ATOM      1  C   UNL A   1      31.403  32.193  26.502  1.00  0.00     0.023 C 
ENDROOT
BRANCH   1   2
ATOM      2  C   UNL A   1      32.556  32.805  27.293  1.00  0.00     0.116 C 
BRANCH   2   3
ATOM      3  N   UNL A   1      32.324  34.203  27.626  1.00  0.00    -0.352 N 
ATOM      4  O   UNL A   1      32.511  36.112  28.816  1.00  0.00    -0.269 OA
ATOM      5  C   UNL A   1      32.950  34.995  28.558  1.00  0.00     0.251 C 
ATOM      6  H   UNL A   1      31.614  34.646  27.107  1.00  0.00     0.163 HD
BRANCH   5   7
ATOM      7  C   UNL A   1      34.134  34.486  29.281  1.00  0.00     0.039 A 
ATOM      8  C   UNL A   1      35.410  34.581  28.720  1.00  0.00     0.014 A 
ATOM      9  C   UNL A   1      33.956  33.891  30.533  1.00  0.00     0.014 A 
ATOM     10  C   UNL A   1      36.486  33.953  29.343  1.00  0.00     0.010 A 
ATOM     11  C   UNL A   1      35.045  33.305  31.182  1.00  0.00     0.010 A 
ATOM     12  C   UNL A   1      36.309  33.292  30.569  1.00  0.00    -0.014 A 
BRANCH  12  13
ATOM     13  C   UNL A   1      37.440  32.561  31.188  1.00  0.00     0.031 A 
ATOM     14  C   UNL A   1      37.903  32.917  32.575  1.00  0.00     0.074 A 
ATOM     15  C   UNL A   1      38.024  31.548  30.521  1.00  0.00     0.049 A 
ATOM     16  N   UNL A   1      38.884  32.409  33.277  1.00  0.00    -0.248 NA
ATOM     17  C   UNL A   1      37.159  33.982  33.269  1.00  0.00     0.031 C 
ATOM     18  C   UNL A   1      37.641  31.086  29.187  1.00  0.00     0.029 A 
ATOM     19  N   UNL A   1      39.057  30.718  30.880  1.00  0.00    -0.354 N 
ATOM     20  C   UNL A   1      38.872  33.083  34.492  1.00  0.00     0.074 A 
ATOM     21  C   UNL A   1      37.811  34.064  34.421  1.00  0.00     0.031 C 
ATOM     22  C   UNL A   1      38.411  30.040  28.848  1.00  0.00     0.029 A 
ATOM     23  C   UNL A   1      39.371  29.789  29.920  1.00  0.00     0.049 A 
ATOM     24  H   UNL A   1      39.527  30.783  31.742  1.00  0.00     0.167 HD
ATOM     25  C   UNL A   1      39.665  32.887  35.572  1.00  0.00     0.037 A 
ATOM     26  C   UNL A   1      40.336  28.850  29.901  1.00  0.00     0.037 A 
ATOM     27  C   UNL A   1      40.721  31.911  35.643  1.00  0.00     0.049 A 
ATOM     28  C   UNL A   1      41.260  28.722  31.081  1.00  0.00     0.074 A 
ATOM     29  C   UNL A   1      41.586  31.651  36.691  1.00  0.00     0.029 A 
ATOM     30  N   UNL A   1      41.052  31.032  34.623  1.00  0.00    -0.354 N 
ATOM     31  N   UNL A   1      41.247  29.371  32.219  1.00  0.00    -0.248 NA
ATOM     32  C   UNL A   1      42.341  27.732  30.968  1.00  0.00     0.031 C 
ATOM     33  C   UNL A   1      42.463  30.636  36.294  1.00  0.00     0.029 A 
ATOM     34  C   UNL A   1      42.120  30.239  35.014  1.00  0.00     0.049 A 
ATOM     35  H   UNL A   1      40.597  30.979  33.752  1.00  0.00     0.167 HD
ATOM     36  C   UNL A   1      42.301  28.858  32.963  1.00  0.00     0.074 A 
ATOM     37  C   UNL A   1      42.919  27.828  32.157  1.00  0.00     0.031 C 
ATOM     38  C   UNL A   1      42.722  29.215  34.201  1.00  0.00     0.037 A 
BRANCH  25  39
ATOM     39  C   UNL A   1      39.424  33.738  36.783  1.00  0.00     0.064 A 
ATOM     40  C   UNL A   1      38.667  33.264  37.864  1.00  0.00     0.173 A 
ATOM     41  C   UNL A   1      40.035  34.995  36.907  1.00  0.00     0.173 A 
ATOM     42  F   UNL A   1      38.054  32.073  37.789  1.00  0.00    -0.203 F 
ATOM     43  C   UNL A   1      38.528  34.020  39.025  1.00  0.00     0.198 A 
ATOM     44  C   UNL A   1      39.911  35.739  38.078  1.00  0.00     0.198 A 
ATOM     45  F   UNL A   1      40.774  35.490  35.903  1.00  0.00    -0.203 F 
ATOM     46  F   UNL A   1      37.786  33.555  40.041  1.00  0.00    -0.200 F 
ATOM     47  C   UNL A   1      39.158  35.250  39.136  1.00  0.00     0.200 A 
ATOM     48  F   UNL A   1      40.529  36.922  38.188  1.00  0.00    -0.200 F 
ATOM     49  F   UNL A   1      39.041  35.966  40.263  1.00  0.00    -0.200 F 
ENDBRANCH  25  39
BRANCH  26  50
ATOM     50  C   UNL A   1      40.486  27.958  28.723  1.00  0.00     0.064 A 
ATOM     51  C   UNL A   1      41.256  28.352  27.620  1.00  0.00     0.173 A 
ATOM     52  C   UNL A   1      39.845  26.713  28.664  1.00  0.00     0.173 A 
ATOM     53  F   UNL A   1      41.865  29.547  27.618  1.00  0.00    -0.203 F 
ATOM     54  C   UNL A   1      41.364  27.539  26.493  1.00  0.00     0.198 A 
ATOM     55  C   UNL A   1      39.977  25.889  27.549  1.00  0.00     0.198 A 
ATOM     56  F   UNL A   1      39.093  26.295  29.692  1.00  0.00    -0.203 F 
ATOM     57  F   UNL A   1      42.066  27.959  25.431  1.00  0.00    -0.200 F 
ATOM     58  C   UNL A   1      40.730  26.306  26.461  1.00  0.00     0.200 A 
ATOM     59  F   UNL A   1      39.370  24.695  27.524  1.00  0.00    -0.200 F 
ATOM     60  F   UNL A   1      40.833  25.526  25.376  1.00  0.00    -0.200 F 
ENDBRANCH  26  50
BRANCH  38  61
ATOM     61  C   UNL A   1      43.898  28.474  34.764  1.00  0.00     0.064 A 
ATOM     62  C   UNL A   1      45.204  28.970  34.632  1.00  0.00     0.173 A 
ATOM     63  C   UNL A   1      43.716  27.280  35.475  1.00  0.00     0.173 A 
ATOM     64  F   UNL A   1      45.431  30.101  33.948  1.00  0.00    -0.203 F 
ATOM     65  C   UNL A   1      46.288  28.281  35.170  1.00  0.00     0.198 A 
ATOM     66  C   UNL A   1      44.798  26.608  36.036  1.00  0.00     0.198 A 
ATOM     67  F   UNL A   1      42.485  26.769  35.635  1.00  0.00    -0.203 F 
ATOM     68  F   UNL A   1      47.531  28.748  34.994  1.00  0.00    -0.200 F 
ATOM     69  C   UNL A   1      46.083  27.105  35.877  1.00  0.00     0.200 A 
ATOM     70  F   UNL A   1      44.598  25.479  36.729  1.00  0.00    -0.200 F 
ATOM     71  F   UNL A   1      47.126  26.446  36.400  1.00  0.00    -0.200 F 
ENDBRANCH  38  61
ENDBRANCH  12  13
ENDBRANCH   5   7
ENDBRANCH   2   3
ENDBRANCH   1   2
BRANCH   1  72
ATOM     72  C   UNL A   1      31.417  30.665  26.385  1.00  0.00     0.023 C 
BRANCH  72  73
ATOM     73  C   UNL A   1      32.800  30.027  26.289  1.00  0.00     0.116 C 
BRANCH  73  74
ATOM     74  N   UNL A   1      33.292  29.935  24.928  1.00  0.00    -0.356 N 
ATOM     75  C   UNL A   1      33.380  28.850  24.104  1.00  0.00     0.224 C 
ATOM     76  H   UNL A   1      33.610  30.782  24.540  1.00  0.00     0.163 HD
ATOM     77  O   UNL A   1      33.786  29.054  22.959  1.00  0.00    -0.275 OA
BRANCH  75  78
ATOM     78  C   UNL A   1      33.014  27.458  24.615  1.00  0.00     0.098 C 
ATOM     79  C   UNL A   1      33.653  26.343  23.758  1.00  0.00     0.017 C 
ATOM     80  C   UNL A   1      31.504  27.237  24.717  1.00  0.00     0.130 C 
ATOM     81  C   UNL A   1      32.932  26.104  22.423  1.00  0.00     0.022 C 
ATOM     82  N   UNL A   1      30.912  27.017  23.404  1.00  0.00    -0.368 N 
ATOM     83  C   UNL A   1      31.424  25.919  22.601  1.00  0.00     0.116 C 
BRANCH  82  84
ATOM     84  C   UNL A   1      29.923  27.860  22.930  1.00  0.00     0.082 A 
ATOM     85  C   UNL A   1      30.233  28.950  22.121  1.00  0.00     0.163 A 
ATOM     86  C   UNL A   1      28.567  27.714  23.237  1.00  0.00     0.129 A 
ATOM     87  N   UNL A   1      29.332  29.852  21.668  1.00  0.00    -0.153 NA
ATOM     88  C   UNL A   1      27.660  28.651  22.754  1.00  0.00     0.252 A 
ATOM     89  Cl  UNL A   1      27.998  26.429  24.251  1.00  0.00    -0.076 Cl
ATOM     90  N   UNL A   1      28.027  29.702  21.995  1.00  0.00    -0.111 NA
BRANCH  88  91
ATOM     91  O   UNL A   1      26.323  28.578  23.041  1.00  0.00    -0.491 OA
ATOM     92  H   UNL A   1      25.788  29.345  22.985  1.00  0.00     0.295 HD
ENDBRANCH  88  91
ENDBRANCH  82  84
ENDBRANCH  75  78
ENDBRANCH  73  74
ENDBRANCH  72  73
ENDBRANCH   1  72
TORSDOF 13
ENDMDL
MODEL 3
REMARK VINA RESULT:     -13.2      0.659      7.497
REMARK SMILES O=C(NCCCCNC(=O)[C@@H]1CCCN(c2cnnc(O)c2Cl)C1)c1ccc(-c2c3nc(c(-c4c(F)c(F)c(F)c(F)c4F)c4ccc([nH]4)c(-c4c(F)c(F)c(F)c(F)c4F)c4nc(c(-c5c(F)c(F)c(F)c(F)c5F)c5ccc2[nH]5)C=C4)C=C3)cc1
REMARK SMILES IDX 5 1 4 2 3 3 1 4 2 5 25 7 26 8 87 9 27 10 86 11 28 12 29 13
REMARK SMILES IDX 30 14 80 15 31 16 85 17 79 18 81 19 32 20 84 21 78 22 77 23
REMARK SMILES IDX 33 25 65 26 45 27 64 28 46 29 49 30 63 31 82 32 47 33 48 34
REMARK SMILES IDX 62 36 83 37 50 38 34 39 35 40 43 41 36 42 37 43 41 44 44 45
REMARK SMILES IDX 38 46 39 47 42 48 40 49 66 50 67 51 75 52 68 53 69 54 73 55
REMARK SMILES IDX 76 56 70 57 71 58 74 59 72 60 51 61 52 62 60 63 53 64 54 65
REMARK SMILES IDX 58 66 61 67 55 68 56 69 59 70 57 71 6 72 7 73 8 74 9 75
REMARK SMILES IDX 10 77 11 78 12 79 24 80 13 81 15 82 14 83 16 84 17 85 22 86
REMARK SMILES IDX 18 87 20 88 23 89 19 90 21 91
REMARK H PARENT 3 6 81 24 49 35 8 76 21 92
REMARK Flexibility Score: inf
ROOT
ATOM      1  C   UNL A   1      31.409  32.011  26.564  1.00  0.00     0.023 C 
ENDROOT
BRANCH   1   2
ATOM      2  C   UNL A   1      32.592  32.653  27.285  1.00  0.00     0.116 C 
BRANCH   2   3
ATOM      3  N   UNL A   1      32.348  34.047  27.626  1.00  0.00    -0.352 N 
ATOM      4  O   UNL A   1      32.527  35.954  28.821  1.00  0.00    -0.269 OA
ATOM      5  C   UNL A   1      32.975  34.843  28.554  1.00  0.00     0.251 C 
ATOM      6  H   UNL A   1      31.628  34.484  27.117  1.00  0.00     0.163 HD
BRANCH   5   7
ATOM      7  C   UNL A   1      34.172  34.345  29.262  1.00  0.00     0.039 A 
ATOM      8  C   UNL A   1      35.453  34.577  28.753  1.00  0.00     0.014 A 
ATOM      9  C   UNL A   1      34.004  33.621  30.446  1.00  0.00     0.014 A 
ATOM     10  C   UNL A   1      36.553  33.963  29.347  1.00  0.00     0.010 A 
ATOM     11  C   UNL A   1      35.114  33.048  31.070  1.00  0.00     0.010 A 
ATOM     12  C   UNL A   1      36.390  33.177  30.499  1.00  0.00    -0.014 A 
BRANCH  12  13
ATOM     13  C   UNL A   1      37.553  32.464  31.082  1.00  0.00     0.031 A 
ATOM     14  C   UNL A   1      38.060  32.834  32.449  1.00  0.00     0.074 A 
ATOM     15  C   UNL A   1      38.128  31.456  30.399  1.00  0.00     0.049 A 
ATOM     16  N   UNL A   1      39.072  32.343  33.119  1.00  0.00    -0.248 NA
ATOM     17  C   UNL A   1      37.326  33.893  33.164  1.00  0.00     0.031 C 
ATOM     18  C   UNL A   1      37.703  30.981  29.082  1.00  0.00     0.029 A 
ATOM     19  N   UNL A   1      39.183  30.643  30.725  1.00  0.00    -0.354 N 
ATOM     20  C   UNL A   1      39.094  33.024  34.329  1.00  0.00     0.074 A 
ATOM     21  C   UNL A   1      38.017  33.990  34.291  1.00  0.00     0.031 C 
ATOM     22  C   UNL A   1      38.475  29.944  28.721  1.00  0.00     0.029 A 
ATOM     23  C   UNL A   1      39.477  29.713  29.759  1.00  0.00     0.049 A 
ATOM     24  H   UNL A   1      39.683  30.719  31.570  1.00  0.00     0.167 HD
ATOM     25  C   UNL A   1      39.927  32.845  35.382  1.00  0.00     0.037 A 
ATOM     26  C   UNL A   1      40.453  28.787  29.711  1.00  0.00     0.037 A 
ATOM     27  C   UNL A   1      40.998  31.884  35.420  1.00  0.00     0.049 A 
ATOM     28  C   UNL A   1      41.420  28.678  30.858  1.00  0.00     0.074 A 
ATOM     29  C   UNL A   1      41.903  31.641  36.438  1.00  0.00     0.029 A 
ATOM     30  N   UNL A   1      41.305  31.004  34.394  1.00  0.00    -0.354 N 
ATOM     31  N   UNL A   1      41.438  29.333  31.993  1.00  0.00    -0.248 NA
ATOM     32  C   UNL A   1      42.510  27.702  30.711  1.00  0.00     0.031 C 
ATOM     33  C   UNL A   1      42.781  30.637  36.015  1.00  0.00     0.029 A 
ATOM     34  C   UNL A   1      42.397  30.228  34.750  1.00  0.00     0.049 A 
ATOM     35  H   UNL A   1      40.821  30.940  33.539  1.00  0.00     0.167 HD
ATOM     36  C   UNL A   1      42.525  28.839  32.701  1.00  0.00     0.074 A 
ATOM     37  C   UNL A   1      43.128  27.813  31.878  1.00  0.00     0.031 C 
ATOM     38  C   UNL A   1      42.985  29.208  33.921  1.00  0.00     0.037 A 
BRANCH  25  39
ATOM     39  C   UNL A   1      39.718  33.699  36.597  1.00  0.00     0.064 A 
ATOM     40  C   UNL A   1      40.287  34.977  36.692  1.00  0.00     0.173 A 
ATOM     41  C   UNL A   1      38.865  33.279  37.628  1.00  0.00     0.173 A 
ATOM     42  F   UNL A   1      41.118  35.419  35.736  1.00  0.00    -0.203 F 
ATOM     43  C   UNL A   1      40.011  35.804  37.777  1.00  0.00     0.198 A 
ATOM     44  C   UNL A   1      38.575  34.117  38.702  1.00  0.00     0.198 A 
ATOM     45  F   UNL A   1      38.292  32.067  37.581  1.00  0.00    -0.203 F 
ATOM     46  F   UNL A   1      40.578  37.016  37.857  1.00  0.00    -0.200 F 
ATOM     47  C   UNL A   1      39.147  35.378  38.775  1.00  0.00     0.200 A 
ATOM     48  F   UNL A   1      37.731  33.709  39.660  1.00  0.00    -0.200 F 
ATOM     49  F   UNL A   1      38.866  36.184  39.809  1.00  0.00    -0.200 F 
ENDBRANCH  25  39
BRANCH  26  50
ATOM     50  C   UNL A   1      40.574  27.891  28.532  1.00  0.00     0.064 A 
ATOM     51  C   UNL A   1      41.308  28.284  27.405  1.00  0.00     0.173 A 
ATOM     52  C   UNL A   1      39.939  26.641  28.497  1.00  0.00     0.173 A 
ATOM     53  F   UNL A   1      41.909  29.483  27.380  1.00  0.00    -0.203 F 
ATOM     54  C   UNL A   1      41.388  27.467  26.279  1.00  0.00     0.198 A 
ATOM     55  C   UNL A   1      40.043  25.813  27.383  1.00  0.00     0.198 A 
ATOM     56  F   UNL A   1      39.221  26.223  29.549  1.00  0.00    -0.203 F 
ATOM     57  F   UNL A   1      42.055  27.887  25.195  1.00  0.00    -0.200 F 
ATOM     58  C   UNL A   1      40.761  26.230  26.271  1.00  0.00     0.200 A 
ATOM     59  F   UNL A   1      39.443  24.616  27.381  1.00  0.00    -0.200 F 
ATOM     60  F   UNL A   1      40.836  25.446  25.187  1.00  0.00    -0.200 F 
ENDBRANCH  26  50
BRANCH  38  61
ATOM     61  C   UNL A   1      44.190  28.487  34.446  1.00  0.00     0.064 A 
ATOM     62  C   UNL A   1      45.487  28.972  34.220  1.00  0.00     0.173 A 
ATOM     63  C   UNL A   1      44.047  27.322  35.213  1.00  0.00     0.173 A 
ATOM     64  F   UNL A   1      45.676  30.074  33.479  1.00  0.00    -0.203 F 
ATOM     65  C   UNL A   1      46.599  28.302  34.723  1.00  0.00     0.198 A 
ATOM     66  C   UNL A   1      45.159  26.670  35.738  1.00  0.00     0.198 A 
ATOM     67  F   UNL A   1      42.827  26.823  35.464  1.00  0.00    -0.203 F 
ATOM     68  F   UNL A   1      47.830  28.758  34.457  1.00  0.00    -0.200 F 
ATOM     69  C   UNL A   1      46.433  27.156  35.487  1.00  0.00     0.200 A 
ATOM     70  F   UNL A   1      44.998  25.570  36.487  1.00  0.00    -0.200 F 
ATOM     71  F   UNL A   1      47.504  26.515  35.976  1.00  0.00    -0.200 F 
ENDBRANCH  38  61
ENDBRANCH  12  13
ENDBRANCH   5   7
ENDBRANCH   2   3
ENDBRANCH   1   2
BRANCH   1  72
ATOM     72  C   UNL A   1      31.580  30.533  26.197  1.00  0.00     0.023 C 
BRANCH  72  73
ATOM     73  C   UNL A   1      33.011  30.006  26.250  1.00  0.00     0.116 C 
BRANCH  73  74
ATOM     74  N   UNL A   1      33.575  29.752  24.938  1.00  0.00    -0.356 N 
ATOM     75  C   UNL A   1      33.627  28.593  24.220  1.00  0.00     0.224 C 
ATOM     76  H   UNL A   1      33.980  30.535  24.499  1.00  0.00     0.163 HD
ATOM     77  O   UNL A   1      34.115  28.659  23.092  1.00  0.00    -0.275 OA
BRANCH  75  78
ATOM     78  C   UNL A   1      33.124  27.284  24.826  1.00  0.00     0.098 C 
ATOM     79  C   UNL A   1      33.683  26.051  24.082  1.00  0.00     0.017 C 
ATOM     80  C   UNL A   1      31.598  27.205  24.894  1.00  0.00     0.130 C 
ATOM     81  C   UNL A   1      32.979  25.769  22.745  1.00  0.00     0.022 C 
ATOM     82  N   UNL A   1      31.024  26.932  23.583  1.00  0.00    -0.368 N 
ATOM     83  C   UNL A   1      31.458  25.731  22.887  1.00  0.00     0.116 C 
BRANCH  82  84
ATOM     84  C   UNL A   1      30.128  27.816  23.010  1.00  0.00     0.082 A 
ATOM     85  C   UNL A   1      30.567  28.872  22.217  1.00  0.00     0.163 A 
ATOM     86  C   UNL A   1      28.745  27.748  23.197  1.00  0.00     0.129 A 
ATOM     87  N   UNL A   1      29.760  29.813  21.673  1.00  0.00    -0.153 NA
ATOM     88  C   UNL A   1      27.936  28.722  22.622  1.00  0.00     0.252 A 
ATOM     89  Cl  UNL A   1      28.019  26.514  24.174  1.00  0.00    -0.076 Cl
ATOM     90  N   UNL A   1      28.425  29.737  21.884  1.00  0.00    -0.111 NA
BRANCH  88  91
ATOM     91  O   UNL A   1      26.576  28.725  22.790  1.00  0.00    -0.491 OA
ATOM     92  H   UNL A   1      26.070  27.981  22.528  1.00  0.00     0.295 HD
ENDBRANCH  88  91
ENDBRANCH  82  84
ENDBRANCH  75  78
ENDBRANCH  73  74
ENDBRANCH  72  73
ENDBRANCH   1  72
TORSDOF 13
ENDMDL
