MODEL 1
REMARK VINA RESULT:     -13.5      0.000      0.000
REMARK SMILES COc1ccc([C@@H]2[C@H](C(=O)NCCCCNC(=O)c3ccc(-c4c5nc(c(-c6c(F)c(F)c(F)c(F)c6F)c6ccc([nH]6)c(-c6c(F)c(F)c(F)c(F)c6F)c6nc(c(-c7c(F)c(F)c(F)c(F)c7F)c7ccc4[nH]7)C=C6)C=C5)cc3)c3ccccc3C(=O)N2C2CC2)cc1
REMARK SMILES IDX 13 1 12 2 11 3 9 4 10 5 8 7 7 8 90 9 82 10 88 11 83 12 87 13
REMARK SMILES IDX 89 14 84 15 86 16 85 17 6 18 3 19 4 20 95 21 5 22 94 23 2 24
REMARK SMILES IDX 1 25 91 26 92 27 93 28 14 29 15 30 16 31 17 32 18 34 19 35
REMARK SMILES IDX 20 36 81 37 21 38 80 39 22 40 23 41 24 42 74 43 25 44 79 45
REMARK SMILES IDX 73 46 75 47 26 48 78 49 72 50 71 51 27 53 59 54 39 55 58 56
REMARK SMILES IDX 40 57 43 58 57 59 76 60 41 61 42 62 56 64 77 65 44 66 28 67
REMARK SMILES IDX 29 68 37 69 30 70 31 71 35 72 38 73 32 74 33 75 36 76 34 77
REMARK SMILES IDX 60 78 61 79 69 80 62 81 63 82 67 83 70 84 64 85 65 86 68 87
REMARK SMILES IDX 66 88 45 89 46 90 54 91 47 92 48 93 52 94 55 95 49 96 50 97
REMARK SMILES IDX 53 98 51 99
REMARK H PARENT 11 6 16 33 75 52 43 63
REMARK Flexibility Score: inf
ROOT
ATOM      1  C   UNL A   1      31.867  30.611  26.806  1.00  0.00     0.023 C 
ENDROOT
BRANCH   1   2
ATOM      2  C   UNL A   1      31.402  29.973  25.504  1.00  0.00     0.116 C 
BRANCH   2   3
ATOM      3  N   UNL A   1      32.181  28.797  25.164  1.00  0.00    -0.355 N 
ATOM      4  C   UNL A   1      32.597  28.580  23.878  1.00  0.00     0.230 C 
ATOM      5  O   UNL A   1      33.759  28.909  23.626  1.00  0.00    -0.274 OA
ATOM      6  H   UNL A   1      32.412  28.146  25.867  1.00  0.00     0.163 HD
BRANCH   4   7
ATOM      7  C   UNL A   1      31.668  27.980  22.816  1.00  0.00     0.136 C 
ATOM      8  C   UNL A   1      31.382  26.479  23.140  1.00  0.00     0.133 C 
ATOM      9  N   UNL A   1      30.335  26.360  24.158  1.00  0.00    -0.327 N 
ATOM     10  C   UNL A   1      30.313  28.674  22.571  1.00  0.00    -0.020 A 
ATOM     11  C   UNL A   1      29.068  26.833  23.805  1.00  0.00     0.254 C 
ATOM     12  C   UNL A   1      30.234  29.883  21.864  1.00  0.00     0.005 A 
ATOM     13  C   UNL A   1      29.098  28.092  23.003  1.00  0.00     0.044 A 
ATOM     14  O   UNL A   1      28.023  26.382  24.234  1.00  0.00    -0.269 OA
ATOM     15  C   UNL A   1      29.011  30.546  21.702  1.00  0.00     0.000 A 
ATOM     16  C   UNL A   1      27.869  28.738  22.798  1.00  0.00     0.014 A 
ATOM     17  C   UNL A   1      27.831  29.977  22.171  1.00  0.00     0.001 A 
BRANCH   8  18
ATOM     18  C   UNL A   1      32.515  25.450  23.112  1.00  0.00    -0.024 A 
ATOM     19  C   UNL A   1      34.599  23.536  22.887  1.00  0.00     0.118 A 
ATOM     20  C   UNL A   1      34.680  24.559  23.821  1.00  0.00     0.047 A 
ATOM     21  C   UNL A   1      33.463  23.420  22.095  1.00  0.00     0.047 A 
ATOM     22  C   UNL A   1      33.655  25.508  23.919  1.00  0.00     0.010 A 
ATOM     23  C   UNL A   1      32.438  24.370  22.203  1.00  0.00     0.010 A 
BRANCH  19  24
ATOM     24  O   UNL A   1      35.654  22.669  22.832  1.00  0.00    -0.497 OA
ATOM     25  C   UNL A   1      36.707  23.028  23.724  1.00  0.00     0.278 C 
ENDBRANCH  19  24
ENDBRANCH   8  18
BRANCH   9  26
ATOM     26  C   UNL A   1      30.520  26.072  25.558  1.00  0.00     0.086 C 
ATOM     27  C   UNL A   1      29.610  25.334  26.502  1.00  0.00     0.027 C 
ATOM     28  C   UNL A   1      30.735  24.590  25.886  1.00  0.00     0.027 C 
ENDBRANCH   9  26
ENDBRANCH   4   7
ENDBRANCH   2   3
ENDBRANCH   1   2
BRANCH   1  29
ATOM     29  C   UNL A   1      31.588  32.112  26.919  1.00  0.00     0.023 C 
BRANCH  29  30
ATOM     30  C   UNL A   1      32.800  32.996  27.212  1.00  0.00     0.116 C 
BRANCH  30  31
ATOM     31  N   UNL A   1      32.453  34.323  27.697  1.00  0.00    -0.352 N 
ATOM     32  C   UNL A   1      33.025  35.073  28.697  1.00  0.00     0.251 C 
ATOM     33  H   UNL A   1      31.693  34.749  27.239  1.00  0.00     0.163 HD
ATOM     34  O   UNL A   1      32.524  36.149  29.010  1.00  0.00    -0.269 OA
BRANCH  32  35
ATOM     35  C   UNL A   1      34.212  34.576  29.430  1.00  0.00     0.039 A 
ATOM     36  C   UNL A   1      34.024  33.994  30.688  1.00  0.00     0.014 A 
ATOM     37  C   UNL A   1      35.499  34.684  28.899  1.00  0.00     0.014 A 
ATOM     38  C   UNL A   1      35.113  33.450  31.375  1.00  0.00     0.010 A 
ATOM     39  C   UNL A   1      36.574  34.085  29.554  1.00  0.00     0.010 A 
ATOM     40  C   UNL A   1      36.391  33.454  30.795  1.00  0.00    -0.014 A 
BRANCH  40  41
ATOM     41  C   UNL A   1      37.544  32.793  31.459  1.00  0.00     0.031 A 
ATOM     42  C   UNL A   1      38.246  31.643  30.792  1.00  0.00     0.074 A 
ATOM     43  C   UNL A   1      37.917  33.185  32.695  1.00  0.00     0.049 A 
ATOM     44  N   UNL A   1      39.198  30.873  31.255  1.00  0.00    -0.248 NA
ATOM     45  C   UNL A   1      37.803  31.298  29.432  1.00  0.00     0.031 C 
ATOM     46  C   UNL A   1      37.295  34.264  33.465  1.00  0.00     0.029 A 
ATOM     47  N   UNL A   1      38.902  32.710  33.526  1.00  0.00    -0.354 N 
ATOM     48  C   UNL A   1      39.462  29.952  30.250  1.00  0.00     0.074 A 
ATOM     49  C   UNL A   1      38.537  30.226  29.172  1.00  0.00     0.031 C 
ATOM     50  C   UNL A   1      37.921  34.377  34.648  1.00  0.00     0.029 A 
ATOM     51  C   UNL A   1      38.961  33.358  34.737  1.00  0.00     0.049 A 
ATOM     52  H   UNL A   1      39.508  31.977  33.277  1.00  0.00     0.167 HD
ATOM     53  C   UNL A   1      40.407  28.982  30.219  1.00  0.00     0.037 A 
ATOM     54  C   UNL A   1      39.756  33.144  35.802  1.00  0.00     0.037 A 
ATOM     55  C   UNL A   1      41.342  28.722  31.281  1.00  0.00     0.049 A 
ATOM     56  C   UNL A   1      40.787  32.048  35.743  1.00  0.00     0.074 A 
ATOM     57  C   UNL A   1      42.350  27.774  31.332  1.00  0.00     0.029 A 
ATOM     58  N   UNL A   1      41.390  29.419  32.479  1.00  0.00    -0.354 N 
ATOM     59  N   UNL A   1      41.053  31.212  34.770  1.00  0.00    -0.248 NA
ATOM     60  C   UNL A   1      41.634  31.871  36.932  1.00  0.00     0.031 C 
ATOM     61  C   UNL A   1      42.991  27.880  32.570  1.00  0.00     0.029 A 
ATOM     62  C   UNL A   1      42.407  28.921  33.276  1.00  0.00     0.049 A 
ATOM     63  H   UNL A   1      40.789  30.160  32.725  1.00  0.00     0.167 HD
ATOM     64  C   UNL A   1      42.116  30.436  35.214  1.00  0.00     0.074 A 
ATOM     65  C   UNL A   1      42.455  30.909  36.538  1.00  0.00     0.031 C 
ATOM     66  C   UNL A   1      42.750  29.420  34.581  1.00  0.00     0.037 A 
BRANCH  53  67
ATOM     67  C   UNL A   1      40.493  28.134  28.984  1.00  0.00     0.064 A 
ATOM     68  C   UNL A   1      39.753  26.948  28.863  1.00  0.00     0.173 A 
ATOM     69  C   UNL A   1      41.270  28.539  27.890  1.00  0.00     0.173 A 
ATOM     70  F   UNL A   1      39.004  26.513  29.888  1.00  0.00    -0.203 F 
ATOM     71  C   UNL A   1      39.801  26.190  27.697  1.00  0.00     0.198 A 
ATOM     72  C   UNL A   1      41.297  27.792  26.715  1.00  0.00     0.198 A 
ATOM     73  F   UNL A   1      41.992  29.668  27.953  1.00  0.00    -0.203 F 
ATOM     74  F   UNL A   1      39.114  25.042  27.617  1.00  0.00    -0.200 F 
ATOM     75  C   UNL A   1      40.566  26.616  26.622  1.00  0.00     0.200 A 
ATOM     76  F   UNL A   1      42.025  28.211  25.671  1.00  0.00    -0.200 F 
ATOM     77  F   UNL A   1      40.601  25.892  25.495  1.00  0.00    -0.200 F 
ENDBRANCH  53  67
BRANCH  54  78
ATOM     78  C   UNL A   1      39.627  33.989  37.018  1.00  0.00     0.064 A 
ATOM     79  C   UNL A   1      38.833  33.577  38.098  1.00  0.00     0.173 A 
ATOM     80  C   UNL A   1      40.257  35.238  37.110  1.00  0.00     0.173 A 
ATOM     81  F   UNL A   1      38.191  32.400  38.047  1.00  0.00    -0.203 F 
ATOM     82  C   UNL A   1      38.646  34.397  39.209  1.00  0.00     0.198 A 
ATOM     83  C   UNL A   1      40.094  36.045  38.235  1.00  0.00     0.198 A 
ATOM     84  F   UNL A   1      41.031  35.677  36.106  1.00  0.00    -0.203 F 
ATOM     85  F   UNL A   1      37.833  34.005  40.199  1.00  0.00    -0.200 F 
ATOM     86  C   UNL A   1      39.279  35.630  39.277  1.00  0.00     0.200 A 
ATOM     87  F   UNL A   1      40.716  37.229  38.303  1.00  0.00    -0.200 F 
ATOM     88  F   UNL A   1      39.094  36.421  40.343  1.00  0.00    -0.200 F 
ENDBRANCH  54  78
BRANCH  66  89
ATOM     89  C   UNL A   1      43.909  28.785  35.291  1.00  0.00     0.064 A 
ATOM     90  C   UNL A   1      45.224  29.235  35.105  1.00  0.00     0.173 A 
ATOM     91  C   UNL A   1      43.694  27.736  36.197  1.00  0.00     0.173 A 
ATOM     92  F   UNL A   1      45.481  30.225  34.237  1.00  0.00    -0.203 F 
ATOM     93  C   UNL A   1      46.285  28.641  35.782  1.00  0.00     0.198 A 
ATOM     94  C   UNL A   1      44.754  27.162  36.893  1.00  0.00     0.198 A 
ATOM     95  F   UNL A   1      42.453  27.273  36.414  1.00  0.00    -0.203 F 
ATOM     96  F   UNL A   1      47.538  29.058  35.555  1.00  0.00    -0.200 F 
ATOM     97  C   UNL A   1      46.048  27.611  36.680  1.00  0.00     0.200 A 
ATOM     98  F   UNL A   1      44.523  26.175  37.769  1.00  0.00    -0.200 F 
ATOM     99  F   UNL A   1      47.071  27.044  37.335  1.00  0.00    -0.200 F 
ENDBRANCH  66  89
ENDBRANCH  40  41
ENDBRANCH  32  35
ENDBRANCH  30  31
ENDBRANCH  29  30
ENDBRANCH   1  29
TORSDOF 14
ENDMDL
MODEL 2
REMARK VINA RESULT:     -13.5      2.652      4.161
REMARK SMILES COc1ccc([C@@H]2[C@H](C(=O)NCCCCNC(=O)c3ccc(-c4c5nc(c(-c6c(F)c(F)c(F)c(F)c6F)c6ccc([nH]6)c(-c6c(F)c(F)c(F)c(F)c6F)c6nc(c(-c7c(F)c(F)c(F)c(F)c7F)c7ccc4[nH]7)C=C6)C=C5)cc3)c3ccccc3C(=O)N2C2CC2)cc1
REMARK SMILES IDX 13 1 12 2 11 3 9 4 10 5 8 7 7 8 90 9 82 10 88 11 83 12 87 13
REMARK SMILES IDX 89 14 84 15 86 16 85 17 6 18 3 19 4 20 95 21 5 22 94 23 2 24
REMARK SMILES IDX 1 25 91 26 92 27 93 28 14 29 15 30 16 31 17 32 18 34 19 35
REMARK SMILES IDX 20 36 81 37 21 38 80 39 22 40 23 41 24 42 74 43 25 44 79 45
REMARK SMILES IDX 73 46 75 47 26 48 78 49 72 50 71 51 27 53 59 54 39 55 58 56
REMARK SMILES IDX 40 57 43 58 57 59 76 60 41 61 42 62 56 64 77 65 44 66 28 67
REMARK SMILES IDX 29 68 37 69 30 70 31 71 35 72 38 73 32 74 33 75 36 76 34 77
REMARK SMILES IDX 60 78 61 79 69 80 62 81 63 82 67 83 70 84 64 85 65 86 68 87
REMARK SMILES IDX 66 88 45 89 46 90 54 91 47 92 48 93 52 94 55 95 49 96 50 97
REMARK SMILES IDX 53 98 51 99
REMARK H PARENT 11 6 16 33 75 52 43 63
REMARK Flexibility Score: inf
ROOT
ATOM      1  C   UNL A   1      33.858  26.330  24.892  1.00  0.00     0.023 C 
ENDROOT
BRANCH   1   2
ATOM      2  C   UNL A   1      33.910  25.725  23.495  1.00  0.00     0.116 C 
BRANCH   2   3
ATOM      3  N   UNL A   1      34.050  24.281  23.531  1.00  0.00    -0.355 N 
ATOM      4  C   UNL A   1      33.181  23.476  22.846  1.00  0.00     0.230 C 
ATOM      5  O   UNL A   1      33.574  23.068  21.751  1.00  0.00    -0.274 OA
ATOM      6  H   UNL A   1      34.778  23.875  24.056  1.00  0.00     0.163 HD
BRANCH   4   7
ATOM      7  C   UNL A   1      31.797  23.117  23.403  1.00  0.00     0.136 C 
ATOM      8  C   UNL A   1      31.925  21.981  24.467  1.00  0.00     0.133 C 
ATOM      9  N   UNL A   1      32.332  22.529  25.763  1.00  0.00    -0.327 N 
ATOM     10  C   UNL A   1      30.957  24.251  24.026  1.00  0.00    -0.020 A 
ATOM     11  C   UNL A   1      31.435  23.407  26.376  1.00  0.00     0.254 C 
ATOM     12  C   UNL A   1      30.315  25.205  23.222  1.00  0.00     0.005 A 
ATOM     13  C   UNL A   1      30.761  24.340  25.424  1.00  0.00     0.044 A 
ATOM     14  O   UNL A   1      31.318  23.540  27.579  1.00  0.00    -0.269 OA
ATOM     15  C   UNL A   1      29.611  26.272  23.792  1.00  0.00     0.000 A 
ATOM     16  C   UNL A   1      30.015  25.386  25.988  1.00  0.00     0.014 A 
ATOM     17  C   UNL A   1      29.463  26.366  25.172  1.00  0.00     0.001 A 
BRANCH   8  18
ATOM     18  C   UNL A   1      32.414  20.589  24.059  1.00  0.00    -0.024 A 
ATOM     19  C   UNL A   1      33.333  18.066  23.139  1.00  0.00     0.118 A 
ATOM     20  C   UNL A   1      33.730  18.551  24.377  1.00  0.00     0.047 A 
ATOM     21  C   UNL A   1      32.437  18.799  22.371  1.00  0.00     0.047 A 
ATOM     22  C   UNL A   1      33.284  19.802  24.821  1.00  0.00     0.010 A 
ATOM     23  C   UNL A   1      31.990  20.048  22.824  1.00  0.00     0.010 A 
BRANCH  19  24
ATOM     24  O   UNL A   1      33.838  16.852  22.765  1.00  0.00    -0.497 OA
ATOM     25  C   UNL A   1      34.308  16.087  23.873  1.00  0.00     0.278 C 
ENDBRANCH  19  24
ENDBRANCH   8  18
BRANCH   9  26
ATOM     26  C   UNL A   1      33.651  22.487  26.342  1.00  0.00     0.086 C 
ATOM     27  C   UNL A   1      34.096  22.909  27.717  1.00  0.00     0.027 C 
ATOM     28  C   UNL A   1      33.822  21.471  27.478  1.00  0.00     0.027 C 
ENDBRANCH   9  26
ENDBRANCH   4   7
ENDBRANCH   2   3
ENDBRANCH   1   2
BRANCH   1  29
ATOM     29  C   UNL A   1      32.945  27.551  25.027  1.00  0.00     0.023 C 
BRANCH  29  30
ATOM     30  C   UNL A   1      33.620  28.912  24.859  1.00  0.00     0.116 C 
BRANCH  30  31
ATOM     31  N   UNL A   1      32.926  29.998  25.534  1.00  0.00    -0.352 N 
ATOM     32  C   UNL A   1      33.288  30.717  26.648  1.00  0.00     0.251 C 
ATOM     33  H   UNL A   1      32.067  30.257  25.131  1.00  0.00     0.163 HD
ATOM     34  O   UNL A   1      32.513  31.548  27.112  1.00  0.00    -0.269 OA
BRANCH  32  35
ATOM     35  C   UNL A   1      34.585  30.469  27.320  1.00  0.00     0.039 A 
ATOM     36  C   UNL A   1      35.401  31.565  27.620  1.00  0.00     0.014 A 
ATOM     37  C   UNL A   1      35.006  29.178  27.647  1.00  0.00     0.014 A 
ATOM     38  C   UNL A   1      36.597  31.375  28.317  1.00  0.00     0.010 A 
ATOM     39  C   UNL A   1      36.165  28.995  28.399  1.00  0.00     0.010 A 
ATOM     40  C   UNL A   1      36.969  30.091  28.749  1.00  0.00    -0.014 A 
BRANCH  40  41
ATOM     41  C   UNL A   1      38.183  29.877  29.579  1.00  0.00     0.031 A 
ATOM     42  C   UNL A   1      39.277  28.965  29.099  1.00  0.00     0.074 A 
ATOM     43  C   UNL A   1      38.270  30.452  30.795  1.00  0.00     0.049 A 
ATOM     44  N   UNL A   1      40.360  28.571  29.722  1.00  0.00    -0.248 NA
ATOM     45  C   UNL A   1      39.125  28.404  27.747  1.00  0.00     0.031 C 
ATOM     46  C   UNL A   1      37.261  31.329  31.392  1.00  0.00     0.029 A 
ATOM     47  N   UNL A   1      39.248  30.373  31.756  1.00  0.00    -0.354 N 
ATOM     48  C   UNL A   1      41.009  27.714  28.845  1.00  0.00     0.074 A 
ATOM     49  C   UNL A   1      40.178  27.604  27.665  1.00  0.00     0.031 C 
ATOM     50  C   UNL A   1      37.678  31.717  32.608  1.00  0.00     0.029 A 
ATOM     51  C   UNL A   1      38.964  31.088  32.894  1.00  0.00     0.049 A 
ATOM     52  H   UNL A   1      40.076  29.854  31.639  1.00  0.00     0.167 HD
ATOM     53  C   UNL A   1      42.204  27.093  28.998  1.00  0.00     0.037 A 
ATOM     54  C   UNL A   1      39.655  31.212  34.043  1.00  0.00     0.037 A 
ATOM     55  C   UNL A   1      43.043  27.217  30.161  1.00  0.00     0.049 A 
ATOM     56  C   UNL A   1      40.972  30.498  34.189  1.00  0.00     0.074 A 
ATOM     57  C   UNL A   1      44.280  26.644  30.399  1.00  0.00     0.029 A 
ATOM     58  N   UNL A   1      42.733  27.975  31.280  1.00  0.00    -0.354 N 
ATOM     59  N   UNL A   1      41.595  29.723  33.335  1.00  0.00    -0.248 NA
ATOM     60  C   UNL A   1      41.688  30.681  35.461  1.00  0.00     0.031 C 
ATOM     61  C   UNL A   1      44.708  27.033  31.672  1.00  0.00     0.029 A 
ATOM     62  C   UNL A   1      43.754  27.881  32.211  1.00  0.00     0.049 A 
ATOM     63  H   UNL A   1      41.909  28.503  31.394  1.00  0.00     0.167 HD
ATOM     64  C   UNL A   1      42.785  29.357  33.949  1.00  0.00     0.074 A 
ATOM     65  C   UNL A   1      42.805  30.004  35.243  1.00  0.00     0.031 C 
ATOM     66  C   UNL A   1      43.771  28.554  33.483  1.00  0.00     0.037 A 
BRANCH  53  67
ATOM     67  C   UNL A   1      42.691  26.233  27.870  1.00  0.00     0.064 A 
ATOM     68  C   UNL A   1      42.279  24.898  27.743  1.00  0.00     0.173 A 
ATOM     69  C   UNL A   1      43.525  26.761  26.873  1.00  0.00     0.173 A 
ATOM     70  F   UNL A   1      41.491  24.343  28.677  1.00  0.00    -0.203 F 
ATOM     71  C   UNL A   1      42.697  24.117  26.668  1.00  0.00     0.198 A 
ATOM     72  C   UNL A   1      43.921  25.985  25.787  1.00  0.00     0.198 A 
ATOM     73  F   UNL A   1      43.943  28.033  26.946  1.00  0.00    -0.203 F 
ATOM     74  F   UNL A   1      42.318  22.834  26.587  1.00  0.00    -0.200 F 
ATOM     75  C   UNL A   1      43.510  24.664  25.688  1.00  0.00     0.200 A 
ATOM     76  F   UNL A   1      44.696  26.518  24.832  1.00  0.00    -0.200 F 
ATOM     77  F   UNL A   1      43.901  23.916  24.647  1.00  0.00    -0.200 F 
ENDBRANCH  53  67
BRANCH  54  78
ATOM     78  C   UNL A   1      39.130  32.055  35.149  1.00  0.00     0.064 A 
ATOM     79  C   UNL A   1      39.384  33.433  35.185  1.00  0.00     0.173 A 
ATOM     80  C   UNL A   1      38.404  31.497  36.211  1.00  0.00     0.173 A 
ATOM     81  F   UNL A   1      40.094  34.008  34.203  1.00  0.00    -0.203 F 
ATOM     82  C   UNL A   1      38.959  34.216  36.256  1.00  0.00     0.198 A 
ATOM     83  C   UNL A   1      37.955  32.286  37.268  1.00  0.00     0.198 A 
ATOM     84  F   UNL A   1      38.132  30.183  36.224  1.00  0.00    -0.203 F 
ATOM     85  F   UNL A   1      39.269  35.520  36.293  1.00  0.00    -0.200 F 
ATOM     86  C   UNL A   1      38.243  33.642  37.296  1.00  0.00     0.200 A 
ATOM     87  F   UNL A   1      37.253  31.731  38.265  1.00  0.00    -0.200 F 
ATOM     88  F   UNL A   1      37.842  34.395  38.330  1.00  0.00    -0.200 F 
ENDBRANCH  54  78
BRANCH  66  89
ATOM     89  C   UNL A   1      44.977  28.369  34.356  1.00  0.00     0.064 A 
ATOM     90  C   UNL A   1      45.065  27.319  35.280  1.00  0.00     0.173 A 
ATOM     91  C   UNL A   1      46.074  29.236  34.237  1.00  0.00     0.173 A 
ATOM     92  F   UNL A   1      44.035  26.474  35.441  1.00  0.00    -0.203 F 
ATOM     93  C   UNL A   1      46.198  27.157  36.073  1.00  0.00     0.198 A 
ATOM     94  C   UNL A   1      47.216  29.055  35.012  1.00  0.00     0.198 A 
ATOM     95  F   UNL A   1      46.041  30.254  33.363  1.00  0.00    -0.203 F 
ATOM     96  F   UNL A   1      46.242  26.173  36.981  1.00  0.00    -0.200 F 
ATOM     97  C   UNL A   1      47.275  28.021  35.933  1.00  0.00     0.200 A 
ATOM     98  F   UNL A   1      48.260  29.883  34.868  1.00  0.00    -0.200 F 
ATOM     99  F   UNL A   1      48.367  27.860  36.693  1.00  0.00    -0.200 F 
ENDBRANCH  66  89
ENDBRANCH  40  41
ENDBRANCH  32  35
ENDBRANCH  30  31
ENDBRANCH  29  30
ENDBRANCH   1  29
TORSDOF 14
ENDMDL
MODEL 3
REMARK VINA RESULT:     -13.5      0.191      1.554
REMARK SMILES COc1ccc([C@@H]2[C@H](C(=O)NCCCCNC(=O)c3ccc(-c4c5nc(c(-c6c(F)c(F)c(F)c(F)c6F)c6ccc([nH]6)c(-c6c(F)c(F)c(F)c(F)c6F)c6nc(c(-c7c(F)c(F)c(F)c(F)c7F)c7ccc4[nH]7)C=C6)C=C5)cc3)c3ccccc3C(=O)N2C2CC2)cc1
REMARK SMILES IDX 13 1 12 2 11 3 9 4 10 5 8 7 7 8 90 9 82 10 88 11 83 12 87 13
REMARK SMILES IDX 89 14 84 15 86 16 85 17 6 18 3 19 4 20 95 21 5 22 94 23 2 24
REMARK SMILES IDX 1 25 91 26 92 27 93 28 14 29 15 30 16 31 17 32 18 34 19 35
REMARK SMILES IDX 20 36 81 37 21 38 80 39 22 40 23 41 24 42 74 43 25 44 79 45
REMARK SMILES IDX 73 46 75 47 26 48 78 49 72 50 71 51 27 53 59 54 39 55 58 56
REMARK SMILES IDX 40 57 43 58 57 59 76 60 41 61 42 62 56 64 77 65 44 66 28 67
REMARK SMILES IDX 29 68 37 69 30 70 31 71 35 72 38 73 32 74 33 75 36 76 34 77
REMARK SMILES IDX 60 78 61 79 69 80 62 81 63 82 67 83 70 84 64 85 65 86 68 87
REMARK SMILES IDX 66 88 45 89 46 90 54 91 47 92 48 93 52 94 55 95 49 96 50 97
REMARK SMILES IDX 53 98 51 99
REMARK H PARENT 11 6 16 33 75 52 43 63
REMARK Flexibility Score: inf
ROOT
ATOM      1  C   UNL A   1      31.752  30.676  26.787  1.00  0.00     0.023 C 
ENDROOT
BRANCH   1   2
ATOM      2  C   UNL A   1      31.424  30.062  25.432  1.00  0.00     0.116 C 
BRANCH   2   3
ATOM      3  N   UNL A   1      32.153  28.829  25.200  1.00  0.00    -0.355 N 
ATOM      4  C   UNL A   1      32.616  28.515  23.952  1.00  0.00     0.230 C 
ATOM      5  O   UNL A   1      33.805  28.768  23.740  1.00  0.00    -0.274 OA
ATOM      6  H   UNL A   1      32.315  28.211  25.950  1.00  0.00     0.163 HD
BRANCH   4   7
ATOM      7  C   UNL A   1      31.708  27.900  22.880  1.00  0.00     0.136 C 
ATOM      8  C   UNL A   1      31.413  26.404  23.220  1.00  0.00     0.133 C 
ATOM      9  N   UNL A   1      30.346  26.301  24.219  1.00  0.00    -0.327 N 
ATOM     10  C   UNL A   1      30.359  28.592  22.598  1.00  0.00    -0.020 A 
ATOM     11  C   UNL A   1      29.087  26.771  23.835  1.00  0.00     0.254 C 
ATOM     12  C   UNL A   1      30.295  29.791  21.873  1.00  0.00     0.005 A 
ATOM     13  C   UNL A   1      29.134  28.018  23.015  1.00  0.00     0.044 A 
ATOM     14  O   UNL A   1      28.033  26.328  24.251  1.00  0.00    -0.269 OA
ATOM     15  C   UNL A   1      29.077  30.453  21.677  1.00  0.00     0.000 A 
ATOM     16  C   UNL A   1      27.911  28.663  22.777  1.00  0.00     0.014 A 
ATOM     17  C   UNL A   1      27.887  29.893  22.132  1.00  0.00     0.001 A 
BRANCH   8  18
ATOM     18  C   UNL A   1      32.544  25.374  23.229  1.00  0.00    -0.024 A 
ATOM     19  C   UNL A   1      34.624  23.448  23.074  1.00  0.00     0.118 A 
ATOM     20  C   UNL A   1      34.717  24.516  23.956  1.00  0.00     0.047 A 
ATOM     21  C   UNL A   1      33.479  23.296  22.302  1.00  0.00     0.047 A 
ATOM     22  C   UNL A   1      33.694  25.470  24.020  1.00  0.00     0.010 A 
ATOM     23  C   UNL A   1      32.456  24.252  22.375  1.00  0.00     0.010 A 
BRANCH  19  24
ATOM     24  O   UNL A   1      35.678  22.578  23.049  1.00  0.00    -0.497 OA
ATOM     25  C   UNL A   1      36.584  22.782  24.132  1.00  0.00     0.278 C 
ENDBRANCH  19  24
ENDBRANCH   8  18
BRANCH   9  26
ATOM     26  C   UNL A   1      30.504  26.034  25.626  1.00  0.00     0.086 C 
ATOM     27  C   UNL A   1      29.620  25.232  26.543  1.00  0.00     0.027 C 
ATOM     28  C   UNL A   1      30.819  24.574  25.972  1.00  0.00     0.027 C 
ENDBRANCH   9  26
ENDBRANCH   4   7
ENDBRANCH   2   3
ENDBRANCH   1   2
BRANCH   1  29
ATOM     29  C   UNL A   1      31.527  32.187  26.878  1.00  0.00     0.023 C 
BRANCH  29  30
ATOM     30  C   UNL A   1      32.752  33.023  27.245  1.00  0.00     0.116 C 
BRANCH  30  31
ATOM     31  N   UNL A   1      32.427  34.350  27.747  1.00  0.00    -0.352 N 
ATOM     32  C   UNL A   1      33.013  35.080  28.752  1.00  0.00     0.251 C 
ATOM     33  H   UNL A   1      31.672  34.792  27.295  1.00  0.00     0.163 HD
ATOM     34  O   UNL A   1      32.530  36.160  29.079  1.00  0.00    -0.269 OA
BRANCH  32  35
ATOM     35  C   UNL A   1      34.195  34.558  29.475  1.00  0.00     0.039 A 
ATOM     36  C   UNL A   1      34.008  33.995  30.742  1.00  0.00     0.014 A 
ATOM     37  C   UNL A   1      35.478  34.624  28.926  1.00  0.00     0.014 A 
ATOM     38  C   UNL A   1      35.090  33.428  31.421  1.00  0.00     0.010 A 
ATOM     39  C   UNL A   1      36.544  34.001  29.573  1.00  0.00     0.010 A 
ATOM     40  C   UNL A   1      36.361  33.390  30.823  1.00  0.00    -0.014 A 
BRANCH  40  41
ATOM     41  C   UNL A   1      37.503  32.703  31.481  1.00  0.00     0.031 A 
ATOM     42  C   UNL A   1      38.188  31.551  30.800  1.00  0.00     0.074 A 
ATOM     43  C   UNL A   1      37.882  33.075  32.720  1.00  0.00     0.049 A 
ATOM     44  N   UNL A   1      39.128  30.761  31.254  1.00  0.00    -0.248 NA
ATOM     45  C   UNL A   1      37.740  31.229  29.436  1.00  0.00     0.031 C 
ATOM     46  C   UNL A   1      37.276  34.153  33.503  1.00  0.00     0.029 A 
ATOM     47  N   UNL A   1      38.859  32.575  33.546  1.00  0.00    -0.354 N 
ATOM     48  C   UNL A   1      39.378  29.849  30.238  1.00  0.00     0.074 A 
ATOM     49  C   UNL A   1      38.458  30.149  29.163  1.00  0.00     0.031 C 
ATOM     50  C   UNL A   1      37.902  34.243  34.688  1.00  0.00     0.029 A 
ATOM     51  C   UNL A   1      38.928  33.207  34.765  1.00  0.00     0.049 A 
ATOM     52  H   UNL A   1      39.454  31.836  33.289  1.00  0.00     0.167 HD
ATOM     53  C   UNL A   1      40.309  28.864  30.195  1.00  0.00     0.037 A 
ATOM     54  C   UNL A   1      39.719  32.968  35.828  1.00  0.00     0.037 A 
ATOM     55  C   UNL A   1      41.240  28.578  31.254  1.00  0.00     0.049 A 
ATOM     56  C   UNL A   1      40.733  31.858  35.756  1.00  0.00     0.074 A 
ATOM     57  C   UNL A   1      42.233  27.615  31.294  1.00  0.00     0.029 A 
ATOM     58  N   UNL A   1      41.297  29.260  32.460  1.00  0.00    -0.354 N 
ATOM     59  N   UNL A   1      40.987  31.030  34.772  1.00  0.00    -0.248 NA
ATOM     60  C   UNL A   1      41.577  31.654  36.942  1.00  0.00     0.031 C 
ATOM     61  C   UNL A   1      42.875  27.696  32.534  1.00  0.00     0.029 A 
ATOM     62  C   UNL A   1      42.307  28.737  33.251  1.00  0.00     0.049 A 
ATOM     63  H   UNL A   1      40.708  30.007  32.715  1.00  0.00     0.167 HD
ATOM     64  C   UNL A   1      42.038  30.233  35.207  1.00  0.00     0.074 A 
ATOM     65  C   UNL A   1      42.384  30.685  36.537  1.00  0.00     0.031 C 
ATOM     66  C   UNL A   1      42.657  29.216  34.562  1.00  0.00     0.037 A 
BRANCH  53  67
ATOM     67  C   UNL A   1      40.383  28.031  28.950  1.00  0.00     0.064 A 
ATOM     68  C   UNL A   1      41.187  28.413  27.866  1.00  0.00     0.173 A 
ATOM     69  C   UNL A   1      39.696  26.811  28.862  1.00  0.00     0.173 A 
ATOM     70  F   UNL A   1      41.853  29.578  27.899  1.00  0.00    -0.203 F 
ATOM     71  C   UNL A   1      41.288  27.614  26.731  1.00  0.00     0.198 A 
ATOM     72  C   UNL A   1      39.820  26.001  27.736  1.00  0.00     0.198 A 
ATOM     73  F   UNL A   1      38.918  26.397  29.873  1.00  0.00    -0.203 F 
ATOM     74  F   UNL A   1      42.035  28.017  25.694  1.00  0.00    -0.200 F 
ATOM     75  C   UNL A   1      40.612  26.405  26.671  1.00  0.00     0.200 A 
ATOM     76  F   UNL A   1      39.176  24.827  27.683  1.00  0.00    -0.200 F 
ATOM     77  F   UNL A   1      40.720  25.630  25.583  1.00  0.00    -0.200 F 
ENDBRANCH  53  67
BRANCH  54  78
ATOM     78  C   UNL A   1      39.602  33.801  37.054  1.00  0.00     0.064 A 
ATOM     79  C   UNL A   1      38.783  33.400  38.119  1.00  0.00     0.173 A 
ATOM     80  C   UNL A   1      40.269  35.028  37.170  1.00  0.00     0.173 A 
ATOM     81  F   UNL A   1      38.106  32.244  38.044  1.00  0.00    -0.203 F 
ATOM     82  C   UNL A   1      38.610  34.210  39.239  1.00  0.00     0.198 A 
ATOM     83  C   UNL A   1      40.118  35.825  38.303  1.00  0.00     0.198 A 
ATOM     84  F   UNL A   1      41.067  35.457  36.180  1.00  0.00    -0.203 F 
ATOM     85  F   UNL A   1      37.773  33.830  40.215  1.00  0.00    -0.200 F 
ATOM     86  C   UNL A   1      39.279  35.421  39.331  1.00  0.00     0.200 A 
ATOM     87  F   UNL A   1      40.775  36.989  38.394  1.00  0.00    -0.200 F 
ATOM     88  F   UNL A   1      39.106  36.204  40.405  1.00  0.00    -0.200 F 
ENDBRANCH  54  78
BRANCH  66  89
ATOM     89  C   UNL A   1      43.806  28.555  35.265  1.00  0.00     0.064 A 
ATOM     90  C   UNL A   1      43.614  27.471  36.133  1.00  0.00     0.173 A 
ATOM     91  C   UNL A   1      45.120  28.991  35.036  1.00  0.00     0.173 A 
ATOM     92  F   UNL A   1      42.375  27.029  36.396  1.00  0.00    -0.203 F 
ATOM     93  C   UNL A   1      44.694  26.863  36.767  1.00  0.00     0.198 A 
ATOM     94  C   UNL A   1      46.199  28.363  35.650  1.00  0.00     0.198 A 
ATOM     95  F   UNL A   1      45.356  30.020  34.208  1.00  0.00    -0.203 F 
ATOM     96  F   UNL A   1      44.483  25.858  37.628  1.00  0.00    -0.200 F 
ATOM     97  C   UNL A   1      45.985  27.305  36.519  1.00  0.00     0.200 A 
ATOM     98  F   UNL A   1      47.447  28.783  35.400  1.00  0.00    -0.200 F 
ATOM     99  F   UNL A   1      47.025  26.714  37.126  1.00  0.00    -0.200 F 
ENDBRANCH  66  89
ENDBRANCH  40  41
ENDBRANCH  32  35
ENDBRANCH  30  31
ENDBRANCH  29  30
ENDBRANCH   1  29
TORSDOF 14
ENDMDL
