MODEL 1
REMARK VINA RESULT:     -12.8      0.000      0.000
REMARK SMILES Cc1nn(C)cc1C[NH+]1CCN(C(=O)c2cnn(CC(=O)NCCCCNC(=O)c3ccc(-c4c5nc(c(-c6c(F)c(F)c(F)c(F)c6F)c6ccc([nH]6)c(-c6c(F)c(F)c(F)c(F)c6F)c6nc(c(-c7c(F)c(F)c(F)c(F)c7F)c7ccc4[nH]7)C=C6)C=C5)cc3)c2)CC1
REMARK SMILES IDX 23 1 22 2 20 3 21 4 19 6 18 7 15 8 16 9 93 10 17 11 13 12
REMARK SMILES IDX 9 13 10 14 95 15 11 17 94 18 12 19 14 20 8 21 7 22 1 23 2 24
REMARK SMILES IDX 3 25 4 26 6 27 5 28 24 29 25 30 26 31 27 32 28 33 29 35
REMARK SMILES IDX 30 36 31 37 92 38 32 39 91 40 33 41 34 42 35 43 85 44 36 45
REMARK SMILES IDX 90 46 84 47 86 48 37 49 89 50 83 51 82 52 38 54 70 55 50 56
REMARK SMILES IDX 69 57 51 58 54 59 68 60 87 61 52 62 53 63 67 65 88 66 55 67
REMARK SMILES IDX 39 68 40 69 48 70 41 71 42 72 46 73 49 74 43 75 44 76 47 77
REMARK SMILES IDX 45 78 71 79 72 80 80 81 73 82 74 83 78 84 81 85 75 86 76 87
REMARK SMILES IDX 79 88 77 89 56 90 57 91 65 92 58 93 59 94 63 95 66 96 60 97
REMARK SMILES IDX 61 98 64 99 62 100
REMARK H PARENT 22 5 9 16 27 34 86 53 54 64
REMARK Flexibility Score: inf
ROOT
ATOM      1  C   UNL A   1      40.334  21.224  27.160  1.00  0.00     0.116 C 
ENDROOT
BRANCH   1   2
ATOM      2  N   UNL A   1      39.534  22.416  26.975  1.00  0.00    -0.354 N 
ATOM      3  C   UNL A   1      38.517  22.664  26.094  1.00  0.00     0.241 C 
ATOM      4  O   UNL A   1      38.015  23.791  26.131  1.00  0.00    -0.273 OA
ATOM      5  H   UNL A   1      39.758  23.164  27.574  1.00  0.00     0.163 HD
BRANCH   3   6
ATOM      6  C   UNL A   1      37.922  21.575  25.224  1.00  0.00     0.243 C 
BRANCH   6   7
ATOM      7  N   UNL A   1      36.520  21.764  24.902  1.00  0.00    -0.262 N 
ATOM      8  C   UNL A   1      34.647  22.456  23.966  1.00  0.00     0.078 A 
ATOM      9  C   UNL A   1      34.425  21.655  25.107  1.00  0.00     0.149 A 
ATOM     10  C   UNL A   1      36.018  22.402  23.803  1.00  0.00     0.123 A 
ATOM     11  N   UNL A   1      35.558  21.264  25.698  1.00  0.00    -0.180 NA
BRANCH   8  12
ATOM     12  C   UNL A   1      33.724  23.140  23.074  1.00  0.00     0.257 C 
ATOM     13  N   UNL A   1      30.432  25.556  24.621  1.00  0.00    -0.328 N 
ATOM     14  C   UNL A   1      30.466  25.089  23.231  1.00  0.00     0.284 C 
ATOM     15  C   UNL A   1      31.109  24.610  25.504  1.00  0.00     0.284 C 
ATOM     16  H   UNL A   1      29.448  25.547  24.892  1.00  0.00     0.348 HD
ATOM     17  C   UNL A   1      31.840  24.632  22.705  1.00  0.00     0.181 C 
ATOM     18  C   UNL A   1      32.490  24.109  25.053  1.00  0.00     0.181 C 
ATOM     19  N   UNL A   1      32.607  23.789  23.628  1.00  0.00    -0.327 N 
ATOM     20  O   UNL A   1      33.981  23.207  21.873  1.00  0.00    -0.269 OA
BRANCH  13  21
ATOM     21  C   UNL A   1      30.686  26.981  24.858  1.00  0.00     0.302 C 
BRANCH  21  22
ATOM     22  C   UNL A   1      30.289  27.876  23.735  1.00  0.00     0.047 A 
ATOM     23  C   UNL A   1      32.608  28.694  22.793  1.00  0.00     0.069 C 
ATOM     24  C   UNL A   1      31.128  28.641  22.870  1.00  0.00     0.068 A 
ATOM     25  N   UNL A   1      30.415  29.440  22.068  1.00  0.00    -0.178 NA
ATOM     26  N   UNL A   1      29.144  29.180  22.392  1.00  0.00    -0.275 N 
ATOM     27  C   UNL A   1      29.018  28.142  23.265  1.00  0.00     0.118 A 
ATOM     28  C   UNL A   1      28.106  30.075  21.946  1.00  0.00     0.173 C 
ENDBRANCH  21  22
ENDBRANCH  13  21
ENDBRANCH   8  12
ENDBRANCH   6   7
ENDBRANCH   3   6
ENDBRANCH   1   2
BRANCH   1  29
ATOM     29  C   UNL A   1      41.538  21.182  26.214  1.00  0.00     0.023 C 
BRANCH  29  30
ATOM     30  C   UNL A   1      42.039  19.799  25.775  1.00  0.00     0.023 C 
BRANCH  30  31
ATOM     31  C   UNL A   1      43.448  19.426  26.222  1.00  0.00     0.116 C 
BRANCH  31  32
ATOM     32  N   UNL A   1      44.425  19.310  25.131  1.00  0.00    -0.352 N 
ATOM     33  C   UNL A   1      44.928  20.319  24.311  1.00  0.00     0.251 C 
ATOM     34  H   UNL A   1      44.769  18.404  24.957  1.00  0.00     0.163 HD
ATOM     35  O   UNL A   1      45.432  20.072  23.234  1.00  0.00    -0.269 OA
BRANCH  33  36
ATOM     36  C   UNL A   1      44.847  21.707  24.800  1.00  0.00     0.039 A 
ATOM     37  C   UNL A   1      44.037  22.688  24.220  1.00  0.00     0.014 A 
ATOM     38  C   UNL A   1      45.558  21.967  25.957  1.00  0.00     0.014 A 
ATOM     39  C   UNL A   1      43.896  23.907  24.885  1.00  0.00     0.010 A 
ATOM     40  C   UNL A   1      45.178  23.012  26.737  1.00  0.00     0.010 A 
ATOM     41  C   UNL A   1      44.464  24.047  26.159  1.00  0.00    -0.014 A 
BRANCH  41  42
ATOM     42  C   UNL A   1      44.309  25.235  26.983  1.00  0.00     0.031 A 
ATOM     43  C   UNL A   1      45.263  26.332  26.687  1.00  0.00     0.074 A 
ATOM     44  C   UNL A   1      43.198  25.425  27.735  1.00  0.00     0.049 A 
ATOM     45  N   UNL A   1      46.179  26.810  27.459  1.00  0.00    -0.248 NA
ATOM     46  C   UNL A   1      45.288  26.885  25.322  1.00  0.00     0.031 C 
ATOM     47  C   UNL A   1      41.999  24.579  27.849  1.00  0.00     0.029 A 
ATOM     48  N   UNL A   1      42.857  26.504  28.481  1.00  0.00    -0.354 N 
ATOM     49  C   UNL A   1      46.769  27.857  26.756  1.00  0.00     0.074 A 
ATOM     50  C   UNL A   1      46.318  27.731  25.395  1.00  0.00     0.031 C 
ATOM     51  C   UNL A   1      40.991  25.286  28.406  1.00  0.00     0.029 A 
ATOM     52  C   UNL A   1      41.519  26.557  28.858  1.00  0.00     0.049 A 
ATOM     53  H   UNL A   1      43.507  27.199  28.737  1.00  0.00     0.167 HD
ATOM     54  C   UNL A   1      47.380  28.884  27.411  1.00  0.00     0.037 A 
ATOM     55  C   UNL A   1      40.903  27.600  29.467  1.00  0.00     0.037 A 
ATOM     56  C   UNL A   1      47.639  28.536  28.788  1.00  0.00     0.049 A 
ATOM     57  C   UNL A   1      41.978  28.440  30.063  1.00  0.00     0.074 A 
ATOM     58  C   UNL A   1      48.355  27.532  29.412  1.00  0.00     0.029 A 
ATOM     59  N   UNL A   1      46.790  29.028  29.751  1.00  0.00    -0.354 N 
ATOM     60  N   UNL A   1      42.736  28.046  31.050  1.00  0.00    -0.248 NA
ATOM     61  C   UNL A   1      42.527  29.501  29.233  1.00  0.00     0.031 C 
ATOM     62  C   UNL A   1      47.541  27.132  30.513  1.00  0.00     0.029 A 
ATOM     63  C   UNL A   1      46.425  27.969  30.544  1.00  0.00     0.049 A 
ATOM     64  H   UNL A   1      46.499  29.964  29.852  1.00  0.00     0.167 HD
ATOM     65  C   UNL A   1      44.006  28.497  30.722  1.00  0.00     0.074 A 
ATOM     66  C   UNL A   1      43.804  29.441  29.622  1.00  0.00     0.031 C 
ATOM     67  C   UNL A   1      45.124  27.844  31.156  1.00  0.00     0.037 A 
BRANCH  54  68
ATOM     68  C   UNL A   1      47.404  30.315  26.933  1.00  0.00     0.064 A 
ATOM     69  C   UNL A   1      48.613  31.038  27.007  1.00  0.00     0.173 A 
ATOM     70  C   UNL A   1      46.248  31.090  26.696  1.00  0.00     0.173 A 
ATOM     71  F   UNL A   1      49.774  30.406  27.239  1.00  0.00    -0.203 F 
ATOM     72  C   UNL A   1      48.646  32.433  26.942  1.00  0.00     0.198 A 
ATOM     73  C   UNL A   1      46.293  32.478  26.576  1.00  0.00     0.198 A 
ATOM     74  F   UNL A   1      45.021  30.562  26.686  1.00  0.00    -0.203 F 
ATOM     75  F   UNL A   1      49.799  33.081  27.154  1.00  0.00    -0.200 F 
ATOM     76  C   UNL A   1      47.484  33.152  26.735  1.00  0.00     0.200 A 
ATOM     77  F   UNL A   1      45.153  33.159  26.390  1.00  0.00    -0.200 F 
ATOM     78  F   UNL A   1      47.501  34.492  26.740  1.00  0.00    -0.200 F 
ENDBRANCH  54  68
BRANCH  55  79
ATOM     79  C   UNL A   1      39.516  28.091  29.290  1.00  0.00     0.064 A 
ATOM     80  C   UNL A   1      38.659  28.241  30.393  1.00  0.00     0.173 A 
ATOM     81  C   UNL A   1      39.101  28.702  28.090  1.00  0.00     0.173 A 
ATOM     82  F   UNL A   1      38.997  27.721  31.582  1.00  0.00    -0.203 F 
ATOM     83  C   UNL A   1      37.479  28.989  30.312  1.00  0.00     0.198 A 
ATOM     84  C   UNL A   1      37.920  29.445  28.009  1.00  0.00     0.198 A 
ATOM     85  F   UNL A   1      39.878  28.672  26.998  1.00  0.00    -0.203 F 
ATOM     86  F   UNL A   1      36.723  29.165  31.405  1.00  0.00    -0.200 F 
ATOM     87  C   UNL A   1      37.119  29.602  29.124  1.00  0.00     0.200 A 
ATOM     88  F   UNL A   1      37.600  30.061  26.863  1.00  0.00    -0.200 F 
ATOM     89  F   UNL A   1      36.026  30.377  29.064  1.00  0.00    -0.200 F 
ENDBRANCH  55  79
BRANCH  67  90
ATOM     90  C   UNL A   1      44.958  26.753  32.179  1.00  0.00     0.064 A 
ATOM     91  C   UNL A   1      44.818  26.979  33.560  1.00  0.00     0.173 A 
ATOM     92  C   UNL A   1      44.772  25.442  31.724  1.00  0.00     0.173 A 
ATOM     93  F   UNL A   1      44.879  28.215  34.066  1.00  0.00    -0.203 F 
ATOM     94  C   UNL A   1      44.546  25.936  34.444  1.00  0.00     0.198 A 
ATOM     95  C   UNL A   1      44.466  24.407  32.604  1.00  0.00     0.198 A 
ATOM     96  F   UNL A   1      44.837  25.172  30.411  1.00  0.00    -0.203 F 
ATOM     97  F   UNL A   1      44.426  26.181  35.757  1.00  0.00    -0.200 F 
ATOM     98  C   UNL A   1      44.363  24.651  33.964  1.00  0.00     0.200 A 
ATOM     99  F   UNL A   1      44.240  23.174  32.128  1.00  0.00    -0.200 F 
ATOM    100  F   UNL A   1      44.060  23.654  34.807  1.00  0.00    -0.200 F 
ENDBRANCH  67  90
ENDBRANCH  41  42
ENDBRANCH  33  36
ENDBRANCH  31  32
ENDBRANCH  30  31
ENDBRANCH  29  30
ENDBRANCH   1  29
TORSDOF 15
ENDMDL
MODEL 2
REMARK VINA RESULT:     -12.7      4.313     10.149
REMARK SMILES Cc1nn(C)cc1C[NH+]1CCN(C(=O)c2cnn(CC(=O)NCCCCNC(=O)c3ccc(-c4c5nc(c(-c6c(F)c(F)c(F)c(F)c6F)c6ccc([nH]6)c(-c6c(F)c(F)c(F)c(F)c6F)c6nc(c(-c7c(F)c(F)c(F)c(F)c7F)c7ccc4[nH]7)C=C6)C=C5)cc3)c2)CC1
REMARK SMILES IDX 23 1 22 2 20 3 21 4 19 6 18 7 15 8 16 9 93 10 17 11 13 12
REMARK SMILES IDX 9 13 10 14 95 15 11 17 94 18 12 19 14 20 8 21 7 22 1 23 2 24
REMARK SMILES IDX 3 25 4 26 6 27 5 28 24 29 25 30 26 31 27 32 28 33 29 35
REMARK SMILES IDX 30 36 31 37 92 38 32 39 91 40 33 41 34 42 35 43 85 44 36 45
REMARK SMILES IDX 90 46 84 47 86 48 37 49 89 50 83 51 82 52 38 54 70 55 50 56
REMARK SMILES IDX 69 57 51 58 54 59 68 60 87 61 52 62 53 63 67 65 88 66 55 67
REMARK SMILES IDX 39 68 40 69 48 70 41 71 42 72 46 73 49 74 43 75 44 76 47 77
REMARK SMILES IDX 45 78 71 79 72 80 80 81 73 82 74 83 78 84 81 85 75 86 76 87
REMARK SMILES IDX 79 88 77 89 56 90 57 91 65 92 58 93 59 94 63 95 66 96 60 97
REMARK SMILES IDX 61 98 64 99 62 100
REMARK H PARENT 22 5 9 16 27 34 86 53 54 64
REMARK Flexibility Score: inf
ROOT
ATOM      1  C   UNL A   1      34.068  32.506  27.990  1.00  0.00     0.116 C 
ENDROOT
BRANCH   1   2
ATOM      2  N   UNL A   1      34.736  31.312  27.519  1.00  0.00    -0.354 N 
ATOM      3  C   UNL A   1      34.227  30.073  27.239  1.00  0.00     0.241 C 
ATOM      4  O   UNL A   1      35.033  29.213  26.871  1.00  0.00    -0.273 OA
ATOM      5  H   UNL A   1      35.706  31.405  27.380  1.00  0.00     0.163 HD
BRANCH   3   6
ATOM      6  C   UNL A   1      32.736  29.799  27.224  1.00  0.00     0.243 C 
BRANCH   6   7
ATOM      7  N   UNL A   1      32.256  29.164  26.012  1.00  0.00    -0.262 N 
ATOM      8  C   UNL A   1      31.359  27.729  24.597  1.00  0.00     0.078 A 
ATOM      9  C   UNL A   1      31.970  28.825  23.951  1.00  0.00     0.149 A 
ATOM     10  C   UNL A   1      31.465  28.051  25.937  1.00  0.00     0.123 A 
ATOM     11  N   UNL A   1      32.546  29.678  24.804  1.00  0.00    -0.180 NA
BRANCH   8  12
ATOM     12  C   UNL A   1      30.687  26.552  24.070  1.00  0.00     0.257 C 
ATOM     13  N   UNL A   1      32.700  22.683  23.863  1.00  0.00    -0.328 N 
ATOM     14  C   UNL A   1      31.482  22.966  23.097  1.00  0.00     0.284 C 
ATOM     15  C   UNL A   1      33.489  23.897  24.053  1.00  0.00     0.284 C 
ATOM     16  H   UNL A   1      33.260  22.067  23.274  1.00  0.00     0.348 HD
ATOM     17  C   UNL A   1      30.649  24.173  23.572  1.00  0.00     0.181 C 
ATOM     18  C   UNL A   1      32.733  25.146  24.532  1.00  0.00     0.181 C 
ATOM     19  N   UNL A   1      31.429  25.371  23.903  1.00  0.00    -0.327 N 
ATOM     20  O   UNL A   1      29.476  26.590  23.860  1.00  0.00    -0.269 OA
BRANCH  13  21
ATOM     21  C   UNL A   1      32.575  21.787  25.018  1.00  0.00     0.302 C 
BRANCH  21  22
ATOM     22  C   UNL A   1      33.178  20.440  24.825  1.00  0.00     0.047 A 
ATOM     23  C   UNL A   1      35.737  20.876  25.268  1.00  0.00     0.069 C 
ATOM     24  C   UNL A   1      34.553  20.063  24.900  1.00  0.00     0.068 A 
ATOM     25  N   UNL A   1      34.739  18.791  24.528  1.00  0.00    -0.178 NA
ATOM     26  N   UNL A   1      33.510  18.350  24.241  1.00  0.00    -0.275 N 
ATOM     27  C   UNL A   1      32.535  19.248  24.556  1.00  0.00     0.118 A 
ATOM     28  C   UNL A   1      33.356  17.114  23.515  1.00  0.00     0.173 C 
ENDBRANCH  21  22
ENDBRANCH  13  21
ENDBRANCH   8  12
ENDBRANCH   6   7
ENDBRANCH   3   6
ENDBRANCH   1   2
BRANCH   1  29
ATOM     29  C   UNL A   1      35.050  33.652  28.253  1.00  0.00     0.023 C 
BRANCH  29  30
ATOM     30  C   UNL A   1      34.502  34.898  28.964  1.00  0.00     0.023 C 
BRANCH  30  31
ATOM     31  C   UNL A   1      33.154  34.734  29.656  1.00  0.00     0.116 C 
BRANCH  31  32
ATOM     32  N   UNL A   1      33.009  35.500  30.901  1.00  0.00    -0.352 N 
ATOM     33  C   UNL A   1      33.511  35.195  32.166  1.00  0.00     0.251 C 
ATOM     34  H   UNL A   1      32.492  36.335  30.835  1.00  0.00     0.163 HD
ATOM     35  O   UNL A   1      33.039  35.684  33.173  1.00  0.00    -0.269 OA
BRANCH  33  36
ATOM     36  C   UNL A   1      34.655  34.270  32.247  1.00  0.00     0.039 A 
ATOM     37  C   UNL A   1      34.547  32.887  32.072  1.00  0.00     0.014 A 
ATOM     38  C   UNL A   1      35.890  34.871  32.409  1.00  0.00     0.014 A 
ATOM     39  C   UNL A   1      35.722  32.139  31.978  1.00  0.00     0.010 A 
ATOM     40  C   UNL A   1      37.002  34.198  32.014  1.00  0.00     0.010 A 
ATOM     41  C   UNL A   1      36.948  32.816  31.934  1.00  0.00    -0.014 A 
BRANCH  41  42
ATOM     42  C   UNL A   1      38.229  32.153  31.749  1.00  0.00     0.031 A 
ATOM     43  C   UNL A   1      38.961  31.843  33.003  1.00  0.00     0.074 A 
ATOM     44  C   UNL A   1      38.565  31.601  30.559  1.00  0.00     0.049 A 
ATOM     45  N   UNL A   1      40.094  32.320  33.392  1.00  0.00    -0.248 NA
ATOM     46  C   UNL A   1      38.296  30.993  34.005  1.00  0.00     0.031 C 
ATOM     47  C   UNL A   1      37.779  31.519  29.318  1.00  0.00     0.029 A 
ATOM     48  N   UNL A   1      39.667  30.875  30.245  1.00  0.00    -0.354 N 
ATOM     49  C   UNL A   1      40.387  31.686  34.596  1.00  0.00     0.074 A 
ATOM     50  C   UNL A   1      39.171  31.036  35.013  1.00  0.00     0.031 C 
ATOM     51  C   UNL A   1      38.315  30.592  28.495  1.00  0.00     0.029 A 
ATOM     52  C   UNL A   1      39.576  30.156  29.059  1.00  0.00     0.049 A 
ATOM     53  H   UNL A   1      40.471  30.858  30.814  1.00  0.00     0.167 HD
ATOM     54  C   UNL A   1      41.674  31.544  35.019  1.00  0.00     0.037 A 
ATOM     55  C   UNL A   1      40.472  29.242  28.609  1.00  0.00     0.037 A 
ATOM     56  C   UNL A   1      42.556  32.422  34.288  1.00  0.00     0.049 A 
ATOM     57  C   UNL A   1      41.742  29.495  29.344  1.00  0.00     0.074 A 
ATOM     58  C   UNL A   1      42.622  33.791  34.107  1.00  0.00     0.029 A 
ATOM     59  N   UNL A   1      43.311  31.885  33.272  1.00  0.00    -0.354 N 
ATOM     60  N   UNL A   1      42.459  30.576  29.191  1.00  0.00    -0.248 NA
ATOM     61  C   UNL A   1      41.937  28.783  30.597  1.00  0.00     0.031 C 
ATOM     62  C   UNL A   1      42.948  33.962  32.728  1.00  0.00     0.029 A 
ATOM     63  C   UNL A   1      43.144  32.696  32.177  1.00  0.00     0.049 A 
ATOM     64  H   UNL A   1      43.864  31.072  33.321  1.00  0.00     0.167 HD
ATOM     65  C   UNL A   1      42.870  30.910  30.474  1.00  0.00     0.074 A 
ATOM     66  C   UNL A   1      42.570  29.734  31.290  1.00  0.00     0.031 C 
ATOM     67  C   UNL A   1      43.130  32.206  30.819  1.00  0.00     0.037 A 
BRANCH  54  68
ATOM     68  C   UNL A   1      42.196  30.368  35.808  1.00  0.00     0.064 A 
ATOM     69  C   UNL A   1      43.119  30.601  36.848  1.00  0.00     0.173 A 
ATOM     70  C   UNL A   1      42.068  29.022  35.401  1.00  0.00     0.173 A 
ATOM     71  F   UNL A   1      43.331  31.843  37.309  1.00  0.00    -0.203 F 
ATOM     72  C   UNL A   1      43.917  29.580  37.370  1.00  0.00     0.198 A 
ATOM     73  C   UNL A   1      42.826  27.998  35.964  1.00  0.00     0.198 A 
ATOM     74  F   UNL A   1      41.298  28.655  34.372  1.00  0.00    -0.203 F 
ATOM     75  F   UNL A   1      44.876  29.875  38.258  1.00  0.00    -0.200 F 
ATOM     76  C   UNL A   1      43.776  28.281  36.921  1.00  0.00     0.200 A 
ATOM     77  F   UNL A   1      42.685  26.746  35.505  1.00  0.00    -0.200 F 
ATOM     78  F   UNL A   1      44.586  27.312  37.370  1.00  0.00    -0.200 F 
ENDBRANCH  54  68
BRANCH  55  79
ATOM     79  C   UNL A   1      40.223  27.988  27.860  1.00  0.00     0.064 A 
ATOM     80  C   UNL A   1      40.921  27.708  26.673  1.00  0.00     0.173 A 
ATOM     81  C   UNL A   1      39.524  26.911  28.441  1.00  0.00     0.173 A 
ATOM     82  F   UNL A   1      41.641  28.668  26.075  1.00  0.00    -0.203 F 
ATOM     83  C   UNL A   1      40.950  26.421  26.123  1.00  0.00     0.198 A 
ATOM     84  C   UNL A   1      39.551  25.629  27.889  1.00  0.00     0.198 A 
ATOM     85  F   UNL A   1      38.881  27.059  29.608  1.00  0.00    -0.203 F 
ATOM     86  F   UNL A   1      41.684  26.180  25.027  1.00  0.00    -0.200 F 
ATOM     87  C   UNL A   1      40.278  25.381  26.739  1.00  0.00     0.200 A 
ATOM     88  F   UNL A   1      38.923  24.623  28.514  1.00  0.00    -0.200 F 
ATOM     89  F   UNL A   1      40.363  24.134  26.252  1.00  0.00    -0.200 F 
ENDBRANCH  55  79
BRANCH  67  90
ATOM     90  C   UNL A   1      43.173  33.238  29.726  1.00  0.00     0.064 A 
ATOM     91  C   UNL A   1      44.242  33.390  28.824  1.00  0.00     0.173 A 
ATOM     92  C   UNL A   1      42.021  33.994  29.483  1.00  0.00     0.173 A 
ATOM     93  F   UNL A   1      45.340  32.633  28.923  1.00  0.00    -0.203 F 
ATOM     94  C   UNL A   1      44.173  34.284  27.757  1.00  0.00     0.198 A 
ATOM     95  C   UNL A   1      41.939  34.861  28.396  1.00  0.00     0.198 A 
ATOM     96  F   UNL A   1      40.946  33.853  30.274  1.00  0.00    -0.203 F 
ATOM     97  F   UNL A   1      45.211  34.412  26.917  1.00  0.00    -0.200 F 
ATOM     98  C   UNL A   1      43.017  35.014  27.539  1.00  0.00     0.200 A 
ATOM     99  F   UNL A   1      40.800  35.528  28.161  1.00  0.00    -0.200 F 
ATOM    100  F   UNL A   1      42.932  35.843  26.489  1.00  0.00    -0.200 F 
ENDBRANCH  67  90
ENDBRANCH  41  42
ENDBRANCH  33  36
ENDBRANCH  31  32
ENDBRANCH  30  31
ENDBRANCH  29  30
ENDBRANCH   1  29
TORSDOF 15
ENDMDL
MODEL 3
REMARK VINA RESULT:     -12.6      2.481      3.846
REMARK SMILES Cc1nn(C)cc1C[NH+]1CCN(C(=O)c2cnn(CC(=O)NCCCCNC(=O)c3ccc(-c4c5nc(c(-c6c(F)c(F)c(F)c(F)c6F)c6ccc([nH]6)c(-c6c(F)c(F)c(F)c(F)c6F)c6nc(c(-c7c(F)c(F)c(F)c(F)c7F)c7ccc4[nH]7)C=C6)C=C5)cc3)c2)CC1
REMARK SMILES IDX 23 1 22 2 20 3 21 4 19 6 18 7 15 8 16 9 93 10 17 11 13 12
REMARK SMILES IDX 9 13 10 14 95 15 11 17 94 18 12 19 14 20 8 21 7 22 1 23 2 24
REMARK SMILES IDX 3 25 4 26 6 27 5 28 24 29 25 30 26 31 27 32 28 33 29 35
REMARK SMILES IDX 30 36 31 37 92 38 32 39 91 40 33 41 34 42 35 43 85 44 36 45
REMARK SMILES IDX 90 46 84 47 86 48 37 49 89 50 83 51 82 52 38 54 70 55 50 56
REMARK SMILES IDX 69 57 51 58 54 59 68 60 87 61 52 62 53 63 67 65 88 66 55 67
REMARK SMILES IDX 39 68 40 69 48 70 41 71 42 72 46 73 49 74 43 75 44 76 47 77
REMARK SMILES IDX 45 78 71 79 72 80 80 81 73 82 74 83 78 84 81 85 75 86 76 87
REMARK SMILES IDX 79 88 77 89 56 90 57 91 65 92 58 93 59 94 63 95 66 96 60 97
REMARK SMILES IDX 61 98 64 99 62 100
REMARK H PARENT 22 5 9 16 27 34 86 53 54 64
REMARK Flexibility Score: inf
ROOT
ATOM      1  C   UNL A   1      37.208  23.745  25.987  1.00  0.00     0.116 C 
ENDROOT
BRANCH   1   2
ATOM      2  N   UNL A   1      37.099  23.610  24.550  1.00  0.00    -0.354 N 
ATOM      3  C   UNL A   1      36.453  22.663  23.803  1.00  0.00     0.241 C 
ATOM      4  O   UNL A   1      36.541  22.770  22.576  1.00  0.00    -0.273 OA
ATOM      5  H   UNL A   1      37.562  24.306  24.030  1.00  0.00     0.163 HD
BRANCH   3   6
ATOM      6  C   UNL A   1      35.543  21.625  24.430  1.00  0.00     0.243 C 
BRANCH   6   7
ATOM      7  N   UNL A   1      34.516  22.172  25.294  1.00  0.00    -0.262 N 
ATOM      8  C   UNL A   1      32.877  23.410  26.100  1.00  0.00     0.078 A 
ATOM      9  C   UNL A   1      33.393  22.501  27.048  1.00  0.00     0.149 A 
ATOM     10  C   UNL A   1      33.556  23.079  24.942  1.00  0.00     0.123 A 
ATOM     11  N   UNL A   1      34.411  21.774  26.575  1.00  0.00    -0.180 NA
BRANCH   8  12
ATOM     12  C   UNL A   1      31.837  24.421  26.201  1.00  0.00     0.257 C 
ATOM     13  N   UNL A   1      32.768  28.680  25.967  1.00  0.00    -0.328 N 
ATOM     14  C   UNL A   1      31.493  28.193  26.503  1.00  0.00     0.284 C 
ATOM     15  C   UNL A   1      33.840  27.720  26.220  1.00  0.00     0.284 C 
ATOM     16  H   UNL A   1      32.996  29.513  26.511  1.00  0.00     0.348 HD
ATOM     17  C   UNL A   1      31.117  26.742  26.142  1.00  0.00     0.181 C 
ATOM     18  C   UNL A   1      33.547  26.251  25.881  1.00  0.00     0.181 C 
ATOM     19  N   UNL A   1      32.213  25.773  26.255  1.00  0.00    -0.327 N 
ATOM     20  O   UNL A   1      30.656  24.080  26.154  1.00  0.00    -0.269 OA
BRANCH  13  21
ATOM     21  C   UNL A   1      32.744  29.311  24.643  1.00  0.00     0.302 C 
BRANCH  21  22
ATOM     22  C   UNL A   1      31.551  28.972  23.818  1.00  0.00     0.047 A 
ATOM     23  C   UNL A   1      32.352  26.857  22.472  1.00  0.00     0.069 C 
ATOM     24  C   UNL A   1      31.404  27.930  22.855  1.00  0.00     0.068 A 
ATOM     25  N   UNL A   1      30.237  28.016  22.205  1.00  0.00    -0.178 NA
ATOM     26  N   UNL A   1      29.635  29.077  22.753  1.00  0.00    -0.275 N 
ATOM     27  C   UNL A   1      30.310  29.580  23.824  1.00  0.00     0.118 A 
ATOM     28  C   UNL A   1      28.490  29.656  22.095  1.00  0.00     0.173 C 
ENDBRANCH  21  22
ENDBRANCH  13  21
ENDBRANCH   8  12
ENDBRANCH   6   7
ENDBRANCH   3   6
ENDBRANCH   1   2
BRANCH   1  29
ATOM     29  C   UNL A   1      38.558  23.250  26.515  1.00  0.00     0.023 C 
BRANCH  29  30
ATOM     30  C   UNL A   1      39.066  21.900  25.989  1.00  0.00     0.023 C 
BRANCH  30  31
ATOM     31  C   UNL A   1      40.317  21.349  26.663  1.00  0.00     0.116 C 
BRANCH  31  32
ATOM     32  N   UNL A   1      41.558  21.543  25.900  1.00  0.00    -0.352 N 
ATOM     33  C   UNL A   1      42.277  22.722  25.708  1.00  0.00     0.251 C 
ATOM     34  H   UNL A   1      41.928  20.739  25.470  1.00  0.00     0.163 HD
ATOM     35  O   UNL A   1      43.059  22.847  24.786  1.00  0.00    -0.269 OA
BRANCH  33  36
ATOM     36  C   UNL A   1      42.077  23.816  26.674  1.00  0.00     0.039 A 
ATOM     37  C   UNL A   1      42.640  23.832  27.954  1.00  0.00     0.014 A 
ATOM     38  C   UNL A   1      41.367  24.902  26.197  1.00  0.00     0.014 A 
ATOM     39  C   UNL A   1      42.541  25.005  28.705  1.00  0.00     0.010 A 
ATOM     40  C   UNL A   1      41.542  26.110  26.793  1.00  0.00     0.010 A 
ATOM     41  C   UNL A   1      42.000  26.147  28.099  1.00  0.00    -0.014 A 
BRANCH  41  42
ATOM     42  C   UNL A   1      41.927  27.446  28.750  1.00  0.00     0.031 A 
ATOM     43  C   UNL A   1      42.977  28.411  28.341  1.00  0.00     0.074 A 
ATOM     44  C   UNL A   1      40.819  27.825  29.430  1.00  0.00     0.049 A 
ATOM     45  N   UNL A   1      43.912  28.915  29.073  1.00  0.00    -0.248 NA
ATOM     46  C   UNL A   1      43.080  28.767  26.916  1.00  0.00     0.031 C 
ATOM     47  C   UNL A   1      39.550  27.103  29.616  1.00  0.00     0.029 A 
ATOM     48  N   UNL A   1      40.553  29.021  30.012  1.00  0.00    -0.354 N 
ATOM     49  C   UNL A   1      44.605  29.805  28.256  1.00  0.00     0.074 A 
ATOM     50  C   UNL A   1      44.177  29.529  26.910  1.00  0.00     0.031 C 
ATOM     51  C   UNL A   1      38.593  27.959  30.037  1.00  0.00     0.029 A 
ATOM     52  C   UNL A   1      39.216  29.233  30.331  1.00  0.00     0.049 A 
ATOM     53  H   UNL A   1      41.253  29.690  30.193  1.00  0.00     0.167 HD
ATOM     54  C   UNL A   1      45.285  30.859  28.787  1.00  0.00     0.037 A 
ATOM     55  C   UNL A   1      38.676  30.396  30.772  1.00  0.00     0.037 A 
ATOM     56  C   UNL A   1      45.481  30.684  30.207  1.00  0.00     0.049 A 
ATOM     57  C   UNL A   1      39.804  31.221  31.285  1.00  0.00     0.074 A 
ATOM     58  C   UNL A   1      46.095  29.721  30.984  1.00  0.00     0.029 A 
ATOM     59  N   UNL A   1      44.655  31.371  31.064  1.00  0.00    -0.354 N 
ATOM     60  N   UNL A   1      40.503  30.907  32.343  1.00  0.00    -0.248 NA
ATOM     61  C   UNL A   1      40.461  32.110  30.339  1.00  0.00     0.031 C 
ATOM     62  C   UNL A   1      45.224  29.543  32.101  1.00  0.00     0.029 A 
ATOM     63  C   UNL A   1      44.184  30.464  31.980  1.00  0.00     0.049 A 
ATOM     64  H   UNL A   1      44.442  32.332  31.028  1.00  0.00     0.167 HD
ATOM     65  C   UNL A   1      41.814  31.204  32.000  1.00  0.00     0.074 A 
ATOM     66  C   UNL A   1      41.718  32.001  30.777  1.00  0.00     0.031 C 
ATOM     67  C   UNL A   1      42.862  30.529  32.558  1.00  0.00     0.037 A 
BRANCH  54  68
ATOM     68  C   UNL A   1      45.441  32.204  28.121  1.00  0.00     0.064 A 
ATOM     69  C   UNL A   1      44.287  32.967  27.847  1.00  0.00     0.173 A 
ATOM     70  C   UNL A   1      46.620  32.637  27.477  1.00  0.00     0.173 A 
ATOM     71  F   UNL A   1      43.107  32.642  28.396  1.00  0.00    -0.203 F 
ATOM     72  C   UNL A   1      44.297  34.018  26.927  1.00  0.00     0.198 A 
ATOM     73  C   UNL A   1      46.637  33.722  26.603  1.00  0.00     0.198 A 
ATOM     74  F   UNL A   1      47.774  31.968  27.569  1.00  0.00    -0.203 F 
ATOM     75  F   UNL A   1      43.148  34.623  26.597  1.00  0.00    -0.200 F 
ATOM     76  C   UNL A   1      45.470  34.389  26.299  1.00  0.00     0.200 A 
ATOM     77  F   UNL A   1      47.783  34.057  25.992  1.00  0.00    -0.200 F 
ATOM     78  F   UNL A   1      45.471  35.351  25.366  1.00  0.00    -0.200 F 
ENDBRANCH  54  68
BRANCH  55  79
ATOM     79  C   UNL A   1      37.340  30.968  30.482  1.00  0.00     0.064 A 
ATOM     80  C   UNL A   1      36.455  31.294  31.524  1.00  0.00     0.173 A 
ATOM     81  C   UNL A   1      37.022  31.482  29.209  1.00  0.00     0.173 A 
ATOM     82  F   UNL A   1      36.705  30.875  32.773  1.00  0.00    -0.203 F 
ATOM     83  C   UNL A   1      35.342  32.116  31.313  1.00  0.00     0.198 A 
ATOM     84  C   UNL A   1      35.908  32.299  29.000  1.00  0.00     0.198 A 
ATOM     85  F   UNL A   1      37.837  31.282  28.164  1.00  0.00    -0.203 F 
ATOM     86  F   UNL A   1      34.560  32.459  32.347  1.00  0.00    -0.200 F 
ATOM     87  C   UNL A   1      35.078  32.629  30.055  1.00  0.00     0.200 A 
ATOM     88  F   UNL A   1      35.682  32.816  27.784  1.00  0.00    -0.200 F 
ATOM     89  F   UNL A   1      34.053  33.472  29.867  1.00  0.00    -0.200 F 
ENDBRANCH  55  79
BRANCH  67  90
ATOM     90  C   UNL A   1      42.581  29.606  33.712  1.00  0.00     0.064 A 
ATOM     91  C   UNL A   1      42.248  28.246  33.573  1.00  0.00     0.173 A 
ATOM     92  C   UNL A   1      42.814  30.077  35.009  1.00  0.00     0.173 A 
ATOM     93  F   UNL A   1      42.107  27.691  32.366  1.00  0.00    -0.203 F 
ATOM     94  C   UNL A   1      42.116  27.413  34.683  1.00  0.00     0.198 A 
ATOM     95  C   UNL A   1      42.717  29.236  36.114  1.00  0.00     0.198 A 
ATOM     96  F   UNL A   1      43.191  31.351  35.202  1.00  0.00    -0.203 F 
ATOM     97  F   UNL A   1      41.790  26.122  34.520  1.00  0.00    -0.200 F 
ATOM     98  C   UNL A   1      42.358  27.907  35.953  1.00  0.00     0.200 A 
ATOM     99  F   UNL A   1      43.002  29.707  37.336  1.00  0.00    -0.200 F 
ATOM    100  F   UNL A   1      42.275  27.097  37.018  1.00  0.00    -0.200 F 
ENDBRANCH  67  90
ENDBRANCH  41  42
ENDBRANCH  33  36
ENDBRANCH  31  32
ENDBRANCH  30  31
ENDBRANCH  29  30
ENDBRANCH   1  29
TORSDOF 15
ENDMDL
