MODEL 1
REMARK VINA RESULT:     -12.7      0.000      0.000
REMARK SMILES CN(C(=O)N1Cc2nc[nH]c2C[C@@H]1C(=O)NCCCCNC(=O)c1ccc(-c2c3nc(c(-c4c(F)c(F)c(F)c(F)c4F)c4ccc([nH]4)c(-c4c(F)c(F)c(F)c(F)c4F)c4nc(c(-c5c(F)c(F)c(F)c(F)c5F)c5ccc2[nH]5)C=C4)C=C3)cc1)C1CC1
REMARK SMILES IDX 18 1 17 2 16 3 14 4 15 5 13 7 5 8 6 9 7 10 12 11 8 12 11 13
REMARK SMILES IDX 9 14 10 15 3 17 4 18 2 19 1 20 87 21 88 22 89 23 19 24 20 25
REMARK SMILES IDX 21 26 22 27 23 29 24 30 25 31 86 32 26 33 85 34 27 35 28 36
REMARK SMILES IDX 29 37 79 38 30 39 84 40 78 41 80 42 31 43 83 44 77 45 76 46
REMARK SMILES IDX 32 48 64 49 44 50 63 51 45 52 48 53 62 54 81 55 46 56 47 57
REMARK SMILES IDX 61 59 82 60 49 61 33 62 34 63 42 64 35 65 36 66 40 67 43 68
REMARK SMILES IDX 37 69 38 70 41 71 39 72 65 73 66 74 74 75 67 76 68 77 72 78
REMARK SMILES IDX 75 79 69 80 70 81 73 82 71 83 50 84 51 85 59 86 52 87 53 88
REMARK SMILES IDX 57 89 60 90 54 91 55 92 58 93 56 94
REMARK H PARENT 16 6 10 16 21 28 80 47 48 58
REMARK Flexibility Score: inf
ROOT
ATOM      1  C   UNL A   1      38.254  23.174  26.137  1.00  0.00     0.023 C 
ENDROOT
BRANCH   1   2
ATOM      2  C   UNL A   1      36.718  23.283  26.077  1.00  0.00     0.116 C 
BRANCH   2   3
ATOM      3  N   UNL A   1      36.261  23.628  24.738  1.00  0.00    -0.354 N 
ATOM      4  C   UNL A   1      35.298  23.136  23.915  1.00  0.00     0.243 C 
ATOM      5  O   UNL A   1      35.148  23.752  22.850  1.00  0.00    -0.273 OA
ATOM      6  H   UNL A   1      36.758  24.382  24.344  1.00  0.00     0.163 HD
BRANCH   4   7
ATOM      7  C   UNL A   1      34.368  21.947  24.248  1.00  0.00     0.182 C 
ATOM      8  N   UNL A   1      33.100  22.234  24.975  1.00  0.00    -0.306 N 
ATOM      9  C   UNL A   1      32.103  21.151  25.095  1.00  0.00     0.180 C 
ATOM     10  C   UNL A   1      32.765  19.817  25.124  1.00  0.00     0.081 A 
ATOM     11  C   UNL A   1      35.117  20.673  24.713  1.00  0.00     0.091 C 
ATOM     12  N   UNL A   1      32.114  18.623  25.276  1.00  0.00    -0.240 NA
ATOM     13  C   UNL A   1      34.111  19.608  24.932  1.00  0.00     0.042 A 
ATOM     14  C   UNL A   1      33.055  17.706  25.192  1.00  0.00     0.197 A 
ATOM     15  N   UNL A   1      34.291  18.258  24.978  1.00  0.00    -0.348 N 
ATOM     16  H   UNL A   1      35.142  17.774  24.879  1.00  0.00     0.167 HD
BRANCH   8  17
ATOM     17  C   UNL A   1      33.063  23.175  25.969  1.00  0.00     0.321 C 
ATOM     18  O   UNL A   1      33.301  22.881  27.140  1.00  0.00    -0.248 OA
BRANCH  17  19
ATOM     19  N   UNL A   1      32.648  24.444  25.570  1.00  0.00    -0.325 N 
ATOM     20  C   UNL A   1      31.491  24.735  24.731  1.00  0.00     0.149 C 
BRANCH  19  21
ATOM     21  C   UNL A   1      33.453  25.557  25.976  1.00  0.00     0.086 C 
ATOM     22  C   UNL A   1      33.762  26.532  24.882  1.00  0.00     0.027 C 
ATOM     23  C   UNL A   1      33.073  26.998  26.128  1.00  0.00     0.027 C 
ENDBRANCH  19  21
ENDBRANCH  17  19
ENDBRANCH   8  17
ENDBRANCH   4   7
ENDBRANCH   2   3
ENDBRANCH   1   2
BRANCH   1  24
ATOM     24  C   UNL A   1      38.854  21.803  25.763  1.00  0.00     0.023 C 
BRANCH  24  25
ATOM     25  C   UNL A   1      40.083  21.409  26.577  1.00  0.00     0.116 C 
BRANCH  25  26
ATOM     26  N   UNL A   1      41.352  21.576  25.860  1.00  0.00    -0.352 N 
ATOM     27  C   UNL A   1      42.118  22.731  25.715  1.00  0.00     0.251 C 
ATOM     28  H   UNL A   1      41.709  20.767  25.428  1.00  0.00     0.163 HD
ATOM     29  O   UNL A   1      42.941  22.834  24.824  1.00  0.00    -0.269 OA
BRANCH  27  30
ATOM     30  C   UNL A   1      41.933  23.833  26.688  1.00  0.00     0.039 A 
ATOM     31  C   UNL A   1      42.526  23.866  27.959  1.00  0.00     0.014 A 
ATOM     32  C   UNL A   1      41.136  24.883  26.280  1.00  0.00     0.014 A 
ATOM     33  C   UNL A   1      42.376  25.011  28.766  1.00  0.00     0.010 A 
ATOM     34  C   UNL A   1      41.167  26.051  26.987  1.00  0.00     0.010 A 
ATOM     35  C   UNL A   1      41.696  26.119  28.255  1.00  0.00    -0.014 A 
BRANCH  35  36
ATOM     36  C   UNL A   1      41.609  27.449  28.860  1.00  0.00     0.031 A 
ATOM     37  C   UNL A   1      42.654  28.387  28.383  1.00  0.00     0.074 A 
ATOM     38  C   UNL A   1      40.506  27.929  29.493  1.00  0.00     0.049 A 
ATOM     39  N   UNL A   1      43.630  28.867  29.074  1.00  0.00    -0.248 NA
ATOM     40  C   UNL A   1      42.706  28.739  26.953  1.00  0.00     0.031 C 
ATOM     41  C   UNL A   1      39.196  27.284  29.690  1.00  0.00     0.029 A 
ATOM     42  N   UNL A   1      40.288  29.172  30.015  1.00  0.00    -0.354 N 
ATOM     43  C   UNL A   1      44.317  29.730  28.230  1.00  0.00     0.074 A 
ATOM     44  C   UNL A   1      43.820  29.475  26.901  1.00  0.00     0.031 C 
ATOM     45  C   UNL A   1      38.283  28.197  30.096  1.00  0.00     0.029 A 
ATOM     46  C   UNL A   1      38.964  29.449  30.359  1.00  0.00     0.049 A 
ATOM     47  H   UNL A   1      41.013  29.826  30.139  1.00  0.00     0.167 HD
ATOM     48  C   UNL A   1      45.071  30.740  28.742  1.00  0.00     0.037 A 
ATOM     49  C   UNL A   1      38.470  30.627  30.823  1.00  0.00     0.037 A 
ATOM     50  C   UNL A   1      45.255  30.575  30.163  1.00  0.00     0.049 A 
ATOM     51  C   UNL A   1      39.622  31.405  31.341  1.00  0.00     0.074 A 
ATOM     52  C   UNL A   1      45.825  29.601  30.960  1.00  0.00     0.029 A 
ATOM     53  N   UNL A   1      44.443  31.308  30.993  1.00  0.00    -0.354 N 
ATOM     54  N   UNL A   1      40.316  31.063  32.390  1.00  0.00    -0.248 NA
ATOM     55  C   UNL A   1      40.285  32.314  30.420  1.00  0.00     0.031 C 
ATOM     56  C   UNL A   1      44.960  29.500  32.092  1.00  0.00     0.029 A 
ATOM     57  C   UNL A   1      43.961  30.465  31.961  1.00  0.00     0.049 A 
ATOM     58  H   UNL A   1      44.243  32.270  30.910  1.00  0.00     0.167 HD
ATOM     59  C   UNL A   1      41.630  31.332  32.040  1.00  0.00     0.074 A 
ATOM     60  C   UNL A   1      41.541  32.185  30.857  1.00  0.00     0.031 C 
ATOM     61  C   UNL A   1      42.656  30.602  32.566  1.00  0.00     0.037 A 
BRANCH  48  62
ATOM     62  C   UNL A   1      45.335  32.058  28.062  1.00  0.00     0.064 A 
ATOM     63  C   UNL A   1      44.249  32.921  27.808  1.00  0.00     0.173 A 
ATOM     64  C   UNL A   1      46.536  32.373  27.393  1.00  0.00     0.173 A 
ATOM     65  F   UNL A   1      43.055  32.701  28.378  1.00  0.00    -0.203 F 
ATOM     66  C   UNL A   1      44.340  33.970  26.891  1.00  0.00     0.198 A 
ATOM     67  C   UNL A   1      46.638  33.456  26.521  1.00  0.00     0.198 A 
ATOM     68  F   UNL A   1      47.616  31.587  27.462  1.00  0.00    -0.203 F 
ATOM     69  F   UNL A   1      43.247  34.680  26.584  1.00  0.00    -0.200 F 
ATOM     70  C   UNL A   1      45.533  34.234  26.245  1.00  0.00     0.200 A 
ATOM     71  F   UNL A   1      47.797  33.683  25.888  1.00  0.00    -0.200 F 
ATOM     72  F   UNL A   1      45.607  35.199  25.320  1.00  0.00    -0.200 F 
ENDBRANCH  48  62
BRANCH  49  73
ATOM     73  C   UNL A   1      37.140  31.258  30.616  1.00  0.00     0.064 A 
ATOM     74  C   UNL A   1      36.266  31.497  31.692  1.00  0.00     0.173 A 
ATOM     75  C   UNL A   1      36.835  31.920  29.411  1.00  0.00     0.173 A 
ATOM     76  F   UNL A   1      36.505  30.942  32.890  1.00  0.00    -0.203 F 
ATOM     77  C   UNL A   1      35.179  32.373  31.580  1.00  0.00     0.198 A 
ATOM     78  C   UNL A   1      35.750  32.795  29.301  1.00  0.00     0.198 A 
ATOM     79  F   UNL A   1      37.646  31.813  28.351  1.00  0.00    -0.203 F 
ATOM     80  F   UNL A   1      34.411  32.628  32.650  1.00  0.00    -0.200 F 
ATOM     81  C   UNL A   1      34.931  33.033  30.388  1.00  0.00     0.200 A 
ATOM     82  F   UNL A   1      35.550  33.462  28.156  1.00  0.00    -0.200 F 
ATOM     83  F   UNL A   1      33.938  33.929  30.301  1.00  0.00    -0.200 F 
ENDBRANCH  49  73
BRANCH  61  84
ATOM     84  C   UNL A   1      42.351  29.704  33.734  1.00  0.00     0.064 A 
ATOM     85  C   UNL A   1      41.904  28.375  33.624  1.00  0.00     0.173 A 
ATOM     86  C   UNL A   1      42.656  30.171  35.019  1.00  0.00     0.173 A 
ATOM     87  F   UNL A   1      41.679  27.816  32.430  1.00  0.00    -0.203 F 
ATOM     88  C   UNL A   1      41.733  27.570  34.752  1.00  0.00     0.198 A 
ATOM     89  C   UNL A   1      42.522  29.355  36.139  1.00  0.00     0.198 A 
ATOM     90  F   UNL A   1      43.134  31.414  35.184  1.00  0.00    -0.203 F 
ATOM     91  F   UNL A   1      41.294  26.310  34.618  1.00  0.00    -0.200 F 
ATOM     92  C   UNL A   1      42.050  28.059  36.006  1.00  0.00     0.200 A 
ATOM     93  F   UNL A   1      42.875  29.818  37.345  1.00  0.00    -0.200 F 
ATOM     94  F   UNL A   1      41.927  27.275  37.086  1.00  0.00    -0.200 F 
ENDBRANCH  61  84
ENDBRANCH  35  36
ENDBRANCH  27  30
ENDBRANCH  25  26
ENDBRANCH  24  25
ENDBRANCH   1  24
TORSDOF 14
ENDMDL
MODEL 2
REMARK VINA RESULT:     -12.4      3.451      9.046
REMARK SMILES CN(C(=O)N1Cc2nc[nH]c2C[C@@H]1C(=O)NCCCCNC(=O)c1ccc(-c2c3nc(c(-c4c(F)c(F)c(F)c(F)c4F)c4ccc([nH]4)c(-c4c(F)c(F)c(F)c(F)c4F)c4nc(c(-c5c(F)c(F)c(F)c(F)c5F)c5ccc2[nH]5)C=C4)C=C3)cc1)C1CC1
REMARK SMILES IDX 18 1 17 2 16 3 14 4 15 5 13 7 5 8 6 9 7 10 12 11 8 12 11 13
REMARK SMILES IDX 9 14 10 15 3 17 4 18 2 19 1 20 87 21 88 22 89 23 19 24 20 25
REMARK SMILES IDX 21 26 22 27 23 29 24 30 25 31 86 32 26 33 85 34 27 35 28 36
REMARK SMILES IDX 29 37 79 38 30 39 84 40 78 41 80 42 31 43 83 44 77 45 76 46
REMARK SMILES IDX 32 48 64 49 44 50 63 51 45 52 48 53 62 54 81 55 46 56 47 57
REMARK SMILES IDX 61 59 82 60 49 61 33 62 34 63 42 64 35 65 36 66 40 67 43 68
REMARK SMILES IDX 37 69 38 70 41 71 39 72 65 73 66 74 74 75 67 76 68 77 72 78
REMARK SMILES IDX 75 79 69 80 70 81 73 82 71 83 50 84 51 85 59 86 52 87 53 88
REMARK SMILES IDX 57 89 60 90 54 91 55 92 58 93 56 94
REMARK H PARENT 16 6 10 16 21 28 80 47 48 58
REMARK Flexibility Score: inf
ROOT
ATOM      1  C   UNL A   1      34.614  29.546  27.257  1.00  0.00     0.023 C 
ENDROOT
BRANCH   1   2
ATOM      2  C   UNL A   1      34.107  28.625  26.131  1.00  0.00     0.116 C 
BRANCH   2   3
ATOM      3  N   UNL A   1      33.133  27.663  26.629  1.00  0.00    -0.354 N 
ATOM      4  C   UNL A   1      31.913  27.248  26.197  1.00  0.00     0.243 C 
ATOM      5  O   UNL A   1      31.400  26.335  26.860  1.00  0.00    -0.273 OA
ATOM      6  H   UNL A   1      33.421  27.218  27.459  1.00  0.00     0.163 HD
BRANCH   4   7
ATOM      7  C   UNL A   1      31.190  27.777  24.937  1.00  0.00     0.182 C 
ATOM      8  N   UNL A   1      31.478  27.110  23.636  1.00  0.00    -0.306 N 
ATOM      9  C   UNL A   1      30.630  27.449  22.475  1.00  0.00     0.180 C 
ATOM     10  C   UNL A   1      30.129  28.849  22.571  1.00  0.00     0.081 A 
ATOM     11  C   UNL A   1      31.083  29.321  24.874  1.00  0.00     0.091 C 
ATOM     12  N   UNL A   1      29.360  29.472  21.625  1.00  0.00    -0.240 NA
ATOM     13  C   UNL A   1      30.317  29.674  23.655  1.00  0.00     0.042 A 
ATOM     14  C   UNL A   1      29.099  30.662  22.125  1.00  0.00     0.197 A 
ATOM     15  N   UNL A   1      29.659  30.831  23.364  1.00  0.00    -0.348 N 
ATOM     16  H   UNL A   1      29.599  31.633  23.932  1.00  0.00     0.167 HD
BRANCH   8  17
ATOM     17  C   UNL A   1      32.745  26.691  23.331  1.00  0.00     0.321 C 
ATOM     18  O   UNL A   1      33.580  27.462  22.860  1.00  0.00    -0.248 OA
BRANCH  17  19
ATOM     19  N   UNL A   1      32.976  25.328  23.504  1.00  0.00    -0.325 N 
ATOM     20  C   UNL A   1      31.983  24.271  23.348  1.00  0.00     0.149 C 
BRANCH  19  21
ATOM     21  C   UNL A   1      34.289  24.930  23.915  1.00  0.00     0.086 C 
ATOM     22  C   UNL A   1      34.398  24.548  25.359  1.00  0.00     0.027 C 
ATOM     23  C   UNL A   1      34.795  23.572  24.294  1.00  0.00     0.027 C 
ENDBRANCH  19  21
ENDBRANCH  17  19
ENDBRANCH   8  17
ENDBRANCH   4   7
ENDBRANCH   2   3
ENDBRANCH   1   2
BRANCH   1  24
ATOM     24  C   UNL A   1      33.698  30.729  27.633  1.00  0.00     0.023 C 
BRANCH  24  25
ATOM     25  C   UNL A   1      34.441  32.019  27.970  1.00  0.00     0.116 C 
BRANCH  25  26
ATOM     26  N   UNL A   1      34.368  32.398  29.385  1.00  0.00    -0.352 N 
ATOM     27  C   UNL A   1      35.158  31.949  30.442  1.00  0.00     0.251 C 
ATOM     28  H   UNL A   1      33.672  33.054  29.617  1.00  0.00     0.163 HD
ATOM     29  O   UNL A   1      34.784  32.054  31.596  1.00  0.00    -0.269 OA
BRANCH  27  30
ATOM     30  C   UNL A   1      36.484  31.362  30.139  1.00  0.00     0.039 A 
ATOM     31  C   UNL A   1      37.635  32.120  29.871  1.00  0.00     0.014 A 
ATOM     32  C   UNL A   1      36.560  29.985  30.145  1.00  0.00     0.014 A 
ATOM     33  C   UNL A   1      38.871  31.466  29.703  1.00  0.00     0.010 A 
ATOM     34  C   UNL A   1      37.788  29.390  30.176  1.00  0.00     0.010 A 
ATOM     35  C   UNL A   1      38.939  30.082  29.875  1.00  0.00    -0.014 A 
BRANCH  35  36
ATOM     36  C   UNL A   1      40.152  29.265  29.933  1.00  0.00     0.031 A 
ATOM     37  C   UNL A   1      40.615  28.988  31.315  1.00  0.00     0.074 A 
ATOM     38  C   UNL A   1      40.616  28.513  28.900  1.00  0.00     0.049 A 
ATOM     39  N   UNL A   1      41.690  29.434  31.869  1.00  0.00    -0.248 NA
ATOM     40  C   UNL A   1      39.736  28.242  32.232  1.00  0.00     0.031 C 
ATOM     41  C   UNL A   1      40.036  28.319  27.560  1.00  0.00     0.029 A 
ATOM     42  N   UNL A   1      41.678  27.655  28.872  1.00  0.00    -0.354 N 
ATOM     43  C   UNL A   1      41.730  28.879  33.141  1.00  0.00     0.074 A 
ATOM     44  C   UNL A   1      40.427  28.309  33.374  1.00  0.00     0.031 C 
ATOM     45  C   UNL A   1      40.629  27.272  26.941  1.00  0.00     0.029 A 
ATOM     46  C   UNL A   1      41.743  26.824  27.753  1.00  0.00     0.049 A 
ATOM     47  H   UNL A   1      42.351  27.625  29.590  1.00  0.00     0.167 HD
ATOM     48  C   UNL A   1      42.915  28.741  33.796  1.00  0.00     0.037 A 
ATOM     49  C   UNL A   1      42.648  25.838  27.518  1.00  0.00     0.037 A 
ATOM     50  C   UNL A   1      43.960  29.481  33.129  1.00  0.00     0.049 A 
ATOM     51  C   UNL A   1      43.812  26.100  28.401  1.00  0.00     0.074 A 
ATOM     52  C   UNL A   1      44.160  30.812  32.822  1.00  0.00     0.029 A 
ATOM     53  N   UNL A   1      44.802  28.776  32.304  1.00  0.00    -0.354 N 
ATOM     54  N   UNL A   1      44.607  27.124  28.269  1.00  0.00    -0.248 NA
ATOM     55  C   UNL A   1      43.813  25.470  29.711  1.00  0.00     0.031 C 
ATOM     56  C   UNL A   1      44.735  30.806  31.515  1.00  0.00     0.029 A 
ATOM     57  C   UNL A   1      44.922  29.477  31.132  1.00  0.00     0.049 A 
ATOM     58  H   UNL A   1      45.241  27.920  32.516  1.00  0.00     0.167 HD
ATOM     59  C   UNL A   1      44.852  27.543  29.567  1.00  0.00     0.074 A 
ATOM     60  C   UNL A   1      44.415  26.434  30.413  1.00  0.00     0.031 C 
ATOM     61  C   UNL A   1      45.111  28.855  29.842  1.00  0.00     0.037 A 
BRANCH  48  62
ATOM     62  C   UNL A   1      43.231  27.669  34.805  1.00  0.00     0.064 A 
ATOM     63  C   UNL A   1      43.582  28.053  36.116  1.00  0.00     0.173 A 
ATOM     64  C   UNL A   1      43.494  26.325  34.471  1.00  0.00     0.173 A 
ATOM     65  F   UNL A   1      43.392  29.313  36.532  1.00  0.00    -0.203 F 
ATOM     66  C   UNL A   1      44.220  27.176  36.995  1.00  0.00     0.198 A 
ATOM     67  C   UNL A   1      44.080  25.436  35.370  1.00  0.00     0.198 A 
ATOM     68  F   UNL A   1      43.305  25.850  33.235  1.00  0.00    -0.203 F 
ATOM     69  F   UNL A   1      44.652  27.621  38.182  1.00  0.00    -0.200 F 
ATOM     70  C   UNL A   1      44.473  25.869  36.620  1.00  0.00     0.200 A 
ATOM     71  F   UNL A   1      44.337  24.180  34.982  1.00  0.00    -0.200 F 
ATOM     72  F   UNL A   1      45.139  25.043  37.436  1.00  0.00    -0.200 F 
ENDBRANCH  48  62
BRANCH  49  73
ATOM     73  C   UNL A   1      42.494  24.543  26.805  1.00  0.00     0.064 A 
ATOM     74  C   UNL A   1      43.125  24.306  25.571  1.00  0.00     0.173 A 
ATOM     75  C   UNL A   1      41.983  23.411  27.469  1.00  0.00     0.173 A 
ATOM     76  F   UNL A   1      43.679  25.320  24.891  1.00  0.00    -0.203 F 
ATOM     77  C   UNL A   1      43.271  23.012  25.053  1.00  0.00     0.198 A 
ATOM     78  C   UNL A   1      42.130  22.120  26.951  1.00  0.00     0.198 A 
ATOM     79  F   UNL A   1      41.428  23.525  28.682  1.00  0.00    -0.203 F 
ATOM     80  F   UNL A   1      43.942  22.820  23.907  1.00  0.00    -0.200 F 
ATOM     81  C   UNL A   1      42.786  21.919  25.751  1.00  0.00     0.200 A 
ATOM     82  F   UNL A   1      41.697  21.068  27.660  1.00  0.00    -0.200 F 
ATOM     83  F   UNL A   1      42.991  20.676  25.295  1.00  0.00    -0.200 F 
ENDBRANCH  49  73
BRANCH  61  84
ATOM     84  C   UNL A   1      45.402  29.769  28.682  1.00  0.00     0.064 A 
ATOM     85  C   UNL A   1      44.429  30.496  27.974  1.00  0.00     0.173 A 
ATOM     86  C   UNL A   1      46.744  30.020  28.365  1.00  0.00     0.173 A 
ATOM     87  F   UNL A   1      43.130  30.390  28.275  1.00  0.00    -0.203 F 
ATOM     88  C   UNL A   1      44.784  31.399  26.971  1.00  0.00     0.198 A 
ATOM     89  C   UNL A   1      47.097  30.949  27.391  1.00  0.00     0.198 A 
ATOM     90  F   UNL A   1      47.720  29.394  29.040  1.00  0.00    -0.203 F 
ATOM     91  F   UNL A   1      43.833  32.070  26.304  1.00  0.00    -0.200 F 
ATOM     92  C   UNL A   1      46.118  31.630  26.686  1.00  0.00     0.200 A 
ATOM     93  F   UNL A   1      48.391  31.203  27.153  1.00  0.00    -0.200 F 
ATOM     94  F   UNL A   1      46.462  32.527  25.752  1.00  0.00    -0.200 F 
ENDBRANCH  61  84
ENDBRANCH  35  36
ENDBRANCH  27  30
ENDBRANCH  25  26
ENDBRANCH  24  25
ENDBRANCH   1  24
TORSDOF 14
ENDMDL
MODEL 3
REMARK VINA RESULT:     -12.3      1.593      2.700
REMARK SMILES CN(C(=O)N1Cc2nc[nH]c2C[C@@H]1C(=O)NCCCCNC(=O)c1ccc(-c2c3nc(c(-c4c(F)c(F)c(F)c(F)c4F)c4ccc([nH]4)c(-c4c(F)c(F)c(F)c(F)c4F)c4nc(c(-c5c(F)c(F)c(F)c(F)c5F)c5ccc2[nH]5)C=C4)C=C3)cc1)C1CC1
REMARK SMILES IDX 18 1 17 2 16 3 14 4 15 5 13 7 5 8 6 9 7 10 12 11 8 12 11 13
REMARK SMILES IDX 9 14 10 15 3 17 4 18 2 19 1 20 87 21 88 22 89 23 19 24 20 25
REMARK SMILES IDX 21 26 22 27 23 29 24 30 25 31 86 32 26 33 85 34 27 35 28 36
REMARK SMILES IDX 29 37 79 38 30 39 84 40 78 41 80 42 31 43 83 44 77 45 76 46
REMARK SMILES IDX 32 48 64 49 44 50 63 51 45 52 48 53 62 54 81 55 46 56 47 57
REMARK SMILES IDX 61 59 82 60 49 61 33 62 34 63 42 64 35 65 36 66 40 67 43 68
REMARK SMILES IDX 37 69 38 70 41 71 39 72 65 73 66 74 74 75 67 76 68 77 72 78
REMARK SMILES IDX 75 79 69 80 70 81 73 82 71 83 50 84 51 85 59 86 52 87 53 88
REMARK SMILES IDX 57 89 60 90 54 91 55 92 58 93 56 94
REMARK H PARENT 16 6 10 16 21 28 80 47 48 58
REMARK Flexibility Score: inf
ROOT
ATOM      1  C   UNL A   1      36.581  22.587  23.511  1.00  0.00     0.023 C 
ENDROOT
BRANCH   1   2
ATOM      2  C   UNL A   1      35.048  22.519  23.645  1.00  0.00     0.116 C 
BRANCH   2   3
ATOM      3  N   UNL A   1      34.390  23.367  22.662  1.00  0.00    -0.354 N 
ATOM      4  C   UNL A   1      33.237  24.087  22.659  1.00  0.00     0.243 C 
ATOM      5  O   UNL A   1      33.038  24.763  21.640  1.00  0.00    -0.273 OA
ATOM      6  H   UNL A   1      34.888  23.433  21.815  1.00  0.00     0.163 HD
BRANCH   4   7
ATOM      7  C   UNL A   1      32.237  24.166  23.836  1.00  0.00     0.182 C 
ATOM      8  N   UNL A   1      32.286  25.367  24.715  1.00  0.00    -0.306 N 
ATOM      9  C   UNL A   1      31.196  25.563  25.692  1.00  0.00     0.180 C 
ATOM     10  C   UNL A   1      30.643  24.256  26.143  1.00  0.00     0.081 A 
ATOM     11  C   UNL A   1      32.026  22.821  24.574  1.00  0.00     0.091 C 
ATOM     12  N   UNL A   1      29.657  24.104  27.081  1.00  0.00    -0.240 NA
ATOM     13  C   UNL A   1      31.003  23.033  25.624  1.00  0.00     0.042 A 
ATOM     14  C   UNL A   1      29.435  22.807  27.138  1.00  0.00     0.197 A 
ATOM     15  N   UNL A   1      30.230  22.112  26.265  1.00  0.00    -0.348 N 
ATOM     16  H   UNL A   1      30.242  21.137  26.129  1.00  0.00     0.167 HD
BRANCH   8  17
ATOM     17  C   UNL A   1      33.485  25.934  25.056  1.00  0.00     0.321 C 
ATOM     18  O   UNL A   1      34.325  25.315  25.706  1.00  0.00    -0.248 OA
BRANCH  17  19
ATOM     19  N   UNL A   1      33.631  27.273  24.697  1.00  0.00    -0.325 N 
ATOM     20  C   UNL A   1      33.624  27.794  23.334  1.00  0.00     0.149 C 
BRANCH  19  21
ATOM     21  C   UNL A   1      33.853  28.216  25.751  1.00  0.00     0.086 C 
ATOM     22  C   UNL A   1      32.725  29.175  25.976  1.00  0.00     0.027 C 
ATOM     23  C   UNL A   1      33.205  28.306  27.099  1.00  0.00     0.027 C 
ENDBRANCH  19  21
ENDBRANCH  17  19
ENDBRANCH   8  17
ENDBRANCH   4   7
ENDBRANCH   2   3
ENDBRANCH   1   2
BRANCH   1  24
ATOM     24  C   UNL A   1      37.392  21.781  24.547  1.00  0.00     0.023 C 
BRANCH  24  25
ATOM     25  C   UNL A   1      37.943  22.611  25.702  1.00  0.00     0.116 C 
BRANCH  25  26
ATOM     26  N   UNL A   1      38.903  21.894  26.548  1.00  0.00    -0.352 N 
ATOM     27  C   UNL A   1      40.054  22.388  27.161  1.00  0.00     0.251 C 
ATOM     28  H   UNL A   1      38.708  20.942  26.704  1.00  0.00     0.163 HD
ATOM     29  O   UNL A   1      40.941  21.641  27.530  1.00  0.00    -0.269 OA
BRANCH  27  30
ATOM     30  C   UNL A   1      40.170  23.848  27.383  1.00  0.00     0.039 A 
ATOM     31  C   UNL A   1      39.147  24.769  27.105  1.00  0.00     0.014 A 
ATOM     32  C   UNL A   1      41.364  24.295  27.910  1.00  0.00     0.014 A 
ATOM     33  C   UNL A   1      39.318  26.122  27.455  1.00  0.00     0.010 A 
ATOM     34  C   UNL A   1      41.431  25.561  28.417  1.00  0.00     0.010 A 
ATOM     35  C   UNL A   1      40.476  26.509  28.133  1.00  0.00    -0.014 A 
BRANCH  35  36
ATOM     36  C   UNL A   1      40.739  27.814  28.744  1.00  0.00     0.031 A 
ATOM     37  C   UNL A   1      41.895  28.525  28.147  1.00  0.00     0.074 A 
ATOM     38  C   UNL A   1      39.840  28.497  29.500  1.00  0.00     0.049 A 
ATOM     39  N   UNL A   1      43.022  28.776  28.719  1.00  0.00    -0.248 NA
ATOM     40  C   UNL A   1      41.856  28.892  26.720  1.00  0.00     0.031 C 
ATOM     41  C   UNL A   1      38.455  28.134  29.849  1.00  0.00     0.029 A 
ATOM     42  N   UNL A   1      39.947  29.745  30.042  1.00  0.00    -0.354 N 
ATOM     43  C   UNL A   1      43.773  29.497  27.800  1.00  0.00     0.074 A 
ATOM     44  C   UNL A   1      43.086  29.382  26.538  1.00  0.00     0.031 C 
ATOM     45  C   UNL A   1      37.806  29.207  30.358  1.00  0.00     0.029 A 
ATOM     46  C   UNL A   1      38.759  30.284  30.538  1.00  0.00     0.049 A 
ATOM     47  H   UNL A   1      40.802  30.232  30.081  1.00  0.00     0.167 HD
ATOM     48  C   UNL A   1      44.775  30.316  28.219  1.00  0.00     0.037 A 
ATOM     49  C   UNL A   1      38.578  31.527  31.056  1.00  0.00     0.037 A 
ATOM     50  C   UNL A   1      45.081  30.083  29.610  1.00  0.00     0.049 A 
ATOM     51  C   UNL A   1      39.919  32.037  31.436  1.00  0.00     0.074 A 
ATOM     52  C   UNL A   1      45.522  28.993  30.336  1.00  0.00     0.029 A 
ATOM     53  N   UNL A   1      44.541  30.949  30.529  1.00  0.00    -0.354 N 
ATOM     54  N   UNL A   1      40.640  31.534  32.397  1.00  0.00    -0.248 NA
ATOM     55  C   UNL A   1      40.647  32.809  30.443  1.00  0.00     0.031 C 
ATOM     56  C   UNL A   1      44.791  29.047  31.561  1.00  0.00     0.029 A 
ATOM     57  C   UNL A   1      44.007  30.201  31.546  1.00  0.00     0.049 A 
ATOM     58  H   UNL A   1      44.538  31.933  30.468  1.00  0.00     0.167 HD
ATOM     59  C   UNL A   1      41.933  31.532  31.896  1.00  0.00     0.074 A 
ATOM     60  C   UNL A   1      41.890  32.412  30.730  1.00  0.00     0.031 C 
ATOM     61  C   UNL A   1      42.837  30.592  32.299  1.00  0.00     0.037 A 
BRANCH  48  62
ATOM     62  C   UNL A   1      45.230  31.566  27.513  1.00  0.00     0.064 A 
ATOM     63  C   UNL A   1      46.545  31.621  27.008  1.00  0.00     0.173 A 
ATOM     64  C   UNL A   1      44.547  32.798  27.574  1.00  0.00     0.173 A 
ATOM     65  F   UNL A   1      47.291  30.509  26.925  1.00  0.00    -0.203 F 
ATOM     66  C   UNL A   1      47.154  32.829  26.666  1.00  0.00     0.198 A 
ATOM     67  C   UNL A   1      45.140  33.996  27.179  1.00  0.00     0.198 A 
ATOM     68  F   UNL A   1      43.332  32.912  28.122  1.00  0.00    -0.203 F 
ATOM     69  F   UNL A   1      48.447  32.847  26.317  1.00  0.00    -0.200 F 
ATOM     70  C   UNL A   1      46.453  34.017  26.757  1.00  0.00     0.200 A 
ATOM     71  F   UNL A   1      44.451  35.140  27.293  1.00  0.00    -0.200 F 
ATOM     72  F   UNL A   1      47.052  35.184  26.489  1.00  0.00    -0.200 F 
ENDBRANCH  48  62
BRANCH  49  73
ATOM     73  C   UNL A   1      37.395  32.425  31.004  1.00  0.00     0.064 A 
ATOM     74  C   UNL A   1      37.096  33.179  29.854  1.00  0.00     0.173 A 
ATOM     75  C   UNL A   1      36.367  32.321  31.961  1.00  0.00     0.173 A 
ATOM     76  F   UNL A   1      38.000  33.295  28.871  1.00  0.00    -0.203 F 
ATOM     77  C   UNL A   1      35.835  33.759  29.658  1.00  0.00     0.198 A 
ATOM     78  C   UNL A   1      35.110  32.899  31.764  1.00  0.00     0.198 A 
ATOM     79  F   UNL A   1      36.531  31.567  33.056  1.00  0.00    -0.203 F 
ATOM     80  F   UNL A   1      35.567  34.410  28.517  1.00  0.00    -0.200 F 
ATOM     81  C   UNL A   1      34.839  33.606  30.607  1.00  0.00     0.200 A 
ATOM     82  F   UNL A   1      34.141  32.704  32.669  1.00  0.00    -0.200 F 
ATOM     83  F   UNL A   1      33.610  34.094  30.388  1.00  0.00    -0.200 F 
ENDBRANCH  49  73
BRANCH  61  84
ATOM     84  C   UNL A   1      42.486  29.750  33.496  1.00  0.00     0.064 A 
ATOM     85  C   UNL A   1      41.872  28.487  33.431  1.00  0.00     0.173 A 
ATOM     86  C   UNL A   1      42.918  30.186  34.756  1.00  0.00     0.173 A 
ATOM     87  F   UNL A   1      41.513  27.950  32.259  1.00  0.00    -0.203 F 
ATOM     88  C   UNL A   1      41.663  27.720  34.578  1.00  0.00     0.198 A 
ATOM     89  C   UNL A   1      42.744  29.403  35.893  1.00  0.00     0.198 A 
ATOM     90  F   UNL A   1      43.556  31.361  34.875  1.00  0.00    -0.203 F 
ATOM     91  F   UNL A   1      41.063  26.524  34.487  1.00  0.00    -0.200 F 
ATOM     92  C   UNL A   1      42.107  28.176  35.806  1.00  0.00     0.200 A 
ATOM     93  F   UNL A   1      43.218  29.829  37.071  1.00  0.00    -0.200 F 
ATOM     94  F   UNL A   1      41.946  27.423  36.903  1.00  0.00    -0.200 F 
ENDBRANCH  61  84
ENDBRANCH  35  36
ENDBRANCH  27  30
ENDBRANCH  25  26
ENDBRANCH  24  25
ENDBRANCH   1  24
TORSDOF 14
ENDMDL
