MODEL 1
REMARK VINA RESULT:     -12.9      0.000      0.000
REMARK SMILES CC(C)(C)c1cc(NC(=O)[C@H]2[C@@H](C(=O)NCCCCNC(=O)c3ccc(-c4c5nc(c(-c6c(F)c(F)c(F)c(F)c6F)c6ccc([nH]6)c(-c6c(F)c(F)c(F)c(F)c6F)c6nc(c(-c7c(F)c(F)c(F)c(F)c7F)c7ccc4[nH]7)C=C6)C=C5)cc3)[C@H]3C=C[C@@H]2C3)no1
REMARK SMILES IDX 17 1 16 2 15 3 13 4 14 5 12 7 11 8 89 9 86 10 88 11 90 12
REMARK SMILES IDX 87 13 9 14 8 15 10 17 7 18 5 19 6 20 92 21 91 22 2 23 1 24
REMARK SMILES IDX 3 25 4 26 18 27 19 28 20 29 21 30 22 32 23 33 24 34 85 35
REMARK SMILES IDX 25 36 84 37 26 38 27 39 28 40 78 41 29 42 83 43 77 44 79 45
REMARK SMILES IDX 30 46 82 47 76 48 75 49 31 51 63 52 43 53 62 54 44 55 47 56
REMARK SMILES IDX 61 57 80 58 45 59 46 60 60 62 81 63 48 64 32 65 33 66 41 67
REMARK SMILES IDX 34 68 35 69 39 70 42 71 36 72 37 73 40 74 38 75 64 76 65 77
REMARK SMILES IDX 73 78 66 79 67 80 71 81 74 82 68 83 69 84 72 85 70 86 49 87
REMARK SMILES IDX 50 88 58 89 51 90 52 91 56 92 59 93 53 94 54 95 57 96 55 97
REMARK H PARENT 15 6 8 16 20 31 79 50 47 61
REMARK Flexibility Score: inf
ROOT
ATOM      1  C   UNL A   1      31.889  27.538  26.995  1.00  0.00     0.023 C 
ENDROOT
BRANCH   1   2
ATOM      2  C   UNL A   1      30.781  26.761  26.290  1.00  0.00     0.116 C 
BRANCH   2   3
ATOM      3  N   UNL A   1      30.817  25.336  26.500  1.00  0.00    -0.356 N 
ATOM      4  C   UNL A   1      31.755  24.403  26.218  1.00  0.00     0.224 C 
ATOM      5  O   UNL A   1      31.410  23.244  26.476  1.00  0.00    -0.275 OA
ATOM      6  H   UNL A   1      30.008  24.973  26.929  1.00  0.00     0.163 HD
BRANCH   4   7
ATOM      7  C   UNL A   1      33.140  24.646  25.607  1.00  0.00     0.098 C 
ATOM      8  C   UNL A   1      33.261  24.594  24.031  1.00  0.00     0.099 C 
ATOM      9  C   UNL A   1      34.587  23.821  23.833  1.00  0.00     0.025 C 
ATOM     10  C   UNL A   1      34.445  23.955  26.081  1.00  0.00     0.025 C 
ATOM     11  C   UNL A   1      34.563  22.417  24.386  1.00  0.00    -0.027 C 
ATOM     12  C   UNL A   1      35.416  24.437  24.984  1.00  0.00     0.017 C 
ATOM     13  C   UNL A   1      34.508  22.497  25.717  1.00  0.00    -0.027 C 
BRANCH   8  14
ATOM     14  C   UNL A   1      31.951  24.365  23.267  1.00  0.00     0.230 C 
ATOM     15  N   UNL A   1      31.310  25.299  22.530  1.00  0.00    -0.308 N 
ATOM     16  H   UNL A   1      30.917  24.977  21.687  1.00  0.00     0.171 HD
ATOM     17  O   UNL A   1      31.513  23.210  23.174  1.00  0.00    -0.274 OA
BRANCH  15  18
ATOM     18  C   UNL A   1      31.131  26.630  22.793  1.00  0.00     0.176 A 
ATOM     19  C   UNL A   1      30.107  28.559  23.040  1.00  0.00     0.144 A 
ATOM     20  C   UNL A   1      29.877  27.203  23.087  1.00  0.00     0.096 A 
ATOM     21  O   UNL A   1      31.451  28.767  22.968  1.00  0.00    -0.359 OA
ATOM     22  N   UNL A   1      32.096  27.550  22.839  1.00  0.00    -0.062 NA
BRANCH  19  23
ATOM     23  C   UNL A   1      29.202  29.753  22.924  1.00  0.00     0.023 C 
ATOM     24  C   UNL A   1      29.309  30.421  21.542  1.00  0.00     0.019 C 
ATOM     25  C   UNL A   1      29.552  30.786  24.006  1.00  0.00     0.019 C 
ATOM     26  C   UNL A   1      27.749  29.276  23.126  1.00  0.00     0.019 C 
ENDBRANCH  19  23
ENDBRANCH  15  18
ENDBRANCH   8  14
ENDBRANCH   4   7
ENDBRANCH   2   3
ENDBRANCH   1   2
BRANCH   1  27
ATOM     27  C   UNL A   1      31.694  29.045  27.120  1.00  0.00     0.023 C 
BRANCH  27  28
ATOM     28  C   UNL A   1      32.626  29.905  26.276  1.00  0.00     0.116 C 
BRANCH  28  29
ATOM     29  N   UNL A   1      32.573  31.321  26.614  1.00  0.00    -0.352 N 
ATOM     30  C   UNL A   1      33.417  32.093  27.380  1.00  0.00     0.251 C 
ATOM     31  H   UNL A   1      31.807  31.806  26.231  1.00  0.00     0.163 HD
ATOM     32  O   UNL A   1      33.117  33.251  27.641  1.00  0.00    -0.269 OA
BRANCH  30  33
ATOM     33  C   UNL A   1      34.671  31.521  27.922  1.00  0.00     0.039 A 
ATOM     34  C   UNL A   1      35.767  32.364  28.128  1.00  0.00     0.014 A 
ATOM     35  C   UNL A   1      34.771  30.164  28.232  1.00  0.00     0.014 A 
ATOM     36  C   UNL A   1      36.922  31.865  28.739  1.00  0.00     0.010 A 
ATOM     37  C   UNL A   1      35.879  29.692  28.927  1.00  0.00     0.010 A 
ATOM     38  C   UNL A   1      36.967  30.537  29.193  1.00  0.00    -0.014 A 
BRANCH  38  39
ATOM     39  C   UNL A   1      38.132  30.013  29.956  1.00  0.00     0.031 A 
ATOM     40  C   UNL A   1      38.385  30.474  31.365  1.00  0.00     0.074 A 
ATOM     41  C   UNL A   1      39.009  29.186  29.353  1.00  0.00     0.049 A 
ATOM     42  N   UNL A   1      39.394  30.212  32.157  1.00  0.00    -0.248 NA
ATOM     43  C   UNL A   1      37.384  31.380  31.953  1.00  0.00     0.031 C 
ATOM     44  C   UNL A   1      38.910  28.706  27.973  1.00  0.00     0.029 A 
ATOM     45  N   UNL A   1      40.169  28.615  29.818  1.00  0.00    -0.354 N 
ATOM     46  C   UNL A   1      39.160  30.932  33.321  1.00  0.00     0.074 A 
ATOM     47  C   UNL A   1      37.945  31.689  33.113  1.00  0.00     0.031 C 
ATOM     48  C   UNL A   1      39.948  27.896  27.714  1.00  0.00     0.029 A 
ATOM     49  C   UNL A   1      40.810  27.832  28.890  1.00  0.00     0.049 A 
ATOM     50  H   UNL A   1      40.508  28.755  30.732  1.00  0.00     0.167 HD
ATOM     51  C   UNL A   1      39.879  30.941  34.469  1.00  0.00     0.037 A 
ATOM     52  C   UNL A   1      41.967  27.147  28.973  1.00  0.00     0.037 A 
ATOM     53  C   UNL A   1      41.070  30.166  34.685  1.00  0.00     0.049 A 
ATOM     54  C   UNL A   1      42.748  27.177  30.260  1.00  0.00     0.074 A 
ATOM     55  C   UNL A   1      41.833  30.057  35.835  1.00  0.00     0.029 A 
ATOM     56  N   UNL A   1      41.676  29.365  33.727  1.00  0.00    -0.354 N 
ATOM     57  N   UNL A   1      42.478  27.806  31.378  1.00  0.00    -0.248 NA
ATOM     58  C   UNL A   1      43.994  26.398  30.296  1.00  0.00     0.031 C 
ATOM     59  C   UNL A   1      42.926  29.229  35.559  1.00  0.00     0.029 A 
ATOM     60  C   UNL A   1      42.815  28.777  34.254  1.00  0.00     0.049 A 
ATOM     61  H   UNL A   1      41.345  29.233  32.809  1.00  0.00     0.167 HD
ATOM     62  C   UNL A   1      43.498  27.474  32.259  1.00  0.00     0.074 A 
ATOM     63  C   UNL A   1      44.387  26.577  31.549  1.00  0.00     0.031 C 
ATOM     64  C   UNL A   1      43.684  27.877  33.539  1.00  0.00     0.037 A 
BRANCH  51  65
ATOM     65  C   UNL A   1      39.387  31.816  35.587  1.00  0.00     0.064 A 
ATOM     66  C   UNL A   1      39.824  33.141  35.732  1.00  0.00     0.173 A 
ATOM     67  C   UNL A   1      38.440  31.335  36.504  1.00  0.00     0.173 A 
ATOM     68  F   UNL A   1      40.738  33.647  34.891  1.00  0.00    -0.203 F 
ATOM     69  C   UNL A   1      39.358  33.941  36.773  1.00  0.00     0.198 A 
ATOM     70  C   UNL A   1      37.950  32.149  37.523  1.00  0.00     0.198 A 
ATOM     71  F   UNL A   1      37.981  30.078  36.408  1.00  0.00    -0.203 F 
ATOM     72  F   UNL A   1      39.832  35.185  36.923  1.00  0.00    -0.200 F 
ATOM     73  C   UNL A   1      38.415  33.447  37.662  1.00  0.00     0.200 A 
ATOM     74  F   UNL A   1      37.029  31.674  38.373  1.00  0.00    -0.200 F 
ATOM     75  F   UNL A   1      37.962  34.220  38.658  1.00  0.00    -0.200 F 
ENDBRANCH  51  65
BRANCH  52  76
ATOM     76  C   UNL A   1      42.447  26.351  27.813  1.00  0.00     0.064 A 
ATOM     77  C   UNL A   1      41.956  25.059  27.575  1.00  0.00     0.173 A 
ATOM     78  C   UNL A   1      43.409  26.856  26.925  1.00  0.00     0.173 A 
ATOM     79  F   UNL A   1      41.051  24.524  28.408  1.00  0.00    -0.203 F 
ATOM     80  C   UNL A   1      42.425  24.295  26.509  1.00  0.00     0.198 A 
ATOM     81  C   UNL A   1      43.855  26.101  25.842  1.00  0.00     0.198 A 
ATOM     82  F   UNL A   1      43.907  28.088  27.104  1.00  0.00    -0.203 F 
ATOM     83  F   UNL A   1      41.974  23.045  26.334  1.00  0.00    -0.200 F 
ATOM     84  C   UNL A   1      43.370  24.819  25.640  1.00  0.00     0.200 A 
ATOM     85  F   UNL A   1      44.757  26.617  24.995  1.00  0.00    -0.200 F 
ATOM     86  F   UNL A   1      43.818  24.084  24.612  1.00  0.00    -0.200 F 
ENDBRANCH  52  76
BRANCH  64  87
ATOM     87  C   UNL A   1      44.869  27.321  34.274  1.00  0.00     0.064 A 
ATOM     88  C   UNL A   1      46.101  27.991  34.304  1.00  0.00     0.173 A 
ATOM     89  C   UNL A   1      44.758  26.119  34.991  1.00  0.00     0.173 A 
ATOM     90  F   UNL A   1      46.263  29.135  33.623  1.00  0.00    -0.203 F 
ATOM     91  C   UNL A   1      47.184  27.467  35.006  1.00  0.00     0.198 A 
ATOM     92  C   UNL A   1      45.833  25.614  35.716  1.00  0.00     0.198 A 
ATOM     93  F   UNL A   1      43.600  25.442  34.999  1.00  0.00    -0.203 F 
ATOM     94  F   UNL A   1      48.364  28.100  34.981  1.00  0.00    -0.200 F 
ATOM     95  C   UNL A   1      47.047  26.284  35.717  1.00  0.00     0.200 A 
ATOM     96  F   UNL A   1      45.694  24.480  36.416  1.00  0.00    -0.200 F 
ATOM     97  F   UNL A   1      48.088  25.786  36.398  1.00  0.00    -0.200 F 
ENDBRANCH  64  87
ENDBRANCH  38  39
ENDBRANCH  30  33
ENDBRANCH  28  29
ENDBRANCH  27  28
ENDBRANCH   1  27
TORSDOF 14
ENDMDL
MODEL 2
REMARK VINA RESULT:     -12.8      4.702      8.482
REMARK SMILES CC(C)(C)c1cc(NC(=O)[C@H]2[C@@H](C(=O)NCCCCNC(=O)c3ccc(-c4c5nc(c(-c6c(F)c(F)c(F)c(F)c6F)c6ccc([nH]6)c(-c6c(F)c(F)c(F)c(F)c6F)c6nc(c(-c7c(F)c(F)c(F)c(F)c7F)c7ccc4[nH]7)C=C6)C=C5)cc3)[C@H]3C=C[C@@H]2C3)no1
REMARK SMILES IDX 17 1 16 2 15 3 13 4 14 5 12 7 11 8 89 9 86 10 88 11 90 12
REMARK SMILES IDX 87 13 9 14 8 15 10 17 7 18 5 19 6 20 92 21 91 22 2 23 1 24
REMARK SMILES IDX 3 25 4 26 18 27 19 28 20 29 21 30 22 32 23 33 24 34 85 35
REMARK SMILES IDX 25 36 84 37 26 38 27 39 28 40 78 41 29 42 83 43 77 44 79 45
REMARK SMILES IDX 30 46 82 47 76 48 75 49 31 51 63 52 43 53 62 54 44 55 47 56
REMARK SMILES IDX 61 57 80 58 45 59 46 60 60 62 81 63 48 64 32 65 33 66 41 67
REMARK SMILES IDX 34 68 35 69 39 70 42 71 36 72 37 73 40 74 38 75 64 76 65 77
REMARK SMILES IDX 73 78 66 79 67 80 71 81 74 82 68 83 69 84 72 85 70 86 49 87
REMARK SMILES IDX 50 88 58 89 51 90 52 91 56 92 59 93 53 94 54 95 57 96 55 97
REMARK H PARENT 15 6 8 16 20 31 79 50 47 61
REMARK Flexibility Score: inf
ROOT
ATOM      1  C   UNL A   1      37.375  21.695  24.375  1.00  0.00     0.023 C 
ENDROOT
BRANCH   1   2
ATOM      2  C   UNL A   1      35.881  21.983  24.493  1.00  0.00     0.116 C 
BRANCH   2   3
ATOM      3  N   UNL A   1      35.339  22.794  23.432  1.00  0.00    -0.356 N 
ATOM      4  C   UNL A   1      34.517  23.868  23.447  1.00  0.00     0.224 C 
ATOM      5  O   UNL A   1      34.193  24.273  22.323  1.00  0.00    -0.275 OA
ATOM      6  H   UNL A   1      35.618  22.515  22.530  1.00  0.00     0.163 HD
BRANCH   4   7
ATOM      7  C   UNL A   1      33.953  24.581  24.682  1.00  0.00     0.098 C 
ATOM      8  C   UNL A   1      32.389  24.521  24.908  1.00  0.00     0.099 C 
ATOM      9  C   UNL A   1      32.072  25.965  25.363  1.00  0.00     0.025 C 
ATOM     10  C   UNL A   1      34.312  26.030  25.102  1.00  0.00     0.025 C 
ATOM     11  C   UNL A   1      32.394  27.015  24.327  1.00  0.00    -0.027 C 
ATOM     12  C   UNL A   1      33.307  26.230  26.255  1.00  0.00     0.017 C 
ATOM     13  C   UNL A   1      33.720  27.073  24.194  1.00  0.00    -0.027 C 
BRANCH   8  14
ATOM     14  C   UNL A   1      31.598  23.692  23.889  1.00  0.00     0.230 C 
ATOM     15  N   UNL A   1      31.329  22.372  24.004  1.00  0.00    -0.308 N 
ATOM     16  H   UNL A   1      30.428  22.097  23.718  1.00  0.00     0.171 HD
ATOM     17  O   UNL A   1      31.019  24.282  22.966  1.00  0.00    -0.274 OA
BRANCH  15  18
ATOM     18  C   UNL A   1      32.134  21.366  24.463  1.00  0.00     0.176 A 
ATOM     19  C   UNL A   1      33.164  19.425  24.535  1.00  0.00     0.144 A 
ATOM     20  C   UNL A   1      32.617  20.323  23.646  1.00  0.00     0.096 A 
ATOM     21  O   UNL A   1      33.219  20.012  25.762  1.00  0.00    -0.359 OA
ATOM     22  N   UNL A   1      32.595  21.245  25.710  1.00  0.00    -0.062 NA
BRANCH  19  23
ATOM     23  C   UNL A   1      33.552  17.977  24.428  1.00  0.00     0.023 C 
ATOM     24  C   UNL A   1      33.126  17.367  23.082  1.00  0.00     0.019 C 
ATOM     25  C   UNL A   1      32.908  17.174  25.568  1.00  0.00     0.019 C 
ATOM     26  C   UNL A   1      35.088  17.882  24.544  1.00  0.00     0.019 C 
ENDBRANCH  19  23
ENDBRANCH  15  18
ENDBRANCH   8  14
ENDBRANCH   4   7
ENDBRANCH   2   3
ENDBRANCH   1   2
BRANCH   1  27
ATOM     27  C   UNL A   1      37.864  20.370  24.952  1.00  0.00     0.023 C 
BRANCH  27  28
ATOM     28  C   UNL A   1      38.965  20.471  26.000  1.00  0.00     0.116 C 
BRANCH  28  29
ATOM     29  N   UNL A   1      39.976  19.430  25.879  1.00  0.00    -0.352 N 
ATOM     30  C   UNL A   1      41.344  19.486  26.027  1.00  0.00     0.251 C 
ATOM     31  H   UNL A   1      39.624  18.539  25.655  1.00  0.00     0.163 HD
ATOM     32  O   UNL A   1      42.029  18.508  25.757  1.00  0.00    -0.269 OA
BRANCH  30  33
ATOM     33  C   UNL A   1      41.998  20.736  26.477  1.00  0.00     0.039 A 
ATOM     34  C   UNL A   1      42.458  21.645  25.519  1.00  0.00     0.014 A 
ATOM     35  C   UNL A   1      42.157  21.019  27.834  1.00  0.00     0.014 A 
ATOM     36  C   UNL A   1      42.979  22.878  25.924  1.00  0.00     0.010 A 
ATOM     37  C   UNL A   1      42.584  22.281  28.234  1.00  0.00     0.010 A 
ATOM     38  C   UNL A   1      42.996  23.228  27.284  1.00  0.00    -0.014 A 
BRANCH  38  39
ATOM     39  C   UNL A   1      43.429  24.578  27.736  1.00  0.00     0.031 A 
ATOM     40  C   UNL A   1      42.406  25.627  28.076  1.00  0.00     0.074 A 
ATOM     41  C   UNL A   1      44.741  24.887  27.760  1.00  0.00     0.049 A 
ATOM     42  N   UNL A   1      42.580  26.886  28.392  1.00  0.00    -0.248 NA
ATOM     43  C   UNL A   1      40.994  25.214  28.021  1.00  0.00     0.031 C 
ATOM     44  C   UNL A   1      45.832  23.979  27.401  1.00  0.00     0.029 A 
ATOM     45  N   UNL A   1      45.380  26.058  28.086  1.00  0.00    -0.354 N 
ATOM     46  C   UNL A   1      41.307  27.416  28.553  1.00  0.00     0.074 A 
ATOM     47  C   UNL A   1      40.367  26.360  28.244  1.00  0.00     0.031 C 
ATOM     48  C   UNL A   1      47.003  24.617  27.551  1.00  0.00     0.029 A 
ATOM     49  C   UNL A   1      46.748  25.991  27.973  1.00  0.00     0.049 A 
ATOM     50  H   UNL A   1      44.902  26.870  28.374  1.00  0.00     0.167 HD
ATOM     51  C   UNL A   1      40.953  28.662  28.949  1.00  0.00     0.037 A 
ATOM     52  C   UNL A   1      47.689  26.933  28.177  1.00  0.00     0.037 A 
ATOM     53  C   UNL A   1      41.888  29.701  29.285  1.00  0.00     0.049 A 
ATOM     54  C   UNL A   1      47.268  28.311  28.613  1.00  0.00     0.074 A 
ATOM     55  C   UNL A   1      41.630  30.976  29.759  1.00  0.00     0.029 A 
ATOM     56  N   UNL A   1      43.268  29.586  29.181  1.00  0.00    -0.354 N 
ATOM     57  N   UNL A   1      46.064  28.778  28.831  1.00  0.00    -0.248 NA
ATOM     58  C   UNL A   1      48.341  29.291  28.835  1.00  0.00     0.031 C 
ATOM     59  C   UNL A   1      42.848  31.649  29.896  1.00  0.00     0.029 A 
ATOM     60  C   UNL A   1      43.871  30.775  29.560  1.00  0.00     0.049 A 
ATOM     61  H   UNL A   1      43.747  28.780  28.882  1.00  0.00     0.167 HD
ATOM     62  C   UNL A   1      46.233  30.092  29.247  1.00  0.00     0.074 A 
ATOM     63  C   UNL A   1      47.659  30.344  29.263  1.00  0.00     0.031 C 
ATOM     64  C   UNL A   1      45.292  31.008  29.582  1.00  0.00     0.037 A 
BRANCH  51  65
ATOM     65  C   UNL A   1      39.486  28.967  29.049  1.00  0.00     0.064 A 
ATOM     66  C   UNL A   1      38.796  28.879  30.267  1.00  0.00     0.173 A 
ATOM     67  C   UNL A   1      38.767  29.387  27.918  1.00  0.00     0.173 A 
ATOM     68  F   UNL A   1      39.431  28.470  31.375  1.00  0.00    -0.203 F 
ATOM     69  C   UNL A   1      37.435  29.167  30.344  1.00  0.00     0.198 A 
ATOM     70  C   UNL A   1      37.414  29.707  28.006  1.00  0.00     0.198 A 
ATOM     71  F   UNL A   1      39.378  29.496  26.729  1.00  0.00    -0.203 F 
ATOM     72  F   UNL A   1      36.787  29.021  31.508  1.00  0.00    -0.200 F 
ATOM     73  C   UNL A   1      36.748  29.588  29.216  1.00  0.00     0.200 A 
ATOM     74  F   UNL A   1      36.755  30.128  26.918  1.00  0.00    -0.200 F 
ATOM     75  F   UNL A   1      35.441  29.872  29.294  1.00  0.00    -0.200 F 
ENDBRANCH  51  65
BRANCH  52  76
ATOM     76  C   UNL A   1      49.127  26.600  27.997  1.00  0.00     0.064 A 
ATOM     77  C   UNL A   1      49.942  26.312  29.102  1.00  0.00     0.173 A 
ATOM     78  C   UNL A   1      49.720  26.571  26.726  1.00  0.00     0.173 A 
ATOM     79  F   UNL A   1      49.426  26.347  30.340  1.00  0.00    -0.203 F 
ATOM     80  C   UNL A   1      51.297  26.031  28.944  1.00  0.00     0.198 A 
ATOM     81  C   UNL A   1      51.069  26.261  26.568  1.00  0.00     0.198 A 
ATOM     82  F   UNL A   1      48.984  26.833  25.636  1.00  0.00    -0.203 F 
ATOM     83  F   UNL A   1      52.062  25.808  30.022  1.00  0.00    -0.200 F 
ATOM     84  C   UNL A   1      51.858  26.000  27.677  1.00  0.00     0.200 A 
ATOM     85  F   UNL A   1      51.604  26.217  25.340  1.00  0.00    -0.200 F 
ATOM     86  F   UNL A   1      53.162  25.727  27.526  1.00  0.00    -0.200 F 
ENDBRANCH  52  76
BRANCH  64  87
ATOM     87  C   UNL A   1      45.772  32.356  30.037  1.00  0.00     0.064 A 
ATOM     88  C   UNL A   1      46.084  32.615  31.380  1.00  0.00     0.173 A 
ATOM     89  C   UNL A   1      45.962  33.391  29.108  1.00  0.00     0.173 A 
ATOM     90  F   UNL A   1      45.906  31.664  32.309  1.00  0.00    -0.203 F 
ATOM     91  C   UNL A   1      46.544  33.867  31.780  1.00  0.00     0.198 A 
ATOM     92  C   UNL A   1      46.452  34.631  29.506  1.00  0.00     0.198 A 
ATOM     93  F   UNL A   1      45.685  33.193  27.810  1.00  0.00    -0.203 F 
ATOM     94  F   UNL A   1      46.790  34.106  33.075  1.00  0.00    -0.200 F 
ATOM     95  C   UNL A   1      46.735  34.871  30.841  1.00  0.00     0.200 A 
ATOM     96  F   UNL A   1      46.651  35.595  28.596  1.00  0.00    -0.200 F 
ATOM     97  F   UNL A   1      47.187  36.072  31.227  1.00  0.00    -0.200 F 
ENDBRANCH  64  87
ENDBRANCH  38  39
ENDBRANCH  30  33
ENDBRANCH  28  29
ENDBRANCH  27  28
ENDBRANCH   1  27
TORSDOF 14
ENDMDL
MODEL 3
REMARK VINA RESULT:     -12.8      2.174      8.093
REMARK SMILES CC(C)(C)c1cc(NC(=O)[C@H]2[C@@H](C(=O)NCCCCNC(=O)c3ccc(-c4c5nc(c(-c6c(F)c(F)c(F)c(F)c6F)c6ccc([nH]6)c(-c6c(F)c(F)c(F)c(F)c6F)c6nc(c(-c7c(F)c(F)c(F)c(F)c7F)c7ccc4[nH]7)C=C6)C=C5)cc3)[C@H]3C=C[C@@H]2C3)no1
REMARK SMILES IDX 17 1 16 2 15 3 13 4 14 5 12 7 11 8 89 9 86 10 88 11 90 12
REMARK SMILES IDX 87 13 9 14 8 15 10 17 7 18 5 19 6 20 92 21 91 22 2 23 1 24
REMARK SMILES IDX 3 25 4 26 18 27 19 28 20 29 21 30 22 32 23 33 24 34 85 35
REMARK SMILES IDX 25 36 84 37 26 38 27 39 28 40 78 41 29 42 83 43 77 44 79 45
REMARK SMILES IDX 30 46 82 47 76 48 75 49 31 51 63 52 43 53 62 54 44 55 47 56
REMARK SMILES IDX 61 57 80 58 45 59 46 60 60 62 81 63 48 64 32 65 33 66 41 67
REMARK SMILES IDX 34 68 35 69 39 70 42 71 36 72 37 73 40 74 38 75 64 76 65 77
REMARK SMILES IDX 73 78 66 79 67 80 71 81 74 82 68 83 69 84 72 85 70 86 49 87
REMARK SMILES IDX 50 88 58 89 51 90 52 91 56 92 59 93 53 94 54 95 57 96 55 97
REMARK H PARENT 15 6 8 16 20 31 79 50 47 61
REMARK Flexibility Score: inf
ROOT
ATOM      1  C   UNL A   1      31.754  30.625  26.023  1.00  0.00     0.023 C 
ENDROOT
BRANCH   1   2
ATOM      2  C   UNL A   1      31.767  29.381  26.908  1.00  0.00     0.116 C 
BRANCH   2   3
ATOM      3  N   UNL A   1      32.898  28.511  26.706  1.00  0.00    -0.356 N 
ATOM      4  C   UNL A   1      33.201  27.637  25.719  1.00  0.00     0.224 C 
ATOM      5  O   UNL A   1      34.239  26.994  25.915  1.00  0.00    -0.275 OA
ATOM      6  H   UNL A   1      33.576  28.561  27.419  1.00  0.00     0.163 HD
BRANCH   4   7
ATOM      7  C   UNL A   1      32.390  27.367  24.447  1.00  0.00     0.098 C 
ATOM      8  C   UNL A   1      31.262  26.261  24.522  1.00  0.00     0.099 C 
ATOM      9  C   UNL A   1      31.441  25.523  23.175  1.00  0.00     0.025 C 
ATOM     10  C   UNL A   1      33.005  27.143  23.041  1.00  0.00     0.025 C 
ATOM     11  C   UNL A   1      32.789  24.862  23.015  1.00  0.00    -0.027 C 
ATOM     12  C   UNL A   1      31.742  26.732  22.258  1.00  0.00     0.017 C 
ATOM     13  C   UNL A   1      33.710  25.820  22.908  1.00  0.00    -0.027 C 
BRANCH   8  14
ATOM     14  C   UNL A   1      31.054  25.611  25.896  1.00  0.00     0.230 C 
ATOM     15  N   UNL A   1      31.963  24.841  26.535  1.00  0.00    -0.308 N 
ATOM     16  H   UNL A   1      32.026  24.979  27.507  1.00  0.00     0.171 HD
ATOM     17  O   UNL A   1      30.055  25.928  26.557  1.00  0.00    -0.274 OA
BRANCH  15  18
ATOM     18  C   UNL A   1      32.806  23.895  26.018  1.00  0.00     0.176 A 
ATOM     19  C   UNL A   1      34.671  22.957  25.329  1.00  0.00     0.144 A 
ATOM     20  C   UNL A   1      34.205  23.922  26.194  1.00  0.00     0.096 A 
ATOM     21  O   UNL A   1      33.608  22.246  24.862  1.00  0.00    -0.359 OA
ATOM     22  N   UNL A   1      32.435  22.821  25.318  1.00  0.00    -0.062 NA
BRANCH  19  23
ATOM     23  C   UNL A   1      36.025  22.662  24.749  1.00  0.00     0.023 C 
ATOM     24  C   UNL A   1      37.122  23.538  25.379  1.00  0.00     0.019 C 
ATOM     25  C   UNL A   1      36.010  22.896  23.231  1.00  0.00     0.019 C 
ATOM     26  C   UNL A   1      36.357  21.182  25.032  1.00  0.00     0.019 C 
ENDBRANCH  19  23
ENDBRANCH  15  18
ENDBRANCH   8  14
ENDBRANCH   4   7
ENDBRANCH   2   3
ENDBRANCH   1   2
BRANCH   1  27
ATOM     27  C   UNL A   1      31.444  31.950  26.712  1.00  0.00     0.023 C 
BRANCH  27  28
ATOM     28  C   UNL A   1      32.642  32.687  27.298  1.00  0.00     0.116 C 
BRANCH  28  29
ATOM     29  N   UNL A   1      32.365  34.079  27.622  1.00  0.00    -0.352 N 
ATOM     30  C   UNL A   1      32.951  34.920  28.541  1.00  0.00     0.251 C 
ATOM     31  H   UNL A   1      31.638  34.485  27.097  1.00  0.00     0.163 HD
ATOM     32  O   UNL A   1      32.477  36.032  28.740  1.00  0.00    -0.269 OA
BRANCH  30  33
ATOM     33  C   UNL A   1      34.132  34.477  29.316  1.00  0.00     0.039 A 
ATOM     34  C   UNL A   1      33.940  33.916  30.583  1.00  0.00     0.014 A 
ATOM     35  C   UNL A   1      35.422  34.607  28.803  1.00  0.00     0.014 A 
ATOM     36  C   UNL A   1      35.032  33.393  31.284  1.00  0.00     0.010 A 
ATOM     37  C   UNL A   1      36.492  34.002  29.455  1.00  0.00     0.010 A 
ATOM     38  C   UNL A   1      36.309  33.383  30.701  1.00  0.00    -0.014 A 
BRANCH  38  39
ATOM     39  C   UNL A   1      37.465  32.724  31.367  1.00  0.00     0.031 A 
ATOM     40  C   UNL A   1      38.153  31.558  30.713  1.00  0.00     0.074 A 
ATOM     41  C   UNL A   1      37.843  33.121  32.599  1.00  0.00     0.049 A 
ATOM     42  N   UNL A   1      39.108  30.790  31.174  1.00  0.00    -0.248 NA
ATOM     43  C   UNL A   1      37.680  31.181  29.370  1.00  0.00     0.031 C 
ATOM     44  C   UNL A   1      37.224  34.204  33.367  1.00  0.00     0.029 A 
ATOM     45  N   UNL A   1      38.829  32.649  33.430  1.00  0.00    -0.354 N 
ATOM     46  C   UNL A   1      39.335  29.835  30.193  1.00  0.00     0.074 A 
ATOM     47  C   UNL A   1      38.379  30.080  29.135  1.00  0.00     0.031 C 
ATOM     48  C   UNL A   1      37.860  34.328  34.542  1.00  0.00     0.029 A 
ATOM     49  C   UNL A   1      38.902  33.309  34.632  1.00  0.00     0.049 A 
ATOM     50  H   UNL A   1      39.428  31.906  33.186  1.00  0.00     0.167 HD
ATOM     51  C   UNL A   1      40.272  28.858  30.164  1.00  0.00     0.037 A 
ATOM     52  C   UNL A   1      39.710  33.111  35.692  1.00  0.00     0.037 A 
ATOM     53  C   UNL A   1      41.241  28.633  31.202  1.00  0.00     0.049 A 
ATOM     54  C   UNL A   1      40.741  32.015  35.634  1.00  0.00     0.074 A 
ATOM     55  C   UNL A   1      42.273  27.711  31.237  1.00  0.00     0.029 A 
ATOM     56  N   UNL A   1      41.298  29.340  32.395  1.00  0.00    -0.354 N 
ATOM     57  N   UNL A   1      40.992  31.164  34.670  1.00  0.00    -0.248 NA
ATOM     58  C   UNL A   1      41.603  31.856  36.814  1.00  0.00     0.031 C 
ATOM     59  C   UNL A   1      42.923  27.826  32.469  1.00  0.00     0.029 A 
ATOM     60  C   UNL A   1      42.332  28.858  33.182  1.00  0.00     0.049 A 
ATOM     61  H   UNL A   1      40.692  30.075  32.646  1.00  0.00     0.167 HD
ATOM     62  C   UNL A   1      42.059  30.392  35.110  1.00  0.00     0.074 A 
ATOM     63  C   UNL A   1      42.416  30.885  36.424  1.00  0.00     0.031 C 
ATOM     64  C   UNL A   1      42.684  29.366  34.483  1.00  0.00     0.037 A 
BRANCH  51  65
ATOM     65  C   UNL A   1      40.299  27.959  28.960  1.00  0.00     0.064 A 
ATOM     66  C   UNL A   1      41.044  28.282  27.816  1.00  0.00     0.173 A 
ATOM     67  C   UNL A   1      39.600  26.741  28.964  1.00  0.00     0.173 A 
ATOM     68  F   UNL A   1      41.720  29.439  27.754  1.00  0.00    -0.203 F 
ATOM     69  C   UNL A   1      41.061  27.437  26.709  1.00  0.00     0.198 A 
ATOM     70  C   UNL A   1      39.647  25.883  27.868  1.00  0.00     0.198 A 
ATOM     71  F   UNL A   1      38.878  26.379  30.034  1.00  0.00    -0.203 F 
ATOM     72  F   UNL A   1      41.735  27.795  25.607  1.00  0.00    -0.200 F 
ATOM     73  C   UNL A   1      40.370  26.236  26.738  1.00  0.00     0.200 A 
ATOM     74  F   UNL A   1      38.990  24.716  27.904  1.00  0.00    -0.200 F 
ATOM     75  F   UNL A   1      40.394  25.421  25.675  1.00  0.00    -0.200 F 
ENDBRANCH  51  65
BRANCH  52  76
ATOM     76  C   UNL A   1      39.596  33.984  36.889  1.00  0.00     0.064 A 
ATOM     77  C   UNL A   1      38.828  33.591  37.995  1.00  0.00     0.173 A 
ATOM     78  C   UNL A   1      40.240  35.229  36.953  1.00  0.00     0.173 A 
ATOM     79  F   UNL A   1      38.176  32.419  37.973  1.00  0.00    -0.203 F 
ATOM     80  C   UNL A   1      38.690  34.418  39.107  1.00  0.00     0.198 A 
ATOM     81  C   UNL A   1      40.125  36.042  38.079  1.00  0.00     0.198 A 
ATOM     82  F   UNL A   1      40.991  35.650  35.925  1.00  0.00    -0.203 F 
ATOM     83  F   UNL A   1      37.910  34.038  40.129  1.00  0.00    -0.200 F 
ATOM     84  C   UNL A   1      39.343  35.640  39.151  1.00  0.00     0.200 A 
ATOM     85  F   UNL A   1      40.770  37.216  38.124  1.00  0.00    -0.200 F 
ATOM     86  F   UNL A   1      39.212  36.434  40.223  1.00  0.00    -0.200 F 
ENDBRANCH  52  76
BRANCH  64  87
ATOM     87  C   UNL A   1      43.848  28.732  35.189  1.00  0.00     0.064 A 
ATOM     88  C   UNL A   1      43.681  27.651  36.066  1.00  0.00     0.173 A 
ATOM     89  C   UNL A   1      45.155  29.189  34.952  1.00  0.00     0.173 A 
ATOM     90  F   UNL A   1      42.452  27.187  36.337  1.00  0.00    -0.203 F 
ATOM     91  C   UNL A   1      44.775  27.065  36.698  1.00  0.00     0.198 A 
ATOM     92  C   UNL A   1      46.248  28.582  35.561  1.00  0.00     0.198 A 
ATOM     93  F   UNL A   1      45.370  30.217  34.117  1.00  0.00    -0.203 F 
ATOM     94  F   UNL A   1      44.586  26.064  37.568  1.00  0.00    -0.200 F 
ATOM     95  C   UNL A   1      46.058  27.526  36.439  1.00  0.00     0.200 A 
ATOM     96  F   UNL A   1      47.488  29.018  35.297  1.00  0.00    -0.200 F 
ATOM     97  F   UNL A   1      47.109  26.955  37.041  1.00  0.00    -0.200 F 
ENDBRANCH  64  87
ENDBRANCH  38  39
ENDBRANCH  30  33
ENDBRANCH  28  29
ENDBRANCH  27  28
ENDBRANCH   1  27
TORSDOF 14
ENDMDL
