MODEL 1
REMARK VINA RESULT:     -12.1      0.000      0.000
REMARK SMILES C[C@H](NC(=O)[C@@H](C)Oc1ccc(Cl)cc1Br)C(=O)NCCCCNC(=O)c1ccc(-c2c3nc(c(-c4c(F)c(F)c(F)c(F)c4F)c4ccc([nH]4)c(-c4c(F)c(F)c(F)c(F)c4F)c4nc(c(-c5c(F)c(F)c(F)c(F)c5F)c5ccc2[nH]5)C=C4)C=C3)cc1
REMARK SMILES IDX 20 1 19 2 17 3 18 4 2 6 1 7 3 8 4 9 5 11 6 12 7 13 8 14 9 15
REMARK SMILES IDX 10 16 15 17 11 18 14 19 16 20 12 21 13 22 21 23 22 24 23 25
REMARK SMILES IDX 24 26 25 27 26 29 27 30 28 31 89 32 29 33 88 34 30 35 31 36
REMARK SMILES IDX 32 37 82 38 33 39 87 40 81 41 83 42 34 43 86 44 80 45 79 46
REMARK SMILES IDX 35 48 67 49 47 50 66 51 48 52 51 53 65 54 84 55 49 56 50 57
REMARK SMILES IDX 64 59 85 60 52 61 36 62 37 63 45 64 38 65 39 66 43 67 46 68
REMARK SMILES IDX 40 69 41 70 44 71 42 72 68 73 69 74 77 75 70 76 71 77 75 78
REMARK SMILES IDX 78 79 72 80 73 81 76 82 74 83 53 84 54 85 62 86 55 87 56 88
REMARK SMILES IDX 60 89 63 90 57 91 58 92 61 93 59 94
REMARK H PARENT 19 5 3 10 24 28 83 47 51 58
REMARK Flexibility Score: inf
ROOT
ATOM      1  C   UNL A   1      31.705  29.736  25.379  1.00  0.00     0.116 C 
ENDROOT
BRANCH   1   2
ATOM      2  N   UNL A   1      32.825  29.740  24.456  1.00  0.00    -0.354 N 
ATOM      3  C   UNL A   1      33.464  28.693  23.860  1.00  0.00     0.242 C 
ATOM      4  O   UNL A   1      34.322  28.943  23.012  1.00  0.00    -0.273 OA
ATOM      5  H   UNL A   1      33.173  30.631  24.224  1.00  0.00     0.163 HD
BRANCH   3   6
ATOM      6  C   UNL A   1      33.046  27.247  24.182  1.00  0.00     0.168 C 
ATOM      7  C   UNL A   1      33.779  26.778  25.428  1.00  0.00     0.041 C 
BRANCH   6   8
ATOM      8  N   UNL A   1      33.221  26.433  22.975  1.00  0.00    -0.341 N 
ATOM      9  C   UNL A   1      32.881  25.185  22.583  1.00  0.00     0.261 C 
ATOM     10  H   UNL A   1      33.710  26.918  22.272  1.00  0.00     0.164 HD
ATOM     11  O   UNL A   1      33.082  24.944  21.384  1.00  0.00    -0.271 OA
BRANCH   9  12
ATOM     12  C   UNL A   1      32.321  24.064  23.504  1.00  0.00     0.258 C 
ATOM     13  C   UNL A   1      30.819  23.878  23.281  1.00  0.00     0.064 C 
BRANCH  12  14
ATOM     14  O   UNL A   1      32.906  22.799  23.779  1.00  0.00    -0.480 OA
BRANCH  14  15
ATOM     15  C   UNL A   1      34.188  22.785  24.234  1.00  0.00     0.134 A 
ATOM     16  C   UNL A   1      35.271  22.834  23.352  1.00  0.00     0.049 A 
ATOM     17  C   UNL A   1      34.419  22.783  25.618  1.00  0.00     0.061 A 
ATOM     18  C   UNL A   1      36.575  22.746  23.849  1.00  0.00     0.024 A 
ATOM     19  C   UNL A   1      35.719  22.701  26.115  1.00  0.00     0.040 A 
ATOM     20  Br  UNL A   1      32.985  22.839  26.862  1.00  0.00    -0.047 Br
ATOM     21  C   UNL A   1      36.790  22.660  25.225  1.00  0.00     0.042 A 
ATOM     22  Cl  UNL A   1      38.391  22.486  25.829  1.00  0.00    -0.084 Cl
ENDBRANCH  14  15
ENDBRANCH  12  14
ENDBRANCH   9  12
ENDBRANCH   6   8
ENDBRANCH   3   6
ENDBRANCH   1   2
BRANCH   1  23
ATOM     23  C   UNL A   1      32.086  30.367  26.713  1.00  0.00     0.023 C 
BRANCH  23  24
ATOM     24  C   UNL A   1      31.753  31.856  26.822  1.00  0.00     0.023 C 
BRANCH  24  25
ATOM     25  C   UNL A   1      32.884  32.724  27.356  1.00  0.00     0.116 C 
BRANCH  25  26
ATOM     26  N   UNL A   1      32.470  34.089  27.642  1.00  0.00    -0.352 N 
ATOM     27  C   UNL A   1      32.991  34.952  28.575  1.00  0.00     0.251 C 
ATOM     28  H   UNL A   1      31.725  34.436  27.100  1.00  0.00     0.163 HD
ATOM     29  O   UNL A   1      32.493  36.048  28.773  1.00  0.00    -0.269 OA
BRANCH  27  30
ATOM     30  C   UNL A   1      34.147  34.496  29.367  1.00  0.00     0.039 A 
ATOM     31  C   UNL A   1      33.914  33.873  30.593  1.00  0.00     0.014 A 
ATOM     32  C   UNL A   1      35.440  34.606  28.847  1.00  0.00     0.014 A 
ATOM     33  C   UNL A   1      34.983  33.302  31.280  1.00  0.00     0.010 A 
ATOM     34  C   UNL A   1      36.491  33.974  29.499  1.00  0.00     0.010 A 
ATOM     35  C   UNL A   1      36.271  33.319  30.721  1.00  0.00    -0.014 A 
BRANCH  35  36
ATOM     36  C   UNL A   1      37.409  32.666  31.410  1.00  0.00     0.031 A 
ATOM     37  C   UNL A   1      38.111  31.513  30.756  1.00  0.00     0.074 A 
ATOM     38  C   UNL A   1      37.764  33.075  32.643  1.00  0.00     0.049 A 
ATOM     39  N   UNL A   1      39.084  30.768  31.216  1.00  0.00    -0.248 NA
ATOM     40  C   UNL A   1      37.635  31.122  29.420  1.00  0.00     0.031 C 
ATOM     41  C   UNL A   1      37.118  34.150  33.399  1.00  0.00     0.029 A 
ATOM     42  N   UNL A   1      38.752  32.625  33.482  1.00  0.00    -0.354 N 
ATOM     43  C   UNL A   1      39.326  29.819  30.232  1.00  0.00     0.074 A 
ATOM     44  C   UNL A   1      38.360  30.041  29.179  1.00  0.00     0.031 C 
ATOM     45  C   UNL A   1      37.739  34.290  34.580  1.00  0.00     0.029 A 
ATOM     46  C   UNL A   1      38.805  33.297  34.680  1.00  0.00     0.049 A 
ATOM     47  H   UNL A   1      39.365  31.891  33.249  1.00  0.00     0.167 HD
ATOM     48  C   UNL A   1      40.285  28.865  30.200  1.00  0.00     0.037 A 
ATOM     49  C   UNL A   1      39.620  33.125  35.736  1.00  0.00     0.037 A 
ATOM     50  C   UNL A   1      41.259  28.668  31.239  1.00  0.00     0.049 A 
ATOM     51  C   UNL A   1      40.685  32.063  35.671  1.00  0.00     0.074 A 
ATOM     52  C   UNL A   1      42.310  27.768  31.280  1.00  0.00     0.029 A 
ATOM     53  N   UNL A   1      41.302  29.387  32.425  1.00  0.00    -0.354 N 
ATOM     54  N   UNL A   1      40.951  31.216  34.707  1.00  0.00    -0.248 NA
ATOM     55  C   UNL A   1      41.570  31.941  36.838  1.00  0.00     0.031 C 
ATOM     56  C   UNL A   1      42.963  27.915  32.507  1.00  0.00     0.029 A 
ATOM     57  C   UNL A   1      42.350  28.939  33.212  1.00  0.00     0.049 A 
ATOM     58  H   UNL A   1      40.678  30.107  32.671  1.00  0.00     0.167 HD
ATOM     59  C   UNL A   1      42.046  30.479  35.135  1.00  0.00     0.074 A 
ATOM     60  C   UNL A   1      42.405  30.990  36.443  1.00  0.00     0.031 C 
ATOM     61  C   UNL A   1      42.695  29.469  34.506  1.00  0.00     0.037 A 
BRANCH  48  62
ATOM     62  C   UNL A   1      40.329  27.971  28.996  1.00  0.00     0.064 A 
ATOM     63  C   UNL A   1      41.087  28.304  27.862  1.00  0.00     0.173 A 
ATOM     64  C   UNL A   1      39.628  26.757  28.983  1.00  0.00     0.173 A 
ATOM     65  F   UNL A   1      41.764  29.461  27.819  1.00  0.00    -0.203 F 
ATOM     66  C   UNL A   1      41.114  27.470  26.747  1.00  0.00     0.198 A 
ATOM     67  C   UNL A   1      39.682  25.911  27.878  1.00  0.00     0.198 A 
ATOM     68  F   UNL A   1      38.891  26.390  30.041  1.00  0.00    -0.203 F 
ATOM     69  F   UNL A   1      41.801  27.835  25.656  1.00  0.00    -0.200 F 
ATOM     70  C   UNL A   1      40.417  26.271  26.759  1.00  0.00     0.200 A 
ATOM     71  F   UNL A   1      39.017  24.747  27.894  1.00  0.00    -0.200 F 
ATOM     72  F   UNL A   1      40.448  25.467  25.688  1.00  0.00    -0.200 F 
ENDBRANCH  48  62
BRANCH  49  73
ATOM     73  C   UNL A   1      39.482  33.997  36.932  1.00  0.00     0.064 A 
ATOM     74  C   UNL A   1      40.107  35.250  36.984  1.00  0.00     0.173 A 
ATOM     75  C   UNL A   1      38.727  33.596  38.044  1.00  0.00     0.173 A 
ATOM     76  F   UNL A   1      40.854  35.669  35.952  1.00  0.00    -0.203 F 
ATOM     77  C   UNL A   1      39.998  36.062  38.111  1.00  0.00     0.198 A 
ATOM     78  C   UNL A   1      38.597  34.420  39.160  1.00  0.00     0.198 A 
ATOM     79  F   UNL A   1      38.105  32.408  38.041  1.00  0.00    -0.203 F 
ATOM     80  F   UNL A   1      40.641  37.237  38.152  1.00  0.00    -0.200 F 
ATOM     81  C   UNL A   1      39.240  35.649  39.196  1.00  0.00     0.200 A 
ATOM     82  F   UNL A   1      37.853  34.024  40.200  1.00  0.00    -0.200 F 
ATOM     83  F   UNL A   1      39.133  36.432  40.278  1.00  0.00    -0.200 F 
ENDBRANCH  49  73
BRANCH  61  84
ATOM     84  C   UNL A   1      43.879  28.872  35.207  1.00  0.00     0.064 A 
ATOM     85  C   UNL A   1      45.177  29.364  35.007  1.00  0.00     0.173 A 
ATOM     86  C   UNL A   1      43.706  27.823  36.124  1.00  0.00     0.173 A 
ATOM     87  F   UNL A   1      45.394  30.356  34.128  1.00  0.00    -0.203 F 
ATOM     88  C   UNL A   1      46.262  28.813  35.681  1.00  0.00     0.198 A 
ATOM     89  C   UNL A   1      44.790  27.295  36.819  1.00  0.00     0.198 A 
ATOM     90  F   UNL A   1      42.484  27.322  36.356  1.00  0.00    -0.203 F 
ATOM     91  F   UNL A   1      47.499  29.269  35.441  1.00  0.00    -0.200 F 
ATOM     92  C   UNL A   1      46.067  27.785  36.592  1.00  0.00     0.200 A 
ATOM     93  F   UNL A   1      44.598  26.311  37.708  1.00  0.00    -0.200 F 
ATOM     94  F   UNL A   1      47.112  27.261  37.247  1.00  0.00    -0.200 F 
ENDBRANCH  61  84
ENDBRANCH  35  36
ENDBRANCH  27  30
ENDBRANCH  25  26
ENDBRANCH  24  25
ENDBRANCH  23  24
ENDBRANCH   1  23
TORSDOF 15
ENDMDL
MODEL 2
REMARK VINA RESULT:     -11.9      5.875     11.288
REMARK SMILES C[C@H](NC(=O)[C@@H](C)Oc1ccc(Cl)cc1Br)C(=O)NCCCCNC(=O)c1ccc(-c2c3nc(c(-c4c(F)c(F)c(F)c(F)c4F)c4ccc([nH]4)c(-c4c(F)c(F)c(F)c(F)c4F)c4nc(c(-c5c(F)c(F)c(F)c(F)c5F)c5ccc2[nH]5)C=C4)C=C3)cc1
REMARK SMILES IDX 20 1 19 2 17 3 18 4 2 6 1 7 3 8 4 9 5 11 6 12 7 13 8 14 9 15
REMARK SMILES IDX 10 16 15 17 11 18 14 19 16 20 12 21 13 22 21 23 22 24 23 25
REMARK SMILES IDX 24 26 25 27 26 29 27 30 28 31 89 32 29 33 88 34 30 35 31 36
REMARK SMILES IDX 32 37 82 38 33 39 87 40 81 41 83 42 34 43 86 44 80 45 79 46
REMARK SMILES IDX 35 48 67 49 47 50 66 51 48 52 51 53 65 54 84 55 49 56 50 57
REMARK SMILES IDX 64 59 85 60 52 61 36 62 37 63 45 64 38 65 39 66 43 67 46 68
REMARK SMILES IDX 40 69 41 70 44 71 42 72 68 73 69 74 77 75 70 76 71 77 75 78
REMARK SMILES IDX 78 79 72 80 73 81 76 82 74 83 53 84 54 85 62 86 55 87 56 88
REMARK SMILES IDX 60 89 63 90 57 91 58 92 61 93 59 94
REMARK H PARENT 19 5 3 10 24 28 83 47 51 58
REMARK Flexibility Score: inf
ROOT
ATOM      1  C   UNL A   1      36.121  21.561  25.509  1.00  0.00     0.116 C 
ENDROOT
BRANCH   1   2
ATOM      2  N   UNL A   1      35.117  20.526  25.350  1.00  0.00    -0.354 N 
ATOM      3  C   UNL A   1      33.800  20.636  25.012  1.00  0.00     0.242 C 
ATOM      4  O   UNL A   1      33.161  19.600  24.819  1.00  0.00    -0.273 OA
ATOM      5  H   UNL A   1      35.433  19.607  25.509  1.00  0.00     0.163 HD
BRANCH   3   6
ATOM      6  C   UNL A   1      33.173  22.024  24.789  1.00  0.00     0.168 C 
ATOM      7  C   UNL A   1      31.771  22.041  25.374  1.00  0.00     0.041 C 
BRANCH   6   8
ATOM      8  N   UNL A   1      33.293  22.365  23.367  1.00  0.00    -0.341 N 
ATOM      9  C   UNL A   1      33.392  23.501  22.642  1.00  0.00     0.261 C 
ATOM     10  H   UNL A   1      33.303  21.563  22.796  1.00  0.00     0.164 HD
ATOM     11  O   UNL A   1      33.650  23.331  21.442  1.00  0.00    -0.271 OA
BRANCH   9  12
ATOM     12  C   UNL A   1      33.169  24.943  23.178  1.00  0.00     0.258 C 
ATOM     13  C   UNL A   1      33.218  25.961  22.037  1.00  0.00     0.064 C 
BRANCH  12  14
ATOM     14  O   UNL A   1      32.211  25.371  24.136  1.00  0.00    -0.480 OA
BRANCH  14  15
ATOM     15  C   UNL A   1      32.474  26.516  24.820  1.00  0.00     0.134 A 
ATOM     16  C   UNL A   1      33.641  26.655  25.578  1.00  0.00     0.049 A 
ATOM     17  C   UNL A   1      31.585  27.595  24.712  1.00  0.00     0.061 A 
ATOM     18  C   UNL A   1      33.848  27.818  26.327  1.00  0.00     0.024 A 
ATOM     19  C   UNL A   1      31.792  28.757  25.454  1.00  0.00     0.040 A 
ATOM     20  Br  UNL A   1      30.047  27.503  23.601  1.00  0.00    -0.047 Br
ATOM     21  C   UNL A   1      32.913  28.852  26.276  1.00  0.00     0.042 A 
ATOM     22  Cl  UNL A   1      33.136  30.253  27.250  1.00  0.00    -0.084 Cl
ENDBRANCH  14  15
ENDBRANCH  12  14
ENDBRANCH   9  12
ENDBRANCH   6   8
ENDBRANCH   3   6
ENDBRANCH   1   2
BRANCH   1  23
ATOM     23  C   UNL A   1      37.337  21.291  24.629  1.00  0.00     0.023 C 
BRANCH  23  24
ATOM     24  C   UNL A   1      38.119  20.032  25.007  1.00  0.00     0.023 C 
BRANCH  24  25
ATOM     25  C   UNL A   1      39.351  20.282  25.864  1.00  0.00     0.116 C 
BRANCH  25  26
ATOM     26  N   UNL A   1      40.255  19.142  25.913  1.00  0.00    -0.352 N 
ATOM     27  C   UNL A   1      41.612  19.148  26.124  1.00  0.00     0.251 C 
ATOM     28  H   UNL A   1      39.841  18.259  25.778  1.00  0.00     0.163 HD
ATOM     29  O   UNL A   1      42.269  18.122  26.056  1.00  0.00    -0.269 OA
BRANCH  27  30
ATOM     30  C   UNL A   1      42.263  20.443  26.392  1.00  0.00     0.039 A 
ATOM     31  C   UNL A   1      42.744  21.185  25.314  1.00  0.00     0.014 A 
ATOM     32  C   UNL A   1      42.307  20.949  27.694  1.00  0.00     0.014 A 
ATOM     33  C   UNL A   1      43.222  22.474  25.535  1.00  0.00     0.010 A 
ATOM     34  C   UNL A   1      42.718  22.259  27.901  1.00  0.00     0.010 A 
ATOM     35  C   UNL A   1      43.181  23.031  26.824  1.00  0.00    -0.014 A 
BRANCH  35  36
ATOM     36  C   UNL A   1      43.632  24.421  27.068  1.00  0.00     0.031 A 
ATOM     37  C   UNL A   1      42.652  25.445  27.561  1.00  0.00     0.074 A 
ATOM     38  C   UNL A   1      44.903  24.768  26.787  1.00  0.00     0.049 A 
ATOM     39  N   UNL A   1      42.830  26.724  27.778  1.00  0.00    -0.248 NA
ATOM     40  C   UNL A   1      41.281  24.977  27.814  1.00  0.00     0.031 C 
ATOM     41  C   UNL A   1      45.928  23.870  26.252  1.00  0.00     0.029 A 
ATOM     42  N   UNL A   1      45.545  25.975  26.905  1.00  0.00    -0.354 N 
ATOM     43  C   UNL A   1      41.594  27.210  28.180  1.00  0.00     0.074 A 
ATOM     44  C   UNL A   1      40.661  26.107  28.119  1.00  0.00     0.031 C 
ATOM     45  C   UNL A   1      47.075  24.552  26.106  1.00  0.00     0.029 A 
ATOM     46  C   UNL A   1      46.860  25.939  26.508  1.00  0.00     0.049 A 
ATOM     47  H   UNL A   1      45.106  26.788  27.241  1.00  0.00     0.167 HD
ATOM     48  C   UNL A   1      41.273  28.460  28.588  1.00  0.00     0.037 A 
ATOM     49  C   UNL A   1      47.783  26.918  26.471  1.00  0.00     0.037 A 
ATOM     50  C   UNL A   1      42.212  29.545  28.671  1.00  0.00     0.049 A 
ATOM     51  C   UNL A   1      47.403  28.296  26.939  1.00  0.00     0.074 A 
ATOM     52  C   UNL A   1      42.004  30.836  29.126  1.00  0.00     0.029 A 
ATOM     53  N   UNL A   1      43.544  29.465  28.289  1.00  0.00    -0.354 N 
ATOM     54  N   UNL A   1      46.249  28.730  27.384  1.00  0.00    -0.248 NA
ATOM     55  C   UNL A   1      48.457  29.320  26.910  1.00  0.00     0.031 C 
ATOM     56  C   UNL A   1      43.199  31.547  28.983  1.00  0.00     0.029 A 
ATOM     57  C   UNL A   1      44.166  30.688  28.483  1.00  0.00     0.049 A 
ATOM     58  H   UNL A   1      43.981  28.658  27.933  1.00  0.00     0.167 HD
ATOM     59  C   UNL A   1      46.442  30.065  27.712  1.00  0.00     0.074 A 
ATOM     60  C   UNL A   1      47.831  30.367  27.429  1.00  0.00     0.031 C 
ATOM     61  C   UNL A   1      45.551  30.962  28.202  1.00  0.00     0.037 A 
BRANCH  48  62
ATOM     62  C   UNL A   1      39.848  28.712  28.985  1.00  0.00     0.064 A 
ATOM     63  C   UNL A   1      39.414  28.544  30.308  1.00  0.00     0.173 A 
ATOM     64  C   UNL A   1      38.911  29.149  28.037  1.00  0.00     0.173 A 
ATOM     65  F   UNL A   1      40.268  28.113  31.249  1.00  0.00    -0.203 F 
ATOM     66  C   UNL A   1      38.087  28.773  30.663  1.00  0.00     0.198 A 
ATOM     67  C   UNL A   1      37.592  29.407  28.402  1.00  0.00     0.198 A 
ATOM     68  F   UNL A   1      39.274  29.328  26.759  1.00  0.00    -0.203 F 
ATOM     69  F   UNL A   1      37.684  28.554  31.922  1.00  0.00    -0.200 F 
ATOM     70  C   UNL A   1      37.179  29.212  29.711  1.00  0.00     0.200 A 
ATOM     71  F   UNL A   1      36.717  29.841  27.483  1.00  0.00    -0.200 F 
ATOM     72  F   UNL A   1      35.904  29.437  30.055  1.00  0.00    -0.200 F 
ENDBRANCH  48  62
BRANCH  49  73
ATOM     73  C   UNL A   1      49.161  26.623  26.000  1.00  0.00     0.064 A 
ATOM     74  C   UNL A   1      49.548  26.909  24.684  1.00  0.00     0.173 A 
ATOM     75  C   UNL A   1      50.117  26.052  26.852  1.00  0.00     0.173 A 
ATOM     76  F   UNL A   1      48.663  27.440  23.827  1.00  0.00    -0.203 F 
ATOM     77  C   UNL A   1      50.832  26.616  24.231  1.00  0.00     0.198 A 
ATOM     78  C   UNL A   1      51.410  25.783  26.406  1.00  0.00     0.198 A 
ATOM     79  F   UNL A   1      49.799  25.765  28.123  1.00  0.00    -0.203 F 
ATOM     80  F   UNL A   1      51.162  26.859  22.955  1.00  0.00    -0.200 F 
ATOM     81  C   UNL A   1      51.763  26.057  25.093  1.00  0.00     0.200 A 
ATOM     82  F   UNL A   1      52.311  25.257  27.246  1.00  0.00    -0.200 F 
ATOM     83  F   UNL A   1      53.000  25.778  24.658  1.00  0.00    -0.200 F 
ENDBRANCH  49  73
BRANCH  61  84
ATOM     84  C   UNL A   1      46.058  32.343  28.493  1.00  0.00     0.064 A 
ATOM     85  C   UNL A   1      46.640  32.668  29.728  1.00  0.00     0.173 A 
ATOM     86  C   UNL A   1      45.999  33.342  27.510  1.00  0.00     0.173 A 
ATOM     87  F   UNL A   1      46.705  31.750  30.705  1.00  0.00    -0.203 F 
ATOM     88  C   UNL A   1      47.124  33.949  29.974  1.00  0.00     0.198 A 
ATOM     89  C   UNL A   1      46.512  34.614  27.750  1.00  0.00     0.198 A 
ATOM     90  F   UNL A   1      45.458  33.081  26.311  1.00  0.00    -0.203 F 
ATOM     91  F   UNL A   1      47.636  34.249  31.176  1.00  0.00    -0.200 F 
ATOM     92  C   UNL A   1      47.068  34.917  28.984  1.00  0.00     0.200 A 
ATOM     93  F   UNL A   1      46.468  35.545  26.787  1.00  0.00    -0.200 F 
ATOM     94  F   UNL A   1      47.542  36.148  29.220  1.00  0.00    -0.200 F 
ENDBRANCH  61  84
ENDBRANCH  35  36
ENDBRANCH  27  30
ENDBRANCH  25  26
ENDBRANCH  24  25
ENDBRANCH  23  24
ENDBRANCH   1  23
TORSDOF 15
ENDMDL
MODEL 3
REMARK VINA RESULT:     -11.9      1.371      7.581
REMARK SMILES C[C@H](NC(=O)[C@@H](C)Oc1ccc(Cl)cc1Br)C(=O)NCCCCNC(=O)c1ccc(-c2c3nc(c(-c4c(F)c(F)c(F)c(F)c4F)c4ccc([nH]4)c(-c4c(F)c(F)c(F)c(F)c4F)c4nc(c(-c5c(F)c(F)c(F)c(F)c5F)c5ccc2[nH]5)C=C4)C=C3)cc1
REMARK SMILES IDX 20 1 19 2 17 3 18 4 2 6 1 7 3 8 4 9 5 11 6 12 7 13 8 14 9 15
REMARK SMILES IDX 10 16 15 17 11 18 14 19 16 20 12 21 13 22 21 23 22 24 23 25
REMARK SMILES IDX 24 26 25 27 26 29 27 30 28 31 89 32 29 33 88 34 30 35 31 36
REMARK SMILES IDX 32 37 82 38 33 39 87 40 81 41 83 42 34 43 86 44 80 45 79 46
REMARK SMILES IDX 35 48 67 49 47 50 66 51 48 52 51 53 65 54 84 55 49 56 50 57
REMARK SMILES IDX 64 59 85 60 52 61 36 62 37 63 45 64 38 65 39 66 43 67 46 68
REMARK SMILES IDX 40 69 41 70 44 71 42 72 68 73 69 74 77 75 70 76 71 77 75 78
REMARK SMILES IDX 78 79 72 80 73 81 76 82 74 83 53 84 54 85 62 86 55 87 56 88
REMARK SMILES IDX 60 89 63 90 57 91 58 92 61 93 59 94
REMARK H PARENT 19 5 3 10 24 28 83 47 51 58
REMARK Flexibility Score: inf
ROOT
ATOM      1  C   UNL A   1      31.888  29.762  25.253  1.00  0.00     0.116 C 
ENDROOT
BRANCH   1   2
ATOM      2  N   UNL A   1      30.788  30.183  24.406  1.00  0.00    -0.354 N 
ATOM      3  C   UNL A   1      30.196  29.535  23.363  1.00  0.00     0.242 C 
ATOM      4  O   UNL A   1      29.190  30.040  22.861  1.00  0.00    -0.273 OA
ATOM      5  H   UNL A   1      30.412  31.069  24.617  1.00  0.00     0.163 HD
BRANCH   3   6
ATOM      6  C   UNL A   1      30.726  28.165  22.902  1.00  0.00     0.168 C 
ATOM      7  C   UNL A   1      30.364  27.113  23.938  1.00  0.00     0.041 C 
BRANCH   6   8
ATOM      8  N   UNL A   1      32.150  28.303  22.579  1.00  0.00    -0.341 N 
ATOM      9  C   UNL A   1      33.124  27.496  22.105  1.00  0.00     0.261 C 
ATOM     10  H   UNL A   1      32.480  29.214  22.754  1.00  0.00     0.164 HD
ATOM     11  O   UNL A   1      34.181  28.073  21.813  1.00  0.00    -0.271 OA
BRANCH   9  12
ATOM     12  C   UNL A   1      33.030  25.952  21.949  1.00  0.00     0.258 C 
ATOM     13  C   UNL A   1      32.470  25.578  20.575  1.00  0.00     0.064 C 
BRANCH  12  14
ATOM     14  O   UNL A   1      33.996  24.984  22.331  1.00  0.00    -0.480 OA
BRANCH  14  15
ATOM     15  C   UNL A   1      33.926  24.491  23.597  1.00  0.00     0.134 A 
ATOM     16  C   UNL A   1      34.398  25.225  24.688  1.00  0.00     0.049 A 
ATOM     17  C   UNL A   1      33.311  23.248  23.810  1.00  0.00     0.061 A 
ATOM     18  C   UNL A   1      34.375  24.660  25.967  1.00  0.00     0.024 A 
ATOM     19  C   UNL A   1      33.283  22.685  25.085  1.00  0.00     0.040 A 
ATOM     20  Br  UNL A   1      32.544  22.264  22.378  1.00  0.00    -0.047 Br
ATOM     21  C   UNL A   1      33.836  23.387  26.155  1.00  0.00     0.042 A 
ATOM     22  Cl  UNL A   1      33.870  22.667  27.717  1.00  0.00    -0.084 Cl
ENDBRANCH  14  15
ENDBRANCH  12  14
ENDBRANCH   9  12
ENDBRANCH   6   8
ENDBRANCH   3   6
ENDBRANCH   1   2
BRANCH   1  23
ATOM     23  C   UNL A   1      31.779  30.371  26.647  1.00  0.00     0.023 C 
BRANCH  23  24
ATOM     24  C   UNL A   1      31.597  31.889  26.656  1.00  0.00     0.023 C 
BRANCH  24  25
ATOM     25  C   UNL A   1      32.768  32.667  27.241  1.00  0.00     0.116 C 
BRANCH  25  26
ATOM     26  N   UNL A   1      32.422  34.033  27.604  1.00  0.00    -0.352 N 
ATOM     27  C   UNL A   1      33.011  34.829  28.556  1.00  0.00     0.251 C 
ATOM     28  H   UNL A   1      31.674  34.435  27.106  1.00  0.00     0.163 HD
ATOM     29  O   UNL A   1      32.568  35.934  28.822  1.00  0.00    -0.269 OA
BRANCH  27  30
ATOM     30  C   UNL A   1      34.175  34.289  29.283  1.00  0.00     0.039 A 
ATOM     31  C   UNL A   1      33.950  33.476  30.394  1.00  0.00     0.014 A 
ATOM     32  C   UNL A   1      35.468  34.517  28.804  1.00  0.00     0.014 A 
ATOM     33  C   UNL A   1      35.030  32.836  30.998  1.00  0.00     0.010 A 
ATOM     34  C   UNL A   1      36.532  33.823  29.364  1.00  0.00     0.010 A 
ATOM     35  C   UNL A   1      36.322  32.979  30.466  1.00  0.00    -0.014 A 
BRANCH  35  36
ATOM     36  C   UNL A   1      37.474  32.261  31.060  1.00  0.00     0.031 A 
ATOM     37  C   UNL A   1      37.958  32.636  32.430  1.00  0.00     0.074 A 
ATOM     38  C   UNL A   1      38.114  31.318  30.342  1.00  0.00     0.049 A 
ATOM     39  N   UNL A   1      38.983  32.175  33.101  1.00  0.00    -0.248 NA
ATOM     40  C   UNL A   1      37.210  33.695  33.127  1.00  0.00     0.031 C 
ATOM     41  C   UNL A   1      37.766  30.910  28.979  1.00  0.00     0.029 A 
ATOM     42  N   UNL A   1      39.200  30.541  30.656  1.00  0.00    -0.354 N 
ATOM     43  C   UNL A   1      39.006  32.893  34.288  1.00  0.00     0.074 A 
ATOM     44  C   UNL A   1      37.935  33.862  34.223  1.00  0.00     0.031 C 
ATOM     45  C   UNL A   1      38.609  29.943  28.583  1.00  0.00     0.029 A 
ATOM     46  C   UNL A   1      39.574  29.686  29.648  1.00  0.00     0.049 A 
ATOM     47  H   UNL A   1      39.666  30.591  31.520  1.00  0.00     0.167 HD
ATOM     48  C   UNL A   1      39.833  32.739  35.349  1.00  0.00     0.037 A 
ATOM     49  C   UNL A   1      40.583  28.798  29.592  1.00  0.00     0.037 A 
ATOM     50  C   UNL A   1      40.879  31.756  35.418  1.00  0.00     0.049 A 
ATOM     51  C   UNL A   1      41.482  28.640  30.789  1.00  0.00     0.074 A 
ATOM     52  C   UNL A   1      41.736  31.477  36.469  1.00  0.00     0.029 A 
ATOM     53  N   UNL A   1      41.211  30.885  34.390  1.00  0.00    -0.354 N 
ATOM     54  N   UNL A   1      41.454  29.275  31.935  1.00  0.00    -0.248 NA
ATOM     55  C   UNL A   1      42.548  27.633  30.688  1.00  0.00     0.031 C 
ATOM     56  C   UNL A   1      42.611  30.465  36.062  1.00  0.00     0.029 A 
ATOM     57  C   UNL A   1      42.270  30.079  34.775  1.00  0.00     0.049 A 
ATOM     58  H   UNL A   1      40.759  30.846  33.516  1.00  0.00     0.167 HD
ATOM     59  C   UNL A   1      42.475  28.731  32.701  1.00  0.00     0.074 A 
ATOM     60  C   UNL A   1      43.097  27.701  31.893  1.00  0.00     0.031 C 
ATOM     61  C   UNL A   1      42.866  29.055  33.957  1.00  0.00     0.037 A 
BRANCH  48  62
ATOM     62  C   UNL A   1      39.627  33.652  36.522  1.00  0.00     0.064 A 
ATOM     63  C   UNL A   1      38.817  33.282  37.607  1.00  0.00     0.173 A 
ATOM     64  C   UNL A   1      40.266  34.899  36.575  1.00  0.00     0.173 A 
ATOM     65  F   UNL A   1      38.173  32.105  37.598  1.00  0.00    -0.203 F 
ATOM     66  C   UNL A   1      38.627  34.141  38.686  1.00  0.00     0.198 A 
ATOM     67  C   UNL A   1      40.099  35.743  37.671  1.00  0.00     0.198 A 
ATOM     68  F   UNL A   1      41.053  35.301  35.567  1.00  0.00    -0.203 F 
ATOM     69  F   UNL A   1      37.806  33.788  39.685  1.00  0.00    -0.200 F 
ATOM     70  C   UNL A   1      39.274  35.367  38.720  1.00  0.00     0.200 A 
ATOM     71  F   UNL A   1      40.732  36.924  37.709  1.00  0.00    -0.200 F 
ATOM     72  F   UNL A   1      39.095  36.190  39.762  1.00  0.00    -0.200 F 
ENDBRANCH  48  62
BRANCH  49  73
ATOM     73  C   UNL A   1      40.781  27.970  28.374  1.00  0.00     0.064 A 
ATOM     74  C   UNL A   1      40.194  26.703  28.263  1.00  0.00     0.173 A 
ATOM     75  C   UNL A   1      41.557  28.427  27.299  1.00  0.00     0.173 A 
ATOM     76  F   UNL A   1      39.456  26.216  29.272  1.00  0.00    -0.203 F 
ATOM     77  C   UNL A   1      40.392  25.914  27.132  1.00  0.00     0.198 A 
ATOM     78  C   UNL A   1      41.734  27.648  26.157  1.00  0.00     0.198 A 
ATOM     79  F   UNL A   1      42.136  29.635  27.353  1.00  0.00    -0.203 F 
ATOM     80  F   UNL A   1      39.855  24.687  27.071  1.00  0.00    -0.200 F 
ATOM     81  C   UNL A   1      41.159  26.388  26.078  1.00  0.00     0.200 A 
ATOM     82  F   UNL A   1      42.463  28.115  25.136  1.00  0.00    -0.200 F 
ATOM     83  F   UNL A   1      41.347  25.630  24.989  1.00  0.00    -0.200 F 
ENDBRANCH  49  73
BRANCH  61  84
ATOM     84  C   UNL A   1      43.997  28.265  34.549  1.00  0.00     0.064 A 
ATOM     85  C   UNL A   1      45.316  28.740  34.526  1.00  0.00     0.173 A 
ATOM     86  C   UNL A   1      43.748  27.039  35.185  1.00  0.00     0.173 A 
ATOM     87  F   UNL A   1      45.605  29.900  33.915  1.00  0.00    -0.203 F 
ATOM     88  C   UNL A   1      46.350  28.005  35.098  1.00  0.00     0.198 A 
ATOM     89  C   UNL A   1      44.780  26.322  35.782  1.00  0.00     0.198 A 
ATOM     90  F   UNL A   1      42.502  26.546  35.240  1.00  0.00    -0.203 F 
ATOM     91  F   UNL A   1      47.610  28.456  35.026  1.00  0.00    -0.200 F 
ATOM     92  C   UNL A   1      46.080  26.801  35.732  1.00  0.00     0.200 A 
ATOM     93  F   UNL A   1      44.516  25.165  36.406  1.00  0.00    -0.200 F 
ATOM     94  F   UNL A   1      47.075  26.099  36.290  1.00  0.00    -0.200 F 
ENDBRANCH  61  84
ENDBRANCH  35  36
ENDBRANCH  27  30
ENDBRANCH  25  26
ENDBRANCH  24  25
ENDBRANCH  23  24
ENDBRANCH   1  23
TORSDOF 15
ENDMDL
