MODEL 1
REMARK VINA RESULT:     -13.8      0.000      0.000
REMARK SMILES Cc1c(/C=C/C(=O)NCCCCNC(=O)c2ccc(-c3c4nc(c(-c5c(F)c(F)c(F)c(F)c5F)c5ccc([nH]5)c(-c5c(F)c(F)c(F)c(F)c5F)c5nc(c(-c6c(F)c(F)c(F)c(F)c6F)c6ccc3[nH]6)C=C5)C=C4)cc2)cccc1C(=O)N1C[C@@H](C)[C@@H](C)C1
REMARK SMILES IDX 10 1 9 2 8 3 6 4 7 5 5 7 4 8 3 9 1 10 2 11 82 12 79 13 81 14
REMARK SMILES IDX 80 15 83 16 84 17 85 18 86 19 91 20 87 21 89 22 88 23 90 24
REMARK SMILES IDX 11 25 12 26 13 27 14 28 15 30 16 31 17 32 78 33 18 34 77 35
REMARK SMILES IDX 19 36 20 37 21 38 71 39 22 40 76 41 70 42 72 43 23 44 75 45
REMARK SMILES IDX 69 46 68 47 24 49 56 50 36 51 55 52 37 53 40 54 54 55 73 56
REMARK SMILES IDX 38 57 39 58 53 60 74 61 41 62 25 63 26 64 34 65 27 66 28 67
REMARK SMILES IDX 32 68 35 69 29 70 30 71 33 72 31 73 57 74 58 75 66 76 59 77
REMARK SMILES IDX 60 78 64 79 67 80 61 81 62 82 65 83 63 84 42 85 43 86 51 87
REMARK SMILES IDX 44 88 45 89 49 90 52 91 46 92 47 93 50 94 48 95
REMARK H PARENT 8 6 13 29 72 48 40 59
REMARK Flexibility Score: inf
ROOT
ATOM      1  C   UNL A   1      31.884  30.198  26.688  1.00  0.00     0.023 C 
ENDROOT
BRANCH   1   2
ATOM      2  C   UNL A   1      32.125  29.811  25.222  1.00  0.00     0.116 C 
BRANCH   2   3
ATOM      3  N   UNL A   1      30.983  30.099  24.366  1.00  0.00    -0.353 N 
ATOM      4  C   UNL A   1      30.226  29.255  23.605  1.00  0.00     0.243 C 
ATOM      5  O   UNL A   1      29.196  29.654  23.073  1.00  0.00    -0.270 OA
ATOM      6  H   UNL A   1      30.715  31.046  24.331  1.00  0.00     0.163 HD
BRANCH   4   7
ATOM      7  C   UNL A   1      30.617  27.834  23.498  1.00  0.00     0.072 C 
ATOM      8  C   UNL A   1      30.546  27.021  24.561  1.00  0.00     0.014 C 
BRANCH   8   9
ATOM      9  C   UNL A   1      30.850  25.580  24.532  1.00  0.00    -0.022 A 
ATOM     10  C   UNL A   1      32.279  25.830  26.606  1.00  0.00     0.046 C 
ATOM     11  C   UNL A   1      31.712  24.981  25.495  1.00  0.00    -0.031 A 
ATOM     12  C   UNL A   1      32.015  23.601  25.371  1.00  0.00     0.043 A 
ATOM     13  C   UNL A   1      30.347  24.818  23.464  1.00  0.00     0.008 A 
ATOM     14  C   UNL A   1      31.480  22.865  24.298  1.00  0.00     0.014 A 
ATOM     15  C   UNL A   1      30.655  23.467  23.351  1.00  0.00     0.001 A 
BRANCH  12  16
ATOM     16  C   UNL A   1      33.119  22.918  26.110  1.00  0.00     0.254 C 
ATOM     17  O   UNL A   1      32.833  22.416  27.199  1.00  0.00    -0.269 OA
BRANCH  16  18
ATOM     18  N   UNL A   1      34.375  22.762  25.558  1.00  0.00    -0.338 N 
ATOM     19  C   UNL A   1      35.012  21.462  25.603  1.00  0.00     0.123 C 
ATOM     20  C   UNL A   1      35.306  23.810  25.173  1.00  0.00     0.123 C 
ATOM     21  C   UNL A   1      36.507  21.730  25.520  1.00  0.00     0.010 C 
ATOM     22  C   UNL A   1      36.597  23.071  24.771  1.00  0.00     0.010 C 
ATOM     23  C   UNL A   1      37.256  20.553  24.906  1.00  0.00     0.010 C 
ATOM     24  C   UNL A   1      36.709  22.947  23.261  1.00  0.00     0.010 C 
ENDBRANCH  16  18
ENDBRANCH  12  16
ENDBRANCH   8   9
ENDBRANCH   4   7
ENDBRANCH   2   3
ENDBRANCH   1   2
BRANCH   1  25
ATOM     25  C   UNL A   1      32.803  31.293  27.235  1.00  0.00     0.023 C 
BRANCH  25  26
ATOM     26  C   UNL A   1      34.140  30.771  27.743  1.00  0.00     0.116 C 
BRANCH  26  27
ATOM     27  N   UNL A   1      34.792  31.593  28.753  1.00  0.00    -0.352 N 
ATOM     28  C   UNL A   1      35.906  31.302  29.534  1.00  0.00     0.251 C 
ATOM     29  H   UNL A   1      34.389  32.478  28.902  1.00  0.00     0.163 HD
ATOM     30  O   UNL A   1      36.268  32.069  30.401  1.00  0.00    -0.269 OA
BRANCH  28  31
ATOM     31  C   UNL A   1      36.726  30.104  29.205  1.00  0.00     0.039 A 
ATOM     32  C   UNL A   1      37.015  29.199  30.233  1.00  0.00     0.014 A 
ATOM     33  C   UNL A   1      37.369  29.985  27.977  1.00  0.00     0.014 A 
ATOM     34  C   UNL A   1      38.130  28.368  30.119  1.00  0.00     0.010 A 
ATOM     35  C   UNL A   1      38.536  29.251  27.905  1.00  0.00     0.010 A 
ATOM     36  C   UNL A   1      38.955  28.496  29.004  1.00  0.00    -0.014 A 
BRANCH  36  37
ATOM     37  C   UNL A   1      40.304  27.945  28.922  1.00  0.00     0.031 A 
ATOM     38  C   UNL A   1      40.509  26.523  28.589  1.00  0.00     0.074 A 
ATOM     39  C   UNL A   1      41.370  28.765  29.060  1.00  0.00     0.049 A 
ATOM     40  N   UNL A   1      41.600  25.871  28.812  1.00  0.00    -0.248 NA
ATOM     41  C   UNL A   1      39.462  25.707  27.992  1.00  0.00     0.031 C 
ATOM     42  C   UNL A   1      42.775  28.472  28.786  1.00  0.00     0.029 A 
ATOM     43  N   UNL A   1      41.404  29.994  29.732  1.00  0.00    -0.354 N 
ATOM     44  C   UNL A   1      41.498  24.649  28.192  1.00  0.00     0.074 A 
ATOM     45  C   UNL A   1      40.133  24.584  27.721  1.00  0.00     0.031 C 
ATOM     46  C   UNL A   1      43.536  29.264  29.560  1.00  0.00     0.029 A 
ATOM     47  C   UNL A   1      42.634  29.986  30.439  1.00  0.00     0.049 A 
ATOM     48  H   UNL A   1      40.724  30.707  29.718  1.00  0.00     0.167 HD
ATOM     49  C   UNL A   1      42.614  23.873  28.065  1.00  0.00     0.037 A 
ATOM     50  C   UNL A   1      42.648  29.966  31.805  1.00  0.00     0.037 A 
ATOM     51  C   UNL A   1      43.752  24.455  28.774  1.00  0.00     0.049 A 
ATOM     52  C   UNL A   1      43.354  28.763  32.397  1.00  0.00     0.074 A 
ATOM     53  C   UNL A   1      44.822  25.253  28.402  1.00  0.00     0.029 A 
ATOM     54  N   UNL A   1      43.715  24.484  30.156  1.00  0.00    -0.354 N 
ATOM     55  N   UNL A   1      43.761  27.741  31.695  1.00  0.00    -0.248 NA
ATOM     56  C   UNL A   1      43.561  28.569  33.833  1.00  0.00     0.031 C 
ATOM     57  C   UNL A   1      45.396  25.802  29.585  1.00  0.00     0.029 A 
ATOM     58  C   UNL A   1      44.679  25.329  30.669  1.00  0.00     0.049 A 
ATOM     59  H   UNL A   1      43.083  23.967  30.705  1.00  0.00     0.167 HD
ATOM     60  C   UNL A   1      44.243  26.780  32.537  1.00  0.00     0.074 A 
ATOM     61  C   UNL A   1      44.087  27.334  33.867  1.00  0.00     0.031 C 
ATOM     62  C   UNL A   1      44.709  25.579  32.097  1.00  0.00     0.037 A 
BRANCH  49  63
ATOM     63  C   UNL A   1      42.734  22.691  27.131  1.00  0.00     0.064 A 
ATOM     64  C   UNL A   1      42.020  21.500  27.387  1.00  0.00     0.173 A 
ATOM     65  C   UNL A   1      43.563  22.646  25.995  1.00  0.00     0.173 A 
ATOM     66  F   UNL A   1      41.121  21.423  28.376  1.00  0.00    -0.203 F 
ATOM     67  C   UNL A   1      42.209  20.335  26.638  1.00  0.00     0.198 A 
ATOM     68  C   UNL A   1      43.801  21.465  25.285  1.00  0.00     0.198 A 
ATOM     69  F   UNL A   1      44.118  23.755  25.492  1.00  0.00    -0.203 F 
ATOM     70  F   UNL A   1      41.499  19.236  26.928  1.00  0.00    -0.200 F 
ATOM     71  C   UNL A   1      43.129  20.306  25.612  1.00  0.00     0.200 A 
ATOM     72  F   UNL A   1      44.683  21.464  24.275  1.00  0.00    -0.200 F 
ATOM     73  F   UNL A   1      43.347  19.178  24.924  1.00  0.00    -0.200 F 
ENDBRANCH  49  63
BRANCH  50  74
ATOM     74  C   UNL A   1      41.461  30.654  32.398  1.00  0.00     0.064 A 
ATOM     75  C   UNL A   1      41.388  32.057  32.269  1.00  0.00     0.173 A 
ATOM     76  C   UNL A   1      40.276  29.977  32.703  1.00  0.00     0.173 A 
ATOM     77  F   UNL A   1      42.497  32.771  32.007  1.00  0.00    -0.203 F 
ATOM     78  C   UNL A   1      40.161  32.710  32.224  1.00  0.00     0.198 A 
ATOM     79  C   UNL A   1      39.059  30.661  32.767  1.00  0.00     0.198 A 
ATOM     80  F   UNL A   1      40.260  28.643  32.819  1.00  0.00    -0.203 F 
ATOM     81  F   UNL A   1      40.097  33.986  31.816  1.00  0.00    -0.200 F 
ATOM     82  C   UNL A   1      38.998  32.015  32.483  1.00  0.00     0.200 A 
ATOM     83  F   UNL A   1      37.924  29.978  32.970  1.00  0.00    -0.200 F 
ATOM     84  F   UNL A   1      37.815  32.638  32.394  1.00  0.00    -0.200 F 
ENDBRANCH  50  74
BRANCH  62  85
ATOM     85  C   UNL A   1      45.251  24.546  33.024  1.00  0.00     0.064 A 
ATOM     86  C   UNL A   1      44.443  23.516  33.529  1.00  0.00     0.173 A 
ATOM     87  C   UNL A   1      46.566  24.625  33.517  1.00  0.00     0.173 A 
ATOM     88  F   UNL A   1      43.167  23.394  33.132  1.00  0.00    -0.203 F 
ATOM     89  C   UNL A   1      44.934  22.600  34.458  1.00  0.00     0.198 A 
ATOM     90  C   UNL A   1      47.040  23.734  34.476  1.00  0.00     0.198 A 
ATOM     91  F   UNL A   1      47.420  25.554  33.062  1.00  0.00    -0.203 F 
ATOM     92  F   UNL A   1      44.147  21.603  34.887  1.00  0.00    -0.200 F 
ATOM     93  C   UNL A   1      46.226  22.717  34.940  1.00  0.00     0.200 A 
ATOM     94  F   UNL A   1      48.288  23.865  34.946  1.00  0.00    -0.200 F 
ATOM     95  F   UNL A   1      46.691  21.846  35.846  1.00  0.00    -0.200 F 
ENDBRANCH  62  85
ENDBRANCH  36  37
ENDBRANCH  28  31
ENDBRANCH  26  27
ENDBRANCH  25  26
ENDBRANCH   1  25
TORSDOF 14
ENDMDL
MODEL 2
REMARK VINA RESULT:     -13.8      3.488     10.148
REMARK SMILES Cc1c(/C=C/C(=O)NCCCCNC(=O)c2ccc(-c3c4nc(c(-c5c(F)c(F)c(F)c(F)c5F)c5ccc([nH]5)c(-c5c(F)c(F)c(F)c(F)c5F)c5nc(c(-c6c(F)c(F)c(F)c(F)c6F)c6ccc3[nH]6)C=C5)C=C4)cc2)cccc1C(=O)N1C[C@@H](C)[C@@H](C)C1
REMARK SMILES IDX 10 1 9 2 8 3 6 4 7 5 5 7 4 8 3 9 1 10 2 11 82 12 79 13 81 14
REMARK SMILES IDX 80 15 83 16 84 17 85 18 86 19 91 20 87 21 89 22 88 23 90 24
REMARK SMILES IDX 11 25 12 26 13 27 14 28 15 30 16 31 17 32 78 33 18 34 77 35
REMARK SMILES IDX 19 36 20 37 21 38 71 39 22 40 76 41 70 42 72 43 23 44 75 45
REMARK SMILES IDX 69 46 68 47 24 49 56 50 36 51 55 52 37 53 40 54 54 55 73 56
REMARK SMILES IDX 38 57 39 58 53 60 74 61 41 62 25 63 26 64 34 65 27 66 28 67
REMARK SMILES IDX 32 68 35 69 29 70 30 71 33 72 31 73 57 74 58 75 66 76 59 77
REMARK SMILES IDX 60 78 64 79 67 80 61 81 62 82 65 83 63 84 42 85 43 86 51 87
REMARK SMILES IDX 44 88 45 89 49 90 52 91 46 92 47 93 50 94 48 95
REMARK H PARENT 8 6 13 29 72 48 40 59
REMARK Flexibility Score: inf
ROOT
ATOM      1  C   UNL A   1      36.718  21.395  25.683  1.00  0.00     0.023 C 
ENDROOT
BRANCH   1   2
ATOM      2  C   UNL A   1      36.120  20.427  24.652  1.00  0.00     0.116 C 
BRANCH   2   3
ATOM      3  N   UNL A   1      35.013  19.645  25.184  1.00  0.00    -0.353 N 
ATOM      4  C   UNL A   1      33.668  19.806  25.011  1.00  0.00     0.243 C 
ATOM      5  O   UNL A   1      32.885  18.948  25.406  1.00  0.00    -0.270 OA
ATOM      6  H   UNL A   1      35.274  18.886  25.754  1.00  0.00     0.163 HD
BRANCH   4   7
ATOM      7  C   UNL A   1      33.171  20.983  24.269  1.00  0.00     0.072 C 
ATOM      8  C   UNL A   1      32.740  22.072  24.919  1.00  0.00     0.014 C 
BRANCH   8   9
ATOM      9  C   UNL A   1      32.291  23.313  24.264  1.00  0.00    -0.022 A 
ATOM     10  C   UNL A   1      34.460  24.448  24.909  1.00  0.00     0.046 C 
ATOM     11  C   UNL A   1      33.094  24.490  24.271  1.00  0.00    -0.031 A 
ATOM     12  C   UNL A   1      32.575  25.670  23.678  1.00  0.00     0.043 A 
ATOM     13  C   UNL A   1      30.998  23.343  23.716  1.00  0.00     0.008 A 
ATOM     14  C   UNL A   1      31.282  25.658  23.123  1.00  0.00     0.014 A 
ATOM     15  C   UNL A   1      30.499  24.506  23.142  1.00  0.00     0.001 A 
BRANCH  12  16
ATOM     16  C   UNL A   1      33.160  27.030  23.872  1.00  0.00     0.254 C 
ATOM     17  O   UNL A   1      33.850  27.475  22.952  1.00  0.00    -0.269 OA
BRANCH  16  18
ATOM     18  N   UNL A   1      32.863  27.799  24.979  1.00  0.00    -0.338 N 
ATOM     19  C   UNL A   1      32.361  29.145  24.792  1.00  0.00     0.123 C 
ATOM     20  C   UNL A   1      33.255  27.551  26.357  1.00  0.00     0.123 C 
ATOM     21  C   UNL A   1      32.718  29.900  26.064  1.00  0.00     0.010 C 
ATOM     22  C   UNL A   1      32.791  28.798  27.135  1.00  0.00     0.010 C 
ATOM     23  C   UNL A   1      31.749  31.046  26.329  1.00  0.00     0.010 C 
ATOM     24  C   UNL A   1      31.484  28.534  27.863  1.00  0.00     0.010 C 
ENDBRANCH  16  18
ENDBRANCH  12  16
ENDBRANCH   8   9
ENDBRANCH   4   7
ENDBRANCH   2   3
ENDBRANCH   1   2
BRANCH   1  25
ATOM     25  C   UNL A   1      38.247  21.461  25.709  1.00  0.00     0.023 C 
BRANCH  25  26
ATOM     26  C   UNL A   1      38.793  22.852  26.001  1.00  0.00     0.116 C 
BRANCH  26  27
ATOM     27  N   UNL A   1      40.225  22.923  26.257  1.00  0.00    -0.352 N 
ATOM     28  C   UNL A   1      41.002  24.028  26.590  1.00  0.00     0.251 C 
ATOM     29  H   UNL A   1      40.710  22.070  26.187  1.00  0.00     0.163 HD
ATOM     30  O   UNL A   1      42.207  23.930  26.680  1.00  0.00    -0.269 OA
BRANCH  28  31
ATOM     31  C   UNL A   1      40.325  25.301  26.962  1.00  0.00     0.039 A 
ATOM     32  C   UNL A   1      40.714  26.473  26.304  1.00  0.00     0.014 A 
ATOM     33  C   UNL A   1      39.489  25.375  28.072  1.00  0.00     0.014 A 
ATOM     34  C   UNL A   1      40.495  27.708  26.918  1.00  0.00     0.010 A 
ATOM     35  C   UNL A   1      39.370  26.579  28.737  1.00  0.00     0.010 A 
ATOM     36  C   UNL A   1      39.936  27.736  28.194  1.00  0.00    -0.014 A 
BRANCH  36  37
ATOM     37  C   UNL A   1      39.965  28.903  29.069  1.00  0.00     0.031 A 
ATOM     38  C   UNL A   1      38.917  29.936  28.967  1.00  0.00     0.074 A 
ATOM     39  C   UNL A   1      40.903  28.989  30.038  1.00  0.00     0.049 A 
ATOM     40  N   UNL A   1      39.023  31.132  29.439  1.00  0.00    -0.248 NA
ATOM     41  C   UNL A   1      37.654  29.695  28.285  1.00  0.00     0.031 C 
ATOM     42  C   UNL A   1      40.968  29.935  31.150  1.00  0.00     0.029 A 
ATOM     43  N   UNL A   1      42.154  28.358  30.056  1.00  0.00    -0.354 N 
ATOM     44  C   UNL A   1      37.792  31.737  29.343  1.00  0.00     0.074 A 
ATOM     45  C   UNL A   1      36.981  30.809  28.587  1.00  0.00     0.031 C 
ATOM     46  C   UNL A   1      42.254  30.086  31.508  1.00  0.00     0.029 A 
ATOM     47  C   UNL A   1      43.050  29.343  30.548  1.00  0.00     0.049 A 
ATOM     48  H   UNL A   1      42.366  27.435  29.785  1.00  0.00     0.167 HD
ATOM     49  C   UNL A   1      37.577  32.913  30.001  1.00  0.00     0.037 A 
ATOM     50  C   UNL A   1      44.031  29.850  29.745  1.00  0.00     0.037 A 
ATOM     51  C   UNL A   1      38.806  33.417  30.611  1.00  0.00     0.049 A 
ATOM     52  C   UNL A   1      43.946  31.348  29.538  1.00  0.00     0.074 A 
ATOM     53  C   UNL A   1      39.363  33.339  31.877  1.00  0.00     0.029 A 
ATOM     54  N   UNL A   1      39.814  33.864  29.776  1.00  0.00    -0.354 N 
ATOM     55  N   UNL A   1      42.940  32.080  29.932  1.00  0.00    -0.248 NA
ATOM     56  C   UNL A   1      44.933  32.122  28.782  1.00  0.00     0.031 C 
ATOM     57  C   UNL A   1      40.737  33.702  31.778  1.00  0.00     0.029 A 
ATOM     58  C   UNL A   1      41.007  34.005  30.456  1.00  0.00     0.049 A 
ATOM     59  H   UNL A   1      39.695  34.060  28.818  1.00  0.00     0.167 HD
ATOM     60  C   UNL A   1      43.112  33.359  29.487  1.00  0.00     0.074 A 
ATOM     61  C   UNL A   1      44.366  33.339  28.761  1.00  0.00     0.031 C 
ATOM     62  C   UNL A   1      42.204  34.348  29.713  1.00  0.00     0.037 A 
BRANCH  49  63
ATOM     63  C   UNL A   1      36.213  33.508  30.267  1.00  0.00     0.064 A 
ATOM     64  C   UNL A   1      35.424  33.995  29.203  1.00  0.00     0.173 A 
ATOM     65  C   UNL A   1      35.644  33.670  31.543  1.00  0.00     0.173 A 
ATOM     66  F   UNL A   1      35.790  33.827  27.926  1.00  0.00    -0.203 F 
ATOM     67  C   UNL A   1      34.225  34.684  29.411  1.00  0.00     0.198 A 
ATOM     68  C   UNL A   1      34.478  34.414  31.757  1.00  0.00     0.198 A 
ATOM     69  F   UNL A   1      36.155  33.060  32.618  1.00  0.00    -0.203 F 
ATOM     70  F   UNL A   1      33.517  35.119  28.359  1.00  0.00    -0.200 F 
ATOM     71  C   UNL A   1      33.772  34.928  30.690  1.00  0.00     0.200 A 
ATOM     72  F   UNL A   1      34.042  34.620  33.008  1.00  0.00    -0.200 F 
ATOM     73  F   UNL A   1      32.650  35.629  30.892  1.00  0.00    -0.200 F 
ENDBRANCH  49  63
BRANCH  50  74
ATOM     74  C   UNL A   1      44.508  28.861  28.732  1.00  0.00     0.064 A 
ATOM     75  C   UNL A   1      45.165  27.705  29.206  1.00  0.00     0.173 A 
ATOM     76  C   UNL A   1      44.005  28.819  27.428  1.00  0.00     0.173 A 
ATOM     77  F   UNL A   1      45.700  27.690  30.441  1.00  0.00    -0.203 F 
ATOM     78  C   UNL A   1      45.117  26.511  28.496  1.00  0.00     0.198 A 
ATOM     79  C   UNL A   1      44.061  27.642  26.677  1.00  0.00     0.198 A 
ATOM     80  F   UNL A   1      43.348  29.868  26.913  1.00  0.00    -0.203 F 
ATOM     81  F   UNL A   1      45.492  25.367  29.087  1.00  0.00    -0.200 F 
ATOM     82  C   UNL A   1      44.576  26.480  27.228  1.00  0.00     0.200 A 
ATOM     83  F   UNL A   1      43.491  27.601  25.465  1.00  0.00    -0.200 F 
ATOM     84  F   UNL A   1      44.490  25.318  26.567  1.00  0.00    -0.200 F 
ENDBRANCH  50  74
BRANCH  62  85
ATOM     85  C   UNL A   1      42.414  35.746  29.240  1.00  0.00     0.064 A 
ATOM     86  C   UNL A   1      41.842  36.211  28.046  1.00  0.00     0.173 A 
ATOM     87  C   UNL A   1      43.282  36.623  29.915  1.00  0.00     0.173 A 
ATOM     88  F   UNL A   1      41.028  35.422  27.328  1.00  0.00    -0.203 F 
ATOM     89  C   UNL A   1      42.107  37.494  27.568  1.00  0.00     0.198 A 
ATOM     90  C   UNL A   1      43.578  37.887  29.414  1.00  0.00     0.198 A 
ATOM     91  F   UNL A   1      43.843  36.276  31.083  1.00  0.00    -0.203 F 
ATOM     92  F   UNL A   1      41.510  37.920  26.447  1.00  0.00    -0.200 F 
ATOM     93  C   UNL A   1      42.982  38.325  28.244  1.00  0.00     0.200 A 
ATOM     94  F   UNL A   1      44.437  38.679  30.069  1.00  0.00    -0.200 F 
ATOM     95  F   UNL A   1      43.249  39.551  27.774  1.00  0.00    -0.200 F 
ENDBRANCH  62  85
ENDBRANCH  36  37
ENDBRANCH  28  31
ENDBRANCH  26  27
ENDBRANCH  25  26
ENDBRANCH   1  25
TORSDOF 14
ENDMDL
MODEL 3
REMARK VINA RESULT:     -13.8      0.762      1.722
REMARK SMILES Cc1c(/C=C/C(=O)NCCCCNC(=O)c2ccc(-c3c4nc(c(-c5c(F)c(F)c(F)c(F)c5F)c5ccc([nH]5)c(-c5c(F)c(F)c(F)c(F)c5F)c5nc(c(-c6c(F)c(F)c(F)c(F)c6F)c6ccc3[nH]6)C=C5)C=C4)cc2)cccc1C(=O)N1C[C@@H](C)[C@@H](C)C1
REMARK SMILES IDX 10 1 9 2 8 3 6 4 7 5 5 7 4 8 3 9 1 10 2 11 82 12 79 13 81 14
REMARK SMILES IDX 80 15 83 16 84 17 85 18 86 19 91 20 87 21 89 22 88 23 90 24
REMARK SMILES IDX 11 25 12 26 13 27 14 28 15 30 16 31 17 32 78 33 18 34 77 35
REMARK SMILES IDX 19 36 20 37 21 38 71 39 22 40 76 41 70 42 72 43 23 44 75 45
REMARK SMILES IDX 69 46 68 47 24 49 56 50 36 51 55 52 37 53 40 54 54 55 73 56
REMARK SMILES IDX 38 57 39 58 53 60 74 61 41 62 25 63 26 64 34 65 27 66 28 67
REMARK SMILES IDX 32 68 35 69 29 70 30 71 33 72 31 73 57 74 58 75 66 76 59 77
REMARK SMILES IDX 60 78 64 79 67 80 61 81 62 82 65 83 63 84 42 85 43 86 51 87
REMARK SMILES IDX 44 88 45 89 49 90 52 91 46 92 47 93 50 94 48 95
REMARK H PARENT 8 6 13 29 72 48 40 59
REMARK Flexibility Score: inf
ROOT
ATOM      1  C   UNL A   1      31.510  30.816  26.162  1.00  0.00     0.023 C 
ENDROOT
BRANCH   1   2
ATOM      2  C   UNL A   1      31.651  30.047  24.840  1.00  0.00     0.116 C 
BRANCH   2   3
ATOM      3  N   UNL A   1      30.465  30.142  24.000  1.00  0.00    -0.353 N 
ATOM      4  C   UNL A   1      29.790  29.165  23.327  1.00  0.00     0.243 C 
ATOM      5  O   UNL A   1      28.710  29.407  22.799  1.00  0.00    -0.270 OA
ATOM      6  H   UNL A   1      30.093  31.049  23.903  1.00  0.00     0.163 HD
BRANCH   4   7
ATOM      7  C   UNL A   1      30.334  27.791  23.314  1.00  0.00     0.072 C 
ATOM      8  C   UNL A   1      30.299  27.028  24.415  1.00  0.00     0.014 C 
BRANCH   8   9
ATOM      9  C   UNL A   1      30.755  25.628  24.476  1.00  0.00    -0.022 A 
ATOM     10  C   UNL A   1      32.186  26.174  26.492  1.00  0.00     0.046 C 
ATOM     11  C   UNL A   1      31.694  25.193  25.456  1.00  0.00    -0.031 A 
ATOM     12  C   UNL A   1      32.141  23.848  25.419  1.00  0.00     0.043 A 
ATOM     13  C   UNL A   1      30.319  24.745  23.476  1.00  0.00     0.008 A 
ATOM     14  C   UNL A   1      31.669  22.986  24.412  1.00  0.00     0.014 A 
ATOM     15  C   UNL A   1      30.767  23.429  23.447  1.00  0.00     0.001 A 
BRANCH  12  16
ATOM     16  C   UNL A   1      33.324  23.339  26.174  1.00  0.00     0.254 C 
ATOM     17  O   UNL A   1      33.119  22.920  27.315  1.00  0.00    -0.269 OA
BRANCH  16  18
ATOM     18  N   UNL A   1      34.572  23.243  25.592  1.00  0.00    -0.338 N 
ATOM     19  C   UNL A   1      35.552  22.341  26.162  1.00  0.00     0.123 C 
ATOM     20  C   UNL A   1      35.167  24.151  24.624  1.00  0.00     0.123 C 
ATOM     21  C   UNL A   1      36.909  22.889  25.749  1.00  0.00     0.010 C 
ATOM     22  C   UNL A   1      36.614  23.652  24.445  1.00  0.00     0.010 C 
ATOM     23  C   UNL A   1      37.961  21.789  25.672  1.00  0.00     0.010 C 
ATOM     24  C   UNL A   1      36.755  22.823  23.180  1.00  0.00     0.010 C 
ENDBRANCH  16  18
ENDBRANCH  12  16
ENDBRANCH   8   9
ENDBRANCH   4   7
ENDBRANCH   2   3
ENDBRANCH   1   2
BRANCH   1  25
ATOM     25  C   UNL A   1      32.433  30.349  27.290  1.00  0.00     0.023 C 
BRANCH  25  26
ATOM     26  C   UNL A   1      33.883  30.776  27.109  1.00  0.00     0.116 C 
BRANCH  26  27
ATOM     27  N   UNL A   1      34.415  31.646  28.148  1.00  0.00    -0.352 N 
ATOM     28  C   UNL A   1      35.458  31.412  29.039  1.00  0.00     0.251 C 
ATOM     29  H   UNL A   1      33.977  32.523  28.231  1.00  0.00     0.163 HD
ATOM     30  O   UNL A   1      35.717  32.214  29.911  1.00  0.00    -0.269 OA
BRANCH  28  31
ATOM     31  C   UNL A   1      36.337  30.228  28.826  1.00  0.00     0.039 A 
ATOM     32  C   UNL A   1      36.669  29.444  29.937  1.00  0.00     0.014 A 
ATOM     33  C   UNL A   1      36.987  30.022  27.614  1.00  0.00     0.014 A 
ATOM     34  C   UNL A   1      37.824  28.662  29.901  1.00  0.00     0.010 A 
ATOM     35  C   UNL A   1      38.189  29.343  27.609  1.00  0.00     0.010 A 
ATOM     36  C   UNL A   1      38.643  28.720  28.776  1.00  0.00    -0.014 A 
BRANCH  36  37
ATOM     37  C   UNL A   1      40.018  28.231  28.744  1.00  0.00     0.031 A 
ATOM     38  C   UNL A   1      40.295  26.805  28.494  1.00  0.00     0.074 A 
ATOM     39  C   UNL A   1      41.041  29.108  28.851  1.00  0.00     0.049 A 
ATOM     40  N   UNL A   1      41.412  26.219  28.768  1.00  0.00    -0.248 NA
ATOM     41  C   UNL A   1      39.298  25.908  27.928  1.00  0.00     0.031 C 
ATOM     42  C   UNL A   1      42.463  28.868  28.614  1.00  0.00     0.029 A 
ATOM     43  N   UNL A   1      41.006  30.372  29.454  1.00  0.00    -0.354 N 
ATOM     44  C   UNL A   1      41.378  24.961  28.215  1.00  0.00     0.074 A 
ATOM     45  C   UNL A   1      40.026  24.806  27.729  1.00  0.00     0.031 C 
ATOM     46  C   UNL A   1      43.172  29.737  29.353  1.00  0.00     0.029 A 
ATOM     47  C   UNL A   1      42.223  30.462  30.179  1.00  0.00     0.049 A 
ATOM     48  H   UNL A   1      40.294  31.049  29.391  1.00  0.00     0.167 HD
ATOM     49  C   UNL A   1      42.532  24.235  28.147  1.00  0.00     0.037 A 
ATOM     50  C   UNL A   1      42.215  30.517  31.543  1.00  0.00     0.037 A 
ATOM     51  C   UNL A   1      43.629  24.909  28.839  1.00  0.00     0.049 A 
ATOM     52  C   UNL A   1      42.967  29.385  32.211  1.00  0.00     0.074 A 
ATOM     53  C   UNL A   1      44.666  25.735  28.438  1.00  0.00     0.029 A 
ATOM     54  N   UNL A   1      43.567  25.012  30.217  1.00  0.00    -0.354 N 
ATOM     55  N   UNL A   1      43.434  28.347  31.573  1.00  0.00    -0.248 NA
ATOM     56  C   UNL A   1      43.159  29.279  33.659  1.00  0.00     0.031 C 
ATOM     57  C   UNL A   1      45.194  26.375  29.597  1.00  0.00     0.029 A 
ATOM     58  C   UNL A   1      44.482  25.929  30.695  1.00  0.00     0.049 A 
ATOM     59  H   UNL A   1      42.951  24.495  30.784  1.00  0.00     0.167 HD
ATOM     60  C   UNL A   1      43.946  27.457  32.474  1.00  0.00     0.074 A 
ATOM     61  C   UNL A   1      43.742  28.074  33.769  1.00  0.00     0.031 C 
ATOM     62  C   UNL A   1      44.476  26.258  32.108  1.00  0.00     0.037 A 
BRANCH  49  63
ATOM     63  C   UNL A   1      42.723  23.011  27.282  1.00  0.00     0.064 A 
ATOM     64  C   UNL A   1      42.041  21.810  27.578  1.00  0.00     0.173 A 
ATOM     65  C   UNL A   1      43.592  22.935  26.178  1.00  0.00     0.173 A 
ATOM     66  F   UNL A   1      41.111  21.753  28.540  1.00  0.00    -0.203 F 
ATOM     67  C   UNL A   1      42.294  20.615  26.899  1.00  0.00     0.198 A 
ATOM     68  C   UNL A   1      43.893  21.728  25.540  1.00  0.00     0.198 A 
ATOM     69  F   UNL A   1      44.126  24.035  25.635  1.00  0.00    -0.203 F 
ATOM     70  F   UNL A   1      41.611  19.508  27.223  1.00  0.00    -0.200 F 
ATOM     71  C   UNL A   1      43.249  20.564  25.906  1.00  0.00     0.200 A 
ATOM     72  F   UNL A   1      44.809  21.705  24.560  1.00  0.00    -0.200 F 
ATOM     73  F   UNL A   1      43.528  19.410  25.287  1.00  0.00    -0.200 F 
ENDBRANCH  49  63
BRANCH  50  74
ATOM     74  C   UNL A   1      40.987  31.179  32.081  1.00  0.00     0.064 A 
ATOM     75  C   UNL A   1      39.960  30.346  32.573  1.00  0.00     0.173 A 
ATOM     76  C   UNL A   1      40.970  32.519  32.479  1.00  0.00     0.173 A 
ATOM     77  F   UNL A   1      39.901  29.054  32.204  1.00  0.00    -0.203 F 
ATOM     78  C   UNL A   1      39.105  30.781  33.579  1.00  0.00     0.198 A 
ATOM     79  C   UNL A   1      40.033  32.976  33.410  1.00  0.00     0.198 A 
ATOM     80  F   UNL A   1      41.924  33.367  32.073  1.00  0.00    -0.203 F 
ATOM     81  F   UNL A   1      38.333  29.897  34.229  1.00  0.00    -0.200 F 
ATOM     82  C   UNL A   1      39.133  32.097  33.991  1.00  0.00     0.200 A 
ATOM     83  F   UNL A   1      40.093  34.242  33.845  1.00  0.00    -0.200 F 
ATOM     84  F   UNL A   1      38.339  32.500  34.992  1.00  0.00    -0.200 F 
ENDBRANCH  50  74
BRANCH  62  85
ATOM     85  C   UNL A   1      45.050  25.304  33.099  1.00  0.00     0.064 A 
ATOM     86  C   UNL A   1      46.430  25.066  33.175  1.00  0.00     0.173 A 
ATOM     87  C   UNL A   1      44.221  24.521  33.923  1.00  0.00     0.173 A 
ATOM     88  F   UNL A   1      47.283  25.750  32.397  1.00  0.00    -0.203 F 
ATOM     89  C   UNL A   1      46.954  24.114  34.048  1.00  0.00     0.198 A 
ATOM     90  C   UNL A   1      44.743  23.541  34.763  1.00  0.00     0.198 A 
ATOM     91  F   UNL A   1      42.893  24.706  33.942  1.00  0.00    -0.203 F 
ATOM     92  F   UNL A   1      48.281  23.943  34.126  1.00  0.00    -0.200 F 
ATOM     93  C   UNL A   1      46.111  23.344  34.831  1.00  0.00     0.200 A 
ATOM     94  F   UNL A   1      43.917  22.793  35.506  1.00  0.00    -0.200 F 
ATOM     95  F   UNL A   1      46.615  22.417  35.657  1.00  0.00    -0.200 F 
ENDBRANCH  62  85
ENDBRANCH  36  37
ENDBRANCH  28  31
ENDBRANCH  26  27
ENDBRANCH  25  26
ENDBRANCH   1  25
TORSDOF 14
ENDMDL
