MODEL 1
REMARK VINA RESULT:     -11.9      0.000      0.000
REMARK SMILES C[C@H](Cc1cccs1)N(C)C(=O)N1CCC[C@]1(C)C(=O)NCCCCNC(=O)c1ccc(-c2c3nc(c(-c4c(F)c(F)c(F)c(F)c4F)c4ccc([nH]4)c(-c4c(F)c(F)c(F)c(F)c4F)c4nc(c(-c5c(F)c(F)c(F)c(F)c5F)c5ccc2[nH]5)C=C4)C=C3)cc1
REMARK SMILES IDX 22 1 21 2 19 3 20 4 17 6 13 7 14 8 15 9 16 10 18 11 11 12
REMARK SMILES IDX 12 13 9 14 10 15 2 16 1 17 3 18 4 19 5 20 8 21 6 22 7 23
REMARK SMILES IDX 23 24 24 25 25 26 26 27 27 28 28 30 29 31 30 32 91 33 31 34
REMARK SMILES IDX 90 35 32 36 33 37 34 38 84 39 35 40 89 41 83 42 85 43 36 44
REMARK SMILES IDX 88 45 82 46 81 47 37 49 69 50 49 51 68 52 50 53 53 54 67 55
REMARK SMILES IDX 86 56 51 57 52 58 66 60 87 61 54 62 38 63 39 64 47 65 40 66
REMARK SMILES IDX 41 67 45 68 48 69 42 70 43 71 46 72 44 73 70 74 71 75 79 76
REMARK SMILES IDX 72 77 73 78 77 79 80 80 74 81 75 82 78 83 76 84 55 85 56 86
REMARK SMILES IDX 64 87 57 88 58 89 62 90 65 91 59 92 60 93 63 94 61 95
REMARK H PARENT 21 5 26 29 85 48 53 59
REMARK Flexibility Score: inf
ROOT
ATOM      1  C   UNL A   1      32.710  26.802  26.322  1.00  0.00     0.116 C 
ENDROOT
BRANCH   1   2
ATOM      2  N   UNL A   1      32.225  25.486  26.669  1.00  0.00    -0.354 N 
ATOM      3  C   UNL A   1      32.319  24.286  26.027  1.00  0.00     0.245 C 
ATOM      4  O   UNL A   1      31.607  23.387  26.492  1.00  0.00    -0.272 OA
ATOM      5  H   UNL A   1      31.737  25.450  27.523  1.00  0.00     0.163 HD
BRANCH   3   6
ATOM      6  C   UNL A   1      33.301  24.036  24.822  1.00  0.00     0.120 C 
ATOM      7  N   UNL A   1      32.750  24.153  23.432  1.00  0.00    -0.310 N 
ATOM      8  C   UNL A   1      32.868  22.874  22.748  1.00  0.00     0.122 C 
ATOM      9  C   UNL A   1      32.866  21.845  23.858  1.00  0.00     0.025 C 
ATOM     10  C   UNL A   1      33.739  22.528  24.894  1.00  0.00     0.040 C 
ATOM     11  C   UNL A   1      34.606  24.842  24.984  1.00  0.00     0.046 C 
BRANCH   7  12
ATOM     12  C   UNL A   1      31.566  24.823  23.145  1.00  0.00     0.320 C 
ATOM     13  O   UNL A   1      30.527  24.192  22.991  1.00  0.00    -0.248 OA
BRANCH  12  14
ATOM     14  N   UNL A   1      31.698  26.201  22.954  1.00  0.00    -0.325 N 
ATOM     15  C   UNL A   1      32.766  26.720  22.110  1.00  0.00     0.149 C 
BRANCH  14  16
ATOM     16  C   UNL A   1      30.678  27.194  23.406  1.00  0.00     0.088 C 
ATOM     17  C   UNL A   1      29.541  26.735  24.336  1.00  0.00     0.031 C 
BRANCH  16  18
ATOM     18  C   UNL A   1      30.163  28.119  22.280  1.00  0.00     0.071 C 
BRANCH  18  19
ATOM     19  C   UNL A   1      29.506  29.409  22.678  1.00  0.00     0.007 A 
ATOM     20  C   UNL A   1      29.844  30.209  23.754  1.00  0.00     0.015 A 
ATOM     21  S   UNL A   1      28.108  30.003  21.890  1.00  0.00    -0.149 S 
ATOM     22  C   UNL A   1      28.991  31.342  23.885  1.00  0.00     0.012 A 
ATOM     23  C   UNL A   1      28.024  31.370  22.906  1.00  0.00     0.065 A 
ENDBRANCH  18  19
ENDBRANCH  16  18
ENDBRANCH  14  16
ENDBRANCH  12  14
ENDBRANCH   7  12
ENDBRANCH   3   6
ENDBRANCH   1   2
BRANCH   1  24
ATOM     24  C   UNL A   1      32.207  27.842  27.309  1.00  0.00     0.023 C 
BRANCH  24  25
ATOM     25  C   UNL A   1      31.676  29.122  26.701  1.00  0.00     0.023 C 
BRANCH  25  26
ATOM     26  C   UNL A   1      32.770  30.102  26.313  1.00  0.00     0.116 C 
BRANCH  26  27
ATOM     27  N   UNL A   1      32.576  31.455  26.835  1.00  0.00    -0.352 N 
ATOM     28  C   UNL A   1      33.435  32.268  27.545  1.00  0.00     0.251 C 
ATOM     29  H   UNL A   1      31.691  31.847  26.651  1.00  0.00     0.163 HD
ATOM     30  O   UNL A   1      33.060  33.354  27.965  1.00  0.00    -0.269 OA
BRANCH  28  31
ATOM     31  C   UNL A   1      34.797  31.781  27.848  1.00  0.00     0.039 A 
ATOM     32  C   UNL A   1      35.851  32.694  27.914  1.00  0.00     0.014 A 
ATOM     33  C   UNL A   1      34.999  30.448  28.196  1.00  0.00     0.014 A 
ATOM     34  C   UNL A   1      37.064  32.300  28.485  1.00  0.00     0.010 A 
ATOM     35  C   UNL A   1      36.146  30.102  28.894  1.00  0.00     0.010 A 
ATOM     36  C   UNL A   1      37.187  31.027  29.064  1.00  0.00    -0.014 A 
BRANCH  36  37
ATOM     37  C   UNL A   1      38.369  30.627  29.876  1.00  0.00     0.031 A 
ATOM     38  C   UNL A   1      39.351  29.634  29.315  1.00  0.00     0.074 A 
ATOM     39  C   UNL A   1      38.491  31.045  31.153  1.00  0.00     0.049 A 
ATOM     40  N   UNL A   1      40.304  28.972  29.923  1.00  0.00    -0.248 NA
ATOM     41  C   UNL A   1      39.203  29.293  27.890  1.00  0.00     0.031 C 
ATOM     42  C   UNL A   1      37.575  31.952  31.848  1.00  0.00     0.029 A 
ATOM     43  N   UNL A   1      39.433  30.741  32.107  1.00  0.00    -0.354 N 
ATOM     44  C   UNL A   1      40.827  28.108  28.969  1.00  0.00     0.074 A 
ATOM     45  C   UNL A   1      40.050  28.284  27.763  1.00  0.00     0.031 C 
ATOM     46  C   UNL A   1      38.015  32.155  33.101  1.00  0.00     0.029 A 
ATOM     47  C   UNL A   1      39.213  31.353  33.318  1.00  0.00     0.049 A 
ATOM     48  H   UNL A   1      40.195  30.140  31.939  1.00  0.00     0.167 HD
ATOM     49  C   UNL A   1      41.882  27.268  29.078  1.00  0.00     0.037 A 
ATOM     50  C   UNL A   1      39.892  31.265  34.478  1.00  0.00     0.037 A 
ATOM     51  C   UNL A   1      42.701  27.151  30.252  1.00  0.00     0.049 A 
ATOM     52  C   UNL A   1      41.093  30.361  34.556  1.00  0.00     0.074 A 
ATOM     53  C   UNL A   1      43.836  26.382  30.440  1.00  0.00     0.029 A 
ATOM     54  N   UNL A   1      42.484  27.844  31.433  1.00  0.00    -0.354 N 
ATOM     55  N   UNL A   1      41.601  29.579  33.635  1.00  0.00    -0.248 NA
ATOM     56  C   UNL A   1      41.814  30.325  35.837  1.00  0.00     0.031 C 
ATOM     57  C   UNL A   1      44.298  26.598  31.742  1.00  0.00     0.029 A 
ATOM     58  C   UNL A   1      43.467  27.522  32.354  1.00  0.00     0.049 A 
ATOM     59  H   UNL A   1      41.743  28.470  31.593  1.00  0.00     0.167 HD
ATOM     60  C   UNL A   1      42.708  28.977  34.215  1.00  0.00     0.074 A 
ATOM     61  C   UNL A   1      42.810  29.495  35.563  1.00  0.00     0.031 C 
ATOM     62  C   UNL A   1      43.560  28.068  33.682  1.00  0.00     0.037 A 
BRANCH  49  63
ATOM     63  C   UNL A   1      42.230  26.438  27.877  1.00  0.00     0.064 A 
ATOM     64  C   UNL A   1      43.186  26.867  26.945  1.00  0.00     0.173 A 
ATOM     65  C   UNL A   1      41.623  25.192  27.669  1.00  0.00     0.173 A 
ATOM     66  F   UNL A   1      43.784  28.061  27.092  1.00  0.00    -0.203 F 
ATOM     67  C   UNL A   1      43.498  26.095  25.831  1.00  0.00     0.198 A 
ATOM     68  C   UNL A   1      41.960  24.406  26.569  1.00  0.00     0.198 A 
ATOM     69  F   UNL A   1      40.705  24.732  28.533  1.00  0.00    -0.203 F 
ATOM     70  F   UNL A   1      44.375  26.551  24.926  1.00  0.00    -0.200 F 
ATOM     71  C   UNL A   1      42.891  24.862  25.647  1.00  0.00     0.200 A 
ATOM     72  F   UNL A   1      41.380  23.211  26.398  1.00  0.00    -0.200 F 
ATOM     73  F   UNL A   1      43.195  24.117  24.576  1.00  0.00    -0.200 F 
ENDBRANCH  49  63
BRANCH  50  74
ATOM     74  C   UNL A   1      39.470  32.063  35.658  1.00  0.00     0.064 A 
ATOM     75  C   UNL A   1      38.506  31.568  36.548  1.00  0.00     0.173 A 
ATOM     76  C   UNL A   1      39.998  33.337  35.911  1.00  0.00     0.173 A 
ATOM     77  F   UNL A   1      37.957  30.364  36.335  1.00  0.00    -0.203 F 
ATOM     78  C   UNL A   1      38.066  32.327  37.630  1.00  0.00     0.198 A 
ATOM     79  C   UNL A   1      39.576  34.085  37.010  1.00  0.00     0.198 A 
ATOM     80  F   UNL A   1      40.925  33.855  35.092  1.00  0.00    -0.203 F 
ATOM     81  F   UNL A   1      37.106  31.850  38.435  1.00  0.00    -0.200 F 
ATOM     82  C   UNL A   1      38.604  33.584  37.862  1.00  0.00     0.200 A 
ATOM     83  F   UNL A   1      40.104  35.295  37.235  1.00  0.00    -0.200 F 
ATOM     84  F   UNL A   1      38.178  34.316  38.900  1.00  0.00    -0.200 F 
ENDBRANCH  50  74
BRANCH  62  85
ATOM     85  C   UNL A   1      44.695  27.603  34.542  1.00  0.00     0.064 A 
ATOM     86  C   UNL A   1      45.910  28.300  34.585  1.00  0.00     0.173 A 
ATOM     87  C   UNL A   1      44.542  26.486  35.375  1.00  0.00     0.173 A 
ATOM     88  F   UNL A   1      46.105  29.366  33.794  1.00  0.00    -0.203 F 
ATOM     89  C   UNL A   1      46.940  27.885  35.424  1.00  0.00     0.198 A 
ATOM     90  C   UNL A   1      45.565  26.088  36.229  1.00  0.00     0.198 A 
ATOM     91  F   UNL A   1      43.395  25.791  35.371  1.00  0.00    -0.203 F 
ATOM     92  F   UNL A   1      48.105  28.547  35.429  1.00  0.00    -0.200 F 
ATOM     93  C   UNL A   1      46.764  26.786  36.251  1.00  0.00     0.200 A 
ATOM     94  F   UNL A   1      45.391  25.032  37.036  1.00  0.00    -0.200 F 
ATOM     95  F   UNL A   1      47.752  26.395  37.067  1.00  0.00    -0.200 F 
ENDBRANCH  62  85
ENDBRANCH  36  37
ENDBRANCH  28  31
ENDBRANCH  26  27
ENDBRANCH  25  26
ENDBRANCH  24  25
ENDBRANCH   1  24
TORSDOF 16
ENDMDL
MODEL 2
REMARK VINA RESULT:     -11.8      3.390      7.847
REMARK SMILES C[C@H](Cc1cccs1)N(C)C(=O)N1CCC[C@]1(C)C(=O)NCCCCNC(=O)c1ccc(-c2c3nc(c(-c4c(F)c(F)c(F)c(F)c4F)c4ccc([nH]4)c(-c4c(F)c(F)c(F)c(F)c4F)c4nc(c(-c5c(F)c(F)c(F)c(F)c5F)c5ccc2[nH]5)C=C4)C=C3)cc1
REMARK SMILES IDX 22 1 21 2 19 3 20 4 17 6 13 7 14 8 15 9 16 10 18 11 11 12
REMARK SMILES IDX 12 13 9 14 10 15 2 16 1 17 3 18 4 19 5 20 8 21 6 22 7 23
REMARK SMILES IDX 23 24 24 25 25 26 26 27 27 28 28 30 29 31 30 32 91 33 31 34
REMARK SMILES IDX 90 35 32 36 33 37 34 38 84 39 35 40 89 41 83 42 85 43 36 44
REMARK SMILES IDX 88 45 82 46 81 47 37 49 69 50 49 51 68 52 50 53 53 54 67 55
REMARK SMILES IDX 86 56 51 57 52 58 66 60 87 61 54 62 38 63 39 64 47 65 40 66
REMARK SMILES IDX 41 67 45 68 48 69 42 70 43 71 46 72 44 73 70 74 71 75 79 76
REMARK SMILES IDX 72 77 73 78 77 79 80 80 74 81 75 82 78 83 76 84 55 85 56 86
REMARK SMILES IDX 64 87 57 88 58 89 62 90 65 91 59 92 60 93 63 94 61 95
REMARK H PARENT 21 5 26 29 85 48 53 59
REMARK Flexibility Score: inf
ROOT
ATOM      1  C   UNL A   1      32.076  26.221  26.347  1.00  0.00     0.116 C 
ENDROOT
BRANCH   1   2
ATOM      2  N   UNL A   1      31.393  25.086  26.922  1.00  0.00    -0.354 N 
ATOM      3  C   UNL A   1      31.528  23.744  26.713  1.00  0.00     0.245 C 
ATOM      4  O   UNL A   1      30.638  23.045  27.212  1.00  0.00    -0.272 OA
ATOM      5  H   UNL A   1      30.704  25.323  27.583  1.00  0.00     0.163 HD
BRANCH   3   6
ATOM      6  C   UNL A   1      32.754  23.118  25.947  1.00  0.00     0.120 C 
ATOM      7  N   UNL A   1      32.703  23.087  24.449  1.00  0.00    -0.310 N 
ATOM      8  C   UNL A   1      32.738  21.708  23.985  1.00  0.00     0.122 C 
ATOM      9  C   UNL A   1      32.160  20.905  25.131  1.00  0.00     0.025 C 
ATOM     10  C   UNL A   1      32.797  21.592  26.324  1.00  0.00     0.040 C 
ATOM     11  C   UNL A   1      34.089  23.696  26.458  1.00  0.00     0.046 C 
BRANCH   7  12
ATOM     12  C   UNL A   1      31.850  23.895  23.707  1.00  0.00     0.320 C 
ATOM     13  O   UNL A   1      30.674  23.579  23.568  1.00  0.00    -0.248 OA
BRANCH  12  14
ATOM     14  N   UNL A   1      32.462  24.985  23.083  1.00  0.00    -0.325 N 
ATOM     15  C   UNL A   1      33.913  25.119  23.108  1.00  0.00     0.149 C 
BRANCH  14  16
ATOM     16  C   UNL A   1      31.731  25.943  22.200  1.00  0.00     0.088 C 
ATOM     17  C   UNL A   1      32.003  25.928  20.686  1.00  0.00     0.031 C 
BRANCH  16  18
ATOM     18  C   UNL A   1      31.661  27.382  22.759  1.00  0.00     0.071 C 
BRANCH  18  19
ATOM     19  C   UNL A   1      30.314  28.040  22.834  1.00  0.00     0.007 A 
ATOM     20  C   UNL A   1      29.157  27.494  23.360  1.00  0.00     0.015 A 
ATOM     21  S   UNL A   1      30.002  29.565  22.122  1.00  0.00    -0.149 S 
ATOM     22  C   UNL A   1      28.035  28.362  23.233  1.00  0.00     0.012 A 
ATOM     23  C   UNL A   1      28.368  29.542  22.609  1.00  0.00     0.065 A 
ENDBRANCH  18  19
ENDBRANCH  16  18
ENDBRANCH  14  16
ENDBRANCH  12  14
ENDBRANCH   7  12
ENDBRANCH   3   6
ENDBRANCH   1   2
BRANCH   1  24
ATOM     24  C   UNL A   1      31.267  27.493  26.541  1.00  0.00     0.023 C 
BRANCH  24  25
ATOM     25  C   UNL A   1      32.010  28.789  26.294  1.00  0.00     0.023 C 
BRANCH  25  26
ATOM     26  C   UNL A   1      33.243  28.950  27.166  1.00  0.00     0.116 C 
BRANCH  26  27
ATOM     27  N   UNL A   1      33.388  30.278  27.761  1.00  0.00    -0.352 N 
ATOM     28  C   UNL A   1      34.482  30.875  28.354  1.00  0.00     0.251 C 
ATOM     29  H   UNL A   1      32.576  30.834  27.735  1.00  0.00     0.163 HD
ATOM     30  O   UNL A   1      34.385  31.981  28.868  1.00  0.00    -0.269 OA
BRANCH  28  31
ATOM     31  C   UNL A   1      35.758  30.131  28.416  1.00  0.00     0.039 A 
ATOM     32  C   UNL A   1      36.613  30.147  27.312  1.00  0.00     0.014 A 
ATOM     33  C   UNL A   1      36.161  29.539  29.610  1.00  0.00     0.014 A 
ATOM     34  C   UNL A   1      37.931  29.709  27.461  1.00  0.00     0.010 A 
ATOM     35  C   UNL A   1      37.504  29.246  29.795  1.00  0.00     0.010 A 
ATOM     36  C   UNL A   1      38.412  29.344  28.729  1.00  0.00    -0.014 A 
BRANCH  36  37
ATOM     37  C   UNL A   1      39.853  29.081  28.994  1.00  0.00     0.031 A 
ATOM     38  C   UNL A   1      40.699  30.156  29.623  1.00  0.00     0.074 A 
ATOM     39  C   UNL A   1      40.430  27.943  28.554  1.00  0.00     0.049 A 
ATOM     40  N   UNL A   1      42.001  30.236  29.727  1.00  0.00    -0.248 NA
ATOM     41  C   UNL A   1      39.984  31.328  30.156  1.00  0.00     0.031 C 
ATOM     42  C   UNL A   1      39.745  26.848  27.865  1.00  0.00     0.029 A 
ATOM     43  N   UNL A   1      41.739  27.529  28.604  1.00  0.00    -0.354 N 
ATOM     44  C   UNL A   1      42.257  31.481  30.286  1.00  0.00     0.074 A 
ATOM     45  C   UNL A   1      40.984  32.147  30.444  1.00  0.00     0.031 C 
ATOM     46  C   UNL A   1      40.629  25.876  27.586  1.00  0.00     0.029 A 
ATOM     47  C   UNL A   1      41.953  26.299  28.026  1.00  0.00     0.049 A 
ATOM     48  H   UNL A   1      42.458  28.062  29.014  1.00  0.00     0.167 HD
ATOM     49  C   UNL A   1      43.444  32.009  30.665  1.00  0.00     0.037 A 
ATOM     50  C   UNL A   1      43.091  25.600  27.857  1.00  0.00     0.037 A 
ATOM     51  C   UNL A   1      44.699  31.316  30.579  1.00  0.00     0.049 A 
ATOM     52  C   UNL A   1      44.391  26.189  28.335  1.00  0.00     0.074 A 
ATOM     53  C   UNL A   1      45.948  31.736  31.002  1.00  0.00     0.029 A 
ATOM     54  N   UNL A   1      44.859  30.043  30.052  1.00  0.00    -0.354 N 
ATOM     55  N   UNL A   1      44.614  27.352  28.898  1.00  0.00    -0.248 NA
ATOM     56  C   UNL A   1      45.598  25.371  28.151  1.00  0.00     0.031 C 
ATOM     57  C   UNL A   1      46.868  30.721  30.717  1.00  0.00     0.029 A 
ATOM     58  C   UNL A   1      46.186  29.661  30.143  1.00  0.00     0.049 A 
ATOM     59  H   UNL A   1      44.137  29.494  29.671  1.00  0.00     0.167 HD
ATOM     60  C   UNL A   1      45.977  27.396  29.153  1.00  0.00     0.074 A 
ATOM     61  C   UNL A   1      46.530  26.137  28.699  1.00  0.00     0.031 C 
ATOM     62  C   UNL A   1      46.708  28.394  29.705  1.00  0.00     0.037 A 
BRANCH  49  63
ATOM     63  C   UNL A   1      43.430  33.394  31.243  1.00  0.00     0.064 A 
ATOM     64  C   UNL A   1      43.548  34.528  30.426  1.00  0.00     0.173 A 
ATOM     65  C   UNL A   1      43.271  33.591  32.622  1.00  0.00     0.173 A 
ATOM     66  F   UNL A   1      43.718  34.390  29.101  1.00  0.00    -0.203 F 
ATOM     67  C   UNL A   1      43.541  35.808  30.971  1.00  0.00     0.198 A 
ATOM     68  C   UNL A   1      43.233  34.874  33.162  1.00  0.00     0.198 A 
ATOM     69  F   UNL A   1      43.149  32.541  33.447  1.00  0.00    -0.203 F 
ATOM     70  F   UNL A   1      43.711  36.874  30.177  1.00  0.00    -0.200 F 
ATOM     71  C   UNL A   1      43.376  35.981  32.337  1.00  0.00     0.200 A 
ATOM     72  F   UNL A   1      43.064  35.042  34.480  1.00  0.00    -0.200 F 
ATOM     73  F   UNL A   1      43.365  37.214  32.860  1.00  0.00    -0.200 F 
ENDBRANCH  49  63
BRANCH  50  74
ATOM     74  C   UNL A   1      43.060  24.256  27.223  1.00  0.00     0.064 A 
ATOM     75  C   UNL A   1      43.375  24.099  25.865  1.00  0.00     0.173 A 
ATOM     76  C   UNL A   1      42.696  23.111  27.944  1.00  0.00     0.173 A 
ATOM     77  F   UNL A   1      43.707  25.169  25.129  1.00  0.00    -0.203 F 
ATOM     78  C   UNL A   1      43.301  22.853  25.247  1.00  0.00     0.198 A 
ATOM     79  C   UNL A   1      42.649  21.859  27.330  1.00  0.00     0.198 A 
ATOM     80  F   UNL A   1      42.389  23.205  29.246  1.00  0.00    -0.203 F 
ATOM     81  F   UNL A   1      43.558  22.741  23.936  1.00  0.00    -0.200 F 
ATOM     82  C   UNL A   1      42.942  21.733  25.981  1.00  0.00     0.200 A 
ATOM     83  F   UNL A   1      42.310  20.778  28.045  1.00  0.00    -0.200 F 
ATOM     84  F   UNL A   1      42.867  20.536  25.386  1.00  0.00    -0.200 F 
ENDBRANCH  50  74
BRANCH  62  85
ATOM     85  C   UNL A   1      48.176  28.152  29.884  1.00  0.00     0.064 A 
ATOM     86  C   UNL A   1      49.100  28.508  28.893  1.00  0.00     0.173 A 
ATOM     87  C   UNL A   1      48.664  27.614  31.083  1.00  0.00     0.173 A 
ATOM     88  F   UNL A   1      48.676  29.013  27.724  1.00  0.00    -0.203 F 
ATOM     89  C   UNL A   1      50.465  28.322  29.091  1.00  0.00     0.198 A 
ATOM     90  C   UNL A   1      50.031  27.451  31.287  1.00  0.00     0.198 A 
ATOM     91  F   UNL A   1      47.817  27.263  32.062  1.00  0.00    -0.203 F 
ATOM     92  F   UNL A   1      51.331  28.641  28.120  1.00  0.00    -0.200 F 
ATOM     93  C   UNL A   1      50.930  27.802  30.290  1.00  0.00     0.200 A 
ATOM     94  F   UNL A   1      50.480  26.958  32.449  1.00  0.00    -0.200 F 
ATOM     95  F   UNL A   1      52.245  27.634  30.484  1.00  0.00    -0.200 F 
ENDBRANCH  62  85
ENDBRANCH  36  37
ENDBRANCH  28  31
ENDBRANCH  26  27
ENDBRANCH  25  26
ENDBRANCH  24  25
ENDBRANCH   1  24
TORSDOF 16
ENDMDL
MODEL 3
REMARK VINA RESULT:     -11.8      0.698      7.268
REMARK SMILES C[C@H](Cc1cccs1)N(C)C(=O)N1CCC[C@]1(C)C(=O)NCCCCNC(=O)c1ccc(-c2c3nc(c(-c4c(F)c(F)c(F)c(F)c4F)c4ccc([nH]4)c(-c4c(F)c(F)c(F)c(F)c4F)c4nc(c(-c5c(F)c(F)c(F)c(F)c5F)c5ccc2[nH]5)C=C4)C=C3)cc1
REMARK SMILES IDX 22 1 21 2 19 3 20 4 17 6 13 7 14 8 15 9 16 10 18 11 11 12
REMARK SMILES IDX 12 13 9 14 10 15 2 16 1 17 3 18 4 19 5 20 8 21 6 22 7 23
REMARK SMILES IDX 23 24 24 25 25 26 26 27 27 28 28 30 29 31 30 32 91 33 31 34
REMARK SMILES IDX 90 35 32 36 33 37 34 38 84 39 35 40 89 41 83 42 85 43 36 44
REMARK SMILES IDX 88 45 82 46 81 47 37 49 69 50 49 51 68 52 50 53 53 54 67 55
REMARK SMILES IDX 86 56 51 57 52 58 66 60 87 61 54 62 38 63 39 64 47 65 40 66
REMARK SMILES IDX 41 67 45 68 48 69 42 70 43 71 46 72 44 73 70 74 71 75 79 76
REMARK SMILES IDX 72 77 73 78 77 79 80 80 74 81 75 82 78 83 76 84 55 85 56 86
REMARK SMILES IDX 64 87 57 88 58 89 62 90 65 91 59 92 60 93 63 94 61 95
REMARK H PARENT 21 5 26 29 85 48 53 59
REMARK Flexibility Score: inf
ROOT
ATOM      1  C   UNL A   1      31.628  27.568  26.260  1.00  0.00     0.116 C 
ENDROOT
BRANCH   1   2
ATOM      2  N   UNL A   1      31.276  26.284  26.820  1.00  0.00    -0.354 N 
ATOM      3  C   UNL A   1      31.561  25.011  26.420  1.00  0.00     0.245 C 
ATOM      4  O   UNL A   1      30.926  24.124  27.004  1.00  0.00    -0.272 OA
ATOM      5  H   UNL A   1      30.729  26.337  27.636  1.00  0.00     0.163 HD
BRANCH   3   6
ATOM      6  C   UNL A   1      32.659  24.681  25.340  1.00  0.00     0.120 C 
ATOM      7  N   UNL A   1      32.278  24.794  23.895  1.00  0.00    -0.310 N 
ATOM      8  C   UNL A   1      32.402  23.494  23.251  1.00  0.00     0.122 C 
ATOM      9  C   UNL A   1      32.215  22.494  24.371  1.00  0.00     0.025 C 
ATOM     10  C   UNL A   1      33.001  23.153  25.489  1.00  0.00     0.040 C 
ATOM     11  C   UNL A   1      33.980  25.419  25.638  1.00  0.00     0.046 C 
BRANCH   7  12
ATOM     12  C   UNL A   1      31.174  25.519  23.462  1.00  0.00     0.320 C 
ATOM     13  O   UNL A   1      30.061  25.265  23.907  1.00  0.00    -0.248 OA
BRANCH  12  14
ATOM     14  N   UNL A   1      31.434  26.440  22.444  1.00  0.00    -0.325 N 
ATOM     15  C   UNL A   1      31.767  25.973  21.105  1.00  0.00     0.149 C 
BRANCH  14  16
ATOM     16  C   UNL A   1      31.197  27.909  22.585  1.00  0.00     0.088 C 
ATOM     17  C   UNL A   1      32.327  28.806  23.119  1.00  0.00     0.031 C 
BRANCH  16  18
ATOM     18  C   UNL A   1      29.832  28.265  23.217  1.00  0.00     0.071 C 
BRANCH  18  19
ATOM     19  C   UNL A   1      29.308  29.657  23.016  1.00  0.00     0.007 A 
ATOM     20  C   UNL A   1      29.407  30.713  23.903  1.00  0.00     0.015 A 
ATOM     21  S   UNL A   1      28.363  30.088  21.656  1.00  0.00    -0.149 S 
ATOM     22  C   UNL A   1      28.761  31.890  23.429  1.00  0.00     0.012 A 
ATOM     23  C   UNL A   1      28.184  31.696  22.196  1.00  0.00     0.065 A 
ENDBRANCH  18  19
ENDBRANCH  16  18
ENDBRANCH  14  16
ENDBRANCH  12  14
ENDBRANCH   7  12
ENDBRANCH   3   6
ENDBRANCH   1   2
BRANCH   1  24
ATOM     24  C   UNL A   1      31.821  28.601  27.358  1.00  0.00     0.023 C 
BRANCH  24  25
ATOM     25  C   UNL A   1      31.397  30.013  27.014  1.00  0.00     0.023 C 
BRANCH  25  26
ATOM     26  C   UNL A   1      32.535  30.870  26.486  1.00  0.00     0.116 C 
BRANCH  26  27
ATOM     27  N   UNL A   1      32.565  32.228  27.029  1.00  0.00    -0.352 N 
ATOM     28  C   UNL A   1      33.559  32.890  27.719  1.00  0.00     0.251 C 
ATOM     29  H   UNL A   1      31.745  32.752  26.878  1.00  0.00     0.163 HD
ATOM     30  O   UNL A   1      33.366  34.014  28.164  1.00  0.00    -0.269 OA
BRANCH  28  31
ATOM     31  C   UNL A   1      34.840  32.197  27.972  1.00  0.00     0.039 A 
ATOM     32  C   UNL A   1      35.996  32.952  28.182  1.00  0.00     0.014 A 
ATOM     33  C   UNL A   1      34.864  30.814  28.134  1.00  0.00     0.014 A 
ATOM     34  C   UNL A   1      37.131  32.333  28.711  1.00  0.00     0.010 A 
ATOM     35  C   UNL A   1      35.936  30.234  28.795  1.00  0.00     0.010 A 
ATOM     36  C   UNL A   1      37.077  30.988  29.109  1.00  0.00    -0.014 A 
BRANCH  36  37
ATOM     37  C   UNL A   1      38.174  30.334  29.875  1.00  0.00     0.031 A 
ATOM     38  C   UNL A   1      38.404  30.717  31.312  1.00  0.00     0.074 A 
ATOM     39  C   UNL A   1      39.039  29.506  29.253  1.00  0.00     0.049 A 
ATOM     40  N   UNL A   1      39.427  30.461  32.088  1.00  0.00    -0.248 NA
ATOM     41  C   UNL A   1      37.370  31.554  31.944  1.00  0.00     0.031 C 
ATOM     42  C   UNL A   1      38.978  29.104  27.846  1.00  0.00     0.029 A 
ATOM     43  N   UNL A   1      40.160  28.868  29.726  1.00  0.00    -0.354 N 
ATOM     44  C   UNL A   1      39.180  31.144  33.272  1.00  0.00     0.074 A 
ATOM     45  C   UNL A   1      37.945  31.874  33.093  1.00  0.00     0.031 C 
ATOM     46  C   UNL A   1      39.993  28.265  27.579  1.00  0.00     0.029 A 
ATOM     47  C   UNL A   1      40.808  28.111  28.778  1.00  0.00     0.049 A 
ATOM     48  H   UNL A   1      40.472  28.945  30.657  1.00  0.00     0.167 HD
ATOM     49  C   UNL A   1      39.900  31.137  34.418  1.00  0.00     0.037 A 
ATOM     50  C   UNL A   1      41.941  27.387  28.862  1.00  0.00     0.037 A 
ATOM     51  C   UNL A   1      41.085  30.350  34.621  1.00  0.00     0.049 A 
ATOM     52  C   UNL A   1      42.695  27.356  30.165  1.00  0.00     0.074 A 
ATOM     53  C   UNL A   1      41.847  30.218  35.767  1.00  0.00     0.029 A 
ATOM     54  N   UNL A   1      41.665  29.542  33.655  1.00  0.00    -0.354 N 
ATOM     55  N   UNL A   1      42.429  27.975  31.289  1.00  0.00    -0.248 NA
ATOM     56  C   UNL A   1      43.908  26.527  30.209  1.00  0.00     0.031 C 
ATOM     57  C   UNL A   1      42.900  29.339  35.491  1.00  0.00     0.029 A 
ATOM     58  C   UNL A   1      42.776  28.905  34.182  1.00  0.00     0.049 A 
ATOM     59  H   UNL A   1      41.337  29.437  32.733  1.00  0.00     0.167 HD
ATOM     60  C   UNL A   1      43.425  27.596  32.177  1.00  0.00     0.074 A 
ATOM     61  C   UNL A   1      44.294  26.681  31.468  1.00  0.00     0.031 C 
ATOM     62  C   UNL A   1      43.611  27.981  33.463  1.00  0.00     0.037 A 
BRANCH  49  63
ATOM     63  C   UNL A   1      39.398  31.980  35.553  1.00  0.00     0.064 A 
ATOM     64  C   UNL A   1      39.788  33.320  35.695  1.00  0.00     0.173 A 
ATOM     65  C   UNL A   1      38.501  31.453  36.493  1.00  0.00     0.173 A 
ATOM     66  F   UNL A   1      40.658  33.865  34.830  1.00  0.00    -0.203 F 
ATOM     67  C   UNL A   1      39.324  34.093  36.755  1.00  0.00     0.198 A 
ATOM     68  C   UNL A   1      38.014  32.238  37.535  1.00  0.00     0.198 A 
ATOM     69  F   UNL A   1      38.093  30.179  36.401  1.00  0.00    -0.203 F 
ATOM     70  F   UNL A   1      39.753  35.354  36.901  1.00  0.00    -0.200 F 
ATOM     71  C   UNL A   1      38.432  33.554  37.670  1.00  0.00     0.200 A 
ATOM     72  F   UNL A   1      37.144  31.721  38.413  1.00  0.00    -0.200 F 
ATOM     73  F   UNL A   1      37.982  34.301  38.687  1.00  0.00    -0.200 F 
ENDBRANCH  49  63
BRANCH  50  74
ATOM     74  C   UNL A   1      42.429  26.616  27.689  1.00  0.00     0.064 A 
ATOM     75  C   UNL A   1      41.975  25.310  27.453  1.00  0.00     0.173 A 
ATOM     76  C   UNL A   1      43.369  27.151  26.797  1.00  0.00     0.173 A 
ATOM     77  F   UNL A   1      41.093  24.748  28.292  1.00  0.00    -0.203 F 
ATOM     78  C   UNL A   1      42.462  24.560  26.386  1.00  0.00     0.198 A 
ATOM     79  C   UNL A   1      43.836  26.408  25.713  1.00  0.00     0.198 A 
ATOM     80  F   UNL A   1      43.832  28.397  26.976  1.00  0.00    -0.203 F 
ATOM     81  F   UNL A   1      42.049  23.296  26.214  1.00  0.00    -0.200 F 
ATOM     82  C   UNL A   1      43.390  25.110  25.514  1.00  0.00     0.200 A 
ATOM     83  F   UNL A   1      44.725  26.947  24.868  1.00  0.00    -0.200 F 
ATOM     84  F   UNL A   1      43.861  24.387  24.490  1.00  0.00    -0.200 F 
ENDBRANCH  50  74
BRANCH  62  85
ATOM     85  C   UNL A   1      44.773  27.385  34.196  1.00  0.00     0.064 A 
ATOM     86  C   UNL A   1      44.662  26.159  34.868  1.00  0.00     0.173 A 
ATOM     87  C   UNL A   1      46.024  28.018  34.176  1.00  0.00     0.173 A 
ATOM     88  F   UNL A   1      43.480  25.527  34.925  1.00  0.00    -0.203 F 
ATOM     89  C   UNL A   1      45.762  25.594  35.505  1.00  0.00     0.198 A 
ATOM     90  C   UNL A   1      47.127  27.438  34.795  1.00  0.00     0.198 A 
ATOM     91  F   UNL A   1      46.179  29.190  33.542  1.00  0.00    -0.203 F 
ATOM     92  F   UNL A   1      45.628  24.436  36.167  1.00  0.00    -0.200 F 
ATOM     93  C   UNL A   1      46.994  26.228  35.461  1.00  0.00     0.200 A 
ATOM     94  F   UNL A   1      48.320  28.046  34.743  1.00  0.00    -0.200 F 
ATOM     95  F   UNL A   1      48.055  25.676  36.065  1.00  0.00    -0.200 F 
ENDBRANCH  62  85
ENDBRANCH  36  37
ENDBRANCH  28  31
ENDBRANCH  26  27
ENDBRANCH  25  26
ENDBRANCH  24  25
ENDBRANCH   1  24
TORSDOF 16
ENDMDL
