MODEL 1
REMARK VINA RESULT:     -12.7      0.000      0.000
REMARK SMILES O=C(NCCCCNC(=O)c1cccc2nc(Cl)c(Cl)nc12)c1ccc(-c2c3nc(c(-c4c(F)c(F)c(F)c(F)c4F)c4ccc([nH]4)c(-c4c(F)c(F)c(F)c(F)c4F)c4nc(c(-c5c(F)c(F)c(F)c(F)c5F)c5ccc2[nH]5)C=C4)C=C3)cc1
REMARK SMILES IDX 4 1 3 2 1 3 2 4 23 6 24 7 85 8 25 9 84 10 26 11 27 12 28 13
REMARK SMILES IDX 78 14 29 15 83 16 77 17 79 18 30 19 82 20 76 21 75 22 31 24
REMARK SMILES IDX 63 25 43 26 62 27 44 28 47 29 61 30 80 31 45 32 46 33 60 35
REMARK SMILES IDX 81 36 48 37 32 38 33 39 41 40 34 41 35 42 39 43 42 44 36 45
REMARK SMILES IDX 37 46 40 47 38 48 64 49 65 50 73 51 66 52 67 53 71 54 74 55
REMARK SMILES IDX 68 56 69 57 72 58 70 59 49 60 50 61 58 62 51 63 52 64 56 65
REMARK SMILES IDX 59 66 53 67 54 68 57 69 55 70 5 71 6 72 7 73 8 74 9 75 10 77
REMARK SMILES IDX 11 78 12 79 22 80 13 81 15 82 21 83 14 84 16 85 19 86 17 87
REMARK SMILES IDX 20 88 18 89
REMARK H PARENT 3 5 79 23 47 34 8 76
REMARK Flexibility Score: inf
ROOT
ATOM      1  C   UNL A   1      33.045  29.492  25.681  1.00  0.00     0.116 C 
ENDROOT
BRANCH   1   2
ATOM      2  N   UNL A   1      32.723  30.810  26.200  1.00  0.00    -0.352 N 
ATOM      3  O   UNL A   1      32.818  32.605  27.546  1.00  0.00    -0.269 OA
ATOM      4  C   UNL A   1      33.352  31.570  27.153  1.00  0.00     0.251 C 
ATOM      5  H   UNL A   1      31.924  31.227  25.802  1.00  0.00     0.163 HD
BRANCH   4   6
ATOM      6  C   UNL A   1      34.656  31.161  27.723  1.00  0.00     0.039 A 
ATOM      7  C   UNL A   1      34.814  29.838  28.149  1.00  0.00     0.014 A 
ATOM      8  C   UNL A   1      35.697  32.073  27.907  1.00  0.00     0.014 A 
ATOM      9  C   UNL A   1      36.013  29.432  28.740  1.00  0.00     0.010 A 
ATOM     10  C   UNL A   1      36.928  31.644  28.398  1.00  0.00     0.010 A 
ATOM     11  C   UNL A   1      37.082  30.332  28.866  1.00  0.00    -0.014 A 
BRANCH  11  12
ATOM     12  C   UNL A   1      38.321  29.948  29.590  1.00  0.00     0.031 A 
ATOM     13  C   UNL A   1      38.561  30.478  30.979  1.00  0.00     0.074 A 
ATOM     14  C   UNL A   1      39.226  29.137  29.012  1.00  0.00     0.049 A 
ATOM     15  N   UNL A   1      39.572  30.266  31.784  1.00  0.00    -0.248 NA
ATOM     16  C   UNL A   1      37.547  31.392  31.529  1.00  0.00     0.031 C 
ATOM     17  C   UNL A   1      39.127  28.590  27.659  1.00  0.00     0.029 A 
ATOM     18  N   UNL A   1      40.403  28.622  29.495  1.00  0.00    -0.354 N 
ATOM     19  C   UNL A   1      39.317  31.027  32.917  1.00  0.00     0.074 A 
ATOM     20  C   UNL A   1      38.102  31.767  32.669  1.00  0.00     0.031 C 
ATOM     21  C   UNL A   1      40.174  27.779  27.437  1.00  0.00     0.029 A 
ATOM     22  C   UNL A   1      41.033  27.772  28.620  1.00  0.00     0.049 A 
ATOM     23  H   UNL A   1      40.762  28.841  30.385  1.00  0.00     0.167 HD
ATOM     24  C   UNL A   1      40.007  31.072  34.080  1.00  0.00     0.037 A 
ATOM     25  C   UNL A   1      42.168  27.060  28.762  1.00  0.00     0.037 A 
ATOM     26  C   UNL A   1      41.183  30.294  34.347  1.00  0.00     0.049 A 
ATOM     27  C   UNL A   1      42.932  27.139  30.056  1.00  0.00     0.074 A 
ATOM     28  C   UNL A   1      41.908  30.204  35.522  1.00  0.00     0.029 A 
ATOM     29  N   UNL A   1      41.805  29.467  33.423  1.00  0.00    -0.354 N 
ATOM     30  N   UNL A   1      42.639  27.802  31.149  1.00  0.00    -0.248 NA
ATOM     31  C   UNL A   1      44.186  26.375  30.138  1.00  0.00     0.031 C 
ATOM     32  C   UNL A   1      42.996  29.356  35.294  1.00  0.00     0.029 A 
ATOM     33  C   UNL A   1      42.926  28.889  33.991  1.00  0.00     0.049 A 
ATOM     34  H   UNL A   1      41.495  29.316  32.501  1.00  0.00     0.167 HD
ATOM     35  C   UNL A   1      43.660  27.529  32.048  1.00  0.00     0.074 A 
ATOM     36  C   UNL A   1      44.574  26.625  31.382  1.00  0.00     0.031 C 
ATOM     37  C   UNL A   1      43.826  27.992  33.311  1.00  0.00     0.037 A 
BRANCH  24  38
ATOM     38  C   UNL A   1      39.487  31.975  35.161  1.00  0.00     0.064 A 
ATOM     39  C   UNL A   1      38.617  31.501  36.156  1.00  0.00     0.173 A 
ATOM     40  C   UNL A   1      39.882  33.318  35.222  1.00  0.00     0.173 A 
ATOM     41  F   UNL A   1      38.199  30.226  36.136  1.00  0.00    -0.203 F 
ATOM     42  C   UNL A   1      38.136  32.348  37.150  1.00  0.00     0.198 A 
ATOM     43  C   UNL A   1      39.423  34.155  36.236  1.00  0.00     0.198 A 
ATOM     44  F   UNL A   1      40.717  33.821  34.300  1.00  0.00    -0.203 F 
ATOM     45  F   UNL A   1      37.262  31.886  38.056  1.00  0.00    -0.200 F 
ATOM     46  C   UNL A   1      38.544  33.672  37.194  1.00  0.00     0.200 A 
ATOM     47  F   UNL A   1      39.829  35.431  36.285  1.00  0.00    -0.200 F 
ATOM     48  F   UNL A   1      38.084  34.485  38.155  1.00  0.00    -0.200 F 
ENDBRANCH  24  38
BRANCH  25  49
ATOM     49  C   UNL A   1      42.616  26.171  27.658  1.00  0.00     0.064 A 
ATOM     50  C   UNL A   1      42.045  24.902  27.487  1.00  0.00     0.173 A 
ATOM     51  C   UNL A   1      43.585  26.583  26.732  1.00  0.00     0.173 A 
ATOM     52  F   UNL A   1      41.129  24.457  28.359  1.00  0.00    -0.203 F 
ATOM     53  C   UNL A   1      42.427  24.079  26.429  1.00  0.00     0.198 A 
ATOM     54  C   UNL A   1      43.949  25.767  25.662  1.00  0.00     0.198 A 
ATOM     55  F   UNL A   1      44.158  27.789  26.851  1.00  0.00    -0.203 F 
ATOM     56  F   UNL A   1      41.882  22.861  26.301  1.00  0.00    -0.200 F 
ATOM     57  C   UNL A   1      43.372  24.515  25.513  1.00  0.00     0.200 A 
ATOM     58  F   UNL A   1      44.853  26.198  24.770  1.00  0.00    -0.200 F 
ATOM     59  F   UNL A   1      43.726  23.730  24.486  1.00  0.00    -0.200 F 
ENDBRANCH  25  49
BRANCH  37  60
ATOM     60  C   UNL A   1      45.043  27.551  34.067  1.00  0.00     0.064 A 
ATOM     61  C   UNL A   1      45.043  26.356  34.801  1.00  0.00     0.173 A 
ATOM     62  C   UNL A   1      46.250  28.256  33.953  1.00  0.00     0.173 A 
ATOM     63  F   UNL A   1      43.910  25.654  34.946  1.00  0.00    -0.203 F 
ATOM     64  C   UNL A   1      46.211  25.879  35.389  1.00  0.00     0.198 A 
ATOM     65  C   UNL A   1      47.421  27.764  34.522  1.00  0.00     0.198 A 
ATOM     66  F   UNL A   1      46.303  29.399  33.253  1.00  0.00    -0.203 F 
ATOM     67  F   UNL A   1      46.186  24.741  36.095  1.00  0.00    -0.200 F 
ATOM     68  C   UNL A   1      47.401  26.576  35.237  1.00  0.00     0.200 A 
ATOM     69  F   UNL A   1      48.574  28.427  34.360  1.00  0.00    -0.200 F 
ATOM     70  F   UNL A   1      48.530  26.099  35.778  1.00  0.00    -0.200 F 
ENDBRANCH  37  60
ENDBRANCH  11  12
ENDBRANCH   4   6
ENDBRANCH   1   2
BRANCH   1  71
ATOM     71  C   UNL A   1      31.966  28.936  24.761  1.00  0.00     0.023 C 
BRANCH  71  72
ATOM     72  C   UNL A   1      32.369  28.774  23.297  1.00  0.00     0.023 C 
BRANCH  72  73
ATOM     73  C   UNL A   1      33.548  27.841  23.042  1.00  0.00     0.116 C 
BRANCH  73  74
ATOM     74  N   UNL A   1      33.501  27.214  21.732  1.00  0.00    -0.352 N 
ATOM     75  C   UNL A   1      33.017  25.978  21.384  1.00  0.00     0.253 C 
ATOM     76  H   UNL A   1      33.867  27.750  20.992  1.00  0.00     0.163 HD
ATOM     77  O   UNL A   1      33.023  25.616  20.210  1.00  0.00    -0.269 OA
BRANCH  75  78
ATOM     78  C   UNL A   1      32.420  25.121  22.421  1.00  0.00     0.067 A 
ATOM     79  C   UNL A   1      31.061  25.303  22.718  1.00  0.00     0.016 A 
ATOM     80  C   UNL A   1      33.208  24.156  23.059  1.00  0.00     0.103 A 
ATOM     81  C   UNL A   1      30.476  24.543  23.716  1.00  0.00     0.003 A 
ATOM     82  C   UNL A   1      32.580  23.370  24.062  1.00  0.00     0.091 A 
ATOM     83  N   UNL A   1      34.522  23.964  22.770  1.00  0.00    -0.230 NA
ATOM     84  C   UNL A   1      31.244  23.588  24.379  1.00  0.00     0.031 A 
ATOM     85  N   UNL A   1      33.238  22.408  24.734  1.00  0.00    -0.231 NA
ATOM     86  C   UNL A   1      35.165  22.977  23.435  1.00  0.00     0.167 A 
ATOM     87  C   UNL A   1      34.534  22.213  24.398  1.00  0.00     0.167 A 
ATOM     88  Cl  UNL A   1      36.805  22.781  22.970  1.00  0.00    -0.059 Cl
ATOM     89  Cl  UNL A   1      35.292  20.952  25.281  1.00  0.00    -0.059 Cl
ENDBRANCH  75  78
ENDBRANCH  73  74
ENDBRANCH  72  73
ENDBRANCH  71  72
ENDBRANCH   1  71
TORSDOF 11
ENDMDL
MODEL 2
REMARK VINA RESULT:     -12.7      2.206      3.405
REMARK SMILES O=C(NCCCCNC(=O)c1cccc2nc(Cl)c(Cl)nc12)c1ccc(-c2c3nc(c(-c4c(F)c(F)c(F)c(F)c4F)c4ccc([nH]4)c(-c4c(F)c(F)c(F)c(F)c4F)c4nc(c(-c5c(F)c(F)c(F)c(F)c5F)c5ccc2[nH]5)C=C4)C=C3)cc1
REMARK SMILES IDX 4 1 3 2 1 3 2 4 23 6 24 7 85 8 25 9 84 10 26 11 27 12 28 13
REMARK SMILES IDX 78 14 29 15 83 16 77 17 79 18 30 19 82 20 76 21 75 22 31 24
REMARK SMILES IDX 63 25 43 26 62 27 44 28 47 29 61 30 80 31 45 32 46 33 60 35
REMARK SMILES IDX 81 36 48 37 32 38 33 39 41 40 34 41 35 42 39 43 42 44 36 45
REMARK SMILES IDX 37 46 40 47 38 48 64 49 65 50 73 51 66 52 67 53 71 54 74 55
REMARK SMILES IDX 68 56 69 57 72 58 70 59 49 60 50 61 58 62 51 63 52 64 56 65
REMARK SMILES IDX 59 66 53 67 54 68 57 69 55 70 5 71 6 72 7 73 8 74 9 75 10 77
REMARK SMILES IDX 11 78 12 79 22 80 13 81 15 82 21 83 14 84 16 85 19 86 17 87
REMARK SMILES IDX 20 88 18 89
REMARK H PARENT 3 5 79 23 47 34 8 76
REMARK Flexibility Score: inf
ROOT
ATOM      1  C   UNL A   1      32.656  32.905  27.061  1.00  0.00     0.116 C 
ENDROOT
BRANCH   1   2
ATOM      2  N   UNL A   1      32.426  34.229  27.615  1.00  0.00    -0.352 N 
ATOM      3  O   UNL A   1      32.568  35.940  29.061  1.00  0.00    -0.269 OA
ATOM      4  C   UNL A   1      33.025  34.869  28.670  1.00  0.00     0.251 C 
ATOM      5  H   UNL A   1      31.727  34.752  27.158  1.00  0.00     0.163 HD
BRANCH   4   6
ATOM      6  C   UNL A   1      34.205  34.286  29.351  1.00  0.00     0.039 A 
ATOM      7  C   UNL A   1      35.478  34.597  28.864  1.00  0.00     0.014 A 
ATOM      8  C   UNL A   1      34.072  33.389  30.414  1.00  0.00     0.014 A 
ATOM      9  C   UNL A   1      36.609  34.023  29.450  1.00  0.00     0.010 A 
ATOM     10  C   UNL A   1      35.201  32.901  31.065  1.00  0.00     0.010 A 
ATOM     11  C   UNL A   1      36.480  33.172  30.559  1.00  0.00    -0.014 A 
BRANCH  11  12
ATOM     12  C   UNL A   1      37.660  32.468  31.122  1.00  0.00     0.031 A 
ATOM     13  C   UNL A   1      38.150  32.829  32.500  1.00  0.00     0.074 A 
ATOM     14  C   UNL A   1      38.293  31.518  30.409  1.00  0.00     0.049 A 
ATOM     15  N   UNL A   1      39.157  32.337  33.177  1.00  0.00    -0.248 NA
ATOM     16  C   UNL A   1      37.432  33.906  33.202  1.00  0.00     0.031 C 
ATOM     17  C   UNL A   1      37.941  31.107  29.051  1.00  0.00     0.029 A 
ATOM     18  N   UNL A   1      39.361  30.718  30.734  1.00  0.00    -0.354 N 
ATOM     19  C   UNL A   1      39.196  33.053  34.366  1.00  0.00     0.074 A 
ATOM     20  C   UNL A   1      38.166  34.063  34.290  1.00  0.00     0.031 C 
ATOM     21  C   UNL A   1      38.745  30.099  28.676  1.00  0.00     0.029 A 
ATOM     22  C   UNL A   1      39.690  29.814  29.754  1.00  0.00     0.049 A 
ATOM     23  H   UNL A   1      39.845  30.787  31.588  1.00  0.00     0.167 HD
ATOM     24  C   UNL A   1      39.986  32.858  35.447  1.00  0.00     0.037 A 
ATOM     25  C   UNL A   1      40.638  28.857  29.736  1.00  0.00     0.037 A 
ATOM     26  C   UNL A   1      40.971  31.818  35.544  1.00  0.00     0.049 A 
ATOM     27  C   UNL A   1      41.521  28.669  30.939  1.00  0.00     0.074 A 
ATOM     28  C   UNL A   1      41.765  31.483  36.626  1.00  0.00     0.029 A 
ATOM     29  N   UNL A   1      41.293  30.942  34.519  1.00  0.00    -0.354 N 
ATOM     30  N   UNL A   1      41.496  29.301  32.089  1.00  0.00    -0.248 NA
ATOM     31  C   UNL A   1      42.567  27.639  30.845  1.00  0.00     0.031 C 
ATOM     32  C   UNL A   1      42.601  30.432  36.239  1.00  0.00     0.029 A 
ATOM     33  C   UNL A   1      42.300  30.087  34.931  1.00  0.00     0.049 A 
ATOM     34  H   UNL A   1      40.869  30.930  33.631  1.00  0.00     0.167 HD
ATOM     35  C   UNL A   1      42.508  28.741  32.855  1.00  0.00     0.074 A 
ATOM     36  C   UNL A   1      43.119  27.705  32.050  1.00  0.00     0.031 C 
ATOM     37  C   UNL A   1      42.898  29.062  34.113  1.00  0.00     0.037 A 
BRANCH  24  38
ATOM     38  C   UNL A   1      39.796  33.774  36.621  1.00  0.00     0.064 A 
ATOM     39  C   UNL A   1      40.448  35.014  36.697  1.00  0.00     0.173 A 
ATOM     40  C   UNL A   1      38.932  33.423  37.669  1.00  0.00     0.173 A 
ATOM     41  F   UNL A   1      41.295  35.392  35.727  1.00  0.00    -0.203 F 
ATOM     42  C   UNL A   1      40.270  35.852  37.794  1.00  0.00     0.198 A 
ATOM     43  C   UNL A   1      38.732  34.278  38.749  1.00  0.00     0.198 A 
ATOM     44  F   UNL A   1      38.278  32.252  37.643  1.00  0.00    -0.203 F 
ATOM     45  F   UNL A   1      40.948  37.006  37.870  1.00  0.00    -0.200 F 
ATOM     46  C   UNL A   1      39.407  35.488  38.815  1.00  0.00     0.200 A 
ATOM     47  F   UNL A   1      37.887  33.929  39.729  1.00  0.00    -0.200 F 
ATOM     48  F   UNL A   1      39.232  36.298  39.868  1.00  0.00    -0.200 F 
ENDBRANCH  24  38
BRANCH  25  49
ATOM     49  C   UNL A   1      40.760  27.972  28.548  1.00  0.00     0.064 A 
ATOM     50  C   UNL A   1      40.062  26.757  28.488  1.00  0.00     0.173 A 
ATOM     51  C   UNL A   1      41.534  28.337  27.437  1.00  0.00     0.173 A 
ATOM     52  F   UNL A   1      39.324  26.357  29.533  1.00  0.00    -0.203 F 
ATOM     53  C   UNL A   1      40.135  25.942  27.360  1.00  0.00     0.198 A 
ATOM     54  C   UNL A   1      41.588  27.531  26.302  1.00  0.00     0.198 A 
ATOM     55  F   UNL A   1      42.217  29.491  27.446  1.00  0.00    -0.203 F 
ATOM     56  F   UNL A   1      39.476  24.775  27.336  1.00  0.00    -0.200 F 
ATOM     57  C   UNL A   1      40.890  26.333  26.265  1.00  0.00     0.200 A 
ATOM     58  F   UNL A   1      42.308  27.919  25.240  1.00  0.00    -0.200 F 
ATOM     59  F   UNL A   1      40.946  25.556  25.175  1.00  0.00    -0.200 F 
ENDBRANCH  25  49
BRANCH  37  60
ATOM     60  C   UNL A   1      44.047  28.305  34.708  1.00  0.00     0.064 A 
ATOM     61  C   UNL A   1      45.356  28.803  34.631  1.00  0.00     0.173 A 
ATOM     62  C   UNL A   1      43.824  27.147  35.466  1.00  0.00     0.173 A 
ATOM     63  F   UNL A   1      45.618  29.902  33.909  1.00  0.00    -0.203 F 
ATOM     64  C   UNL A   1      46.400  28.170  35.299  1.00  0.00     0.198 A 
ATOM     65  C   UNL A   1      44.866  26.531  36.153  1.00  0.00     0.198 A 
ATOM     66  F   UNL A   1      42.588  26.639  35.578  1.00  0.00    -0.203 F 
ATOM     67  F   UNL A   1      47.645  28.656  35.205  1.00  0.00    -0.200 F 
ATOM     68  C   UNL A   1      46.152  27.044  36.070  1.00  0.00     0.200 A 
ATOM     69  F   UNL A   1      44.623  25.454  36.912  1.00  0.00    -0.200 F 
ATOM     70  F   UNL A   1      47.154  26.454  36.738  1.00  0.00    -0.200 F 
ENDBRANCH  37  60
ENDBRANCH  11  12
ENDBRANCH   4   6
ENDBRANCH   1   2
BRANCH   1  71
ATOM     71  C   UNL A   1      31.378  32.086  26.930  1.00  0.00     0.023 C 
BRANCH  71  72
ATOM     72  C   UNL A   1      31.398  31.005  25.852  1.00  0.00     0.023 C 
BRANCH  72  73
ATOM     73  C   UNL A   1      32.506  29.966  25.987  1.00  0.00     0.116 C 
BRANCH  73  74
ATOM     74  N   UNL A   1      33.236  29.752  24.749  1.00  0.00    -0.352 N 
ATOM     75  C   UNL A   1      32.898  28.968  23.673  1.00  0.00     0.253 C 
ATOM     76  H   UNL A   1      34.089  30.235  24.671  1.00  0.00     0.163 HD
ATOM     77  O   UNL A   1      33.622  28.929  22.682  1.00  0.00    -0.269 OA
BRANCH  75  78
ATOM     78  C   UNL A   1      31.622  28.235  23.690  1.00  0.00     0.067 A 
ATOM     79  C   UNL A   1      30.521  28.824  23.049  1.00  0.00     0.016 A 
ATOM     80  C   UNL A   1      31.549  26.987  24.318  1.00  0.00     0.103 A 
ATOM     81  C   UNL A   1      29.295  28.183  23.079  1.00  0.00     0.003 A 
ATOM     82  C   UNL A   1      30.286  26.336  24.314  1.00  0.00     0.091 A 
ATOM     83  N   UNL A   1      32.612  26.403  24.930  1.00  0.00    -0.230 NA
ATOM     84  C   UNL A   1      29.192  26.948  23.715  1.00  0.00     0.031 A 
ATOM     85  N   UNL A   1      30.102  25.129  24.881  1.00  0.00    -0.231 NA
ATOM     86  C   UNL A   1      32.419  25.179  25.474  1.00  0.00     0.167 A 
ATOM     87  C   UNL A   1      31.187  24.555  25.449  1.00  0.00     0.167 A 
ATOM     88  Cl  UNL A   1      33.829  24.505  26.182  1.00  0.00    -0.059 Cl
ATOM     89  Cl  UNL A   1      30.874  23.009  26.124  1.00  0.00    -0.059 Cl
ENDBRANCH  75  78
ENDBRANCH  73  74
ENDBRANCH  72  73
ENDBRANCH  71  72
ENDBRANCH   1  71
TORSDOF 11
ENDMDL
MODEL 3
REMARK VINA RESULT:     -12.7      2.176      3.206
REMARK SMILES O=C(NCCCCNC(=O)c1cccc2nc(Cl)c(Cl)nc12)c1ccc(-c2c3nc(c(-c4c(F)c(F)c(F)c(F)c4F)c4ccc([nH]4)c(-c4c(F)c(F)c(F)c(F)c4F)c4nc(c(-c5c(F)c(F)c(F)c(F)c5F)c5ccc2[nH]5)C=C4)C=C3)cc1
REMARK SMILES IDX 4 1 3 2 1 3 2 4 23 6 24 7 85 8 25 9 84 10 26 11 27 12 28 13
REMARK SMILES IDX 78 14 29 15 83 16 77 17 79 18 30 19 82 20 76 21 75 22 31 24
REMARK SMILES IDX 63 25 43 26 62 27 44 28 47 29 61 30 80 31 45 32 46 33 60 35
REMARK SMILES IDX 81 36 48 37 32 38 33 39 41 40 34 41 35 42 39 43 42 44 36 45
REMARK SMILES IDX 37 46 40 47 38 48 64 49 65 50 73 51 66 52 67 53 71 54 74 55
REMARK SMILES IDX 68 56 69 57 72 58 70 59 49 60 50 61 58 62 51 63 52 64 56 65
REMARK SMILES IDX 59 66 53 67 54 68 57 69 55 70 5 71 6 72 7 73 8 74 9 75 10 77
REMARK SMILES IDX 11 78 12 79 22 80 13 81 15 82 21 83 14 84 16 85 19 86 17 87
REMARK SMILES IDX 20 88 18 89
REMARK H PARENT 3 5 79 23 47 34 8 76
REMARK Flexibility Score: inf
ROOT
ATOM      1  C   UNL A   1      32.627  32.878  27.069  1.00  0.00     0.116 C 
ENDROOT
BRANCH   1   2
ATOM      2  N   UNL A   1      32.395  34.200  27.626  1.00  0.00    -0.352 N 
ATOM      3  O   UNL A   1      32.531  35.907  29.077  1.00  0.00    -0.269 OA
ATOM      4  C   UNL A   1      32.990  34.837  28.686  1.00  0.00     0.251 C 
ATOM      5  H   UNL A   1      31.699  34.724  27.168  1.00  0.00     0.163 HD
BRANCH   4   6
ATOM      6  C   UNL A   1      34.166  34.252  29.371  1.00  0.00     0.039 A 
ATOM      7  C   UNL A   1      35.441  34.546  28.877  1.00  0.00     0.014 A 
ATOM      8  C   UNL A   1      34.028  33.369  30.444  1.00  0.00     0.014 A 
ATOM      9  C   UNL A   1      36.568  33.969  29.466  1.00  0.00     0.010 A 
ATOM     10  C   UNL A   1      35.155  32.878  31.098  1.00  0.00     0.010 A 
ATOM     11  C   UNL A   1      36.435  33.132  30.585  1.00  0.00    -0.014 A 
BRANCH  11  12
ATOM     12  C   UNL A   1      37.611  32.425  31.154  1.00  0.00     0.031 A 
ATOM     13  C   UNL A   1      38.086  32.774  32.539  1.00  0.00     0.074 A 
ATOM     14  C   UNL A   1      38.251  31.482  30.438  1.00  0.00     0.049 A 
ATOM     15  N   UNL A   1      39.088  32.278  33.222  1.00  0.00    -0.248 NA
ATOM     16  C   UNL A   1      37.361  33.844  33.243  1.00  0.00     0.031 C 
ATOM     17  C   UNL A   1      37.912  31.081  29.074  1.00  0.00     0.029 A 
ATOM     18  N   UNL A   1      39.316  30.680  30.767  1.00  0.00    -0.354 N 
ATOM     19  C   UNL A   1      39.114  32.983  34.418  1.00  0.00     0.074 A 
ATOM     20  C   UNL A   1      38.085  33.993  34.340  1.00  0.00     0.031 C 
ATOM     21  C   UNL A   1      38.721  30.078  28.698  1.00  0.00     0.029 A 
ATOM     22  C   UNL A   1      39.656  29.785  29.783  1.00  0.00     0.049 A 
ATOM     23  H   UNL A   1      39.792  30.742  31.626  1.00  0.00     0.167 HD
ATOM     24  C   UNL A   1      39.894  32.780  35.504  1.00  0.00     0.037 A 
ATOM     25  C   UNL A   1      40.605  28.829  29.765  1.00  0.00     0.037 A 
ATOM     26  C   UNL A   1      40.880  31.740  35.602  1.00  0.00     0.049 A 
ATOM     27  C   UNL A   1      41.477  28.631  30.975  1.00  0.00     0.074 A 
ATOM     28  C   UNL A   1      41.664  31.397  36.688  1.00  0.00     0.029 A 
ATOM     29  N   UNL A   1      41.212  30.873  34.572  1.00  0.00    -0.354 N 
ATOM     30  N   UNL A   1      41.440  29.253  32.130  1.00  0.00    -0.248 NA
ATOM     31  C   UNL A   1      42.525  27.603  30.882  1.00  0.00     0.031 C 
ATOM     32  C   UNL A   1      42.504  30.350  36.300  1.00  0.00     0.029 A 
ATOM     33  C   UNL A   1      42.216  30.016  34.986  1.00  0.00     0.049 A 
ATOM     34  H   UNL A   1      40.797  30.869  33.680  1.00  0.00     0.167 HD
ATOM     35  C   UNL A   1      42.445  28.688  32.901  1.00  0.00     0.074 A 
ATOM     36  C   UNL A   1      43.066  27.660  32.093  1.00  0.00     0.031 C 
ATOM     37  C   UNL A   1      42.823  28.999  34.165  1.00  0.00     0.037 A 
BRANCH  24  38
ATOM     38  C   UNL A   1      39.692  33.685  36.684  1.00  0.00     0.064 A 
ATOM     39  C   UNL A   1      40.335  34.930  36.772  1.00  0.00     0.173 A 
ATOM     40  C   UNL A   1      38.827  33.320  37.725  1.00  0.00     0.173 A 
ATOM     41  F   UNL A   1      41.183  35.322  35.808  1.00  0.00    -0.203 F 
ATOM     42  C   UNL A   1      40.145  35.759  37.874  1.00  0.00     0.198 A 
ATOM     43  C   UNL A   1      38.615  34.166  38.811  1.00  0.00     0.198 A 
ATOM     44  F   UNL A   1      38.182  32.144  37.688  1.00  0.00    -0.203 F 
ATOM     45  F   UNL A   1      40.814  36.917  37.962  1.00  0.00    -0.200 F 
ATOM     46  C   UNL A   1      39.281  35.380  38.889  1.00  0.00     0.200 A 
ATOM     47  F   UNL A   1      37.769  33.803  39.785  1.00  0.00    -0.200 F 
ATOM     48  F   UNL A   1      39.095  36.181  39.947  1.00  0.00    -0.200 F 
ENDBRANCH  24  38
BRANCH  25  49
ATOM     49  C   UNL A   1      40.739  27.954  28.570  1.00  0.00     0.064 A 
ATOM     50  C   UNL A   1      40.035  26.745  28.489  1.00  0.00     0.173 A 
ATOM     51  C   UNL A   1      41.533  28.325  27.475  1.00  0.00     0.173 A 
ATOM     52  F   UNL A   1      39.279  26.339  29.518  1.00  0.00    -0.203 F 
ATOM     53  C   UNL A   1      40.120  25.939  27.355  1.00  0.00     0.198 A 
ATOM     54  C   UNL A   1      41.599  27.529  26.333  1.00  0.00     0.198 A 
ATOM     55  F   UNL A   1      42.223  29.473  27.505  1.00  0.00    -0.203 F 
ATOM     56  F   UNL A   1      39.453  24.777  27.310  1.00  0.00    -0.200 F 
ATOM     57  C   UNL A   1      40.894  26.336  26.275  1.00  0.00     0.200 A 
ATOM     58  F   UNL A   1      42.338  27.922  25.286  1.00  0.00    -0.200 F 
ATOM     59  F   UNL A   1      40.961  25.569  25.178  1.00  0.00    -0.200 F 
ENDBRANCH  25  49
BRANCH  37  60
ATOM     60  C   UNL A   1      43.968  28.238  34.764  1.00  0.00     0.064 A 
ATOM     61  C   UNL A   1      43.760  27.010  35.408  1.00  0.00     0.173 A 
ATOM     62  C   UNL A   1      45.289  28.674  34.583  1.00  0.00     0.173 A 
ATOM     63  F   UNL A   1      42.514  26.559  35.612  1.00  0.00    -0.203 F 
ATOM     64  C   UNL A   1      44.835  26.241  35.842  1.00  0.00     0.198 A 
ATOM     65  C   UNL A   1      46.362  27.891  34.997  1.00  0.00     0.198 A 
ATOM     66  F   UNL A   1      45.538  29.837  33.964  1.00  0.00    -0.203 F 
ATOM     67  F   UNL A   1      44.614  25.075  36.464  1.00  0.00    -0.200 F 
ATOM     68  C   UNL A   1      46.135  26.675  35.624  1.00  0.00     0.200 A 
ATOM     69  F   UNL A   1      47.617  28.302  34.770  1.00  0.00    -0.200 F 
ATOM     70  F   UNL A   1      47.169  25.919  36.016  1.00  0.00    -0.200 F 
ENDBRANCH  37  60
ENDBRANCH  11  12
ENDBRANCH   4   6
ENDBRANCH   1   2
BRANCH   1  71
ATOM     71  C   UNL A   1      31.343  32.081  26.877  1.00  0.00     0.023 C 
BRANCH  71  72
ATOM     72  C   UNL A   1      31.403  30.985  25.814  1.00  0.00     0.023 C 
BRANCH  72  73
ATOM     73  C   UNL A   1      32.502  29.946  26.008  1.00  0.00     0.116 C 
BRANCH  73  74
ATOM     74  N   UNL A   1      33.292  29.727  24.808  1.00  0.00    -0.352 N 
ATOM     75  C   UNL A   1      32.990  28.973  23.701  1.00  0.00     0.253 C 
ATOM     76  H   UNL A   1      34.164  30.183  24.786  1.00  0.00     0.163 HD
ATOM     77  O   UNL A   1      33.767  28.926  22.751  1.00  0.00    -0.269 OA
BRANCH  75  78
ATOM     78  C   UNL A   1      31.692  28.283  23.633  1.00  0.00     0.067 A 
ATOM     79  C   UNL A   1      30.645  28.926  22.955  1.00  0.00     0.016 A 
ATOM     80  C   UNL A   1      31.547  27.022  24.222  1.00  0.00     0.103 A 
ATOM     81  C   UNL A   1      29.398  28.325  22.906  1.00  0.00     0.003 A 
ATOM     82  C   UNL A   1      30.266  26.414  24.136  1.00  0.00     0.091 A 
ATOM     83  N   UNL A   1      32.558  26.387  24.869  1.00  0.00    -0.230 NA
ATOM     84  C   UNL A   1      29.223  27.078  23.501  1.00  0.00     0.031 A 
ATOM     85  N   UNL A   1      30.015  25.200  24.659  1.00  0.00    -0.231 NA
ATOM     86  C   UNL A   1      32.299  25.156  25.368  1.00  0.00     0.167 A 
ATOM     87  C   UNL A   1      31.050  24.574  25.264  1.00  0.00     0.167 A 
ATOM     88  Cl  UNL A   1      33.648  24.416  26.127  1.00  0.00    -0.059 Cl
ATOM     89  Cl  UNL A   1      30.653  23.022  25.879  1.00  0.00    -0.059 Cl
ENDBRANCH  75  78
ENDBRANCH  73  74
ENDBRANCH  72  73
ENDBRANCH  71  72
ENDBRANCH   1  71
TORSDOF 11
ENDMDL
