MODEL 1
REMARK VINA RESULT:     -12.5      0.000      0.000
REMARK SMILES O=C(NCCCCNC(=O)c1c(F)cccc1NC(=O)c1ccc(Cl)nc1)c1ccc(-c2c3nc(c(-c4c(F)c(F)c(F)c(F)c4F)c4ccc([nH]4)c(-c4c(F)c(F)c(F)c(F)c4F)c4nc(c(-c5c(F)c(F)c(F)c(F)c5F)c5ccc2[nH]5)C=C4)C=C3)cc1
REMARK SMILES IDX 5 1 4 2 3 3 1 4 2 5 28 7 29 8 90 9 30 10 89 11 31 12 32 13
REMARK SMILES IDX 33 14 83 15 34 16 88 17 82 18 84 19 35 20 87 21 81 22 80 23
REMARK SMILES IDX 36 25 68 26 48 27 67 28 49 29 52 30 66 31 85 32 50 33 51 34
REMARK SMILES IDX 65 36 86 37 53 38 37 39 38 40 46 41 39 42 40 43 44 44 47 45
REMARK SMILES IDX 41 46 42 47 45 48 43 49 69 50 70 51 78 52 71 53 72 54 76 55
REMARK SMILES IDX 79 56 73 57 74 58 77 59 75 60 54 61 55 62 63 63 56 64 57 65
REMARK SMILES IDX 61 66 64 67 58 68 59 69 62 70 60 71 6 72 7 73 8 74 9 75
REMARK SMILES IDX 10 77 11 78 12 79 17 80 13 81 14 82 16 83 15 84 18 85 19 86
REMARK SMILES IDX 20 88 21 89 22 90 27 91 23 92 26 93 24 94 25 95
REMARK H PARENT 3 6 84 24 52 35 8 76 18 87
REMARK Flexibility Score: inf
ROOT
ATOM      1  C   UNL A   1      31.286  31.855  26.536  1.00  0.00     0.023 C 
ENDROOT
BRANCH   1   2
ATOM      2  C   UNL A   1      32.575  32.538  26.973  1.00  0.00     0.116 C 
BRANCH   2   3
ATOM      3  N   UNL A   1      32.366  33.889  27.469  1.00  0.00    -0.352 N 
ATOM      4  O   UNL A   1      32.659  35.657  28.841  1.00  0.00    -0.269 OA
ATOM      5  C   UNL A   1      33.046  34.562  28.457  1.00  0.00     0.251 C 
ATOM      6  H   UNL A   1      31.637  34.391  27.038  1.00  0.00     0.163 HD
BRANCH   5   7
ATOM      7  C   UNL A   1      34.239  33.940  29.073  1.00  0.00     0.039 A 
ATOM      8  C   UNL A   1      34.103  32.885  29.978  1.00  0.00     0.014 A 
ATOM      9  C   UNL A   1      35.509  34.419  28.735  1.00  0.00     0.014 A 
ATOM     10  C   UNL A   1      35.221  32.401  30.645  1.00  0.00     0.010 A 
ATOM     11  C   UNL A   1      36.641  33.872  29.345  1.00  0.00     0.010 A 
ATOM     12  C   UNL A   1      36.504  32.874  30.319  1.00  0.00    -0.014 A 
BRANCH  12  13
ATOM     13  C   UNL A   1      37.686  32.231  30.943  1.00  0.00     0.031 A 
ATOM     14  C   UNL A   1      38.147  32.604  32.322  1.00  0.00     0.074 A 
ATOM     15  C   UNL A   1      38.329  31.274  30.247  1.00  0.00     0.049 A 
ATOM     16  N   UNL A   1      39.155  32.124  33.008  1.00  0.00    -0.248 NA
ATOM     17  C   UNL A   1      37.387  33.649  33.027  1.00  0.00     0.031 C 
ATOM     18  C   UNL A   1      37.972  30.842  28.892  1.00  0.00     0.029 A 
ATOM     19  N   UNL A   1      39.396  30.480  30.577  1.00  0.00    -0.354 N 
ATOM     20  C   UNL A   1      39.160  32.813  34.212  1.00  0.00     0.074 A 
ATOM     21  C   UNL A   1      38.066  33.760  34.163  1.00  0.00     0.031 C 
ATOM     22  C   UNL A   1      38.775  29.833  28.526  1.00  0.00     0.029 A 
ATOM     23  C   UNL A   1      39.742  29.589  29.590  1.00  0.00     0.049 A 
ATOM     24  H   UNL A   1      39.868  30.542  31.438  1.00  0.00     0.167 HD
ATOM     25  C   UNL A   1      40.001  32.658  35.262  1.00  0.00     0.037 A 
ATOM     26  C   UNL A   1      40.740  28.688  29.536  1.00  0.00     0.037 A 
ATOM     27  C   UNL A   1      41.070  31.694  35.312  1.00  0.00     0.049 A 
ATOM     28  C   UNL A   1      41.667  28.557  30.708  1.00  0.00     0.074 A 
ATOM     29  C   UNL A   1      41.941  31.429  36.356  1.00  0.00     0.029 A 
ATOM     30  N   UNL A   1      41.416  30.839  34.277  1.00  0.00    -0.354 N 
ATOM     31  N   UNL A   1      41.641  29.196  31.852  1.00  0.00    -0.248 NA
ATOM     32  C   UNL A   1      42.768  27.594  30.579  1.00  0.00     0.031 C 
ATOM     33  C   UNL A   1      42.841  30.446  35.937  1.00  0.00     0.029 A 
ATOM     34  C   UNL A   1      42.505  30.066  34.648  1.00  0.00     0.049 A 
ATOM     35  H   UNL A   1      40.956  30.788  33.408  1.00  0.00     0.167 HD
ATOM     36  C   UNL A   1      42.718  28.712  32.580  1.00  0.00     0.074 A 
ATOM     37  C   UNL A   1      43.362  27.708  31.760  1.00  0.00     0.031 C 
ATOM     38  C   UNL A   1      43.138  29.078  33.815  1.00  0.00     0.037 A 
BRANCH  25  39
ATOM     39  C   UNL A   1      39.817  33.538  36.461  1.00  0.00     0.064 A 
ATOM     40  C   UNL A   1      38.942  33.158  37.491  1.00  0.00     0.173 A 
ATOM     41  C   UNL A   1      40.401  34.810  36.530  1.00  0.00     0.173 A 
ATOM     42  F   UNL A   1      38.352  31.953  37.466  1.00  0.00    -0.203 F 
ATOM     43  C   UNL A   1      38.639  34.030  38.533  1.00  0.00     0.198 A 
ATOM     44  C   UNL A   1      40.111  35.673  37.585  1.00  0.00     0.198 A 
ATOM     45  F   UNL A   1      41.248  35.217  35.573  1.00  0.00    -0.203 F 
ATOM     46  F   UNL A   1      37.770  33.662  39.483  1.00  0.00    -0.200 F 
ATOM     47  C   UNL A   1      39.222  35.288  38.578  1.00  0.00     0.200 A 
ATOM     48  F   UNL A   1      40.684  36.885  37.634  1.00  0.00    -0.200 F 
ATOM     49  F   UNL A   1      38.922  36.131  39.575  1.00  0.00    -0.200 F 
ENDBRANCH  25  39
BRANCH  26  50
ATOM     50  C   UNL A   1      40.909  27.857  28.318  1.00  0.00     0.064 A 
ATOM     51  C   UNL A   1      40.340  26.577  28.230  1.00  0.00     0.173 A 
ATOM     52  C   UNL A   1      41.673  28.309  27.235  1.00  0.00     0.173 A 
ATOM     53  F   UNL A   1      39.606  26.097  29.244  1.00  0.00    -0.203 F 
ATOM     54  C   UNL A   1      40.548  25.773  27.113  1.00  0.00     0.198 A 
ATOM     55  C   UNL A   1      41.856  27.514  26.105  1.00  0.00     0.198 A 
ATOM     56  F   UNL A   1      42.222  29.531  27.267  1.00  0.00    -0.203 F 
ATOM     57  F   UNL A   1      40.026  24.539  27.071  1.00  0.00    -0.200 F 
ATOM     58  C   UNL A   1      41.302  26.243  26.049  1.00  0.00     0.200 A 
ATOM     59  F   UNL A   1      42.566  27.982  25.069  1.00  0.00    -0.200 F 
ATOM     60  F   UNL A   1      41.492  25.475  24.968  1.00  0.00    -0.200 F 
ENDBRANCH  26  50
BRANCH  38  61
ATOM     61  C   UNL A   1      44.357  28.393  34.355  1.00  0.00     0.064 A 
ATOM     62  C   UNL A   1      44.240  27.208  35.096  1.00  0.00     0.173 A 
ATOM     63  C   UNL A   1      45.633  28.949  34.191  1.00  0.00     0.173 A 
ATOM     64  F   UNL A   1      43.039  26.643  35.285  1.00  0.00    -0.203 F 
ATOM     65  C   UNL A   1      45.360  26.612  35.668  1.00  0.00     0.198 A 
ATOM     66  C   UNL A   1      46.754  28.336  34.744  1.00  0.00     0.198 A 
ATOM     67  F   UNL A   1      45.793  30.072  33.477  1.00  0.00    -0.203 F 
ATOM     68  F   UNL A   1      45.224  25.497  36.398  1.00  0.00    -0.200 F 
ATOM     69  C   UNL A   1      46.616  27.174  35.490  1.00  0.00     0.200 A 
ATOM     70  F   UNL A   1      47.969  28.867  34.551  1.00  0.00    -0.200 F 
ATOM     71  F   UNL A   1      47.694  26.594  36.033  1.00  0.00    -0.200 F 
ENDBRANCH  38  61
ENDBRANCH  12  13
ENDBRANCH   5   7
ENDBRANCH   2   3
ENDBRANCH   1   2
BRANCH   1  72
ATOM     72  C   UNL A   1      31.473  30.622  25.658  1.00  0.00     0.023 C 
BRANCH  72  73
ATOM     73  C   UNL A   1      32.729  29.806  25.945  1.00  0.00     0.116 C 
BRANCH  73  74
ATOM     74  N   UNL A   1      33.394  29.341  24.735  1.00  0.00    -0.352 N 
ATOM     75  C   UNL A   1      33.197  28.167  24.047  1.00  0.00     0.256 C 
ATOM     76  H   UNL A   1      34.074  29.947  24.361  1.00  0.00     0.163 HD
ATOM     77  O   UNL A   1      33.920  27.859  23.105  1.00  0.00    -0.269 OA
BRANCH  75  78
ATOM     78  C   UNL A   1      32.177  27.220  24.528  1.00  0.00     0.099 A 
ATOM     79  C   UNL A   1      30.842  27.441  24.178  1.00  0.00     0.138 A 
ATOM     80  C   UNL A   1      32.528  26.178  25.403  1.00  0.00     0.057 A 
ATOM     81  F   UNL A   1      30.514  28.387  23.287  1.00  0.00    -0.206 F 
ATOM     82  C   UNL A   1      29.821  26.734  24.799  1.00  0.00     0.040 A 
ATOM     83  C   UNL A   1      31.484  25.557  26.098  1.00  0.00     0.027 A 
ATOM     84  C   UNL A   1      30.143  25.822  25.794  1.00  0.00     0.005 A 
BRANCH  80  85
ATOM     85  N   UNL A   1      33.894  25.824  25.558  1.00  0.00    -0.321 N 
ATOM     86  C   UNL A   1      34.621  24.723  25.161  1.00  0.00     0.257 C 
ATOM     87  H   UNL A   1      34.424  26.497  26.043  1.00  0.00     0.170 HD
ATOM     88  O   UNL A   1      35.775  24.555  25.548  1.00  0.00    -0.269 OA
BRANCH  86  89
ATOM     89  C   UNL A   1      34.061  23.736  24.232  1.00  0.00     0.058 A 
ATOM     90  C   UNL A   1      33.809  24.033  22.889  1.00  0.00     0.018 A 
ATOM     91  C   UNL A   1      33.714  22.484  24.719  1.00  0.00     0.126 A 
ATOM     92  C   UNL A   1      33.127  23.097  22.113  1.00  0.00     0.042 A 
ATOM     93  N   UNL A   1      33.047  21.562  23.986  1.00  0.00    -0.244 NA
ATOM     94  C   UNL A   1      32.761  21.900  22.710  1.00  0.00     0.129 A 
ATOM     95  Cl  UNL A   1      31.830  20.743  21.855  1.00  0.00    -0.062 Cl
ENDBRANCH  86  89
ENDBRANCH  80  85
ENDBRANCH  75  78
ENDBRANCH  73  74
ENDBRANCH  72  73
ENDBRANCH   1  72
TORSDOF 13
ENDMDL
MODEL 2
REMARK VINA RESULT:     -12.5      0.168      1.133
REMARK SMILES O=C(NCCCCNC(=O)c1c(F)cccc1NC(=O)c1ccc(Cl)nc1)c1ccc(-c2c3nc(c(-c4c(F)c(F)c(F)c(F)c4F)c4ccc([nH]4)c(-c4c(F)c(F)c(F)c(F)c4F)c4nc(c(-c5c(F)c(F)c(F)c(F)c5F)c5ccc2[nH]5)C=C4)C=C3)cc1
REMARK SMILES IDX 5 1 4 2 3 3 1 4 2 5 28 7 29 8 90 9 30 10 89 11 31 12 32 13
REMARK SMILES IDX 33 14 83 15 34 16 88 17 82 18 84 19 35 20 87 21 81 22 80 23
REMARK SMILES IDX 36 25 68 26 48 27 67 28 49 29 52 30 66 31 85 32 50 33 51 34
REMARK SMILES IDX 65 36 86 37 53 38 37 39 38 40 46 41 39 42 40 43 44 44 47 45
REMARK SMILES IDX 41 46 42 47 45 48 43 49 69 50 70 51 78 52 71 53 72 54 76 55
REMARK SMILES IDX 79 56 73 57 74 58 77 59 75 60 54 61 55 62 63 63 56 64 57 65
REMARK SMILES IDX 61 66 64 67 58 68 59 69 62 70 60 71 6 72 7 73 8 74 9 75
REMARK SMILES IDX 10 77 11 78 12 79 17 80 13 81 14 82 16 83 15 84 18 85 19 86
REMARK SMILES IDX 20 88 21 89 22 90 27 91 23 92 26 93 24 94 25 95
REMARK H PARENT 3 6 84 24 52 35 8 76 18 87
REMARK Flexibility Score: inf
ROOT
ATOM      1  C   UNL A   1      31.306  31.947  26.543  1.00  0.00     0.023 C 
ENDROOT
BRANCH   1   2
ATOM      2  C   UNL A   1      32.586  32.549  27.107  1.00  0.00     0.116 C 
BRANCH   2   3
ATOM      3  N   UNL A   1      32.420  33.918  27.569  1.00  0.00    -0.352 N 
ATOM      4  O   UNL A   1      32.776  35.712  28.890  1.00  0.00    -0.269 OA
ATOM      5  C   UNL A   1      33.128  34.597  28.532  1.00  0.00     0.251 C 
ATOM      6  H   UNL A   1      31.701  34.428  27.131  1.00  0.00     0.163 HD
BRANCH   5   7
ATOM      7  C   UNL A   1      34.309  33.958  29.153  1.00  0.00     0.039 A 
ATOM      8  C   UNL A   1      34.153  32.936  30.092  1.00  0.00     0.014 A 
ATOM      9  C   UNL A   1      35.588  34.388  28.786  1.00  0.00     0.014 A 
ATOM     10  C   UNL A   1      35.264  32.438  30.761  1.00  0.00     0.010 A 
ATOM     11  C   UNL A   1      36.711  33.826  29.401  1.00  0.00     0.010 A 
ATOM     12  C   UNL A   1      36.556  32.863  30.407  1.00  0.00    -0.014 A 
BRANCH  12  13
ATOM     13  C   UNL A   1      37.727  32.204  31.037  1.00  0.00     0.031 A 
ATOM     14  C   UNL A   1      38.173  32.556  32.426  1.00  0.00     0.074 A 
ATOM     15  C   UNL A   1      38.371  31.251  30.336  1.00  0.00     0.049 A 
ATOM     16  N   UNL A   1      39.168  32.060  33.118  1.00  0.00    -0.248 NA
ATOM     17  C   UNL A   1      37.411  33.597  33.135  1.00  0.00     0.031 C 
ATOM     18  C   UNL A   1      38.028  30.839  28.972  1.00  0.00     0.029 A 
ATOM     19  N   UNL A   1      39.428  30.445  30.670  1.00  0.00    -0.354 N 
ATOM     20  C   UNL A   1      39.163  32.734  34.330  1.00  0.00     0.074 A 
ATOM     21  C   UNL A   1      38.076  33.689  34.281  1.00  0.00     0.031 C 
ATOM     22  C   UNL A   1      38.829  29.829  28.603  1.00  0.00     0.029 A 
ATOM     23  C   UNL A   1      39.780  29.564  29.676  1.00  0.00     0.049 A 
ATOM     24  H   UNL A   1      39.891  30.493  31.537  1.00  0.00     0.167 HD
ATOM     25  C   UNL A   1      39.990  32.559  35.389  1.00  0.00     0.037 A 
ATOM     26  C   UNL A   1      40.773  28.657  29.622  1.00  0.00     0.037 A 
ATOM     27  C   UNL A   1      41.052  31.587  35.440  1.00  0.00     0.049 A 
ATOM     28  C   UNL A   1      41.684  28.505  30.804  1.00  0.00     0.074 A 
ATOM     29  C   UNL A   1      41.908  31.303  36.491  1.00  0.00     0.029 A 
ATOM     30  N   UNL A   1      41.405  30.743  34.398  1.00  0.00    -0.354 N 
ATOM     31  N   UNL A   1      41.649  29.130  31.956  1.00  0.00    -0.248 NA
ATOM     32  C   UNL A   1      42.780  27.536  30.677  1.00  0.00     0.031 C 
ATOM     33  C   UNL A   1      42.806  30.320  36.071  1.00  0.00     0.029 A 
ATOM     34  C   UNL A   1      42.484  29.959  34.773  1.00  0.00     0.049 A 
ATOM     35  H   UNL A   1      40.956  30.706  33.523  1.00  0.00     0.167 HD
ATOM     36  C   UNL A   1      42.713  28.629  32.691  1.00  0.00     0.074 A 
ATOM     37  C   UNL A   1      43.360  27.630  31.866  1.00  0.00     0.031 C 
ATOM     38  C   UNL A   1      43.121  28.976  33.935  1.00  0.00     0.037 A 
BRANCH  25  39
ATOM     39  C   UNL A   1      39.797  33.426  36.597  1.00  0.00     0.064 A 
ATOM     40  C   UNL A   1      38.873  33.062  37.589  1.00  0.00     0.173 A 
ATOM     41  C   UNL A   1      40.427  34.673  36.710  1.00  0.00     0.173 A 
ATOM     42  F   UNL A   1      38.237  31.883  37.520  1.00  0.00    -0.203 F 
ATOM     43  C   UNL A   1      38.566  33.928  38.635  1.00  0.00     0.198 A 
ATOM     44  C   UNL A   1      40.133  35.528  37.769  1.00  0.00     0.198 A 
ATOM     45  F   UNL A   1      41.324  35.062  35.790  1.00  0.00    -0.203 F 
ATOM     46  F   UNL A   1      37.650  33.578  39.547  1.00  0.00    -0.200 F 
ATOM     47  C   UNL A   1      39.195  35.162  38.723  1.00  0.00     0.200 A 
ATOM     48  F   UNL A   1      40.750  36.715  37.861  1.00  0.00    -0.200 F 
ATOM     49  F   UNL A   1      38.892  35.999  39.724  1.00  0.00    -0.200 F 
ENDBRANCH  25  39
BRANCH  26  50
ATOM     50  C   UNL A   1      40.951  27.840  28.397  1.00  0.00     0.064 A 
ATOM     51  C   UNL A   1      40.338  26.584  28.267  1.00  0.00     0.173 A 
ATOM     52  C   UNL A   1      41.766  28.281  27.346  1.00  0.00     0.173 A 
ATOM     53  F   UNL A   1      39.554  26.116  29.248  1.00  0.00    -0.203 F 
ATOM     54  C   UNL A   1      40.554  25.791  27.144  1.00  0.00     0.198 A 
ATOM     55  C   UNL A   1      41.957  27.499  26.210  1.00  0.00     0.198 A 
ATOM     56  F   UNL A   1      42.359  29.481  27.418  1.00  0.00    -0.203 F 
ATOM     57  F   UNL A   1      39.988  24.579  27.063  1.00  0.00    -0.200 F 
ATOM     58  C   UNL A   1      41.359  26.251  26.113  1.00  0.00     0.200 A 
ATOM     59  F   UNL A   1      42.718  27.956  25.205  1.00  0.00    -0.200 F 
ATOM     60  F   UNL A   1      41.556  25.493  25.026  1.00  0.00    -0.200 F 
ENDBRANCH  26  50
BRANCH  38  61
ATOM     61  C   UNL A   1      44.328  28.276  34.481  1.00  0.00     0.064 A 
ATOM     62  C   UNL A   1      45.612  28.797  34.270  1.00  0.00     0.173 A 
ATOM     63  C   UNL A   1      44.213  27.054  35.157  1.00  0.00     0.173 A 
ATOM     64  F   UNL A   1      45.772  29.961  33.622  1.00  0.00    -0.203 F 
ATOM     65  C   UNL A   1      46.741  28.110  34.705  1.00  0.00     0.198 A 
ATOM     66  C   UNL A   1      45.343  26.381  35.613  1.00  0.00     0.198 A 
ATOM     67  F   UNL A   1      43.003  26.525  35.395  1.00  0.00    -0.203 F 
ATOM     68  F   UNL A   1      47.961  28.611  34.467  1.00  0.00    -0.200 F 
ATOM     69  C   UNL A   1      46.606  26.905  35.378  1.00  0.00     0.200 A 
ATOM     70  F   UNL A   1      45.210  25.229  36.283  1.00  0.00    -0.200 F 
ATOM     71  F   UNL A   1      47.694  26.250  35.805  1.00  0.00    -0.200 F 
ENDBRANCH  38  61
ENDBRANCH  12  13
ENDBRANCH   5   7
ENDBRANCH   2   3
ENDBRANCH   1   2
BRANCH   1  72
ATOM     72  C   UNL A   1      31.487  30.639  25.779  1.00  0.00     0.023 C 
BRANCH  72  73
ATOM     73  C   UNL A   1      32.776  29.882  26.084  1.00  0.00     0.116 C 
BRANCH  73  74
ATOM     74  N   UNL A   1      33.461  29.420  24.885  1.00  0.00    -0.352 N 
ATOM     75  C   UNL A   1      33.280  28.245  24.195  1.00  0.00     0.256 C 
ATOM     76  H   UNL A   1      34.145  30.029  24.522  1.00  0.00     0.163 HD
ATOM     77  O   UNL A   1      34.019  27.940  23.265  1.00  0.00    -0.269 OA
BRANCH  75  78
ATOM     78  C   UNL A   1      32.257  27.294  24.661  1.00  0.00     0.099 A 
ATOM     79  C   UNL A   1      30.924  27.519  24.305  1.00  0.00     0.138 A 
ATOM     80  C   UNL A   1      32.603  26.243  25.527  1.00  0.00     0.057 A 
ATOM     81  F   UNL A   1      30.601  28.475  23.422  1.00  0.00    -0.206 F 
ATOM     82  C   UNL A   1      29.900  26.807  24.913  1.00  0.00     0.040 A 
ATOM     83  C   UNL A   1      31.555  25.615  26.210  1.00  0.00     0.027 A 
ATOM     84  C   UNL A   1      30.215  25.884  25.901  1.00  0.00     0.005 A 
BRANCH  80  85
ATOM     85  N   UNL A   1      33.967  25.887  25.686  1.00  0.00    -0.321 N 
ATOM     86  C   UNL A   1      34.693  24.782  25.295  1.00  0.00     0.257 C 
ATOM     87  H   UNL A   1      34.498  26.560  26.169  1.00  0.00     0.170 HD
ATOM     88  O   UNL A   1      35.845  24.614  25.686  1.00  0.00    -0.269 OA
BRANCH  86  89
ATOM     89  C   UNL A   1      34.132  23.792  24.369  1.00  0.00     0.058 A 
ATOM     90  C   UNL A   1      33.995  24.043  23.001  1.00  0.00     0.018 A 
ATOM     91  C   UNL A   1      33.667  22.590  24.881  1.00  0.00     0.126 A 
ATOM     92  C   UNL A   1      33.306  23.119  22.217  1.00  0.00     0.042 A 
ATOM     93  N   UNL A   1      32.991  21.680  24.140  1.00  0.00    -0.244 NA
ATOM     94  C   UNL A   1      32.818  21.977  22.834  1.00  0.00     0.129 A 
ATOM     95  Cl  UNL A   1      31.872  20.846  21.962  1.00  0.00    -0.062 Cl
ENDBRANCH  86  89
ENDBRANCH  80  85
ENDBRANCH  75  78
ENDBRANCH  73  74
ENDBRANCH  72  73
ENDBRANCH   1  72
TORSDOF 13
ENDMDL
MODEL 3
REMARK VINA RESULT:     -12.4      0.397      7.274
REMARK SMILES O=C(NCCCCNC(=O)c1c(F)cccc1NC(=O)c1ccc(Cl)nc1)c1ccc(-c2c3nc(c(-c4c(F)c(F)c(F)c(F)c4F)c4ccc([nH]4)c(-c4c(F)c(F)c(F)c(F)c4F)c4nc(c(-c5c(F)c(F)c(F)c(F)c5F)c5ccc2[nH]5)C=C4)C=C3)cc1
REMARK SMILES IDX 5 1 4 2 3 3 1 4 2 5 28 7 29 8 90 9 30 10 89 11 31 12 32 13
REMARK SMILES IDX 33 14 83 15 34 16 88 17 82 18 84 19 35 20 87 21 81 22 80 23
REMARK SMILES IDX 36 25 68 26 48 27 67 28 49 29 52 30 66 31 85 32 50 33 51 34
REMARK SMILES IDX 65 36 86 37 53 38 37 39 38 40 46 41 39 42 40 43 44 44 47 45
REMARK SMILES IDX 41 46 42 47 45 48 43 49 69 50 70 51 78 52 71 53 72 54 76 55
REMARK SMILES IDX 79 56 73 57 74 58 77 59 75 60 54 61 55 62 63 63 56 64 57 65
REMARK SMILES IDX 61 66 64 67 58 68 59 69 62 70 60 71 6 72 7 73 8 74 9 75
REMARK SMILES IDX 10 77 11 78 12 79 17 80 13 81 14 82 16 83 15 84 18 85 19 86
REMARK SMILES IDX 20 88 21 89 22 90 27 91 23 92 26 93 24 94 25 95
REMARK H PARENT 3 6 84 24 52 35 8 76 18 87
REMARK Flexibility Score: inf
ROOT
ATOM      1  C   UNL A   1      31.330  31.880  26.582  1.00  0.00     0.023 C 
ENDROOT
BRANCH   1   2
ATOM      2  C   UNL A   1      32.623  32.571  26.993  1.00  0.00     0.116 C 
BRANCH   2   3
ATOM      3  N   UNL A   1      32.417  33.924  27.486  1.00  0.00    -0.352 N 
ATOM      4  O   UNL A   1      32.693  35.685  28.870  1.00  0.00    -0.269 OA
ATOM      5  C   UNL A   1      33.077  34.586  28.495  1.00  0.00     0.251 C 
ATOM      6  H   UNL A   1      31.707  34.436  27.035  1.00  0.00     0.163 HD
BRANCH   5   7
ATOM      7  C   UNL A   1      34.243  33.948  29.144  1.00  0.00     0.039 A 
ATOM      8  C   UNL A   1      34.066  32.904  30.055  1.00  0.00     0.014 A 
ATOM      9  C   UNL A   1      35.529  34.400  28.832  1.00  0.00     0.014 A 
ATOM     10  C   UNL A   1      35.159  32.404  30.752  1.00  0.00     0.010 A 
ATOM     11  C   UNL A   1      36.636  33.838  29.473  1.00  0.00     0.010 A 
ATOM     12  C   UNL A   1      36.457  32.851  30.453  1.00  0.00    -0.014 A 
BRANCH  12  13
ATOM     13  C   UNL A   1      37.613  32.193  31.109  1.00  0.00     0.031 A 
ATOM     14  C   UNL A   1      38.400  31.116  30.419  1.00  0.00     0.074 A 
ATOM     15  C   UNL A   1      37.963  32.607  32.342  1.00  0.00     0.049 A 
ATOM     16  N   UNL A   1      39.443  30.455  30.856  1.00  0.00    -0.248 NA
ATOM     17  C   UNL A   1      37.967  30.726  29.068  1.00  0.00     0.031 C 
ATOM     18  C   UNL A   1      37.259  33.638  33.110  1.00  0.00     0.029 A 
ATOM     19  N   UNL A   1      38.998  32.234  33.160  1.00  0.00    -0.354 N 
ATOM     20  C   UNL A   1      39.780  29.565  29.847  1.00  0.00     0.074 A 
ATOM     21  C   UNL A   1      38.824  29.754  28.777  1.00  0.00     0.031 C 
ATOM     22  C   UNL A   1      37.907  33.846  34.264  1.00  0.00     0.029 A 
ATOM     23  C   UNL A   1      39.033  32.922  34.348  1.00  0.00     0.049 A 
ATOM     24  H   UNL A   1      39.652  31.540  32.920  1.00  0.00     0.167 HD
ATOM     25  C   UNL A   1      40.804  28.678  29.820  1.00  0.00     0.037 A 
ATOM     26  C   UNL A   1      39.864  32.811  35.400  1.00  0.00     0.037 A 
ATOM     27  C   UNL A   1      41.767  28.516  30.879  1.00  0.00     0.049 A 
ATOM     28  C   UNL A   1      40.974  31.803  35.347  1.00  0.00     0.074 A 
ATOM     29  C   UNL A   1      42.869  27.678  30.918  1.00  0.00     0.029 A 
ATOM     30  N   UNL A   1      41.744  29.201  32.084  1.00  0.00    -0.354 N 
ATOM     31  N   UNL A   1      41.298  30.988  34.373  1.00  0.00    -0.248 NA
ATOM     32  C   UNL A   1      41.823  31.686  36.539  1.00  0.00     0.031 C 
ATOM     33  C   UNL A   1      43.487  27.824  32.162  1.00  0.00     0.029 A 
ATOM     34  C   UNL A   1      42.796  28.784  32.884  1.00  0.00     0.049 A 
ATOM     35  H   UNL A   1      41.080  29.883  32.335  1.00  0.00     0.167 HD
ATOM     36  C   UNL A   1      42.389  30.265  34.832  1.00  0.00     0.074 A 
ATOM     37  C   UNL A   1      42.688  30.754  36.161  1.00  0.00     0.031 C 
ATOM     38  C   UNL A   1      43.073  29.276  34.208  1.00  0.00     0.037 A 
BRANCH  25  39
ATOM     39  C   UNL A   1      40.959  27.802  28.613  1.00  0.00     0.064 A 
ATOM     40  C   UNL A   1      41.724  28.235  27.519  1.00  0.00     0.173 A 
ATOM     41  C   UNL A   1      40.251  26.600  28.487  1.00  0.00     0.173 A 
ATOM     42  F   UNL A   1      42.413  29.384  27.588  1.00  0.00    -0.203 F 
ATOM     43  C   UNL A   1      41.751  27.509  26.332  1.00  0.00     0.198 A 
ATOM     44  C   UNL A   1      40.297  25.865  27.305  1.00  0.00     0.198 A 
ATOM     45  F   UNL A   1      39.511  26.141  29.508  1.00  0.00    -0.203 F 
ATOM     46  F   UNL A   1      42.454  27.962  25.285  1.00  0.00    -0.200 F 
ATOM     47  C   UNL A   1      41.036  26.325  26.224  1.00  0.00     0.200 A 
ATOM     48  F   UNL A   1      39.615  24.715  27.205  1.00  0.00    -0.200 F 
ATOM     49  F   UNL A   1      41.054  25.631  25.078  1.00  0.00    -0.200 F 
ENDBRANCH  25  39
BRANCH  26  50
ATOM     50  C   UNL A   1      39.658  33.673  36.590  1.00  0.00     0.064 A 
ATOM     51  C   UNL A   1      38.847  33.255  37.656  1.00  0.00     0.173 A 
ATOM     52  C   UNL A   1      40.238  34.946  36.669  1.00  0.00     0.173 A 
ATOM     53  F   UNL A   1      38.265  32.048  37.624  1.00  0.00    -0.203 F 
ATOM     54  C   UNL A   1      38.605  34.088  38.745  1.00  0.00     0.198 A 
ATOM     55  C   UNL A   1      40.018  35.766  37.774  1.00  0.00     0.198 A 
ATOM     56  F   UNL A   1      41.034  35.381  35.683  1.00  0.00    -0.203 F 
ATOM     57  F   UNL A   1      37.794  33.680  39.731  1.00  0.00    -0.200 F 
ATOM     58  C   UNL A   1      39.194  35.341  38.806  1.00  0.00     0.200 A 
ATOM     59  F   UNL A   1      40.608  36.968  37.840  1.00  0.00    -0.200 F 
ATOM     60  F   UNL A   1      38.972  36.137  39.860  1.00  0.00    -0.200 F 
ENDBRANCH  26  50
BRANCH  38  61
ATOM     61  C   UNL A   1      44.210  28.651  34.957  1.00  0.00     0.064 A 
ATOM     62  C   UNL A   1      44.001  27.520  35.759  1.00  0.00     0.173 A 
ATOM     63  C   UNL A   1      45.493  29.214  34.929  1.00  0.00     0.173 A 
ATOM     64  F   UNL A   1      42.788  26.950  35.822  1.00  0.00    -0.203 F 
ATOM     65  C   UNL A   1      45.036  26.984  36.520  1.00  0.00     0.198 A 
ATOM     66  C   UNL A   1      46.532  28.660  35.672  1.00  0.00     0.198 A 
ATOM     67  F   UNL A   1      45.743  30.287  34.164  1.00  0.00    -0.203 F 
ATOM     68  F   UNL A   1      44.808  25.921  37.303  1.00  0.00    -0.200 F 
ATOM     69  C   UNL A   1      46.300  27.552  36.473  1.00  0.00     0.200 A 
ATOM     70  F   UNL A   1      47.759  29.196  35.608  1.00  0.00    -0.200 F 
ATOM     71  F   UNL A   1      47.298  27.028  37.199  1.00  0.00    -0.200 F 
ENDBRANCH  38  61
ENDBRANCH  12  13
ENDBRANCH   5   7
ENDBRANCH   2   3
ENDBRANCH   1   2
BRANCH   1  72
ATOM     72  C   UNL A   1      31.509  30.614  25.750  1.00  0.00     0.023 C 
BRANCH  72  73
ATOM     73  C   UNL A   1      32.779  29.821  26.040  1.00  0.00     0.116 C 
BRANCH  73  74
ATOM     74  N   UNL A   1      33.443  29.350  24.832  1.00  0.00    -0.352 N 
ATOM     75  C   UNL A   1      33.243  28.174  24.148  1.00  0.00     0.256 C 
ATOM     76  H   UNL A   1      34.125  29.953  24.456  1.00  0.00     0.163 HD
ATOM     77  O   UNL A   1      33.966  27.861  23.208  1.00  0.00    -0.269 OA
BRANCH  75  78
ATOM     78  C   UNL A   1      32.221  27.232  24.633  1.00  0.00     0.099 A 
ATOM     79  C   UNL A   1      30.886  27.455  24.282  1.00  0.00     0.138 A 
ATOM     80  C   UNL A   1      32.568  26.192  25.511  1.00  0.00     0.057 A 
ATOM     81  F   UNL A   1      30.560  28.400  23.388  1.00  0.00    -0.206 F 
ATOM     82  C   UNL A   1      29.863  26.754  24.905  1.00  0.00     0.040 A 
ATOM     83  C   UNL A   1      31.523  25.576  26.208  1.00  0.00     0.027 A 
ATOM     84  C   UNL A   1      30.182  25.844  25.904  1.00  0.00     0.005 A 
BRANCH  80  85
ATOM     85  N   UNL A   1      33.933  25.834  25.667  1.00  0.00    -0.321 N 
ATOM     86  C   UNL A   1      34.662  24.739  25.256  1.00  0.00     0.257 C 
ATOM     87  H   UNL A   1      34.461  26.498  26.165  1.00  0.00     0.170 HD
ATOM     88  O   UNL A   1      35.813  24.564  25.646  1.00  0.00    -0.269 OA
BRANCH  86  89
ATOM     89  C   UNL A   1      34.105  23.767  24.308  1.00  0.00     0.058 A 
ATOM     90  C   UNL A   1      33.965  24.048  22.946  1.00  0.00     0.018 A 
ATOM     91  C   UNL A   1      33.646  22.551  24.794  1.00  0.00     0.126 A 
ATOM     92  C   UNL A   1      33.280  23.138  22.142  1.00  0.00     0.042 A 
ATOM     93  N   UNL A   1      32.974  21.655  24.033  1.00  0.00    -0.244 NA
ATOM     94  C   UNL A   1      32.799  21.980  22.734  1.00  0.00     0.129 A 
ATOM     95  Cl  UNL A   1      31.857  20.864  21.838  1.00  0.00    -0.062 Cl
ENDBRANCH  86  89
ENDBRANCH  80  85
ENDBRANCH  75  78
ENDBRANCH  73  74
ENDBRANCH  72  73
ENDBRANCH   1  72
TORSDOF 13
ENDMDL
