MODEL 1
REMARK VINA RESULT:     -11.6      0.000      0.000
REMARK SMILES O=C(COC1CC[NH+](Cc2nccs2)CC1)NCCCCNC(=O)c1ccc(-c2c3nc(c(-c4c(F)c(F)c(F)c(F)c4F)c4ccc([nH]4)c(-c4c(F)c(F)c(F)c(F)c4F)c4nc(c(-c5c(F)c(F)c(F)c(F)c5F)c5ccc2[nH]5)C=C4)C=C3)cc1
REMARK SMILES IDX 18 1 17 2 1 3 2 4 3 6 4 7 5 8 6 9 16 10 7 11 15 12 8 13 9 15
REMARK SMILES IDX 10 16 11 17 14 18 12 19 13 20 19 21 20 22 21 23 22 24 23 25
REMARK SMILES IDX 24 27 25 28 26 29 87 30 27 31 86 32 28 33 29 34 30 35 80 36
REMARK SMILES IDX 31 37 85 38 79 39 81 40 32 41 84 42 78 43 77 44 33 46 65 47
REMARK SMILES IDX 45 48 64 49 46 50 49 51 63 52 82 53 47 54 48 55 62 57 83 58
REMARK SMILES IDX 50 59 34 60 35 61 43 62 36 63 37 64 41 65 44 66 38 67 39 68
REMARK SMILES IDX 42 69 40 70 66 71 67 72 75 73 68 74 69 75 73 76 76 77 70 78
REMARK SMILES IDX 71 79 74 80 72 81 51 82 52 83 60 84 53 85 54 86 58 87 61 88
REMARK SMILES IDX 55 89 56 90 59 91 57 92
REMARK H PARENT 17 5 8 14 22 26 81 45 49 56
REMARK Flexibility Score: inf
ROOT
ATOM      1  C   UNL A   1      31.881  29.735  27.131  1.00  0.00     0.116 C 
ENDROOT
BRANCH   1   2
ATOM      2  N   UNL A   1      31.886  28.396  26.592  1.00  0.00    -0.354 N 
ATOM      3  O   UNL A   1      34.171  28.149  26.510  1.00  0.00    -0.272 OA
ATOM      4  C   UNL A   1      33.047  27.674  26.398  1.00  0.00     0.246 C 
ATOM      5  H   UNL A   1      31.026  27.980  26.354  1.00  0.00     0.163 HD
BRANCH   4   6
ATOM      6  C   UNL A   1      32.772  26.214  26.022  1.00  0.00     0.260 C 
BRANCH   6   7
ATOM      7  O   UNL A   1      31.482  26.023  25.454  1.00  0.00    -0.368 OA
BRANCH   7   8
ATOM      8  C   UNL A   1      31.311  26.085  24.030  1.00  0.00     0.130 C 
ATOM      9  C   UNL A   1      31.504  27.414  23.298  1.00  0.00     0.093 C 
ATOM     10  C   UNL A   1      29.996  25.439  23.599  1.00  0.00     0.093 C 
ATOM     11  C   UNL A   1      30.284  28.338  23.356  1.00  0.00     0.265 C 
ATOM     12  C   UNL A   1      28.819  26.392  23.743  1.00  0.00     0.265 C 
ATOM     13  N   UNL A   1      29.023  27.661  23.033  1.00  0.00    -0.329 N 
ATOM     14  H   UNL A   1      29.095  27.405  22.049  1.00  0.00     0.348 HD
BRANCH  13  15
ATOM     15  C   UNL A   1      27.863  28.578  23.209  1.00  0.00     0.331 C 
BRANCH  15  16
ATOM     16  C   UNL A   1      27.965  29.915  22.498  1.00  0.00     0.147 A 
ATOM     17  N   UNL A   1      28.095  30.073  21.195  1.00  0.00    -0.244 NA
ATOM     18  S   UNL A   1      27.986  31.381  23.409  1.00  0.00    -0.122 S 
ATOM     19  C   UNL A   1      28.266  31.406  20.890  1.00  0.00     0.123 A 
ATOM     20  C   UNL A   1      28.244  32.267  21.965  1.00  0.00     0.087 A 
ENDBRANCH  15  16
ENDBRANCH  13  15
ENDBRANCH   7   8
ENDBRANCH   6   7
ENDBRANCH   4   6
ENDBRANCH   1   2
BRANCH   1  21
ATOM     21  C   UNL A   1      31.706  30.817  26.069  1.00  0.00     0.023 C 
BRANCH  21  22
ATOM     22  C   UNL A   1      31.442  32.221  26.617  1.00  0.00     0.023 C 
BRANCH  22  23
ATOM     23  C   UNL A   1      32.580  32.835  27.422  1.00  0.00     0.116 C 
BRANCH  23  24
ATOM     24  N   UNL A   1      32.367  34.240  27.729  1.00  0.00    -0.352 N 
ATOM     25  C   UNL A   1      33.010  35.043  28.642  1.00  0.00     0.251 C 
ATOM     26  H   UNL A   1      31.660  34.682  27.205  1.00  0.00     0.163 HD
ATOM     27  O   UNL A   1      32.599  36.177  28.862  1.00  0.00    -0.269 OA
BRANCH  25  28
ATOM     28  C   UNL A   1      34.182  34.529  29.388  1.00  0.00     0.039 A 
ATOM     29  C   UNL A   1      33.968  33.874  30.604  1.00  0.00     0.014 A 
ATOM     30  C   UNL A   1      35.480  34.687  28.897  1.00  0.00     0.014 A 
ATOM     31  C   UNL A   1      35.050  33.315  31.290  1.00  0.00     0.010 A 
ATOM     32  C   UNL A   1      36.545  34.061  29.540  1.00  0.00     0.010 A 
ATOM     33  C   UNL A   1      36.342  33.367  30.743  1.00  0.00    -0.014 A 
BRANCH  33  34
ATOM     34  C   UNL A   1      37.488  32.694  31.410  1.00  0.00     0.031 A 
ATOM     35  C   UNL A   1      38.165  31.520  30.759  1.00  0.00     0.074 A 
ATOM     36  C   UNL A   1      37.878  33.099  32.635  1.00  0.00     0.049 A 
ATOM     37  N   UNL A   1      39.133  30.763  31.214  1.00  0.00    -0.248 NA
ATOM     38  C   UNL A   1      37.674  31.128  29.429  1.00  0.00     0.031 C 
ATOM     39  C   UNL A   1      37.274  34.193  33.395  1.00  0.00     0.029 A 
ATOM     40  N   UNL A   1      38.871  32.630  33.461  1.00  0.00    -0.354 N 
ATOM     41  C   UNL A   1      39.358  29.806  30.232  1.00  0.00     0.074 A 
ATOM     42  C   UNL A   1      38.386  30.039  29.186  1.00  0.00     0.031 C 
ATOM     43  C   UNL A   1      37.919  34.326  34.566  1.00  0.00     0.029 A 
ATOM     44  C   UNL A   1      38.953  33.298  34.658  1.00  0.00     0.049 A 
ATOM     45  H   UNL A   1      39.466  31.884  33.219  1.00  0.00     0.167 HD
ATOM     46  C   UNL A   1      40.306  28.838  30.195  1.00  0.00     0.037 A 
ATOM     47  C   UNL A   1      39.762  33.100  35.717  1.00  0.00     0.037 A 
ATOM     48  C   UNL A   1      41.278  28.616  31.233  1.00  0.00     0.049 A 
ATOM     49  C   UNL A   1      40.790  32.002  35.662  1.00  0.00     0.074 A 
ATOM     50  C   UNL A   1      42.309  27.692  31.267  1.00  0.00     0.029 A 
ATOM     51  N   UNL A   1      41.338  29.321  32.426  1.00  0.00    -0.354 N 
ATOM     52  N   UNL A   1      41.037  31.147  34.700  1.00  0.00    -0.248 NA
ATOM     53  C   UNL A   1      41.657  31.846  36.839  1.00  0.00     0.031 C 
ATOM     54  C   UNL A   1      42.954  27.801  32.503  1.00  0.00     0.029 A 
ATOM     55  C   UNL A   1      42.370  28.836  33.214  1.00  0.00     0.049 A 
ATOM     56  H   UNL A   1      40.735  30.060  32.677  1.00  0.00     0.167 HD
ATOM     57  C   UNL A   1      42.104  30.374  35.141  1.00  0.00     0.074 A 
ATOM     58  C   UNL A   1      42.467  30.873  36.450  1.00  0.00     0.031 C 
ATOM     59  C   UNL A   1      42.726  29.344  34.515  1.00  0.00     0.037 A 
BRANCH  46  60
ATOM     60  C   UNL A   1      40.335  27.942  28.989  1.00  0.00     0.064 A 
ATOM     61  C   UNL A   1      41.081  28.270  27.845  1.00  0.00     0.173 A 
ATOM     62  C   UNL A   1      39.639  26.724  28.987  1.00  0.00     0.173 A 
ATOM     63  F   UNL A   1      41.758  29.427  27.789  1.00  0.00    -0.203 F 
ATOM     64  C   UNL A   1      41.098  27.431  26.734  1.00  0.00     0.198 A 
ATOM     65  C   UNL A   1      39.688  25.870  27.888  1.00  0.00     0.198 A 
ATOM     66  F   UNL A   1      38.916  26.356  30.056  1.00  0.00    -0.203 F 
ATOM     67  F   UNL A   1      41.771  27.794  25.633  1.00  0.00    -0.200 F 
ATOM     68  C   UNL A   1      40.408  26.228  26.759  1.00  0.00     0.200 A 
ATOM     69  F   UNL A   1      39.034  24.701  27.919  1.00  0.00    -0.200 F 
ATOM     70  F   UNL A   1      40.432  25.418  25.692  1.00  0.00    -0.200 F 
ENDBRANCH  46  60
BRANCH  47  71
ATOM     71  C   UNL A   1      39.639  33.971  36.918  1.00  0.00     0.064 A 
ATOM     72  C   UNL A   1      38.849  33.586  38.011  1.00  0.00     0.173 A 
ATOM     73  C   UNL A   1      40.301  35.205  36.995  1.00  0.00     0.173 A 
ATOM     74  F   UNL A   1      38.179  32.425  37.976  1.00  0.00    -0.203 F 
ATOM     75  C   UNL A   1      38.707  34.413  39.124  1.00  0.00     0.198 A 
ATOM     76  C   UNL A   1      40.185  36.015  38.122  1.00  0.00     0.198 A 
ATOM     77  F   UNL A   1      41.073  35.619  35.979  1.00  0.00    -0.203 F 
ATOM     78  F   UNL A   1      37.905  34.044  40.131  1.00  0.00    -0.200 F 
ATOM     79  C   UNL A   1      39.381  35.624  39.181  1.00  0.00     0.200 A 
ATOM     80  F   UNL A   1      40.850  37.177  38.180  1.00  0.00    -0.200 F 
ATOM     81  F   UNL A   1      39.248  36.416  40.253  1.00  0.00    -0.200 F 
ENDBRANCH  47  71
BRANCH  59  82
ATOM     82  C   UNL A   1      43.891  28.709  35.220  1.00  0.00     0.064 A 
ATOM     83  C   UNL A   1      45.197  29.208  35.089  1.00  0.00     0.173 A 
ATOM     84  C   UNL A   1      43.693  27.609  36.069  1.00  0.00     0.173 A 
ATOM     85  F   UNL A   1      45.444  30.249  34.280  1.00  0.00    -0.203 F 
ATOM     86  C   UNL A   1      46.262  28.612  35.759  1.00  0.00     0.198 A 
ATOM     87  C   UNL A   1      44.754  27.037  36.764  1.00  0.00     0.198 A 
ATOM     88  F   UNL A   1      42.464  27.098  36.236  1.00  0.00    -0.203 F 
ATOM     89  F   UNL A   1      47.507  29.072  35.578  1.00  0.00    -0.200 F 
ATOM     90  C   UNL A   1      46.038  27.533  36.602  1.00  0.00     0.200 A 
ATOM     91  F   UNL A   1      44.534  26.006  37.591  1.00  0.00    -0.200 F 
ATOM     92  F   UNL A   1      47.064  26.966  37.253  1.00  0.00    -0.200 F 
ENDBRANCH  59  82
ENDBRANCH  33  34
ENDBRANCH  25  28
ENDBRANCH  23  24
ENDBRANCH  22  23
ENDBRANCH  21  22
ENDBRANCH   1  21
TORSDOF 15
ENDMDL
MODEL 2
REMARK VINA RESULT:     -11.6      2.916      4.214
REMARK SMILES O=C(COC1CC[NH+](Cc2nccs2)CC1)NCCCCNC(=O)c1ccc(-c2c3nc(c(-c4c(F)c(F)c(F)c(F)c4F)c4ccc([nH]4)c(-c4c(F)c(F)c(F)c(F)c4F)c4nc(c(-c5c(F)c(F)c(F)c(F)c5F)c5ccc2[nH]5)C=C4)C=C3)cc1
REMARK SMILES IDX 18 1 17 2 1 3 2 4 3 6 4 7 5 8 6 9 16 10 7 11 15 12 8 13 9 15
REMARK SMILES IDX 10 16 11 17 14 18 12 19 13 20 19 21 20 22 21 23 22 24 23 25
REMARK SMILES IDX 24 27 25 28 26 29 87 30 27 31 86 32 28 33 29 34 30 35 80 36
REMARK SMILES IDX 31 37 85 38 79 39 81 40 32 41 84 42 78 43 77 44 33 46 65 47
REMARK SMILES IDX 45 48 64 49 46 50 49 51 63 52 82 53 47 54 48 55 62 57 83 58
REMARK SMILES IDX 50 59 34 60 35 61 43 62 36 63 37 64 41 65 44 66 38 67 39 68
REMARK SMILES IDX 42 69 40 70 66 71 67 72 75 73 68 74 69 75 73 76 76 77 70 78
REMARK SMILES IDX 71 79 74 80 72 81 51 82 52 83 60 84 53 85 54 86 58 87 61 88
REMARK SMILES IDX 55 89 56 90 59 91 57 92
REMARK H PARENT 17 5 8 14 22 26 81 45 49 56
REMARK Flexibility Score: inf
ROOT
ATOM      1  C   UNL A   1      31.982  29.419  27.055  1.00  0.00     0.116 C 
ENDROOT
BRANCH   1   2
ATOM      2  N   UNL A   1      31.670  28.105  26.544  1.00  0.00    -0.354 N 
ATOM      3  O   UNL A   1      33.837  27.347  26.414  1.00  0.00    -0.272 OA
ATOM      4  C   UNL A   1      32.632  27.137  26.338  1.00  0.00     0.246 C 
ATOM      5  H   UNL A   1      30.732  27.891  26.335  1.00  0.00     0.163 HD
BRANCH   4   6
ATOM      6  C   UNL A   1      32.026  25.771  26.000  1.00  0.00     0.260 C 
BRANCH   6   7
ATOM      7  O   UNL A   1      32.891  24.688  26.318  1.00  0.00    -0.368 OA
BRANCH   7   8
ATOM      8  C   UNL A   1      32.382  23.548  27.026  1.00  0.00     0.130 C 
ATOM      9  C   UNL A   1      33.308  22.369  27.334  1.00  0.00     0.093 C 
ATOM     10  C   UNL A   1      31.082  23.041  26.407  1.00  0.00     0.093 C 
ATOM     11  C   UNL A   1      33.489  21.399  26.163  1.00  0.00     0.265 C 
ATOM     12  C   UNL A   1      31.336  22.136  25.210  1.00  0.00     0.265 C 
ATOM     13  N   UNL A   1      32.225  21.011  25.526  1.00  0.00    -0.329 N 
ATOM     14  H   UNL A   1      31.723  20.465  26.226  1.00  0.00     0.348 HD
BRANCH  13  15
ATOM     15  C   UNL A   1      32.469  20.156  24.332  1.00  0.00     0.331 C 
BRANCH  15  16
ATOM     16  C   UNL A   1      32.612  18.669  24.603  1.00  0.00     0.147 A 
ATOM     17  N   UNL A   1      32.421  18.090  25.773  1.00  0.00    -0.244 NA
ATOM     18  S   UNL A   1      33.123  17.604  23.345  1.00  0.00    -0.122 S 
ATOM     19  C   UNL A   1      32.734  16.750  25.699  1.00  0.00     0.123 A 
ATOM     20  C   UNL A   1      33.144  16.304  24.462  1.00  0.00     0.087 A 
ENDBRANCH  15  16
ENDBRANCH  13  15
ENDBRANCH   7   8
ENDBRANCH   6   7
ENDBRANCH   4   6
ENDBRANCH   1   2
BRANCH   1  21
ATOM     21  C   UNL A   1      31.702  30.541  26.060  1.00  0.00     0.023 C 
BRANCH  21  22
ATOM     22  C   UNL A   1      31.415  31.905  26.689  1.00  0.00     0.023 C 
BRANCH  22  23
ATOM     23  C   UNL A   1      32.634  32.647  27.225  1.00  0.00     0.116 C 
BRANCH  23  24
ATOM     24  N   UNL A   1      32.350  34.029  27.574  1.00  0.00    -0.352 N 
ATOM     25  C   UNL A   1      32.949  34.836  28.514  1.00  0.00     0.251 C 
ATOM     26  H   UNL A   1      31.624  34.452  27.060  1.00  0.00     0.163 HD
ATOM     27  O   UNL A   1      32.481  35.940  28.767  1.00  0.00    -0.269 OA
BRANCH  25  28
ATOM     28  C   UNL A   1      34.142  34.357  29.250  1.00  0.00     0.039 A 
ATOM     29  C   UNL A   1      33.959  33.685  30.462  1.00  0.00     0.014 A 
ATOM     30  C   UNL A   1      35.431  34.565  28.753  1.00  0.00     0.014 A 
ATOM     31  C   UNL A   1      35.063  33.160  31.137  1.00  0.00     0.010 A 
ATOM     32  C   UNL A   1      36.522  33.972  29.386  1.00  0.00     0.010 A 
ATOM     33  C   UNL A   1      36.350  33.262  30.584  1.00  0.00    -0.014 A 
BRANCH  33  34
ATOM     34  C   UNL A   1      37.522  32.624  31.240  1.00  0.00     0.031 A 
ATOM     35  C   UNL A   1      38.248  31.492  30.567  1.00  0.00     0.074 A 
ATOM     36  C   UNL A   1      37.896  33.022  32.472  1.00  0.00     0.049 A 
ATOM     37  N   UNL A   1      39.247  30.768  31.009  1.00  0.00    -0.248 NA
ATOM     38  C   UNL A   1      37.774  31.105  29.230  1.00  0.00     0.031 C 
ATOM     39  C   UNL A   1      37.247  34.077  33.252  1.00  0.00     0.029 A 
ATOM     40  N   UNL A   1      38.906  32.580  33.290  1.00  0.00    -0.354 N 
ATOM     41  C   UNL A   1      39.512  29.839  30.010  1.00  0.00     0.074 A 
ATOM     42  C   UNL A   1      38.531  30.051  28.967  1.00  0.00     0.031 C 
ATOM     43  C   UNL A   1      37.885  34.214  34.425  1.00  0.00     0.029 A 
ATOM     44  C   UNL A   1      38.960  33.229  34.500  1.00  0.00     0.049 A 
ATOM     45  H   UNL A   1      39.532  31.864  33.035  1.00  0.00     0.167 HD
ATOM     46  C   UNL A   1      40.498  28.912  29.956  1.00  0.00     0.037 A 
ATOM     47  C   UNL A   1      39.777  33.045  35.556  1.00  0.00     0.037 A 
ATOM     48  C   UNL A   1      41.479  28.712  30.991  1.00  0.00     0.049 A 
ATOM     49  C   UNL A   1      40.849  31.992  35.481  1.00  0.00     0.074 A 
ATOM     50  C   UNL A   1      42.547  27.831  31.009  1.00  0.00     0.029 A 
ATOM     51  N   UNL A   1      41.509  29.397  32.197  1.00  0.00    -0.354 N 
ATOM     52  N   UNL A   1      41.132  31.165  34.504  1.00  0.00    -0.248 NA
ATOM     53  C   UNL A   1      41.722  31.850  36.656  1.00  0.00     0.031 C 
ATOM     54  C   UNL A   1      43.188  27.943  32.247  1.00  0.00     0.029 A 
ATOM     55  C   UNL A   1      42.560  28.940  32.977  1.00  0.00     0.049 A 
ATOM     56  H   UNL A   1      40.877  30.105  32.461  1.00  0.00     0.167 HD
ATOM     57  C   UNL A   1      42.230  30.430  34.931  1.00  0.00     0.074 A 
ATOM     58  C   UNL A   1      42.572  30.919  36.250  1.00  0.00     0.031 C 
ATOM     59  C   UNL A   1      42.895  29.438  34.287  1.00  0.00     0.037 A 
BRANCH  46  60
ATOM     60  C   UNL A   1      40.565  28.041  28.733  1.00  0.00     0.064 A 
ATOM     61  C   UNL A   1      41.355  28.387  27.624  1.00  0.00     0.173 A 
ATOM     62  C   UNL A   1      39.861  26.829  28.681  1.00  0.00     0.173 A 
ATOM     63  F   UNL A   1      42.042  29.539  27.617  1.00  0.00    -0.203 F 
ATOM     64  C   UNL A   1      41.406  27.570  26.497  1.00  0.00     0.198 A 
ATOM     65  C   UNL A   1      39.944  25.997  27.567  1.00  0.00     0.198 A 
ATOM     66  F   UNL A   1      39.097  26.445  29.715  1.00  0.00    -0.203 F 
ATOM     67  F   UNL A   1      42.121  27.950  25.430  1.00  0.00    -0.200 F 
ATOM     68  C   UNL A   1      40.708  26.373  26.473  1.00  0.00     0.200 A 
ATOM     69  F   UNL A   1      39.281  24.833  27.551  1.00  0.00    -0.200 F 
ATOM     70  F   UNL A   1      40.764  25.584  25.391  1.00  0.00    -0.200 F 
ENDBRANCH  46  60
BRANCH  47  71
ATOM     71  C   UNL A   1      39.618  33.887  36.772  1.00  0.00     0.064 A 
ATOM     72  C   UNL A   1      38.841  33.452  37.855  1.00  0.00     0.173 A 
ATOM     73  C   UNL A   1      40.231  35.144  36.875  1.00  0.00     0.173 A 
ATOM     74  F   UNL A   1      38.215  32.267  37.796  1.00  0.00    -0.203 F 
ATOM     75  C   UNL A   1      38.664  34.251  38.983  1.00  0.00     0.198 A 
ATOM     76  C   UNL A   1      40.082  35.928  38.017  1.00  0.00     0.198 A 
ATOM     77  F   UNL A   1      40.990  35.607  35.869  1.00  0.00    -0.203 F 
ATOM     78  F   UNL A   1      37.874  33.833  39.980  1.00  0.00    -0.200 F 
ATOM     79  C   UNL A   1      39.290  35.486  39.065  1.00  0.00     0.200 A 
ATOM     80  F   UNL A   1      40.702  37.113  38.099  1.00  0.00    -0.200 F 
ATOM     81  F   UNL A   1      39.125  36.252  40.152  1.00  0.00    -0.200 F 
ENDBRANCH  47  71
BRANCH  59  82
ATOM     82  C   UNL A   1      44.085  28.840  34.982  1.00  0.00     0.064 A 
ATOM     83  C   UNL A   1      43.973  27.703  35.797  1.00  0.00     0.173 A 
ATOM     84  C   UNL A   1      45.363  29.390  34.798  1.00  0.00     0.173 A 
ATOM     85  F   UNL A   1      42.772  27.146  36.017  1.00  0.00    -0.203 F 
ATOM     86  C   UNL A   1      45.090  27.156  36.423  1.00  0.00     0.198 A 
ATOM     87  C   UNL A   1      46.483  28.821  35.398  1.00  0.00     0.198 A 
ATOM     88  F   UNL A   1      45.528  30.472  34.022  1.00  0.00    -0.203 F 
ATOM     89  F   UNL A   1      44.951  26.103  37.238  1.00  0.00    -0.200 F 
ATOM     90  C   UNL A   1      46.345  27.711  36.216  1.00  0.00     0.200 A 
ATOM     91  F   UNL A   1      47.697  29.347  35.183  1.00  0.00    -0.200 F 
ATOM     92  F   UNL A   1      47.420  27.179  36.813  1.00  0.00    -0.200 F 
ENDBRANCH  59  82
ENDBRANCH  33  34
ENDBRANCH  25  28
ENDBRANCH  23  24
ENDBRANCH  22  23
ENDBRANCH  21  22
ENDBRANCH   1  21
TORSDOF 15
ENDMDL
MODEL 3
REMARK VINA RESULT:     -11.3      7.251     11.766
REMARK SMILES O=C(COC1CC[NH+](Cc2nccs2)CC1)NCCCCNC(=O)c1ccc(-c2c3nc(c(-c4c(F)c(F)c(F)c(F)c4F)c4ccc([nH]4)c(-c4c(F)c(F)c(F)c(F)c4F)c4nc(c(-c5c(F)c(F)c(F)c(F)c5F)c5ccc2[nH]5)C=C4)C=C3)cc1
REMARK SMILES IDX 18 1 17 2 1 3 2 4 3 6 4 7 5 8 6 9 16 10 7 11 15 12 8 13 9 15
REMARK SMILES IDX 10 16 11 17 14 18 12 19 13 20 19 21 20 22 21 23 22 24 23 25
REMARK SMILES IDX 24 27 25 28 26 29 87 30 27 31 86 32 28 33 29 34 30 35 80 36
REMARK SMILES IDX 31 37 85 38 79 39 81 40 32 41 84 42 78 43 77 44 33 46 65 47
REMARK SMILES IDX 45 48 64 49 46 50 49 51 63 52 82 53 47 54 48 55 62 57 83 58
REMARK SMILES IDX 50 59 34 60 35 61 43 62 36 63 37 64 41 65 44 66 38 67 39 68
REMARK SMILES IDX 42 69 40 70 66 71 67 72 75 73 68 74 69 75 73 76 76 77 70 78
REMARK SMILES IDX 71 79 74 80 72 81 51 82 52 83 60 84 53 85 54 86 58 87 61 88
REMARK SMILES IDX 55 89 56 90 59 91 57 92
REMARK H PARENT 17 5 8 14 22 26 81 45 49 56
REMARK Flexibility Score: inf
ROOT
ATOM      1  C   UNL A   1      40.478  21.806  27.301  1.00  0.00     0.116 C 
ENDROOT
BRANCH   1   2
ATOM      2  N   UNL A   1      39.590  22.798  26.742  1.00  0.00    -0.354 N 
ATOM      3  O   UNL A   1      38.257  21.334  25.571  1.00  0.00    -0.272 OA
ATOM      4  C   UNL A   1      38.490  22.467  25.976  1.00  0.00     0.246 C 
ATOM      5  H   UNL A   1      39.777  23.749  26.915  1.00  0.00     0.163 HD
BRANCH   4   6
ATOM      6  C   UNL A   1      37.594  23.676  25.686  1.00  0.00     0.260 C 
BRANCH   6   7
ATOM      7  O   UNL A   1      36.347  23.616  26.368  1.00  0.00    -0.368 OA
BRANCH   7   8
ATOM      8  C   UNL A   1      35.121  23.731  25.632  1.00  0.00     0.130 C 
ATOM      9  C   UNL A   1      33.782  23.565  26.354  1.00  0.00     0.093 C 
ATOM     10  C   UNL A   1      35.144  22.867  24.373  1.00  0.00     0.093 C 
ATOM     11  C   UNL A   1      33.368  22.106  26.568  1.00  0.00     0.265 C 
ATOM     12  C   UNL A   1      34.785  21.418  24.669  1.00  0.00     0.265 C 
ATOM     13  N   UNL A   1      33.498  21.280  25.361  1.00  0.00    -0.329 N 
ATOM     14  H   UNL A   1      32.805  21.643  24.707  1.00  0.00     0.348 HD
BRANCH  13  15
ATOM     15  C   UNL A   1      33.185  19.854  25.653  1.00  0.00     0.331 C 
BRANCH  15  16
ATOM     16  C   UNL A   1      33.224  18.913  24.463  1.00  0.00     0.147 A 
ATOM     17  N   UNL A   1      32.390  18.949  23.440  1.00  0.00    -0.244 NA
ATOM     18  S   UNL A   1      34.379  17.632  24.408  1.00  0.00    -0.122 S 
ATOM     19  C   UNL A   1      32.635  17.894  22.588  1.00  0.00     0.123 A 
ATOM     20  C   UNL A   1      33.672  17.065  22.954  1.00  0.00     0.087 A 
ENDBRANCH  15  16
ENDBRANCH  13  15
ENDBRANCH   7   8
ENDBRANCH   6   7
ENDBRANCH   4   6
ENDBRANCH   1   2
BRANCH   1  21
ATOM     21  C   UNL A   1      41.635  21.436  26.378  1.00  0.00     0.023 C 
BRANCH  21  22
ATOM     22  C   UNL A   1      41.646  19.979  25.910  1.00  0.00     0.023 C 
BRANCH  22  23
ATOM     23  C   UNL A   1      42.898  19.187  26.267  1.00  0.00     0.116 C 
BRANCH  23  24
ATOM     24  N   UNL A   1      43.676  18.798  25.103  1.00  0.00    -0.352 N 
ATOM     25  C   UNL A   1      44.525  19.552  24.326  1.00  0.00     0.251 C 
ATOM     26  H   UNL A   1      43.584  17.856  24.831  1.00  0.00     0.163 HD
ATOM     27  O   UNL A   1      44.991  19.087  23.293  1.00  0.00    -0.269 OA
BRANCH  25  28
ATOM     28  C   UNL A   1      44.851  20.943  24.718  1.00  0.00     0.039 A 
ATOM     29  C   UNL A   1      44.476  21.986  23.866  1.00  0.00     0.014 A 
ATOM     30  C   UNL A   1      45.518  21.221  25.913  1.00  0.00     0.014 A 
ATOM     31  C   UNL A   1      44.707  23.310  24.248  1.00  0.00     0.010 A 
ATOM     32  C   UNL A   1      45.675  22.542  26.329  1.00  0.00     0.010 A 
ATOM     33  C   UNL A   1      45.270  23.601  25.502  1.00  0.00    -0.014 A 
BRANCH  33  34
ATOM     34  C   UNL A   1      45.432  25.004  25.965  1.00  0.00     0.031 A 
ATOM     35  C   UNL A   1      46.780  25.669  25.923  1.00  0.00     0.074 A 
ATOM     36  C   UNL A   1      44.376  25.662  26.484  1.00  0.00     0.049 A 
ATOM     37  N   UNL A   1      47.133  26.859  26.343  1.00  0.00    -0.248 NA
ATOM     38  C   UNL A   1      47.886  24.882  25.355  1.00  0.00     0.031 C 
ATOM     39  C   UNL A   1      43.026  25.115  26.625  1.00  0.00     0.029 A 
ATOM     40  N   UNL A   1      44.275  26.931  27.000  1.00  0.00    -0.354 N 
ATOM     41  C   UNL A   1      48.496  26.958  26.098  1.00  0.00     0.074 A 
ATOM     42  C   UNL A   1      48.920  25.687  25.550  1.00  0.00     0.031 C 
ATOM     43  C   UNL A   1      42.228  26.047  27.170  1.00  0.00     0.029 A 
ATOM     44  C   UNL A   1      43.017  27.241  27.458  1.00  0.00     0.049 A 
ATOM     45  H   UNL A   1      45.032  27.559  27.039  1.00  0.00     0.167 HD
ATOM     46  C   UNL A   1      49.316  28.020  26.289  1.00  0.00     0.037 A 
ATOM     47  C   UNL A   1      42.553  28.356  28.054  1.00  0.00     0.037 A 
ATOM     48  C   UNL A   1      48.889  29.287  26.824  1.00  0.00     0.049 A 
ATOM     49  C   UNL A   1      43.489  29.514  28.277  1.00  0.00     0.074 A 
ATOM     50  C   UNL A   1      49.632  30.440  27.011  1.00  0.00     0.029 A 
ATOM     51  N   UNL A   1      47.604  29.567  27.266  1.00  0.00    -0.354 N 
ATOM     52  N   UNL A   1      44.762  29.620  27.980  1.00  0.00    -0.248 NA
ATOM     53  C   UNL A   1      42.922  30.711  28.914  1.00  0.00     0.031 C 
ATOM     54  C   UNL A   1      48.812  31.397  27.618  1.00  0.00     0.029 A 
ATOM     55  C   UNL A   1      47.541  30.864  27.750  1.00  0.00     0.049 A 
ATOM     56  H   UNL A   1      46.847  28.936  27.240  1.00  0.00     0.167 HD
ATOM     57  C   UNL A   1      45.138  30.900  28.364  1.00  0.00     0.074 A 
ATOM     58  C   UNL A   1      43.956  31.540  28.900  1.00  0.00     0.031 C 
ATOM     59  C   UNL A   1      46.355  31.493  28.278  1.00  0.00     0.037 A 
BRANCH  46  60
ATOM     60  C   UNL A   1      50.762  27.856  25.915  1.00  0.00     0.064 A 
ATOM     61  C   UNL A   1      51.205  28.020  24.592  1.00  0.00     0.173 A 
ATOM     62  C   UNL A   1      51.725  27.568  26.894  1.00  0.00     0.173 A 
ATOM     63  F   UNL A   1      50.326  28.288  23.614  1.00  0.00    -0.203 F 
ATOM     64  C   UNL A   1      52.548  27.864  24.260  1.00  0.00     0.198 A 
ATOM     65  C   UNL A   1      53.072  27.448  26.564  1.00  0.00     0.198 A 
ATOM     66  F   UNL A   1      51.359  27.409  28.175  1.00  0.00    -0.203 F 
ATOM     67  F   UNL A   1      52.936  27.969  22.982  1.00  0.00    -0.200 F 
ATOM     68  C   UNL A   1      53.482  27.587  25.247  1.00  0.00     0.200 A 
ATOM     69  F   UNL A   1      53.975  27.196  27.521  1.00  0.00    -0.200 F 
ATOM     70  F   UNL A   1      54.775  27.445  24.927  1.00  0.00    -0.200 F 
ENDBRANCH  46  60
BRANCH  47  71
ATOM     71  C   UNL A   1      41.128  28.436  28.472  1.00  0.00     0.064 A 
ATOM     72  C   UNL A   1      40.150  28.952  27.609  1.00  0.00     0.173 A 
ATOM     73  C   UNL A   1      40.714  28.008  29.742  1.00  0.00     0.173 A 
ATOM     74  F   UNL A   1      40.499  29.396  26.392  1.00  0.00    -0.203 F 
ATOM     75  C   UNL A   1      38.819  29.058  28.008  1.00  0.00     0.198 A 
ATOM     76  C   UNL A   1      39.378  28.082  30.128  1.00  0.00     0.198 A 
ATOM     77  F   UNL A   1      41.608  27.502  30.605  1.00  0.00    -0.203 F 
ATOM     78  F   UNL A   1      37.916  29.602  27.183  1.00  0.00    -0.200 F 
ATOM     79  C   UNL A   1      38.433  28.617  29.265  1.00  0.00     0.200 A 
ATOM     80  F   UNL A   1      39.007  27.641  31.337  1.00  0.00    -0.200 F 
ATOM     81  F   UNL A   1      37.153  28.713  29.647  1.00  0.00    -0.200 F 
ENDBRANCH  47  71
BRANCH  59  82
ATOM     82  C   UNL A   1      46.464  32.919  28.738  1.00  0.00     0.064 A 
ATOM     83  C   UNL A   1      46.838  33.246  30.051  1.00  0.00     0.173 A 
ATOM     84  C   UNL A   1      46.228  33.973  27.843  1.00  0.00     0.173 A 
ATOM     85  F   UNL A   1      47.062  32.276  30.951  1.00  0.00    -0.203 F 
ATOM     86  C   UNL A   1      46.945  34.574  30.456  1.00  0.00     0.198 A 
ATOM     87  C   UNL A   1      46.368  35.299  28.241  1.00  0.00     0.198 A 
ATOM     88  F   UNL A   1      45.875  33.716  26.574  1.00  0.00    -0.203 F 
ATOM     89  F   UNL A   1      47.251  34.863  31.727  1.00  0.00    -0.200 F 
ATOM     90  C   UNL A   1      46.718  35.599  29.548  1.00  0.00     0.200 A 
ATOM     91  F   UNL A   1      46.166  36.288  27.359  1.00  0.00    -0.200 F 
ATOM     92  F   UNL A   1      46.828  36.877  29.938  1.00  0.00    -0.200 F 
ENDBRANCH  59  82
ENDBRANCH  33  34
ENDBRANCH  25  28
ENDBRANCH  23  24
ENDBRANCH  22  23
ENDBRANCH  21  22
ENDBRANCH   1  21
TORSDOF 15
ENDMDL
