MODEL 1
REMARK VINA RESULT:     -12.5      0.000      0.000
REMARK SMILES CC1(C)[C@H]2CC[C@]1(C)[C@H](NC(=O)CCC(=O)NCCCCNC(=O)c1ccc(-c3c4nc(c(-c5c(F)c(F)c(F)c(F)c5F)c5ccc([nH]5)c(-c5c(F)c(F)c(F)c(F)c5F)c5nc(c(-c6c(F)c(F)c(F)c(F)c6F)c6ccc3[nH]6)C=C5)C=C4)cc1)C2
REMARK SMILES IDX 19 1 18 2 17 3 15 4 16 5 14 7 13 8 11 9 10 10 12 12 9 13
REMARK SMILES IDX 1 14 2 15 3 16 4 17 7 18 5 19 88 20 6 21 8 22 20 23 21 24
REMARK SMILES IDX 22 25 23 26 24 28 25 29 26 30 87 31 27 32 86 33 28 34 29 35
REMARK SMILES IDX 30 36 80 37 31 38 85 39 79 40 81 41 32 42 84 43 78 44 77 45
REMARK SMILES IDX 33 47 65 48 45 49 64 50 46 51 49 52 63 53 82 54 47 55 48 56
REMARK SMILES IDX 62 58 83 59 50 60 34 61 35 62 43 63 36 64 37 65 41 66 44 67
REMARK SMILES IDX 38 68 39 69 42 70 40 71 66 72 67 73 75 74 68 75 69 76 73 77
REMARK SMILES IDX 76 78 70 79 71 80 74 81 72 82 51 83 52 84 60 85 53 86 54 87
REMARK SMILES IDX 58 88 61 89 55 90 56 91 59 92 57 93
REMARK H PARENT 17 6 10 11 22 27 81 46 49 57
REMARK Flexibility Score: inf
ROOT
ATOM      1  C   UNL A   1      31.920  30.527  26.665  1.00  0.00     0.023 C 
ENDROOT
BRANCH   1   2
ATOM      2  C   UNL A   1      31.716  29.991  25.251  1.00  0.00     0.116 C 
BRANCH   2   3
ATOM      3  N   UNL A   1      32.967  29.645  24.612  1.00  0.00    -0.356 N 
ATOM      4  C   UNL A   1      33.176  28.933  23.477  1.00  0.00     0.220 C 
ATOM      5  O   UNL A   1      34.326  28.862  23.041  1.00  0.00    -0.275 OA
ATOM      6  H   UNL A   1      33.779  29.973  25.063  1.00  0.00     0.163 HD
BRANCH   4   7
ATOM      7  C   UNL A   1      32.020  28.302  22.741  1.00  0.00     0.110 C 
BRANCH   7   8
ATOM      8  C   UNL A   1      31.914  26.788  22.659  1.00  0.00     0.110 C 
BRANCH   8   9
ATOM      9  C   UNL A   1      33.037  25.950  22.101  1.00  0.00     0.220 C 
ATOM     10  N   UNL A   1      33.885  25.222  22.872  1.00  0.00    -0.353 N 
ATOM     11  H   UNL A   1      34.777  25.110  22.471  1.00  0.00     0.163 HD
ATOM     12  O   UNL A   1      33.266  25.975  20.886  1.00  0.00    -0.275 OA
BRANCH  10  13
ATOM     13  C   UNL A   1      33.749  24.573  24.174  1.00  0.00     0.088 C 
ATOM     14  C   UNL A   1      35.074  21.356  25.954  1.00  0.00     0.012 C 
ATOM     15  C   UNL A   1      34.434  22.721  25.636  1.00  0.00    -0.025 C 
ATOM     16  C   UNL A   1      33.207  22.848  26.563  1.00  0.00     0.012 C 
ATOM     17  C   UNL A   1      35.454  23.878  25.732  1.00  0.00    -0.003 C 
ATOM     18  C   UNL A   1      34.151  23.041  24.133  1.00  0.00    -0.007 C 
ATOM     19  C   UNL A   1      36.448  23.610  24.576  1.00  0.00     0.005 C 
ATOM     20  C   UNL A   1      34.634  25.105  25.315  1.00  0.00     0.029 C 
ATOM     21  C   UNL A   1      35.568  22.946  23.507  1.00  0.00     0.010 C 
ATOM     22  C   UNL A   1      33.137  22.141  23.447  1.00  0.00     0.014 C 
ENDBRANCH  10  13
ENDBRANCH   8   9
ENDBRANCH   7   8
ENDBRANCH   4   7
ENDBRANCH   2   3
ENDBRANCH   1   2
BRANCH   1  23
ATOM     23  C   UNL A   1      31.612  32.005  26.853  1.00  0.00     0.023 C 
BRANCH  23  24
ATOM     24  C   UNL A   1      32.815  32.852  27.216  1.00  0.00     0.116 C 
BRANCH  24  25
ATOM     25  N   UNL A   1      32.469  34.208  27.621  1.00  0.00    -0.352 N 
ATOM     26  C   UNL A   1      33.017  34.980  28.620  1.00  0.00     0.251 C 
ATOM     27  H   UNL A   1      31.741  34.631  27.111  1.00  0.00     0.163 HD
ATOM     28  O   UNL A   1      32.573  36.075  28.892  1.00  0.00    -0.269 OA
BRANCH  26  29
ATOM     29  C   UNL A   1      34.141  34.407  29.385  1.00  0.00     0.039 A 
ATOM     30  C   UNL A   1      33.860  33.576  30.470  1.00  0.00     0.014 A 
ATOM     31  C   UNL A   1      35.450  34.604  28.944  1.00  0.00     0.014 A 
ATOM     32  C   UNL A   1      34.901  32.874  31.073  1.00  0.00     0.010 A 
ATOM     33  C   UNL A   1      36.462  33.823  29.472  1.00  0.00     0.010 A 
ATOM     34  C   UNL A   1      36.200  32.960  30.548  1.00  0.00    -0.014 A 
BRANCH  34  35
ATOM     35  C   UNL A   1      37.330  32.200  31.126  1.00  0.00     0.031 A 
ATOM     36  C   UNL A   1      37.801  32.546  32.509  1.00  0.00     0.074 A 
ATOM     37  C   UNL A   1      37.987  31.292  30.381  1.00  0.00     0.049 A 
ATOM     38  N   UNL A   1      38.872  32.152  33.146  1.00  0.00    -0.248 NA
ATOM     39  C   UNL A   1      36.980  33.514  33.255  1.00  0.00     0.031 C 
ATOM     40  C   UNL A   1      37.651  30.912  29.008  1.00  0.00     0.029 A 
ATOM     41  N   UNL A   1      39.088  30.531  30.677  1.00  0.00    -0.354 N 
ATOM     42  C   UNL A   1      38.880  32.866  34.336  1.00  0.00     0.074 A 
ATOM     43  C   UNL A   1      37.742  33.758  34.308  1.00  0.00     0.031 C 
ATOM     44  C   UNL A   1      38.502  29.958  28.595  1.00  0.00     0.029 A 
ATOM     45  C   UNL A   1      39.467  29.694  29.658  1.00  0.00     0.049 A 
ATOM     46  H   UNL A   1      39.562  30.580  31.539  1.00  0.00     0.167 HD
ATOM     47  C   UNL A   1      39.744  32.766  35.372  1.00  0.00     0.037 A 
ATOM     48  C   UNL A   1      40.481  28.811  29.597  1.00  0.00     0.037 A 
ATOM     49  C   UNL A   1      40.827  31.824  35.417  1.00  0.00     0.049 A 
ATOM     50  C   UNL A   1      41.396  28.676  30.783  1.00  0.00     0.074 A 
ATOM     51  C   UNL A   1      41.719  31.576  36.445  1.00  0.00     0.029 A 
ATOM     52  N   UNL A   1      41.150  30.954  34.385  1.00  0.00    -0.354 N 
ATOM     53  N   UNL A   1      41.378  29.326  31.921  1.00  0.00    -0.248 NA
ATOM     54  C   UNL A   1      42.475  27.684  30.674  1.00  0.00     0.031 C 
ATOM     55  C   UNL A   1      42.596  30.569  36.024  1.00  0.00     0.029 A 
ATOM     56  C   UNL A   1      42.229  30.168  34.749  1.00  0.00     0.049 A 
ATOM     57  H   UNL A   1      40.680  30.904  33.520  1.00  0.00     0.167 HD
ATOM     58  C   UNL A   1      42.418  28.805  32.677  1.00  0.00     0.074 A 
ATOM     59  C   UNL A   1      43.045  27.779  31.867  1.00  0.00     0.031 C 
ATOM     60  C   UNL A   1      42.819  29.143  33.927  1.00  0.00     0.037 A 
BRANCH  47  61
ATOM     61  C   UNL A   1      39.532  33.697  36.531  1.00  0.00     0.064 A 
ATOM     62  C   UNL A   1      40.117  34.972  36.571  1.00  0.00     0.173 A 
ATOM     63  C   UNL A   1      38.762  33.295  37.633  1.00  0.00     0.173 A 
ATOM     64  F   UNL A   1      40.879  35.397  35.551  1.00  0.00    -0.203 F 
ATOM     65  C   UNL A   1      39.983  35.789  37.690  1.00  0.00     0.198 A 
ATOM     66  C   UNL A   1      38.601  34.129  38.736  1.00  0.00     0.198 A 
ATOM     67  F   UNL A   1      38.177  32.088  37.646  1.00  0.00    -0.203 F 
ATOM     68  F   UNL A   1      40.618  36.968  37.736  1.00  0.00    -0.200 F 
ATOM     69  C   UNL A   1      39.223  35.368  38.770  1.00  0.00     0.200 A 
ATOM     70  F   UNL A   1      37.857  33.726  39.776  1.00  0.00    -0.200 F 
ATOM     71  F   UNL A   1      39.103  36.151  39.851  1.00  0.00    -0.200 F 
ENDBRANCH  47  61
BRANCH  48  72
ATOM     72  C   UNL A   1      40.638  27.946  28.402  1.00  0.00     0.064 A 
ATOM     73  C   UNL A   1      41.420  28.373  27.320  1.00  0.00     0.173 A 
ATOM     74  C   UNL A   1      40.045  26.679  28.321  1.00  0.00     0.173 A 
ATOM     75  F   UNL A   1      41.994  29.585  27.347  1.00  0.00    -0.203 F 
ATOM     76  C   UNL A   1      41.592  27.570  26.194  1.00  0.00     0.198 A 
ATOM     77  C   UNL A   1      40.234  25.868  27.203  1.00  0.00     0.198 A 
ATOM     78  F   UNL A   1      39.295  26.222  29.334  1.00  0.00    -0.203 F 
ATOM     79  F   UNL A   1      42.321  28.016  25.162  1.00  0.00    -0.200 F 
ATOM     80  C   UNL A   1      41.005  26.316  26.139  1.00  0.00     0.200 A 
ATOM     81  F   UNL A   1      39.676  24.651  27.158  1.00  0.00    -0.200 F 
ATOM     82  F   UNL A   1      41.176  25.540  25.060  1.00  0.00    -0.200 F 
ENDBRANCH  48  72
BRANCH  60  83
ATOM     83  C   UNL A   1      43.959  28.366  34.510  1.00  0.00     0.064 A 
ATOM     84  C   UNL A   1      45.281  28.822  34.415  1.00  0.00     0.173 A 
ATOM     85  C   UNL A   1      43.718  27.178  35.215  1.00  0.00     0.173 A 
ATOM     86  F   UNL A   1      45.561  29.944  33.737  1.00  0.00    -0.203 F 
ATOM     87  C   UNL A   1      46.325  28.104  34.993  1.00  0.00     0.198 A 
ATOM     88  C   UNL A   1      44.760  26.476  35.811  1.00  0.00     0.198 A 
ATOM     89  F   UNL A   1      42.468  26.706  35.335  1.00  0.00    -0.203 F 
ATOM     90  F   UNL A   1      47.586  28.537  34.861  1.00  0.00    -0.200 F 
ATOM     91  C   UNL A   1      46.062  26.938  35.696  1.00  0.00     0.200 A 
ATOM     92  F   UNL A   1      44.505  25.354  36.499  1.00  0.00    -0.200 F 
ATOM     93  F   UNL A   1      47.069  26.254  36.259  1.00  0.00    -0.200 F 
ENDBRANCH  60  83
ENDBRANCH  34  35
ENDBRANCH  26  29
ENDBRANCH  24  25
ENDBRANCH  23  24
ENDBRANCH   1  23
TORSDOF 14
ENDMDL
MODEL 2
REMARK VINA RESULT:     -12.4      0.577      1.284
REMARK SMILES CC1(C)[C@H]2CC[C@]1(C)[C@H](NC(=O)CCC(=O)NCCCCNC(=O)c1ccc(-c3c4nc(c(-c5c(F)c(F)c(F)c(F)c5F)c5ccc([nH]5)c(-c5c(F)c(F)c(F)c(F)c5F)c5nc(c(-c6c(F)c(F)c(F)c(F)c6F)c6ccc3[nH]6)C=C5)C=C4)cc1)C2
REMARK SMILES IDX 19 1 18 2 17 3 15 4 16 5 14 7 13 8 11 9 10 10 12 12 9 13
REMARK SMILES IDX 1 14 2 15 3 16 4 17 7 18 5 19 88 20 6 21 8 22 20 23 21 24
REMARK SMILES IDX 22 25 23 26 24 28 25 29 26 30 87 31 27 32 86 33 28 34 29 35
REMARK SMILES IDX 30 36 80 37 31 38 85 39 79 40 81 41 32 42 84 43 78 44 77 45
REMARK SMILES IDX 33 47 65 48 45 49 64 50 46 51 49 52 63 53 82 54 47 55 48 56
REMARK SMILES IDX 62 58 83 59 50 60 34 61 35 62 43 63 36 64 37 65 41 66 44 67
REMARK SMILES IDX 38 68 39 69 42 70 40 71 66 72 67 73 75 74 68 75 69 76 73 77
REMARK SMILES IDX 76 78 70 79 71 80 74 81 72 82 51 83 52 84 60 85 53 86 54 87
REMARK SMILES IDX 58 88 61 89 55 90 56 91 59 92 57 93
REMARK H PARENT 17 6 10 11 22 27 81 46 49 57
REMARK Flexibility Score: inf
ROOT
ATOM      1  C   UNL A   1      31.778  30.536  26.752  1.00  0.00     0.023 C 
ENDROOT
BRANCH   1   2
ATOM      2  C   UNL A   1      32.346  29.957  25.459  1.00  0.00     0.116 C 
BRANCH   2   3
ATOM      3  N   UNL A   1      31.344  29.857  24.420  1.00  0.00    -0.356 N 
ATOM      4  C   UNL A   1      30.921  28.756  23.748  1.00  0.00     0.220 C 
ATOM      5  O   UNL A   1      29.963  28.877  22.985  1.00  0.00    -0.275 OA
ATOM      6  H   UNL A   1      30.908  30.702  24.166  1.00  0.00     0.163 HD
BRANCH   4   7
ATOM      7  C   UNL A   1      31.571  27.415  23.982  1.00  0.00     0.110 C 
BRANCH   7   8
ATOM      8  C   UNL A   1      31.748  26.450  22.822  1.00  0.00     0.110 C 
BRANCH   8   9
ATOM      9  C   UNL A   1      33.118  26.021  22.357  1.00  0.00     0.220 C 
ATOM     10  N   UNL A   1      34.023  25.405  23.160  1.00  0.00    -0.353 N 
ATOM     11  H   UNL A   1      34.956  25.585  22.904  1.00  0.00     0.163 HD
ATOM     12  O   UNL A   1      33.486  26.306  21.212  1.00  0.00    -0.275 OA
BRANCH  10  13
ATOM     13  C   UNL A   1      33.900  24.532  24.325  1.00  0.00     0.088 C 
ATOM     14  C   UNL A   1      35.143  20.996  25.434  1.00  0.00     0.012 C 
ATOM     15  C   UNL A   1      34.552  22.419  25.396  1.00  0.00    -0.025 C 
ATOM     16  C   UNL A   1      33.360  22.417  26.377  1.00  0.00     0.012 C 
ATOM     17  C   UNL A   1      35.623  23.501  25.663  1.00  0.00    -0.003 C 
ATOM     18  C   UNL A   1      34.236  23.021  23.989  1.00  0.00    -0.007 C 
ATOM     19  C   UNL A   1      36.567  23.415  24.440  1.00  0.00     0.005 C 
ATOM     20  C   UNL A   1      34.842  24.812  25.510  1.00  0.00     0.029 C 
ATOM     21  C   UNL A   1      35.627  22.992  23.302  1.00  0.00     0.010 C 
ATOM     22  C   UNL A   1      33.164  22.300  23.190  1.00  0.00     0.014 C 
ENDBRANCH  10  13
ENDBRANCH   8   9
ENDBRANCH   7   8
ENDBRANCH   4   7
ENDBRANCH   2   3
ENDBRANCH   1   2
BRANCH   1  23
ATOM     23  C   UNL A   1      31.577  32.044  26.758  1.00  0.00     0.023 C 
BRANCH  23  24
ATOM     24  C   UNL A   1      32.771  32.831  27.260  1.00  0.00     0.116 C 
BRANCH  24  25
ATOM     25  N   UNL A   1      32.446  34.200  27.639  1.00  0.00    -0.352 N 
ATOM     26  C   UNL A   1      33.011  34.985  28.617  1.00  0.00     0.251 C 
ATOM     27  H   UNL A   1      31.720  34.622  27.125  1.00  0.00     0.163 HD
ATOM     28  O   UNL A   1      32.584  36.091  28.869  1.00  0.00    -0.269 OA
BRANCH  26  29
ATOM     29  C   UNL A   1      34.132  34.413  29.387  1.00  0.00     0.039 A 
ATOM     30  C   UNL A   1      33.848  33.593  30.479  1.00  0.00     0.014 A 
ATOM     31  C   UNL A   1      35.443  34.600  28.944  1.00  0.00     0.014 A 
ATOM     32  C   UNL A   1      34.886  32.891  31.087  1.00  0.00     0.010 A 
ATOM     33  C   UNL A   1      36.451  33.819  29.478  1.00  0.00     0.010 A 
ATOM     34  C   UNL A   1      36.185  32.967  30.561  1.00  0.00    -0.014 A 
BRANCH  34  35
ATOM     35  C   UNL A   1      37.312  32.206  31.145  1.00  0.00     0.031 A 
ATOM     36  C   UNL A   1      37.774  32.550  32.532  1.00  0.00     0.074 A 
ATOM     37  C   UNL A   1      37.974  31.299  30.404  1.00  0.00     0.049 A 
ATOM     38  N   UNL A   1      38.842  32.156  33.175  1.00  0.00    -0.248 NA
ATOM     39  C   UNL A   1      36.948  33.517  33.274  1.00  0.00     0.031 C 
ATOM     40  C   UNL A   1      37.646  30.920  29.028  1.00  0.00     0.029 A 
ATOM     41  N   UNL A   1      39.073  30.538  30.706  1.00  0.00    -0.354 N 
ATOM     42  C   UNL A   1      38.842  32.868  34.365  1.00  0.00     0.074 A 
ATOM     43  C   UNL A   1      37.704  33.760  34.332  1.00  0.00     0.031 C 
ATOM     44  C   UNL A   1      38.500  29.968  28.619  1.00  0.00     0.029 A 
ATOM     45  C   UNL A   1      39.458  29.702  29.687  1.00  0.00     0.049 A 
ATOM     46  H   UNL A   1      39.541  30.585  31.570  1.00  0.00     0.167 HD
ATOM     47  C   UNL A   1      39.700  32.768  35.407  1.00  0.00     0.037 A 
ATOM     48  C   UNL A   1      40.473  28.819  29.632  1.00  0.00     0.037 A 
ATOM     49  C   UNL A   1      40.782  31.825  35.458  1.00  0.00     0.049 A 
ATOM     50  C   UNL A   1      41.381  28.683  30.823  1.00  0.00     0.074 A 
ATOM     51  C   UNL A   1      41.668  31.577  36.490  1.00  0.00     0.029 A 
ATOM     52  N   UNL A   1      41.112  30.956  34.426  1.00  0.00    -0.354 N 
ATOM     53  N   UNL A   1      41.355  29.332  31.962  1.00  0.00    -0.248 NA
ATOM     54  C   UNL A   1      42.460  27.692  30.720  1.00  0.00     0.031 C 
ATOM     55  C   UNL A   1      42.548  30.570  36.074  1.00  0.00     0.029 A 
ATOM     56  C   UNL A   1      42.189  30.170  34.796  1.00  0.00     0.049 A 
ATOM     57  H   UNL A   1      40.648  30.908  33.559  1.00  0.00     0.167 HD
ATOM     58  C   UNL A   1      42.391  28.810  32.724  1.00  0.00     0.074 A 
ATOM     59  C   UNL A   1      43.024  27.785  31.916  1.00  0.00     0.031 C 
ATOM     60  C   UNL A   1      42.784  29.146  33.977  1.00  0.00     0.037 A 
BRANCH  47  61
ATOM     61  C   UNL A   1      39.480  33.697  36.566  1.00  0.00     0.064 A 
ATOM     62  C   UNL A   1      40.040  34.984  36.597  1.00  0.00     0.173 A 
ATOM     63  C   UNL A   1      38.729  33.282  37.676  1.00  0.00     0.173 A 
ATOM     64  F   UNL A   1      40.783  35.421  35.568  1.00  0.00    -0.203 F 
ATOM     65  C   UNL A   1      39.900  35.800  37.715  1.00  0.00     0.198 A 
ATOM     66  C   UNL A   1      38.562  34.116  38.779  1.00  0.00     0.198 A 
ATOM     67  F   UNL A   1      38.169  32.063  37.698  1.00  0.00    -0.203 F 
ATOM     68  F   UNL A   1      40.512  36.993  37.752  1.00  0.00    -0.200 F 
ATOM     69  C   UNL A   1      39.159  35.367  38.804  1.00  0.00     0.200 A 
ATOM     70  F   UNL A   1      37.837  33.701  39.827  1.00  0.00    -0.200 F 
ATOM     71  F   UNL A   1      39.034  36.151  39.884  1.00  0.00    -0.200 F 
ENDBRANCH  47  61
BRANCH  48  72
ATOM     72  C   UNL A   1      40.638  27.956  28.437  1.00  0.00     0.064 A 
ATOM     73  C   UNL A   1      40.012  26.703  28.380  1.00  0.00     0.173 A 
ATOM     74  C   UNL A   1      41.390  28.363  27.327  1.00  0.00     0.173 A 
ATOM     75  F   UNL A   1      39.295  26.265  29.425  1.00  0.00    -0.203 F 
ATOM     76  C   UNL A   1      40.142  25.883  27.261  1.00  0.00     0.198 A 
ATOM     77  C   UNL A   1      41.503  27.550  26.200  1.00  0.00     0.198 A 
ATOM     78  F   UNL A   1      42.002  29.556  27.331  1.00  0.00    -0.203 F 
ATOM     79  F   UNL A   1      39.557  24.678  27.244  1.00  0.00    -0.200 F 
ATOM     80  C   UNL A   1      40.883  26.310  26.169  1.00  0.00     0.200 A 
ATOM     81  F   UNL A   1      42.210  27.970  25.141  1.00  0.00    -0.200 F 
ATOM     82  F   UNL A   1      41.003  25.524  25.090  1.00  0.00    -0.200 F 
ENDBRANCH  48  72
BRANCH  60  83
ATOM     83  C   UNL A   1      43.921  28.369  34.565  1.00  0.00     0.064 A 
ATOM     84  C   UNL A   1      45.243  28.824  34.477  1.00  0.00     0.173 A 
ATOM     85  C   UNL A   1      43.675  27.181  35.269  1.00  0.00     0.173 A 
ATOM     86  F   UNL A   1      45.527  29.946  33.800  1.00  0.00    -0.203 F 
ATOM     87  C   UNL A   1      46.284  28.106  35.060  1.00  0.00     0.198 A 
ATOM     88  C   UNL A   1      44.714  26.479  35.872  1.00  0.00     0.198 A 
ATOM     89  F   UNL A   1      42.424  26.710  35.383  1.00  0.00    -0.203 F 
ATOM     90  F   UNL A   1      47.546  28.538  34.935  1.00  0.00    -0.200 F 
ATOM     91  C   UNL A   1      46.017  26.940  35.763  1.00  0.00     0.200 A 
ATOM     92  F   UNL A   1      44.455  25.358  36.558  1.00  0.00    -0.200 F 
ATOM     93  F   UNL A   1      47.020  26.256  36.331  1.00  0.00    -0.200 F 
ENDBRANCH  60  83
ENDBRANCH  34  35
ENDBRANCH  26  29
ENDBRANCH  24  25
ENDBRANCH  23  24
ENDBRANCH   1  23
TORSDOF 14
ENDMDL
MODEL 3
REMARK VINA RESULT:     -12.4      0.247      1.159
REMARK SMILES CC1(C)[C@H]2CC[C@]1(C)[C@H](NC(=O)CCC(=O)NCCCCNC(=O)c1ccc(-c3c4nc(c(-c5c(F)c(F)c(F)c(F)c5F)c5ccc([nH]5)c(-c5c(F)c(F)c(F)c(F)c5F)c5nc(c(-c6c(F)c(F)c(F)c(F)c6F)c6ccc3[nH]6)C=C5)C=C4)cc1)C2
REMARK SMILES IDX 19 1 18 2 17 3 15 4 16 5 14 7 13 8 11 9 10 10 12 12 9 13
REMARK SMILES IDX 1 14 2 15 3 16 4 17 7 18 5 19 88 20 6 21 8 22 20 23 21 24
REMARK SMILES IDX 22 25 23 26 24 28 25 29 26 30 87 31 27 32 86 33 28 34 29 35
REMARK SMILES IDX 30 36 80 37 31 38 85 39 79 40 81 41 32 42 84 43 78 44 77 45
REMARK SMILES IDX 33 47 65 48 45 49 64 50 46 51 49 52 63 53 82 54 47 55 48 56
REMARK SMILES IDX 62 58 83 59 50 60 34 61 35 62 43 63 36 64 37 65 41 66 44 67
REMARK SMILES IDX 38 68 39 69 42 70 40 71 66 72 67 73 75 74 68 75 69 76 73 77
REMARK SMILES IDX 76 78 70 79 71 80 74 81 72 82 51 83 52 84 60 85 53 86 54 87
REMARK SMILES IDX 58 88 61 89 55 90 56 91 59 92 57 93
REMARK H PARENT 17 6 10 11 22 27 81 46 49 57
REMARK Flexibility Score: inf
ROOT
ATOM      1  C   UNL A   1      31.968  30.533  26.763  1.00  0.00     0.023 C 
ENDROOT
BRANCH   1   2
ATOM      2  C   UNL A   1      31.446  29.844  25.505  1.00  0.00     0.116 C 
BRANCH   2   3
ATOM      3  N   UNL A   1      32.473  29.703  24.496  1.00  0.00    -0.356 N 
ATOM      4  C   UNL A   1      32.649  28.706  23.592  1.00  0.00     0.220 C 
ATOM      5  O   UNL A   1      33.523  28.847  22.737  1.00  0.00    -0.275 OA
ATOM      6  H   UNL A   1      33.136  30.430  24.458  1.00  0.00     0.163 HD
BRANCH   4   7
ATOM      7  C   UNL A   1      31.753  27.492  23.604  1.00  0.00     0.110 C 
BRANCH   7   8
ATOM      8  C   UNL A   1      31.731  26.559  22.404  1.00  0.00     0.110 C 
BRANCH   8   9
ATOM      9  C   UNL A   1      32.969  25.819  21.960  1.00  0.00     0.220 C 
ATOM     10  N   UNL A   1      33.829  25.212  22.816  1.00  0.00    -0.353 N 
ATOM     11  H   UNL A   1      34.753  25.177  22.481  1.00  0.00     0.163 HD
ATOM     12  O   UNL A   1      33.278  25.821  20.762  1.00  0.00    -0.275 OA
BRANCH  10  13
ATOM     13  C   UNL A   1      33.667  24.602  24.134  1.00  0.00     0.088 C 
ATOM     14  C   UNL A   1      34.974  21.452  26.043  1.00  0.00     0.012 C 
ATOM     15  C   UNL A   1      34.332  22.802  25.668  1.00  0.00    -0.025 C 
ATOM     16  C   UNL A   1      33.083  22.948  26.563  1.00  0.00     0.012 C 
ATOM     17  C   UNL A   1      35.342  23.970  25.751  1.00  0.00    -0.003 C 
ATOM     18  C   UNL A   1      34.082  23.073  24.150  1.00  0.00    -0.007 C 
ATOM     19  C   UNL A   1      36.363  23.674  24.628  1.00  0.00     0.005 C 
ATOM     20  C   UNL A   1      34.522  25.176  25.279  1.00  0.00     0.029 C 
ATOM     21  C   UNL A   1      35.513  22.970  23.560  1.00  0.00     0.010 C 
ATOM     22  C   UNL A   1      33.090  22.145  23.470  1.00  0.00     0.014 C 
ENDBRANCH  10  13
ENDBRANCH   8   9
ENDBRANCH   7   8
ENDBRANCH   4   7
ENDBRANCH   2   3
ENDBRANCH   1   2
BRANCH   1  23
ATOM     23  C   UNL A   1      31.685  32.025  26.855  1.00  0.00     0.023 C 
BRANCH  23  24
ATOM     24  C   UNL A   1      32.883  32.864  27.251  1.00  0.00     0.116 C 
BRANCH  24  25
ATOM     25  N   UNL A   1      32.529  34.205  27.700  1.00  0.00    -0.352 N 
ATOM     26  C   UNL A   1      33.066  34.942  28.731  1.00  0.00     0.251 C 
ATOM     27  H   UNL A   1      31.806  34.644  27.198  1.00  0.00     0.163 HD
ATOM     28  O   UNL A   1      32.617  36.026  29.037  1.00  0.00    -0.269 OA
BRANCH  26  29
ATOM     29  C   UNL A   1      34.183  34.344  29.487  1.00  0.00     0.039 A 
ATOM     30  C   UNL A   1      33.893  33.470  30.535  1.00  0.00     0.014 A 
ATOM     31  C   UNL A   1      35.497  34.565  29.071  1.00  0.00     0.014 A 
ATOM     32  C   UNL A   1      34.930  32.750  31.123  1.00  0.00     0.010 A 
ATOM     33  C   UNL A   1      36.506  33.768  29.581  1.00  0.00     0.010 A 
ATOM     34  C   UNL A   1      36.234  32.863  30.618  1.00  0.00    -0.014 A 
BRANCH  34  35
ATOM     35  C   UNL A   1      37.361  32.085  31.181  1.00  0.00     0.031 A 
ATOM     36  C   UNL A   1      37.841  32.408  32.566  1.00  0.00     0.074 A 
ATOM     37  C   UNL A   1      38.007  31.183  30.421  1.00  0.00     0.049 A 
ATOM     38  N   UNL A   1      38.913  31.998  33.192  1.00  0.00    -0.248 NA
ATOM     39  C   UNL A   1      37.032  33.374  33.329  1.00  0.00     0.031 C 
ATOM     40  C   UNL A   1      37.661  30.823  29.045  1.00  0.00     0.029 A 
ATOM     41  N   UNL A   1      39.103  30.408  30.701  1.00  0.00    -0.354 N 
ATOM     42  C   UNL A   1      38.932  32.695  34.391  1.00  0.00     0.074 A 
ATOM     43  C   UNL A   1      37.801  33.597  34.381  1.00  0.00     0.031 C 
ATOM     44  C   UNL A   1      38.502  29.869  28.614  1.00  0.00     0.029 A 
ATOM     45  C   UNL A   1      39.470  29.582  29.668  1.00  0.00     0.049 A 
ATOM     46  H   UNL A   1      39.581  30.441  31.561  1.00  0.00     0.167 HD
ATOM     47  C   UNL A   1      39.801  32.575  35.422  1.00  0.00     0.037 A 
ATOM     48  C   UNL A   1      40.477  28.692  29.591  1.00  0.00     0.037 A 
ATOM     49  C   UNL A   1      40.876  31.623  35.449  1.00  0.00     0.049 A 
ATOM     50  C   UNL A   1      41.397  28.533  30.770  1.00  0.00     0.074 A 
ATOM     51  C   UNL A   1      41.770  31.354  36.469  1.00  0.00     0.029 A 
ATOM     52  N   UNL A   1      41.187  30.764  34.404  1.00  0.00    -0.354 N 
ATOM     53  N   UNL A   1      41.389  29.168  31.917  1.00  0.00    -0.248 NA
ATOM     54  C   UNL A   1      42.466  27.535  30.643  1.00  0.00     0.031 C 
ATOM     55  C   UNL A   1      42.637  30.345  36.031  1.00  0.00     0.029 A 
ATOM     56  C   UNL A   1      42.261  29.965  34.752  1.00  0.00     0.049 A 
ATOM     57  H   UNL A   1      40.712  30.730  33.541  1.00  0.00     0.167 HD
ATOM     58  C   UNL A   1      42.428  28.629  32.660  1.00  0.00     0.074 A 
ATOM     59  C   UNL A   1      43.043  27.608  31.834  1.00  0.00     0.031 C 
ATOM     60  C   UNL A   1      42.838  28.946  33.913  1.00  0.00     0.037 A 
BRANCH  47  61
ATOM     61  C   UNL A   1      39.601  33.491  36.595  1.00  0.00     0.064 A 
ATOM     62  C   UNL A   1      38.778  33.139  37.675  1.00  0.00     0.173 A 
ATOM     63  C   UNL A   1      40.213  34.753  36.622  1.00  0.00     0.173 A 
ATOM     64  F   UNL A   1      38.153  31.951  37.688  1.00  0.00    -0.203 F 
ATOM     65  C   UNL A   1      38.533  34.034  38.712  1.00  0.00     0.198 A 
ATOM     66  C   UNL A   1      39.994  35.633  37.679  1.00  0.00     0.198 A 
ATOM     67  F   UNL A   1      41.013  35.140  35.616  1.00  0.00    -0.203 F 
ATOM     68  F   UNL A   1      37.679  33.704  39.692  1.00  0.00    -0.200 F 
ATOM     69  C   UNL A   1      39.143  35.279  38.715  1.00  0.00     0.200 A 
ATOM     70  F   UNL A   1      40.592  36.832  37.685  1.00  0.00    -0.200 F 
ATOM     71  F   UNL A   1      38.899  36.143  39.709  1.00  0.00    -0.200 F 
ENDBRANCH  47  61
BRANCH  48  72
ATOM     72  C   UNL A   1      40.621  27.841  28.383  1.00  0.00     0.064 A 
ATOM     73  C   UNL A   1      41.396  28.280  27.301  1.00  0.00     0.173 A 
ATOM     74  C   UNL A   1      40.021  26.578  28.290  1.00  0.00     0.173 A 
ATOM     75  F   UNL A   1      41.977  29.488  27.339  1.00  0.00    -0.203 F 
ATOM     76  C   UNL A   1      41.556  27.490  26.164  1.00  0.00     0.198 A 
ATOM     77  C   UNL A   1      40.198  25.782  27.161  1.00  0.00     0.198 A 
ATOM     78  F   UNL A   1      39.276  26.112  29.303  1.00  0.00    -0.203 F 
ATOM     79  F   UNL A   1      42.279  27.946  25.132  1.00  0.00    -0.200 F 
ATOM     80  C   UNL A   1      40.963  26.240  26.097  1.00  0.00     0.200 A 
ATOM     81  F   UNL A   1      39.634  24.568  27.103  1.00  0.00    -0.200 F 
ATOM     82  F   UNL A   1      41.122  25.477  25.006  1.00  0.00    -0.200 F 
ENDBRANCH  48  72
BRANCH  60  83
ATOM     83  C   UNL A   1      43.975  28.152  34.479  1.00  0.00     0.064 A 
ATOM     84  C   UNL A   1      45.304  28.576  34.347  1.00  0.00     0.173 A 
ATOM     85  C   UNL A   1      43.724  26.980  35.208  1.00  0.00     0.173 A 
ATOM     86  F   UNL A   1      45.592  29.683  33.645  1.00  0.00    -0.203 F 
ATOM     87  C   UNL A   1      46.345  27.844  34.909  1.00  0.00     0.198 A 
ATOM     88  C   UNL A   1      44.765  26.264  35.789  1.00  0.00     0.198 A 
ATOM     89  F   UNL A   1      42.468  26.538  35.365  1.00  0.00    -0.203 F 
ATOM     90  F   UNL A   1      47.612  28.247  34.740  1.00  0.00    -0.200 F 
ATOM     91  C   UNL A   1      46.074  26.694  35.636  1.00  0.00     0.200 A 
ATOM     92  F   UNL A   1      44.502  25.158  36.499  1.00  0.00    -0.200 F 
ATOM     93  F   UNL A   1      47.079  25.995  36.184  1.00  0.00    -0.200 F 
ENDBRANCH  60  83
ENDBRANCH  34  35
ENDBRANCH  26  29
ENDBRANCH  24  25
ENDBRANCH  23  24
ENDBRANCH   1  23
TORSDOF 14
ENDMDL
