MODEL 1
REMARK VINA RESULT:     -10.7      0.000      0.000
REMARK SMILES CCN(CC)C(=O)[C@H](C)SCC(=O)NCCCCNC(=O)c1ccc(-c2c3nc(c(-c4c(F)c(F)c(F)c(F)c4F)c4ccc([nH]4)c(-c4c(F)c(F)c(F)c(F)c4F)c4nc(c(-c5c(F)c(F)c(F)c(F)c5F)c5ccc2[nH]5)C=C4)C=C3)cc1
REMARK SMILES IDX 15 1 14 2 12 3 13 4 11 6 10 7 8 8 9 9 6 10 3 11 7 12 2 13
REMARK SMILES IDX 1 14 4 15 5 16 16 17 17 18 18 19 19 20 20 21 21 23 22 24
REMARK SMILES IDX 23 25 84 26 24 27 83 28 25 29 26 30 27 31 77 32 28 33 82 34
REMARK SMILES IDX 76 35 78 36 29 37 81 38 75 39 74 40 30 42 62 43 42 44 61 45
REMARK SMILES IDX 43 46 46 47 60 48 79 49 44 50 45 51 59 53 80 54 47 55 31 56
REMARK SMILES IDX 32 57 40 58 33 59 34 60 38 61 41 62 35 63 36 64 39 65 37 66
REMARK SMILES IDX 63 67 64 68 72 69 65 70 66 71 70 72 73 73 67 74 68 75 71 76
REMARK SMILES IDX 69 77 48 78 49 79 57 80 50 81 51 82 55 83 58 84 52 85 53 86
REMARK SMILES IDX 56 87 54 88
REMARK H PARENT 14 5 19 22 78 41 46 52
REMARK Flexibility Score: inf
ROOT
ATOM      1  C   UNL A   1      32.054  26.443  26.288  1.00  0.00     0.116 C 
ENDROOT
BRANCH   1   2
ATOM      2  N   UNL A   1      31.255  25.386  26.876  1.00  0.00    -0.355 N 
ATOM      3  C   UNL A   1      31.118  24.081  26.501  1.00  0.00     0.230 C 
ATOM      4  O   UNL A   1      30.381  23.359  27.182  1.00  0.00    -0.274 OA
ATOM      5  H   UNL A   1      30.731  25.651  27.667  1.00  0.00     0.163 HD
BRANCH   3   6
ATOM      6  C   UNL A   1      31.927  23.487  25.362  1.00  0.00     0.170 C 
BRANCH   6   7
ATOM      7  S   UNL A   1      33.222  22.282  25.811  1.00  0.00    -0.139 SA
BRANCH   7   8
ATOM      8  C   UNL A   1      32.818  20.794  24.789  1.00  0.00     0.133 C 
ATOM      9  C   UNL A   1      32.438  21.221  23.376  1.00  0.00     0.030 C 
BRANCH   8  10
ATOM     10  C   UNL A   1      33.925  19.730  24.821  1.00  0.00     0.235 C 
ATOM     11  N   UNL A   1      33.548  18.400  24.663  1.00  0.00    -0.342 N 
ATOM     12  O   UNL A   1      35.110  19.992  25.019  1.00  0.00    -0.274 OA
BRANCH  11  13
ATOM     13  C   UNL A   1      34.544  17.506  24.068  1.00  0.00     0.116 C 
ATOM     14  C   UNL A   1      34.027  16.940  22.751  1.00  0.00     0.027 C 
ENDBRANCH  11  13
BRANCH  11  15
ATOM     15  C   UNL A   1      32.527  17.821  25.531  1.00  0.00     0.116 C 
ATOM     16  C   UNL A   1      32.791  16.344  25.802  1.00  0.00     0.027 C 
ENDBRANCH  11  15
ENDBRANCH   8  10
ENDBRANCH   7   8
ENDBRANCH   6   7
ENDBRANCH   3   6
ENDBRANCH   1   2
BRANCH   1  17
ATOM     17  C   UNL A   1      32.194  27.688  27.173  1.00  0.00     0.023 C 
BRANCH  17  18
ATOM     18  C   UNL A   1      31.779  29.013  26.530  1.00  0.00     0.023 C 
BRANCH  18  19
ATOM     19  C   UNL A   1      32.928  29.885  26.050  1.00  0.00     0.116 C 
BRANCH  19  20
ATOM     20  N   UNL A   1      32.770  31.279  26.428  1.00  0.00    -0.352 N 
ATOM     21  C   UNL A   1      33.480  32.033  27.329  1.00  0.00     0.251 C 
ATOM     22  H   UNL A   1      32.042  31.756  25.968  1.00  0.00     0.163 HD
ATOM     23  O   UNL A   1      33.097  33.159  27.625  1.00  0.00    -0.269 OA
BRANCH  21  24
ATOM     24  C   UNL A   1      34.695  31.478  27.965  1.00  0.00     0.039 A 
ATOM     25  C   UNL A   1      35.814  32.304  28.100  1.00  0.00     0.014 A 
ATOM     26  C   UNL A   1      34.739  30.157  28.417  1.00  0.00     0.014 A 
ATOM     27  C   UNL A   1      36.955  31.823  28.744  1.00  0.00     0.010 A 
ATOM     28  C   UNL A   1      35.846  29.705  29.129  1.00  0.00     0.010 A 
ATOM     29  C   UNL A   1      36.966  30.532  29.298  1.00  0.00    -0.014 A 
BRANCH  29  30
ATOM     30  C   UNL A   1      38.140  30.033  30.058  1.00  0.00     0.031 A 
ATOM     31  C   UNL A   1      38.388  30.505  31.463  1.00  0.00     0.074 A 
ATOM     32  C   UNL A   1      39.014  29.201  29.459  1.00  0.00     0.049 A 
ATOM     33  N   UNL A   1      39.388  30.232  32.264  1.00  0.00    -0.248 NA
ATOM     34  C   UNL A   1      37.394  31.423  32.038  1.00  0.00     0.031 C 
ATOM     35  C   UNL A   1      38.906  28.708  28.084  1.00  0.00     0.029 A 
ATOM     36  N   UNL A   1      40.171  28.630  29.926  1.00  0.00    -0.354 N 
ATOM     37  C   UNL A   1      39.147  30.951  33.427  1.00  0.00     0.074 A 
ATOM     38  C   UNL A   1      37.939  31.716  33.210  1.00  0.00     0.031 C 
ATOM     39  C   UNL A   1      39.939  27.891  27.828  1.00  0.00     0.029 A 
ATOM     40  C   UNL A   1      40.805  27.836  29.001  1.00  0.00     0.049 A 
ATOM     41  H   UNL A   1      40.515  28.775  30.837  1.00  0.00     0.167 HD
ATOM     42  C   UNL A   1      39.857  30.953  34.581  1.00  0.00     0.037 A 
ATOM     43  C   UNL A   1      41.962  27.151  29.086  1.00  0.00     0.037 A 
ATOM     44  C   UNL A   1      41.050  30.177  34.798  1.00  0.00     0.049 A 
ATOM     45  C   UNL A   1      42.743  27.191  30.372  1.00  0.00     0.074 A 
ATOM     46  C   UNL A   1      41.810  30.068  35.949  1.00  0.00     0.029 A 
ATOM     47  N   UNL A   1      41.659  29.379  33.840  1.00  0.00    -0.354 N 
ATOM     48  N   UNL A   1      42.468  27.818  31.490  1.00  0.00    -0.248 NA
ATOM     49  C   UNL A   1      43.996  26.424  30.409  1.00  0.00     0.031 C 
ATOM     50  C   UNL A   1      42.911  29.251  35.671  1.00  0.00     0.029 A 
ATOM     51  C   UNL A   1      42.802  28.798  34.366  1.00  0.00     0.049 A 
ATOM     52  H   UNL A   1      41.328  29.247  32.922  1.00  0.00     0.167 HD
ATOM     53  C   UNL A   1      43.493  27.497  32.371  1.00  0.00     0.074 A 
ATOM     54  C   UNL A   1      44.386  26.604  31.663  1.00  0.00     0.031 C 
ATOM     55  C   UNL A   1      43.678  27.906  33.650  1.00  0.00     0.037 A 
BRANCH  42  56
ATOM     56  C   UNL A   1      39.360  31.821  35.702  1.00  0.00     0.064 A 
ATOM     57  C   UNL A   1      38.412  31.360  36.627  1.00  0.00     0.173 A 
ATOM     58  C   UNL A   1      39.873  33.115  35.881  1.00  0.00     0.173 A 
ATOM     59  F   UNL A   1      37.882  30.133  36.496  1.00  0.00    -0.203 F 
ATOM     60  C   UNL A   1      37.973  32.169  37.670  1.00  0.00     0.198 A 
ATOM     61  C   UNL A   1      39.458  33.910  36.947  1.00  0.00     0.198 A 
ATOM     62  F   UNL A   1      40.788  33.606  35.031  1.00  0.00    -0.203 F 
ATOM     63  F   UNL A   1      37.030  31.724  38.512  1.00  0.00    -0.200 F 
ATOM     64  C   UNL A   1      38.503  33.440  37.835  1.00  0.00     0.200 A 
ATOM     65  F   UNL A   1      39.982  35.133  37.113  1.00  0.00    -0.200 F 
ATOM     66  F   UNL A   1      38.088  34.215  38.847  1.00  0.00    -0.200 F 
ENDBRANCH  42  56
BRANCH  43  67
ATOM     67  C   UNL A   1      42.447  26.356  27.927  1.00  0.00     0.064 A 
ATOM     68  C   UNL A   1      43.350  26.904  27.005  1.00  0.00     0.173 A 
ATOM     69  C   UNL A   1      42.003  25.044  27.703  1.00  0.00     0.173 A 
ATOM     70  F   UNL A   1      43.788  28.162  27.163  1.00  0.00    -0.203 F 
ATOM     71  C   UNL A   1      43.771  26.181  25.891  1.00  0.00     0.198 A 
ATOM     72  C   UNL A   1      42.450  24.310  26.606  1.00  0.00     0.198 A 
ATOM     73  F   UNL A   1      41.142  24.471  28.556  1.00  0.00    -0.203 F 
ATOM     74  F   UNL A   1      44.591  26.749  24.996  1.00  0.00    -0.200 F 
ATOM     75  C   UNL A   1      43.325  24.882  25.695  1.00  0.00     0.200 A 
ATOM     76  F   UNL A   1      42.029  23.051  26.430  1.00  0.00    -0.200 F 
ATOM     77  F   UNL A   1      43.729  24.187  24.624  1.00  0.00    -0.200 F 
ENDBRANCH  43  67
BRANCH  55  78
ATOM     78  C   UNL A   1      44.873  27.362  34.381  1.00  0.00     0.064 A 
ATOM     79  C   UNL A   1      44.818  26.151  35.087  1.00  0.00     0.173 A 
ATOM     80  C   UNL A   1      46.100  28.043  34.339  1.00  0.00     0.173 A 
ATOM     81  F   UNL A   1      43.666  25.469  35.170  1.00  0.00    -0.203 F 
ATOM     82  C   UNL A   1      45.939  25.659  35.751  1.00  0.00     0.198 A 
ATOM     83  C   UNL A   1      47.227  27.529  34.975  1.00  0.00     0.198 A 
ATOM     84  F   UNL A   1      46.209  29.200  33.672  1.00  0.00    -0.203 F 
ATOM     85  F   UNL A   1      45.848  24.528  36.465  1.00  0.00    -0.200 F 
ATOM     86  C   UNL A   1      47.144  26.342  35.687  1.00  0.00     0.200 A 
ATOM     87  F   UNL A   1      48.394  28.183  34.897  1.00  0.00    -0.200 F 
ATOM     88  F   UNL A   1      48.223  25.862  36.320  1.00  0.00    -0.200 F 
ENDBRANCH  55  78
ENDBRANCH  29  30
ENDBRANCH  21  24
ENDBRANCH  19  20
ENDBRANCH  18  19
ENDBRANCH  17  18
ENDBRANCH   1  17
TORSDOF 16
ENDMDL
MODEL 2
REMARK VINA RESULT:     -10.7      4.746      8.524
REMARK SMILES CCN(CC)C(=O)[C@H](C)SCC(=O)NCCCCNC(=O)c1ccc(-c2c3nc(c(-c4c(F)c(F)c(F)c(F)c4F)c4ccc([nH]4)c(-c4c(F)c(F)c(F)c(F)c4F)c4nc(c(-c5c(F)c(F)c(F)c(F)c5F)c5ccc2[nH]5)C=C4)C=C3)cc1
REMARK SMILES IDX 15 1 14 2 12 3 13 4 11 6 10 7 8 8 9 9 6 10 3 11 7 12 2 13
REMARK SMILES IDX 1 14 4 15 5 16 16 17 17 18 18 19 19 20 20 21 21 23 22 24
REMARK SMILES IDX 23 25 84 26 24 27 83 28 25 29 26 30 27 31 77 32 28 33 82 34
REMARK SMILES IDX 76 35 78 36 29 37 81 38 75 39 74 40 30 42 62 43 42 44 61 45
REMARK SMILES IDX 43 46 46 47 60 48 79 49 44 50 45 51 59 53 80 54 47 55 31 56
REMARK SMILES IDX 32 57 40 58 33 59 34 60 38 61 41 62 35 63 36 64 39 65 37 66
REMARK SMILES IDX 63 67 64 68 72 69 65 70 66 71 70 72 73 73 67 74 68 75 71 76
REMARK SMILES IDX 69 77 48 78 49 79 57 80 50 81 51 82 55 83 58 84 52 85 53 86
REMARK SMILES IDX 56 87 54 88
REMARK H PARENT 14 5 19 22 78 41 46 52
REMARK Flexibility Score: inf
ROOT
ATOM      1  C   UNL A   1      35.441  20.608  24.970  1.00  0.00     0.116 C 
ENDROOT
BRANCH   1   2
ATOM      2  N   UNL A   1      34.902  21.061  26.237  1.00  0.00    -0.355 N 
ATOM      3  C   UNL A   1      33.629  21.426  26.567  1.00  0.00     0.230 C 
ATOM      4  O   UNL A   1      33.409  21.763  27.735  1.00  0.00    -0.274 OA
ATOM      5  H   UNL A   1      35.555  21.112  26.973  1.00  0.00     0.163 HD
BRANCH   3   6
ATOM      6  C   UNL A   1      32.484  21.314  25.576  1.00  0.00     0.170 C 
BRANCH   6   7
ATOM      7  S   UNL A   1      31.114  22.507  25.761  1.00  0.00    -0.139 SA
BRANCH   7   8
ATOM      8  C   UNL A   1      31.618  23.932  24.694  1.00  0.00     0.133 C 
ATOM      9  C   UNL A   1      30.590  24.143  23.589  1.00  0.00     0.030 C 
BRANCH   8  10
ATOM     10  C   UNL A   1      31.910  25.206  25.499  1.00  0.00     0.235 C 
ATOM     11  N   UNL A   1      32.750  26.156  24.924  1.00  0.00    -0.342 N 
ATOM     12  O   UNL A   1      31.475  25.406  26.631  1.00  0.00    -0.274 OA
BRANCH  11  13
ATOM     13  C   UNL A   1      32.533  27.547  25.327  1.00  0.00     0.116 C 
ATOM     14  C   UNL A   1      33.696  28.038  26.181  1.00  0.00     0.027 C 
ENDBRANCH  11  13
BRANCH  11  15
ATOM     15  C   UNL A   1      34.076  25.769  24.452  1.00  0.00     0.116 C 
ATOM     16  C   UNL A   1      34.717  24.728  25.365  1.00  0.00     0.027 C 
ENDBRANCH  11  15
ENDBRANCH   8  10
ENDBRANCH   7   8
ENDBRANCH   6   7
ENDBRANCH   3   6
ENDBRANCH   1   2
BRANCH   1  17
ATOM     17  C   UNL A   1      36.889  21.040  24.715  1.00  0.00     0.023 C 
BRANCH  17  18
ATOM     18  C   UNL A   1      37.952  19.953  24.895  1.00  0.00     0.023 C 
BRANCH  18  19
ATOM     19  C   UNL A   1      39.071  20.300  25.863  1.00  0.00     0.116 C 
BRANCH  19  20
ATOM     20  N   UNL A   1      40.104  19.279  25.916  1.00  0.00    -0.352 N 
ATOM     21  C   UNL A   1      41.451  19.401  26.146  1.00  0.00     0.251 C 
ATOM     22  H   UNL A   1      39.790  18.359  25.761  1.00  0.00     0.163 HD
ATOM     23  O   UNL A   1      42.190  18.434  25.999  1.00  0.00    -0.269 OA
BRANCH  21  24
ATOM     24  C   UNL A   1      42.019  20.706  26.548  1.00  0.00     0.039 A 
ATOM     25  C   UNL A   1      42.426  21.594  25.548  1.00  0.00     0.014 A 
ATOM     26  C   UNL A   1      42.160  21.053  27.893  1.00  0.00     0.014 A 
ATOM     27  C   UNL A   1      42.915  22.853  25.897  1.00  0.00     0.010 A 
ATOM     28  C   UNL A   1      42.572  22.337  28.238  1.00  0.00     0.010 A 
ATOM     29  C   UNL A   1      42.956  23.249  27.245  1.00  0.00    -0.014 A 
BRANCH  29  30
ATOM     30  C   UNL A   1      43.396  24.614  27.629  1.00  0.00     0.031 A 
ATOM     31  C   UNL A   1      42.381  25.668  27.972  1.00  0.00     0.074 A 
ATOM     32  C   UNL A   1      44.709  24.918  27.612  1.00  0.00     0.049 A 
ATOM     33  N   UNL A   1      42.567  26.930  28.271  1.00  0.00    -0.248 NA
ATOM     34  C   UNL A   1      40.969  25.258  27.953  1.00  0.00     0.031 C 
ATOM     35  C   UNL A   1      45.786  23.994  27.253  1.00  0.00     0.029 A 
ATOM     36  N   UNL A   1      45.360  26.093  27.894  1.00  0.00    -0.354 N 
ATOM     37  C   UNL A   1      41.299  27.462  28.464  1.00  0.00     0.074 A 
ATOM     38  C   UNL A   1      40.350  26.404  28.194  1.00  0.00     0.031 C 
ATOM     39  C   UNL A   1      46.964  24.628  27.360  1.00  0.00     0.029 A 
ATOM     40  C   UNL A   1      46.725  26.014  27.750  1.00  0.00     0.049 A 
ATOM     41  H   UNL A   1      44.894  26.915  28.171  1.00  0.00     0.167 HD
ATOM     42  C   UNL A   1      40.958  28.714  28.856  1.00  0.00     0.037 A 
ATOM     43  C   UNL A   1      47.673  26.957  27.905  1.00  0.00     0.037 A 
ATOM     44  C   UNL A   1      41.908  29.758  29.140  1.00  0.00     0.049 A 
ATOM     45  C   UNL A   1      47.265  28.346  28.317  1.00  0.00     0.074 A 
ATOM     46  C   UNL A   1      41.667  31.042  29.596  1.00  0.00     0.029 A 
ATOM     47  N   UNL A   1      43.282  29.639  28.990  1.00  0.00    -0.354 N 
ATOM     48  N   UNL A   1      46.068  28.818  28.567  1.00  0.00    -0.248 NA
ATOM     49  C   UNL A   1      48.342  29.333  28.472  1.00  0.00     0.031 C 
ATOM     50  C   UNL A   1      42.889  31.718  29.667  1.00  0.00     0.029 A 
ATOM     51  C   UNL A   1      43.898  30.837  29.317  1.00  0.00     0.049 A 
ATOM     52  H   UNL A   1      43.750  28.824  28.694  1.00  0.00     0.167 HD
ATOM     53  C   UNL A   1      46.249  30.144  28.938  1.00  0.00     0.074 A 
ATOM     54  C   UNL A   1      47.675  30.396  28.899  1.00  0.00     0.031 C 
ATOM     55  C   UNL A   1      45.320  31.070  29.279  1.00  0.00     0.037 A 
BRANCH  42  56
ATOM     56  C   UNL A   1      39.496  29.023  29.005  1.00  0.00     0.064 A 
ATOM     57  C   UNL A   1      38.718  29.449  27.918  1.00  0.00     0.173 A 
ATOM     58  C   UNL A   1      38.854  28.848  30.241  1.00  0.00     0.173 A 
ATOM     59  F   UNL A   1      39.284  29.641  26.717  1.00  0.00    -0.203 F 
ATOM     60  C   UNL A   1      37.360  29.715  28.068  1.00  0.00     0.198 A 
ATOM     61  C   UNL A   1      37.488  29.083  30.379  1.00  0.00     0.198 A 
ATOM     62  F   UNL A   1      39.548  28.436  31.313  1.00  0.00    -0.203 F 
ATOM     63  F   UNL A   1      36.648  30.169  27.027  1.00  0.00    -0.200 F 
ATOM     64  C   UNL A   1      36.745  29.524  29.296  1.00  0.00     0.200 A 
ATOM     65  F   UNL A   1      36.892  28.883  31.563  1.00  0.00    -0.200 F 
ATOM     66  F   UNL A   1      35.434  29.770  29.436  1.00  0.00    -0.200 F 
ENDBRANCH  42  56
BRANCH  43  67
ATOM     67  C   UNL A   1      49.104  26.619  27.684  1.00  0.00     0.064 A 
ATOM     68  C   UNL A   1      49.939  26.279  28.759  1.00  0.00     0.173 A 
ATOM     69  C   UNL A   1      49.674  26.650  26.403  1.00  0.00     0.173 A 
ATOM     70  F   UNL A   1      49.447  26.255  30.007  1.00  0.00    -0.203 F 
ATOM     71  C   UNL A   1      51.292  26.008  28.564  1.00  0.00     0.198 A 
ATOM     72  C   UNL A   1      51.019  26.347  26.205  1.00  0.00     0.198 A 
ATOM     73  F   UNL A   1      48.920  26.965  25.339  1.00  0.00    -0.203 F 
ATOM     74  F   UNL A   1      52.077  25.740  29.616  1.00  0.00    -0.200 F 
ATOM     75  C   UNL A   1      51.830  26.037  27.286  1.00  0.00     0.200 A 
ATOM     76  F   UNL A   1      51.532  26.360  24.967  1.00  0.00    -0.200 F 
ATOM     77  F   UNL A   1      53.130  25.777  27.099  1.00  0.00    -0.200 F 
ENDBRANCH  43  67
BRANCH  55  78
ATOM     78  C   UNL A   1      45.817  32.432  29.675  1.00  0.00     0.064 A 
ATOM     79  C   UNL A   1      46.178  32.731  30.997  1.00  0.00     0.173 A 
ATOM     80  C   UNL A   1      45.970  33.438  28.708  1.00  0.00     0.173 A 
ATOM     81  F   UNL A   1      46.036  31.809  31.961  1.00  0.00    -0.203 F 
ATOM     82  C   UNL A   1      46.645  33.997  31.342  1.00  0.00     0.198 A 
ATOM     83  C   UNL A   1      46.471  34.691  29.051  1.00  0.00     0.198 A 
ATOM     84  F   UNL A   1      45.647  33.203  27.428  1.00  0.00    -0.203 F 
ATOM     85  F   UNL A   1      46.932  34.276  32.621  1.00  0.00    -0.200 F 
ATOM     86  C   UNL A   1      46.800  34.972  30.368  1.00  0.00     0.200 A 
ATOM     87  F   UNL A   1      46.635  35.627  28.105  1.00  0.00    -0.200 F 
ATOM     88  F   UNL A   1      47.257  36.187  30.702  1.00  0.00    -0.200 F 
ENDBRANCH  55  78
ENDBRANCH  29  30
ENDBRANCH  21  24
ENDBRANCH  19  20
ENDBRANCH  18  19
ENDBRANCH  17  18
ENDBRANCH   1  17
TORSDOF 16
ENDMDL
MODEL 3
REMARK VINA RESULT:     -10.7      2.428      8.076
REMARK SMILES CCN(CC)C(=O)[C@H](C)SCC(=O)NCCCCNC(=O)c1ccc(-c2c3nc(c(-c4c(F)c(F)c(F)c(F)c4F)c4ccc([nH]4)c(-c4c(F)c(F)c(F)c(F)c4F)c4nc(c(-c5c(F)c(F)c(F)c(F)c5F)c5ccc2[nH]5)C=C4)C=C3)cc1
REMARK SMILES IDX 15 1 14 2 12 3 13 4 11 6 10 7 8 8 9 9 6 10 3 11 7 12 2 13
REMARK SMILES IDX 1 14 4 15 5 16 16 17 17 18 18 19 19 20 20 21 21 23 22 24
REMARK SMILES IDX 23 25 84 26 24 27 83 28 25 29 26 30 27 31 77 32 28 33 82 34
REMARK SMILES IDX 76 35 78 36 29 37 81 38 75 39 74 40 30 42 62 43 42 44 61 45
REMARK SMILES IDX 43 46 46 47 60 48 79 49 44 50 45 51 59 53 80 54 47 55 31 56
REMARK SMILES IDX 32 57 40 58 33 59 34 60 38 61 41 62 35 63 36 64 39 65 37 66
REMARK SMILES IDX 63 67 64 68 72 69 65 70 66 71 70 72 73 73 67 74 68 75 71 76
REMARK SMILES IDX 69 77 48 78 49 79 57 80 50 81 51 82 55 83 58 84 52 85 53 86
REMARK SMILES IDX 56 87 54 88
REMARK H PARENT 14 5 19 22 78 41 46 52
REMARK Flexibility Score: inf
ROOT
ATOM      1  C   UNL A   1      32.047  30.019  25.274  1.00  0.00     0.116 C 
ENDROOT
BRANCH   1   2
ATOM      2  N   UNL A   1      31.104  29.638  24.242  1.00  0.00    -0.355 N 
ATOM      3  C   UNL A   1      31.304  28.928  23.093  1.00  0.00     0.230 C 
ATOM      4  O   UNL A   1      30.325  28.712  22.370  1.00  0.00    -0.274 OA
ATOM      5  H   UNL A   1      30.178  29.937  24.392  1.00  0.00     0.163 HD
BRANCH   3   6
ATOM      6  C   UNL A   1      32.651  28.314  22.757  1.00  0.00     0.170 C 
BRANCH   6   7
ATOM      7  S   UNL A   1      33.228  26.955  23.829  1.00  0.00    -0.139 SA
BRANCH   7   8
ATOM      8  C   UNL A   1      32.699  25.425  22.933  1.00  0.00     0.133 C 
ATOM      9  C   UNL A   1      32.545  25.721  21.446  1.00  0.00     0.030 C 
BRANCH   8  10
ATOM     10  C   UNL A   1      33.608  24.221  23.219  1.00  0.00     0.235 C 
ATOM     11  N   UNL A   1      33.134  23.246  24.092  1.00  0.00    -0.342 N 
ATOM     12  O   UNL A   1      34.738  24.100  22.751  1.00  0.00    -0.274 OA
BRANCH  11  13
ATOM     13  C   UNL A   1      33.636  21.886  23.884  1.00  0.00     0.116 C 
ATOM     14  C   UNL A   1      32.479  20.894  23.854  1.00  0.00     0.027 C 
ENDBRANCH  11  13
BRANCH  11  15
ATOM     15  C   UNL A   1      32.674  23.619  25.426  1.00  0.00     0.116 C 
ATOM     16  C   UNL A   1      33.834  24.037  26.324  1.00  0.00     0.027 C 
ENDBRANCH  11  15
ENDBRANCH   8  10
ENDBRANCH   7   8
ENDBRANCH   6   7
ENDBRANCH   3   6
ENDBRANCH   1   2
BRANCH   1  17
ATOM     17  C   UNL A   1      31.400  30.670  26.503  1.00  0.00     0.023 C 
BRANCH  17  18
ATOM     18  C   UNL A   1      31.413  32.200  26.532  1.00  0.00     0.023 C 
BRANCH  18  19
ATOM     19  C   UNL A   1      32.599  32.820  27.252  1.00  0.00     0.116 C 
BRANCH  19  20
ATOM     20  N   UNL A   1      32.367  34.206  27.625  1.00  0.00    -0.352 N 
ATOM     21  C   UNL A   1      32.968  34.969  28.594  1.00  0.00     0.251 C 
ATOM     22  H   UNL A   1      31.672  34.668  27.103  1.00  0.00     0.163 HD
ATOM     23  O   UNL A   1      32.528  36.080  28.862  1.00  0.00    -0.269 OA
BRANCH  21  24
ATOM     24  C   UNL A   1      34.134  34.441  29.335  1.00  0.00     0.039 A 
ATOM     25  C   UNL A   1      33.918  33.833  30.575  1.00  0.00     0.014 A 
ATOM     26  C   UNL A   1      35.429  34.548  28.823  1.00  0.00     0.014 A 
ATOM     27  C   UNL A   1      34.993  33.279  31.271  1.00  0.00     0.010 A 
ATOM     28  C   UNL A   1      36.487  33.926  29.479  1.00  0.00     0.010 A 
ATOM     29  C   UNL A   1      36.281  33.287  30.710  1.00  0.00    -0.014 A 
BRANCH  29  30
ATOM     30  C   UNL A   1      37.421  32.629  31.398  1.00  0.00     0.031 A 
ATOM     31  C   UNL A   1      38.123  31.465  30.758  1.00  0.00     0.074 A 
ATOM     32  C   UNL A   1      37.784  33.046  32.627  1.00  0.00     0.049 A 
ATOM     33  N   UNL A   1      39.095  30.724  31.228  1.00  0.00    -0.248 NA
ATOM     34  C   UNL A   1      37.656  31.065  29.422  1.00  0.00     0.031 C 
ATOM     35  C   UNL A   1      37.151  34.136  33.372  1.00  0.00     0.029 A 
ATOM     36  N   UNL A   1      38.768  32.596  33.471  1.00  0.00    -0.354 N 
ATOM     37  C   UNL A   1      39.346  29.768  30.252  1.00  0.00     0.074 A 
ATOM     38  C   UNL A   1      38.388  29.985  29.189  1.00  0.00     0.031 C 
ATOM     39  C   UNL A   1      37.777  34.286  34.549  1.00  0.00     0.029 A 
ATOM     40  C   UNL A   1      38.825  33.277  34.664  1.00  0.00     0.049 A 
ATOM     41  H   UNL A   1      39.376  31.855  33.245  1.00  0.00     0.167 HD
ATOM     42  C   UNL A   1      40.304  28.810  30.234  1.00  0.00     0.037 A 
ATOM     43  C   UNL A   1      39.624  33.098  35.732  1.00  0.00     0.037 A 
ATOM     44  C   UNL A   1      41.265  28.609  31.286  1.00  0.00     0.049 A 
ATOM     45  C   UNL A   1      40.664  32.010  35.695  1.00  0.00     0.074 A 
ATOM     46  C   UNL A   1      42.310  27.703  31.338  1.00  0.00     0.029 A 
ATOM     47  N   UNL A   1      41.296  29.322  32.476  1.00  0.00    -0.354 N 
ATOM     48  N   UNL A   1      40.939  31.159  34.737  1.00  0.00    -0.248 NA
ATOM     49  C   UNL A   1      41.509  31.862  36.888  1.00  0.00     0.031 C 
ATOM     50  C   UNL A   1      42.937  27.828  32.582  1.00  0.00     0.029 A 
ATOM     51  C   UNL A   1      42.324  28.856  33.280  1.00  0.00     0.049 A 
ATOM     52  H   UNL A   1      40.677  30.051  32.714  1.00  0.00     0.167 HD
ATOM     53  C   UNL A   1      42.005  30.397  35.197  1.00  0.00     0.074 A 
ATOM     54  C   UNL A   1      42.340  30.900  36.513  1.00  0.00     0.031 C 
ATOM     55  C   UNL A   1      42.649  29.372  34.586  1.00  0.00     0.037 A 
BRANCH  42  56
ATOM     56  C   UNL A   1      40.364  27.908  29.034  1.00  0.00     0.064 A 
ATOM     57  C   UNL A   1      39.637  26.710  28.976  1.00  0.00     0.173 A 
ATOM     58  C   UNL A   1      41.123  28.269  27.910  1.00  0.00     0.173 A 
ATOM     59  F   UNL A   1      38.903  26.313  30.027  1.00  0.00    -0.203 F 
ATOM     60  C   UNL A   1      39.690  25.892  27.851  1.00  0.00     0.198 A 
ATOM     61  C   UNL A   1      41.146  27.465  26.773  1.00  0.00     0.198 A 
ATOM     62  F   UNL A   1      41.833  29.407  27.908  1.00  0.00    -0.203 F 
ATOM     63  F   UNL A   1      39.026  24.728  27.838  1.00  0.00    -0.200 F 
ATOM     64  C   UNL A   1      40.437  26.274  26.747  1.00  0.00     0.200 A 
ATOM     65  F   UNL A   1      41.857  27.844  25.701  1.00  0.00    -0.200 F 
ATOM     66  F   UNL A   1      40.478  25.492  25.659  1.00  0.00    -0.200 F 
ENDBRANCH  42  56
BRANCH  43  67
ATOM     67  C   UNL A   1      39.485  33.976  36.924  1.00  0.00     0.064 A 
ATOM     68  C   UNL A   1      40.116  35.227  36.975  1.00  0.00     0.173 A 
ATOM     69  C   UNL A   1      38.737  33.578  38.043  1.00  0.00     0.173 A 
ATOM     70  F   UNL A   1      40.859  35.645  35.939  1.00  0.00    -0.203 F 
ATOM     71  C   UNL A   1      40.029  36.033  38.108  1.00  0.00     0.198 A 
ATOM     72  C   UNL A   1      38.623  34.400  39.162  1.00  0.00     0.198 A 
ATOM     73  F   UNL A   1      38.110  32.393  38.045  1.00  0.00    -0.203 F 
ATOM     74  F   UNL A   1      40.688  37.199  38.151  1.00  0.00    -0.200 F 
ATOM     75  C   UNL A   1      39.277  35.622  39.199  1.00  0.00     0.200 A 
ATOM     76  F   UNL A   1      37.884  34.005  40.207  1.00  0.00    -0.200 F 
ATOM     77  F   UNL A   1      39.193  36.396  40.288  1.00  0.00    -0.200 F 
ENDBRANCH  43  67
BRANCH  55  78
ATOM     78  C   UNL A   1      43.804  28.750  35.317  1.00  0.00     0.064 A 
ATOM     79  C   UNL A   1      43.623  27.696  36.224  1.00  0.00     0.173 A 
ATOM     80  C   UNL A   1      45.115  29.191  35.076  1.00  0.00     0.173 A 
ATOM     81  F   UNL A   1      42.390  27.247  36.501  1.00  0.00    -0.203 F 
ATOM     82  C   UNL A   1      44.709  27.127  36.886  1.00  0.00     0.198 A 
ATOM     83  C   UNL A   1      46.200  28.595  35.713  1.00  0.00     0.198 A 
ATOM     84  F   UNL A   1      45.345  30.190  34.212  1.00  0.00    -0.203 F 
ATOM     85  F   UNL A   1      44.506  26.157  37.789  1.00  0.00    -0.200 F 
ATOM     86  C   UNL A   1      45.996  27.570  36.624  1.00  0.00     0.200 A 
ATOM     87  F   UNL A   1      47.445  29.015  35.445  1.00  0.00    -0.200 F 
ATOM     88  F   UNL A   1      47.039  27.015  37.256  1.00  0.00    -0.200 F 
ENDBRANCH  55  78
ENDBRANCH  29  30
ENDBRANCH  21  24
ENDBRANCH  19  20
ENDBRANCH  18  19
ENDBRANCH  17  18
ENDBRANCH   1  17
TORSDOF 16
ENDMDL
