MODEL 1
REMARK VINA RESULT:     -13.9      0.000      0.000
REMARK SMILES Cc1cc(S(F)(F)(F)(F)F)cc2c1O[C@H](C(F)(F)F)C(C(=O)NCCCCNC(=O)c1ccc(-c3c4nc(c(-c5c(F)c(F)c(F)c(F)c5F)c5ccc([nH]5)c(-c5c(F)c(F)c(F)c(F)c5F)c5nc(c(-c6c(F)c(F)c(F)c(F)c6F)c6ccc3[nH]6)C=C5)C=C4)cc1)=C2
REMARK SMILES IDX 26 1 25 2 24 3 23 4 21 5 22 6 20 8 1 9 2 10 3 11 13 12 4 13
REMARK SMILES IDX 12 14 14 15 11 16 94 17 15 18 5 19 6 20 7 21 8 22 9 23 10 24
REMARK SMILES IDX 16 25 17 26 18 27 19 28 27 29 28 30 29 31 30 33 31 34 32 35
REMARK SMILES IDX 93 36 33 37 92 38 34 39 35 40 36 41 86 42 37 43 91 44 85 45
REMARK SMILES IDX 87 46 38 47 90 48 84 49 83 50 39 52 71 53 51 54 70 55 52 56
REMARK SMILES IDX 55 57 69 58 88 59 53 60 54 61 68 63 89 64 56 65 40 66 41 67
REMARK SMILES IDX 49 68 42 69 43 70 47 71 50 72 44 73 45 74 48 75 46 76 72 77
REMARK SMILES IDX 73 78 81 79 74 80 75 81 79 82 82 83 76 84 77 85 80 86 78 87
REMARK SMILES IDX 57 88 58 89 66 90 59 91 60 92 64 93 67 94 61 95 62 96 65 97
REMARK SMILES IDX 63 98
REMARK H PARENT 23 7 28 32 87 51 55 62
REMARK Flexibility Score: inf
ROOT
ATOM      1  C   UNL A   1      38.057  19.672  25.074  1.00  0.00     0.023 C 
ENDROOT
BRANCH   1   2
ATOM      2  C   UNL A   1      37.400  20.891  24.449  1.00  0.00     0.023 C 
BRANCH   2   3
ATOM      3  C   UNL A   1      36.922  21.827  25.548  1.00  0.00     0.116 C 
BRANCH   3   4
ATOM      4  N   UNL A   1      35.827  21.189  26.293  1.00  0.00    -0.352 N 
ATOM      5  C   UNL A   1      34.490  21.800  26.301  1.00  0.00     0.251 C 
ATOM      6  O   UNL A   1      33.543  21.249  26.946  1.00  0.00    -0.270 OA
ATOM      7  H   UNL A   1      35.988  20.353  26.787  1.00  0.00     0.163 HD
BRANCH   5   8
ATOM      8  C   UNL A   1      34.240  23.092  25.540  1.00  0.00     0.067 C 
ATOM      9  C   UNL A   1      33.527  26.720  21.890  1.00  0.00     0.048 C 
ATOM     10  C   UNL A   1      33.559  26.628  23.407  1.00  0.00    -0.007 A 
ATOM     11  C   UNL A   1      33.270  27.776  24.110  1.00  0.00     0.031 A 
ATOM     12  C   UNL A   1      33.788  25.440  24.101  1.00  0.00     0.130 A 
ATOM     13  C   UNL A   1      33.209  27.763  25.497  1.00  0.00     0.108 A 
ATOM     14  C   UNL A   1      33.721  25.429  25.512  1.00  0.00     0.019 A 
ATOM     15  O   UNL A   1      34.103  24.183  23.409  1.00  0.00    -0.475 OA
ATOM     16  C   UNL A   1      33.424  26.609  26.197  1.00  0.00     0.036 A 
ATOM     17  C   UNL A   1      33.967  24.170  26.214  1.00  0.00     0.025 C 
ATOM     18  C   UNL A   1      34.314  23.073  24.146  1.00  0.00     0.314 C 
BRANCH  13  19
ATOM     19  S   UNL A   1      32.840  29.293  26.390  1.00  0.00     0.310 S 
ATOM     20  F   UNL A   1      32.943  28.494  27.757  1.00  0.00    -0.094 F 
ATOM     21  F   UNL A   1      31.337  28.824  26.309  1.00  0.00    -0.094 F 
ATOM     22  F   UNL A   1      32.433  30.542  27.222  1.00  0.00    -0.094 F 
ATOM     23  F   UNL A   1      34.361  29.671  26.581  1.00  0.00    -0.094 F 
ATOM     24  F   UNL A   1      33.276  27.970  25.644  1.00  0.00    -0.094 F 
ENDBRANCH  13  19
BRANCH  18  25
ATOM     25  C   UNL A   1      33.122  22.206  23.773  1.00  0.00     0.429 C 
ATOM     26  F   UNL A   1      32.105  22.478  24.586  1.00  0.00    -0.167 F 
ATOM     27  F   UNL A   1      32.765  22.459  22.517  1.00  0.00    -0.167 F 
ATOM     28  F   UNL A   1      33.453  20.924  23.891  1.00  0.00    -0.167 F 
ENDBRANCH  18  25
ENDBRANCH   5   8
ENDBRANCH   3   4
ENDBRANCH   2   3
ENDBRANCH   1   2
BRANCH   1  29
ATOM     29  C   UNL A   1      39.304  20.099  25.831  1.00  0.00     0.116 C 
BRANCH  29  30
ATOM     30  N   UNL A   1      40.278  18.999  25.832  1.00  0.00    -0.352 N 
ATOM     31  C   UNL A   1      41.692  19.270  26.130  1.00  0.00     0.251 C 
ATOM     32  H   UNL A   1      39.984  18.081  25.633  1.00  0.00     0.163 HD
ATOM     33  O   UNL A   1      42.534  18.317  26.130  1.00  0.00    -0.269 OA
BRANCH  31  34
ATOM     34  C   UNL A   1      42.146  20.687  26.438  1.00  0.00     0.039 A 
ATOM     35  C   UNL A   1      42.591  21.529  25.425  1.00  0.00     0.014 A 
ATOM     36  C   UNL A   1      42.136  21.145  27.671  1.00  0.00     0.014 A 
ATOM     37  C   UNL A   1      42.516  22.916  25.678  1.00  0.00     0.010 A 
ATOM     38  C   UNL A   1      42.570  22.444  27.957  1.00  0.00     0.010 A 
ATOM     39  C   UNL A   1      42.758  23.318  26.991  1.00  0.00    -0.014 A 
BRANCH  39  40
ATOM     40  C   UNL A   1      43.227  24.731  27.299  1.00  0.00     0.031 A 
ATOM     41  C   UNL A   1      44.560  25.051  27.037  1.00  0.00     0.074 A 
ATOM     42  C   UNL A   1      42.307  25.619  27.829  1.00  0.00     0.049 A 
ATOM     43  N   UNL A   1      45.161  26.229  27.209  1.00  0.00    -0.248 NA
ATOM     44  C   UNL A   1      45.547  24.100  26.506  1.00  0.00     0.031 C 
ATOM     45  C   UNL A   1      40.958  25.306  28.089  1.00  0.00     0.029 A 
ATOM     46  N   UNL A   1      42.512  26.930  28.196  1.00  0.00    -0.354 N 
ATOM     47  C   UNL A   1      46.440  26.154  26.829  1.00  0.00     0.074 A 
ATOM     48  C   UNL A   1      46.707  24.781  26.378  1.00  0.00     0.031 C 
ATOM     49  C   UNL A   1      40.363  26.409  28.615  1.00  0.00     0.029 A 
ATOM     50  C   UNL A   1      41.329  27.429  28.693  1.00  0.00     0.049 A 
ATOM     51  H   UNL A   1      43.360  27.426  28.118  1.00  0.00     0.167 HD
ATOM     52  C   UNL A   1      47.390  27.175  26.839  1.00  0.00     0.037 A 
ATOM     53  C   UNL A   1      41.085  28.700  29.192  1.00  0.00     0.037 A 
ATOM     54  C   UNL A   1      47.135  28.458  27.298  1.00  0.00     0.049 A 
ATOM     55  C   UNL A   1      42.053  29.705  29.257  1.00  0.00     0.074 A 
ATOM     56  C   UNL A   1      48.080  29.501  27.308  1.00  0.00     0.029 A 
ATOM     57  N   UNL A   1      45.958  28.950  27.817  1.00  0.00    -0.354 N 
ATOM     58  N   UNL A   1      43.318  29.640  28.840  1.00  0.00    -0.248 NA
ATOM     59  C   UNL A   1      41.816  31.043  29.813  1.00  0.00     0.031 C 
ATOM     60  C   UNL A   1      47.485  30.605  27.835  1.00  0.00     0.029 A 
ATOM     61  C   UNL A   1      46.158  30.268  28.163  1.00  0.00     0.049 A 
ATOM     62  H   UNL A   1      45.119  28.446  27.922  1.00  0.00     0.167 HD
ATOM     63  C   UNL A   1      43.932  30.807  29.050  1.00  0.00     0.074 A 
ATOM     64  C   UNL A   1      42.975  31.724  29.686  1.00  0.00     0.031 C 
ATOM     65  C   UNL A   1      45.249  31.145  28.734  1.00  0.00     0.037 A 
BRANCH  52  66
ATOM     66  C   UNL A   1      48.783  26.863  26.319  1.00  0.00     0.064 A 
ATOM     67  C   UNL A   1      49.151  27.031  24.999  1.00  0.00     0.173 A 
ATOM     68  C   UNL A   1      49.675  26.269  27.200  1.00  0.00     0.173 A 
ATOM     69  F   UNL A   1      48.304  27.600  24.147  1.00  0.00    -0.203 F 
ATOM     70  C   UNL A   1      50.340  26.631  24.572  1.00  0.00     0.198 A 
ATOM     71  C   UNL A   1      50.914  25.868  26.720  1.00  0.00     0.198 A 
ATOM     72  F   UNL A   1      49.350  26.088  28.477  1.00  0.00    -0.203 F 
ATOM     73  F   UNL A   1      50.660  26.802  23.293  1.00  0.00    -0.200 F 
ATOM     74  C   UNL A   1      51.215  26.067  25.386  1.00  0.00     0.200 A 
ATOM     75  F   UNL A   1      51.799  25.299  27.533  1.00  0.00    -0.200 F 
ATOM     76  F   UNL A   1      52.399  25.686  24.917  1.00  0.00    -0.200 F 
ENDBRANCH  52  66
BRANCH  53  77
ATOM     77  C   UNL A   1      39.687  29.016  29.697  1.00  0.00     0.064 A 
ATOM     78  C   UNL A   1      38.691  29.527  28.888  1.00  0.00     0.173 A 
ATOM     79  C   UNL A   1      39.381  28.655  31.001  1.00  0.00     0.173 A 
ATOM     80  F   UNL A   1      38.976  29.875  27.636  1.00  0.00    -0.203 F 
ATOM     81  C   UNL A   1      37.458  29.674  29.344  1.00  0.00     0.198 A 
ATOM     82  C   UNL A   1      38.077  28.817  31.444  1.00  0.00     0.198 A 
ATOM     83  F   UNL A   1      40.317  28.165  31.808  1.00  0.00    -0.203 F 
ATOM     84  F   UNL A   1      36.524  30.176  28.541  1.00  0.00    -0.200 F 
ATOM     85  C   UNL A   1      37.131  29.335  30.580  1.00  0.00     0.200 A 
ATOM     86  F   UNL A   1      37.740  28.479  32.685  1.00  0.00    -0.200 F 
ATOM     87  F   UNL A   1      35.878  29.494  30.996  1.00  0.00    -0.200 F 
ENDBRANCH  53  77
BRANCH  65  88
ATOM     88  C   UNL A   1      45.714  32.559  29.036  1.00  0.00     0.064 A 
ATOM     89  C   UNL A   1      45.527  33.570  28.114  1.00  0.00     0.173 A 
ATOM     90  C   UNL A   1      46.339  32.850  30.240  1.00  0.00     0.173 A 
ATOM     91  F   UNL A   1      44.930  33.301  26.957  1.00  0.00    -0.203 F 
ATOM     92  C   UNL A   1      45.937  34.803  28.369  1.00  0.00     0.198 A 
ATOM     93  C   UNL A   1      46.750  34.153  30.477  1.00  0.00     0.198 A 
ATOM     94  F   UNL A   1      46.539  31.899  31.148  1.00  0.00    -0.203 F 
ATOM     95  F   UNL A   1      45.747  35.751  27.456  1.00  0.00    -0.200 F 
ATOM     96  C   UNL A   1      46.530  35.114  29.508  1.00  0.00     0.200 A 
ATOM     97  F   UNL A   1      47.347  34.474  31.621  1.00  0.00    -0.200 F 
ATOM     98  F   UNL A   1      46.921  36.367  29.726  1.00  0.00    -0.200 F 
ENDBRANCH  65  88
ENDBRANCH  39  40
ENDBRANCH  31  34
ENDBRANCH  29  30
ENDBRANCH   1  29
TORSDOF 13
ENDMDL
MODEL 2
REMARK VINA RESULT:     -13.8      0.134      7.126
REMARK SMILES Cc1cc(S(F)(F)(F)(F)F)cc2c1O[C@H](C(F)(F)F)C(C(=O)NCCCCNC(=O)c1ccc(-c3c4nc(c(-c5c(F)c(F)c(F)c(F)c5F)c5ccc([nH]5)c(-c5c(F)c(F)c(F)c(F)c5F)c5nc(c(-c6c(F)c(F)c(F)c(F)c6F)c6ccc3[nH]6)C=C5)C=C4)cc1)=C2
REMARK SMILES IDX 26 1 25 2 24 3 23 4 21 5 22 6 20 8 1 9 2 10 3 11 13 12 4 13
REMARK SMILES IDX 12 14 14 15 11 16 94 17 15 18 5 19 6 20 7 21 8 22 9 23 10 24
REMARK SMILES IDX 16 25 17 26 18 27 19 28 27 29 28 30 29 31 30 33 31 34 32 35
REMARK SMILES IDX 93 36 33 37 92 38 34 39 35 40 36 41 86 42 37 43 91 44 85 45
REMARK SMILES IDX 87 46 38 47 90 48 84 49 83 50 39 52 71 53 51 54 70 55 52 56
REMARK SMILES IDX 55 57 69 58 88 59 53 60 54 61 68 63 89 64 56 65 40 66 41 67
REMARK SMILES IDX 49 68 42 69 43 70 47 71 50 72 44 73 45 74 48 75 46 76 72 77
REMARK SMILES IDX 73 78 81 79 74 80 75 81 79 82 82 83 76 84 77 85 80 86 78 87
REMARK SMILES IDX 57 88 58 89 66 90 59 91 60 92 64 93 67 94 61 95 62 96 65 97
REMARK SMILES IDX 63 98
REMARK H PARENT 23 7 28 32 87 51 55 62
REMARK Flexibility Score: inf
ROOT
ATOM      1  C   UNL A   1      38.043  19.633  25.066  1.00  0.00     0.023 C 
ENDROOT
BRANCH   1   2
ATOM      2  C   UNL A   1      37.381  20.842  24.425  1.00  0.00     0.023 C 
BRANCH   2   3
ATOM      3  C   UNL A   1      36.908  21.795  25.511  1.00  0.00     0.116 C 
BRANCH   3   4
ATOM      4  N   UNL A   1      35.816  21.169  26.270  1.00  0.00    -0.352 N 
ATOM      5  C   UNL A   1      34.487  21.796  26.299  1.00  0.00     0.251 C 
ATOM      6  O   UNL A   1      33.543  21.255  26.956  1.00  0.00    -0.270 OA
ATOM      7  H   UNL A   1      35.975  20.330  26.761  1.00  0.00     0.163 HD
BRANCH   5   8
ATOM      8  C   UNL A   1      34.242  23.091  25.543  1.00  0.00     0.067 C 
ATOM      9  C   UNL A   1      33.546  26.737  21.907  1.00  0.00     0.048 C 
ATOM     10  C   UNL A   1      33.572  26.637  23.424  1.00  0.00    -0.007 A 
ATOM     11  C   UNL A   1      33.281  27.783  24.131  1.00  0.00     0.031 A 
ATOM     12  C   UNL A   1      33.797  25.446  24.113  1.00  0.00     0.130 A 
ATOM     13  C   UNL A   1      33.214  27.763  25.518  1.00  0.00     0.108 A 
ATOM     14  C   UNL A   1      33.724  25.428  25.523  1.00  0.00     0.019 A 
ATOM     15  O   UNL A   1      34.114  24.192  23.416  1.00  0.00    -0.475 OA
ATOM     16  C   UNL A   1      33.425  26.605  26.213  1.00  0.00     0.036 A 
ATOM     17  C   UNL A   1      33.966  24.166  26.221  1.00  0.00     0.025 C 
ATOM     18  C   UNL A   1      34.321  23.079  24.149  1.00  0.00     0.314 C 
BRANCH  13  19
ATOM     19  S   UNL A   1      32.842  29.289  26.416  1.00  0.00     0.310 S 
ATOM     20  F   UNL A   1      33.016  28.501  27.782  1.00  0.00    -0.094 F 
ATOM     21  F   UNL A   1      31.349  28.784  26.394  1.00  0.00    -0.094 F 
ATOM     22  F   UNL A   1      32.437  30.533  27.257  1.00  0.00    -0.094 F 
ATOM     23  F   UNL A   1      34.360  29.705  26.547  1.00  0.00    -0.094 F 
ATOM     24  F   UNL A   1      33.282  27.973  25.661  1.00  0.00    -0.094 F 
ENDBRANCH  13  19
BRANCH  18  25
ATOM     25  C   UNL A   1      33.131  22.214  23.767  1.00  0.00     0.429 C 
ATOM     26  F   UNL A   1      32.802  22.449  22.499  1.00  0.00    -0.167 F 
ATOM     27  F   UNL A   1      33.450  20.931  23.911  1.00  0.00    -0.167 F 
ATOM     28  F   UNL A   1      32.099  22.506  24.553  1.00  0.00    -0.167 F 
ENDBRANCH  18  25
ENDBRANCH   5   8
ENDBRANCH   3   4
ENDBRANCH   2   3
ENDBRANCH   1   2
BRANCH   1  29
ATOM     29  C   UNL A   1      39.279  20.077  25.830  1.00  0.00     0.116 C 
BRANCH  29  30
ATOM     30  N   UNL A   1      40.274  18.995  25.823  1.00  0.00    -0.352 N 
ATOM     31  C   UNL A   1      41.681  19.288  26.133  1.00  0.00     0.251 C 
ATOM     32  H   UNL A   1      39.998  18.074  25.611  1.00  0.00     0.163 HD
ATOM     33  O   UNL A   1      42.541  18.351  26.127  1.00  0.00    -0.269 OA
BRANCH  31  34
ATOM     34  C   UNL A   1      42.107  20.709  26.461  1.00  0.00     0.039 A 
ATOM     35  C   UNL A   1      42.505  21.584  25.457  1.00  0.00     0.014 A 
ATOM     36  C   UNL A   1      42.115  21.140  27.704  1.00  0.00     0.014 A 
ATOM     37  C   UNL A   1      42.401  22.963  25.743  1.00  0.00     0.010 A 
ATOM     38  C   UNL A   1      42.524  22.444  28.008  1.00  0.00     0.010 A 
ATOM     39  C   UNL A   1      42.665  23.343  27.058  1.00  0.00    -0.014 A 
BRANCH  39  40
ATOM     40  C   UNL A   1      43.106  24.761  27.386  1.00  0.00     0.031 A 
ATOM     41  C   UNL A   1      42.157  25.636  27.917  1.00  0.00     0.074 A 
ATOM     42  C   UNL A   1      44.422  25.106  27.131  1.00  0.00     0.049 A 
ATOM     43  N   UNL A   1      42.342  26.902  28.294  1.00  0.00    -0.248 NA
ATOM     44  C   UNL A   1      40.751  25.281  28.156  1.00  0.00     0.031 C 
ATOM     45  C   UNL A   1      45.387  24.226  26.602  1.00  0.00     0.029 A 
ATOM     46  N   UNL A   1      45.029  26.325  27.331  1.00  0.00    -0.354 N 
ATOM     47  C   UNL A   1      41.203  27.411  28.772  1.00  0.00     0.074 A 
ATOM     48  C   UNL A   1      40.162  26.377  28.684  1.00  0.00     0.031 C 
ATOM     49  C   UNL A   1      46.555  24.908  26.475  1.00  0.00     0.029 A 
ATOM     50  C   UNL A   1      46.340  26.225  26.923  1.00  0.00     0.049 A 
ATOM     51  H   UNL A   1      44.601  27.131  27.702  1.00  0.00     0.167 HD
ATOM     52  C   UNL A   1      40.993  28.694  29.280  1.00  0.00     0.037 A 
ATOM     53  C   UNL A   1      47.311  27.216  26.930  1.00  0.00     0.037 A 
ATOM     54  C   UNL A   1      41.975  29.671  29.327  1.00  0.00     0.049 A 
ATOM     55  C   UNL A   1      47.085  28.518  27.383  1.00  0.00     0.074 A 
ATOM     56  C   UNL A   1      41.782  30.967  29.842  1.00  0.00     0.029 A 
ATOM     57  N   UNL A   1      43.280  29.578  28.896  1.00  0.00    -0.354 N 
ATOM     58  N   UNL A   1      45.958  29.013  27.898  1.00  0.00    -0.248 NA
ATOM     59  C   UNL A   1      48.094  29.584  27.366  1.00  0.00     0.031 C 
ATOM     60  C   UNL A   1      42.951  31.650  29.715  1.00  0.00     0.029 A 
ATOM     61  C   UNL A   1      43.893  30.791  29.117  1.00  0.00     0.049 A 
ATOM     62  H   UNL A   1      43.701  28.782  28.499  1.00  0.00     0.167 HD
ATOM     63  C   UNL A   1      46.131  30.292  28.237  1.00  0.00     0.074 A 
ATOM     64  C   UNL A   1      47.507  30.680  27.893  1.00  0.00     0.031 C 
ATOM     65  C   UNL A   1      45.199  31.151  28.823  1.00  0.00     0.037 A 
BRANCH  52  66
ATOM     66  C   UNL A   1      39.611  29.038  29.809  1.00  0.00     0.064 A 
ATOM     67  C   UNL A   1      39.205  28.759  31.098  1.00  0.00     0.173 A 
ATOM     68  C   UNL A   1      38.690  29.546  28.904  1.00  0.00     0.173 A 
ATOM     69  F   UNL A   1      40.081  28.273  31.973  1.00  0.00    -0.203 F 
ATOM     70  C   UNL A   1      37.952  28.969  31.473  1.00  0.00     0.198 A 
ATOM     71  C   UNL A   1      37.388  29.760  29.333  1.00  0.00     0.198 A 
ATOM     72  F   UNL A   1      39.047  29.821  27.652  1.00  0.00    -0.203 F 
ATOM     73  F   UNL A   1      37.593  28.683  32.721  1.00  0.00    -0.200 F 
ATOM     74  C   UNL A   1      37.051  29.457  30.638  1.00  0.00     0.200 A 
ATOM     75  F   UNL A   1      36.476  30.250  28.498  1.00  0.00    -0.200 F 
ATOM     76  F   UNL A   1      35.806  29.658  31.059  1.00  0.00    -0.200 F 
ENDBRANCH  52  66
BRANCH  53  77
ATOM     77  C   UNL A   1      48.698  26.866  26.416  1.00  0.00     0.064 A 
ATOM     78  C   UNL A   1      49.656  26.248  27.195  1.00  0.00     0.173 A 
ATOM     79  C   UNL A   1      48.951  27.073  25.068  1.00  0.00     0.173 A 
ATOM     80  F   UNL A   1      49.421  26.045  28.488  1.00  0.00    -0.203 F 
ATOM     81  C   UNL A   1      50.806  25.857  26.669  1.00  0.00     0.198 A 
ATOM     82  C   UNL A   1      50.164  26.645  24.549  1.00  0.00     0.198 A 
ATOM     83  F   UNL A   1      48.053  27.669  24.291  1.00  0.00    -0.203 F 
ATOM     84  F   UNL A   1      51.710  25.271  27.449  1.00  0.00    -0.200 F 
ATOM     85  C   UNL A   1      51.077  26.034  25.387  1.00  0.00     0.200 A 
ATOM     86  F   UNL A   1      50.445  26.820  23.261  1.00  0.00    -0.200 F 
ATOM     87  F   UNL A   1      52.243  25.620  24.899  1.00  0.00    -0.200 F 
ENDBRANCH  53  77
BRANCH  65  88
ATOM     88  C   UNL A   1      45.643  32.565  29.156  1.00  0.00     0.064 A 
ATOM     89  C   UNL A   1      45.453  33.591  28.251  1.00  0.00     0.173 A 
ATOM     90  C   UNL A   1      46.251  32.841  30.372  1.00  0.00     0.173 A 
ATOM     91  F   UNL A   1      44.871  33.336  27.083  1.00  0.00    -0.203 F 
ATOM     92  C   UNL A   1      45.844  34.823  28.533  1.00  0.00     0.198 A 
ATOM     93  C   UNL A   1      46.643  34.145  30.637  1.00  0.00     0.198 A 
ATOM     94  F   UNL A   1      46.455  31.875  31.264  1.00  0.00    -0.203 F 
ATOM     95  F   UNL A   1      45.651  35.786  27.636  1.00  0.00    -0.200 F 
ATOM     96  C   UNL A   1      46.421  35.121  29.685  1.00  0.00     0.200 A 
ATOM     97  F   UNL A   1      47.224  34.452  31.794  1.00  0.00    -0.200 F 
ATOM     98  F   UNL A   1      46.793  36.374  29.930  1.00  0.00    -0.200 F 
ENDBRANCH  65  88
ENDBRANCH  39  40
ENDBRANCH  31  34
ENDBRANCH  29  30
ENDBRANCH   1  29
TORSDOF 13
ENDMDL
MODEL 3
REMARK VINA RESULT:     -13.8      0.374      7.134
REMARK SMILES Cc1cc(S(F)(F)(F)(F)F)cc2c1O[C@H](C(F)(F)F)C(C(=O)NCCCCNC(=O)c1ccc(-c3c4nc(c(-c5c(F)c(F)c(F)c(F)c5F)c5ccc([nH]5)c(-c5c(F)c(F)c(F)c(F)c5F)c5nc(c(-c6c(F)c(F)c(F)c(F)c6F)c6ccc3[nH]6)C=C5)C=C4)cc1)=C2
REMARK SMILES IDX 26 1 25 2 24 3 23 4 21 5 22 6 20 8 1 9 2 10 3 11 13 12 4 13
REMARK SMILES IDX 12 14 14 15 11 16 94 17 15 18 5 19 6 20 7 21 8 22 9 23 10 24
REMARK SMILES IDX 16 25 17 26 18 27 19 28 27 29 28 30 29 31 30 33 31 34 32 35
REMARK SMILES IDX 93 36 33 37 92 38 34 39 35 40 36 41 86 42 37 43 91 44 85 45
REMARK SMILES IDX 87 46 38 47 90 48 84 49 83 50 39 52 71 53 51 54 70 55 52 56
REMARK SMILES IDX 55 57 69 58 88 59 53 60 54 61 68 63 89 64 56 65 40 66 41 67
REMARK SMILES IDX 49 68 42 69 43 70 47 71 50 72 44 73 45 74 48 75 46 76 72 77
REMARK SMILES IDX 73 78 81 79 74 80 75 81 79 82 82 83 76 84 77 85 80 86 78 87
REMARK SMILES IDX 57 88 58 89 66 90 59 91 60 92 64 93 67 94 61 95 62 96 65 97
REMARK SMILES IDX 63 98
REMARK H PARENT 23 7 28 32 87 51 55 62
REMARK Flexibility Score: inf
ROOT
ATOM      1  C   UNL A   1      38.028  19.625  25.063  1.00  0.00     0.023 C 
ENDROOT
BRANCH   1   2
ATOM      2  C   UNL A   1      37.362  20.827  24.413  1.00  0.00     0.023 C 
BRANCH   2   3
ATOM      3  C   UNL A   1      36.886  21.786  25.491  1.00  0.00     0.116 C 
BRANCH   3   4
ATOM      4  N   UNL A   1      35.786  21.168  26.246  1.00  0.00    -0.352 N 
ATOM      5  C   UNL A   1      34.462  21.805  26.271  1.00  0.00     0.251 C 
ATOM      6  O   UNL A   1      33.512  21.270  26.924  1.00  0.00    -0.270 OA
ATOM      7  H   UNL A   1      35.937  20.327  26.736  1.00  0.00     0.163 HD
BRANCH   5   8
ATOM      8  C   UNL A   1      34.229  23.103  25.515  1.00  0.00     0.067 C 
ATOM      9  C   UNL A   1      33.510  26.748  21.883  1.00  0.00     0.048 C 
ATOM     10  C   UNL A   1      33.592  26.657  23.399  1.00  0.00    -0.007 A 
ATOM     11  C   UNL A   1      33.366  27.815  24.108  1.00  0.00     0.031 A 
ATOM     12  C   UNL A   1      33.805  25.463  24.087  1.00  0.00     0.130 A 
ATOM     13  C   UNL A   1      33.353  27.806  25.497  1.00  0.00     0.108 A 
ATOM     14  C   UNL A   1      33.787  25.456  25.500  1.00  0.00     0.019 A 
ATOM     15  O   UNL A   1      34.053  24.195  23.388  1.00  0.00    -0.475 OA
ATOM     16  C   UNL A   1      33.553  26.646  26.192  1.00  0.00     0.036 A 
ATOM     17  C   UNL A   1      34.015  24.190  26.196  1.00  0.00     0.025 C 
ATOM     18  C   UNL A   1      34.253  23.080  24.120  1.00  0.00     0.314 C 
BRANCH  13  19
ATOM     19  S   UNL A   1      33.066  29.349  26.398  1.00  0.00     0.310 S 
ATOM     20  F   UNL A   1      33.014  28.522  27.751  1.00  0.00    -0.094 F 
ATOM     21  F   UNL A   1      31.536  29.017  26.218  1.00  0.00    -0.094 F 
ATOM     22  F   UNL A   1      32.721  30.616  27.231  1.00  0.00    -0.094 F 
ATOM     23  F   UNL A   1      34.600  29.586  26.687  1.00  0.00    -0.094 F 
ATOM     24  F   UNL A   1      33.429  28.004  25.652  1.00  0.00    -0.094 F 
ENDBRANCH  13  19
BRANCH  18  25
ATOM     25  C   UNL A   1      33.021  22.252  23.791  1.00  0.00     0.429 C 
ATOM     26  F   UNL A   1      33.319  20.959  23.883  1.00  0.00    -0.167 F 
ATOM     27  F   UNL A   1      32.048  22.544  24.649  1.00  0.00    -0.167 F 
ATOM     28  F   UNL A   1      32.620  22.528  22.554  1.00  0.00    -0.167 F 
ENDBRANCH  18  25
ENDBRANCH   5   8
ENDBRANCH   3   4
ENDBRANCH   2   3
ENDBRANCH   1   2
BRANCH   1  29
ATOM     29  C   UNL A   1      39.219  20.088  25.885  1.00  0.00     0.116 C 
BRANCH  29  30
ATOM     30  N   UNL A   1      40.225  19.017  25.936  1.00  0.00    -0.352 N 
ATOM     31  C   UNL A   1      41.617  19.332  26.292  1.00  0.00     0.251 C 
ATOM     32  H   UNL A   1      39.967  18.089  25.732  1.00  0.00     0.163 HD
ATOM     33  O   UNL A   1      42.486  18.405  26.335  1.00  0.00    -0.269 OA
BRANCH  31  34
ATOM     34  C   UNL A   1      42.015  20.764  26.607  1.00  0.00     0.039 A 
ATOM     35  C   UNL A   1      42.403  21.635  25.596  1.00  0.00     0.014 A 
ATOM     36  C   UNL A   1      42.008  21.209  27.845  1.00  0.00     0.014 A 
ATOM     37  C   UNL A   1      42.274  23.015  25.866  1.00  0.00     0.010 A 
ATOM     38  C   UNL A   1      42.391  22.522  28.138  1.00  0.00     0.010 A 
ATOM     39  C   UNL A   1      42.522  23.413  27.179  1.00  0.00    -0.014 A 
BRANCH  39  40
ATOM     40  C   UNL A   1      42.936  24.842  27.494  1.00  0.00     0.031 A 
ATOM     41  C   UNL A   1      41.971  25.703  28.019  1.00  0.00     0.074 A 
ATOM     42  C   UNL A   1      44.244  25.211  27.234  1.00  0.00     0.049 A 
ATOM     43  N   UNL A   1      42.131  26.976  28.385  1.00  0.00    -0.248 NA
ATOM     44  C   UNL A   1      40.572  25.324  28.263  1.00  0.00     0.031 C 
ATOM     45  C   UNL A   1      45.226  24.346  26.712  1.00  0.00     0.029 A 
ATOM     46  N   UNL A   1      44.828  26.444  27.423  1.00  0.00    -0.354 N 
ATOM     47  C   UNL A   1      40.983  27.466  28.861  1.00  0.00     0.074 A 
ATOM     48  C   UNL A   1      39.963  26.412  28.783  1.00  0.00     0.031 C 
ATOM     49  C   UNL A   1      46.380  25.050  26.578  1.00  0.00     0.029 A 
ATOM     50  C   UNL A   1      46.141  26.366  27.014  1.00  0.00     0.049 A 
ATOM     51  H   UNL A   1      44.384  27.244  27.788  1.00  0.00     0.167 HD
ATOM     52  C   UNL A   1      40.749  28.750  29.357  1.00  0.00     0.037 A 
ATOM     53  C   UNL A   1      47.091  27.375  27.012  1.00  0.00     0.037 A 
ATOM     54  C   UNL A   1      41.711  29.746  29.395  1.00  0.00     0.049 A 
ATOM     55  C   UNL A   1      46.840  28.677  27.454  1.00  0.00     0.074 A 
ATOM     56  C   UNL A   1      41.493  31.043  29.899  1.00  0.00     0.029 A 
ATOM     57  N   UNL A   1      43.017  29.675  28.963  1.00  0.00    -0.354 N 
ATOM     58  N   UNL A   1      45.705  29.154  27.966  1.00  0.00    -0.248 NA
ATOM     59  C   UNL A   1      47.829  29.762  27.427  1.00  0.00     0.031 C 
ATOM     60  C   UNL A   1      42.649  31.747  29.765  1.00  0.00     0.029 A 
ATOM     61  C   UNL A   1      43.607  30.902  29.173  1.00  0.00     0.049 A 
ATOM     62  H   UNL A   1      43.453  28.885  28.572  1.00  0.00     0.167 HD
ATOM     63  C   UNL A   1      45.853  30.439  28.294  1.00  0.00     0.074 A 
ATOM     64  C   UNL A   1      47.220  30.850  27.945  1.00  0.00     0.031 C 
ATOM     65  C   UNL A   1      44.905  31.284  28.874  1.00  0.00     0.037 A 
BRANCH  52  66
ATOM     66  C   UNL A   1      39.361  29.072  29.885  1.00  0.00     0.064 A 
ATOM     67  C   UNL A   1      38.401  29.722  29.136  1.00  0.00     0.173 A 
ATOM     68  C   UNL A   1      39.108  28.801  31.222  1.00  0.00     0.173 A 
ATOM     69  F   UNL A   1      38.633  29.985  27.854  1.00  0.00    -0.203 F 
ATOM     70  C   UNL A   1      37.250  30.087  29.682  1.00  0.00     0.198 A 
ATOM     71  C   UNL A   1      37.890  29.191  31.759  1.00  0.00     0.198 A 
ATOM     72  F   UNL A   1      40.014  28.180  31.973  1.00  0.00    -0.203 F 
ATOM     73  F   UNL A   1      36.349  30.717  28.934  1.00  0.00    -0.200 F 
ATOM     74  C   UNL A   1      36.975  29.839  30.951  1.00  0.00     0.200 A 
ATOM     75  F   UNL A   1      37.606  28.946  33.035  1.00  0.00    -0.200 F 
ATOM     76  F   UNL A   1      35.805  30.217  31.456  1.00  0.00    -0.200 F 
ENDBRANCH  52  66
BRANCH  53  77
ATOM     77  C   UNL A   1      48.484  27.048  26.499  1.00  0.00     0.064 A 
ATOM     78  C   UNL A   1      49.471  26.501  27.295  1.00  0.00     0.173 A 
ATOM     79  C   UNL A   1      48.717  27.199  25.140  1.00  0.00     0.173 A 
ATOM     80  F   UNL A   1      49.255  26.351  28.599  1.00  0.00    -0.203 F 
ATOM     81  C   UNL A   1      50.628  26.124  26.775  1.00  0.00     0.198 A 
ATOM     82  C   UNL A   1      49.938  26.788  24.628  1.00  0.00     0.198 A 
ATOM     83  F   UNL A   1      47.791  27.728  24.346  1.00  0.00    -0.203 F 
ATOM     84  F   UNL A   1      51.559  25.606  27.571  1.00  0.00    -0.200 F 
ATOM     85  C   UNL A   1      50.880  26.249  25.483  1.00  0.00     0.200 A 
ATOM     86  F   UNL A   1      50.201  26.911  23.330  1.00  0.00    -0.200 F 
ATOM     87  F   UNL A   1      52.054  25.851  25.001  1.00  0.00    -0.200 F 
ENDBRANCH  53  77
BRANCH  65  88
ATOM     88  C   UNL A   1      45.322  32.710  29.194  1.00  0.00     0.064 A 
ATOM     89  C   UNL A   1      45.926  33.009  30.399  1.00  0.00     0.173 A 
ATOM     90  C   UNL A   1      45.093  33.729  28.281  1.00  0.00     0.173 A 
ATOM     91  F   UNL A   1      46.149  32.040  31.281  1.00  0.00    -0.203 F 
ATOM     92  C   UNL A   1      46.284  34.251  30.686  1.00  0.00     0.198 A 
ATOM     93  C   UNL A   1      45.487  35.017  28.612  1.00  0.00     0.198 A 
ATOM     94  F   UNL A   1      44.508  33.476  27.113  1.00  0.00    -0.203 F 
ATOM     95  F   UNL A   1      46.859  34.506  31.859  1.00  0.00    -0.200 F 
ATOM     96  C   UNL A   1      46.086  35.244  29.836  1.00  0.00     0.200 A 
ATOM     97  F   UNL A   1      45.291  36.021  27.761  1.00  0.00    -0.200 F 
ATOM     98  F   UNL A   1      46.468  36.476  30.162  1.00  0.00    -0.200 F 
ENDBRANCH  65  88
ENDBRANCH  39  40
ENDBRANCH  31  34
ENDBRANCH  29  30
ENDBRANCH   1  29
TORSDOF 13
ENDMDL
