MODEL 1
REMARK VINA RESULT:     -15.2      0.000      0.000
REMARK SMILES O=C(NCCCCNC(=O)[C@@H]1CCCN1S(=O)(=O)c1ccc2c3c(cccc13)C(=O)N2)c1ccc(-c2c3nc(c(-c4c(F)c(F)c(F)c(F)c4F)c4ccc([nH]4)c(-c4c(F)c(F)c(F)c(F)c4F)c4nc(c(-c5c(F)c(F)c(F)c(F)c5F)c5ccc2[nH]5)C=C4)C=C3)cc1
REMARK SMILES IDX 5 1 4 2 3 3 1 4 2 5 32 7 33 8 94 9 34 10 93 11 35 12 36 13
REMARK SMILES IDX 37 14 87 15 38 16 92 17 86 18 88 19 39 20 91 21 85 22 84 23
REMARK SMILES IDX 40 25 72 26 52 27 71 28 53 29 56 30 70 31 89 32 54 33 55 34
REMARK SMILES IDX 69 36 90 37 57 38 41 39 42 40 50 41 43 42 44 43 48 44 51 45
REMARK SMILES IDX 45 46 46 47 49 48 47 49 73 50 74 51 82 52 75 53 76 54 80 55
REMARK SMILES IDX 83 56 77 57 78 58 81 59 79 60 58 61 59 62 67 63 60 64 61 65
REMARK SMILES IDX 65 66 68 67 62 68 63 69 66 70 64 71 6 72 7 73 8 74 9 75
REMARK SMILES IDX 10 77 11 78 12 79 15 80 13 81 14 82 16 83 17 84 18 85 19 86
REMARK SMILES IDX 20 87 28 88 21 89 23 90 27 91 22 92 24 93 26 94 31 95 25 96
REMARK SMILES IDX 29 97 30 99
REMARK H PARENT 3 6 88 24 56 35 8 76 31 98
REMARK Flexibility Score: inf
ROOT
ATOM      1  C   UNL A   1      34.499  31.371  27.668  1.00  0.00     0.023 C 
ENDROOT
BRANCH   1   2
ATOM      2  C   UNL A   1      32.777  32.679  27.295  1.00  0.00     0.116 C 
BRANCH   2   3
ATOM      3  N   UNL A   1      32.458  34.209  27.684  1.00  0.00    -0.352 N 
ATOM      4  O   UNL A   1      32.607  36.129  28.886  1.00  0.00    -0.269 OA
ATOM      5  C   UNL A   1      33.021  34.997  28.658  1.00  0.00     0.251 C 
ATOM      6  H   UNL A   1      31.758  34.643  27.145  1.00  0.00     0.163 HD
BRANCH   5   7
ATOM      7  C   UNL A   1      34.162  34.474  29.429  1.00  0.00     0.039 A 
ATOM      8  C   UNL A   1      33.920  33.802  30.630  1.00  0.00     0.014 A 
ATOM      9  C   UNL A   1      35.461  34.633  28.941  1.00  0.00     0.014 A 
ATOM     10  C   UNL A   1      34.993  33.306  31.365  1.00  0.00     0.010 A 
ATOM     11  C   UNL A   1      36.531  34.093  29.656  1.00  0.00     0.010 A 
ATOM     12  C   UNL A   1      36.302  33.413  30.864  1.00  0.00    -0.014 A 
BRANCH  12  13
ATOM     13  C   UNL A   1      37.393  32.664  31.533  1.00  0.00     0.031 A 
ATOM     14  C   UNL A   1      38.063  31.495  30.884  1.00  0.00     0.074 A 
ATOM     15  C   UNL A   1      37.762  33.063  32.766  1.00  0.00     0.049 A 
ATOM     16  N   UNL A   1      39.069  30.782  31.322  1.00  0.00    -0.248 NA
ATOM     17  C   UNL A   1      37.533  31.061  29.585  1.00  0.00     0.031 C 
ATOM     18  C   UNL A   1      37.140  34.166  33.503  1.00  0.00     0.029 A 
ATOM     19  N   UNL A   1      38.742  32.610  33.609  1.00  0.00    -0.354 N 
ATOM     20  C   UNL A   1      39.297  29.814  30.355  1.00  0.00     0.074 A 
ATOM     21  C   UNL A   1      38.294  30.004  29.327  1.00  0.00     0.031 C 
ATOM     22  C   UNL A   1      37.779  34.331  34.668  1.00  0.00     0.029 A 
ATOM     23  C   UNL A   1      38.823  33.317  34.784  1.00  0.00     0.049 A 
ATOM     24  H   UNL A   1      39.332  31.851  33.395  1.00  0.00     0.167 HD
ATOM     25  C   UNL A   1      40.265  28.867  30.331  1.00  0.00     0.037 A 
ATOM     26  C   UNL A   1      39.642  33.167  35.843  1.00  0.00     0.037 A 
ATOM     27  C   UNL A   1      41.252  28.695  31.368  1.00  0.00     0.049 A 
ATOM     28  C   UNL A   1      40.692  32.097  35.803  1.00  0.00     0.074 A 
ATOM     29  C   UNL A   1      42.312  27.806  31.408  1.00  0.00     0.029 A 
ATOM     30  N   UNL A   1      41.289  29.412  32.557  1.00  0.00    -0.354 N 
ATOM     31  N   UNL A   1      40.957  31.242  34.844  1.00  0.00    -0.248 NA
ATOM     32  C   UNL A   1      41.559  31.967  36.980  1.00  0.00     0.031 C 
ATOM     33  C   UNL A   1      42.940  27.931  32.650  1.00  0.00     0.029 A 
ATOM     34  C   UNL A   1      42.324  28.952  33.357  1.00  0.00     0.049 A 
ATOM     35  H   UNL A   1      40.670  30.140  32.798  1.00  0.00     0.167 HD
ATOM     36  C   UNL A   1      42.027  30.482  35.293  1.00  0.00     0.074 A 
ATOM     37  C   UNL A   1      42.374  30.988  36.606  1.00  0.00     0.031 C 
ATOM     38  C   UNL A   1      42.660  29.461  34.667  1.00  0.00     0.037 A 
BRANCH  25  39
ATOM     39  C   UNL A   1      40.303  27.930  29.156  1.00  0.00     0.064 A 
ATOM     40  C   UNL A   1      39.566  26.735  29.138  1.00  0.00     0.173 A 
ATOM     41  C   UNL A   1      41.037  28.259  28.005  1.00  0.00     0.173 A 
ATOM     42  F   UNL A   1      38.841  26.371  30.207  1.00  0.00    -0.203 F 
ATOM     43  C   UNL A   1      39.591  25.891  28.030  1.00  0.00     0.198 A 
ATOM     44  C   UNL A   1      41.031  27.431  26.885  1.00  0.00     0.198 A 
ATOM     45  F   UNL A   1      41.747  29.396  27.957  1.00  0.00    -0.203 F 
ATOM     46  F   UNL A   1      38.917  24.733  28.056  1.00  0.00    -0.200 F 
ATOM     47  C   UNL A   1      40.316  26.243  26.902  1.00  0.00     0.200 A 
ATOM     48  F   UNL A   1      41.712  27.787  25.787  1.00  0.00    -0.200 F 
ATOM     49  F   UNL A   1      40.327  25.438  25.831  1.00  0.00    -0.200 F 
ENDBRANCH  25  39
BRANCH  26  50
ATOM     50  C   UNL A   1      39.497  34.092  36.995  1.00  0.00     0.064 A 
ATOM     51  C   UNL A   1      38.752  33.727  38.124  1.00  0.00     0.173 A 
ATOM     52  C   UNL A   1      40.183  35.317  37.034  1.00  0.00     0.173 A 
ATOM     53  F   UNL A   1      38.068  32.574  38.130  1.00  0.00    -0.203 F 
ATOM     54  C   UNL A   1      38.709  34.545  39.252  1.00  0.00     0.198 A 
ATOM     55  C   UNL A   1      40.163  36.119  38.173  1.00  0.00     0.198 A 
ATOM     56  F   UNL A   1      40.918  35.708  35.982  1.00  0.00    -0.203 F 
ATOM     57  F   UNL A   1      37.979  34.178  40.315  1.00  0.00    -0.200 F 
ATOM     58  C   UNL A   1      39.425  35.732  39.281  1.00  0.00     0.200 A 
ATOM     59  F   UNL A   1      40.876  37.253  38.204  1.00  0.00    -0.200 F 
ATOM     60  F   UNL A   1      39.410  36.501  40.379  1.00  0.00    -0.200 F 
ENDBRANCH  26  50
BRANCH  38  61
ATOM     61  C   UNL A   1      43.809  28.805  35.378  1.00  0.00     0.064 A 
ATOM     62  C   UNL A   1      45.128  29.249  35.204  1.00  0.00     0.173 A 
ATOM     63  C   UNL A   1      43.574  27.805  36.335  1.00  0.00     0.173 A 
ATOM     64  F   UNL A   1      45.408  30.192  34.291  1.00  0.00    -0.203 F 
ATOM     65  C   UNL A   1      46.166  28.720  35.966  1.00  0.00     0.198 A 
ATOM     66  C   UNL A   1      44.609  27.302  37.116  1.00  0.00     0.198 A 
ATOM     67  F   UNL A   1      42.329  27.348  36.543  1.00  0.00    -0.203 F 
ATOM     68  F   UNL A   1      47.423  29.146  35.770  1.00  0.00    -0.200 F 
ATOM     69  C   UNL A   1      45.905  27.759  36.931  1.00  0.00     0.200 A 
ATOM     70  F   UNL A   1      44.350  26.390  38.064  1.00  0.00    -0.200 F 
ATOM     71  F   UNL A   1      46.900  27.278  37.688  1.00  0.00    -0.200 F 
ENDBRANCH  38  61
ENDBRANCH  12  13
ENDBRANCH   5   7
ENDBRANCH   2   3
ENDBRANCH   1   2
BRANCH   1  72
ATOM     72  C   UNL A   1      34.966  29.753  27.391  1.00  0.00     0.023 C 
BRANCH  72  73
ATOM     73  C   UNL A   1      34.073  28.697  26.740  1.00  0.00     0.116 C 
BRANCH  73  74
ATOM     74  N   UNL A   1      32.879  28.261  27.457  1.00  0.00    -0.355 N 
ATOM     75  C   UNL A   1      31.716  27.763  26.881  1.00  0.00     0.238 C 
ATOM     76  H   UNL A   1      32.899  28.325  28.439  1.00  0.00     0.163 HD
ATOM     77  O   UNL A   1      30.741  27.498  27.581  1.00  0.00    -0.273 OA
BRANCH  75  78
ATOM     78  C   UNL A   1      31.718  27.613  25.371  1.00  0.00     0.162 C 
ATOM     79  C   UNL A   1      30.421  27.655  24.578  1.00  0.00     0.032 C 
ATOM     80  N   UNL A   1      32.408  26.417  24.809  1.00  0.00    -0.185 NA
ATOM     81  C   UNL A   1      30.928  27.361  23.161  1.00  0.00     0.019 C 
ATOM     82  C   UNL A   1      32.241  26.585  23.337  1.00  0.00     0.103 C 
BRANCH  80  83
ATOM     83  S   UNL A   1      32.055  24.847  25.388  1.00  0.00     0.244 S 
ATOM     84  O   UNL A   1      31.680  24.960  26.780  1.00  0.00    -0.207 OA
ATOM     85  O   UNL A   1      31.134  24.258  24.438  1.00  0.00    -0.207 OA
BRANCH  83  86
ATOM     86  C   UNL A   1      33.560  23.900  25.308  1.00  0.00     0.090 A 
ATOM     87  C   UNL A   1      34.831  24.572  25.538  1.00  0.00     0.024 A 
ATOM     88  C   UNL A   1      33.507  22.513  25.053  1.00  0.00     0.005 A 
ATOM     89  C   UNL A   1      36.165  24.006  25.482  1.00  0.00     0.028 A 
ATOM     90  C   UNL A   1      35.135  21.926  25.155  1.00  0.00     0.019 A 
ATOM     91  C   UNL A   1      32.208  21.285  24.740  1.00  0.00     0.010 A 
ATOM     92  C   UNL A   1      36.270  22.644  25.286  1.00  0.00     0.050 A 
ATOM     93  C   UNL A   1      35.609  20.270  24.914  1.00  0.00     0.050 A 
ATOM     94  C   UNL A   1      32.664  19.547  24.509  1.00  0.00     0.002 A 
ATOM     95  N   UNL A   1      37.347  21.741  25.154  1.00  0.00    -0.321 N 
ATOM     96  C   UNL A   1      34.394  18.980  24.673  1.00  0.00     0.014 A 
ATOM     97  C   UNL A   1      37.056  20.340  24.952  1.00  0.00     0.256 C 
ATOM     98  H   UNL A   1      38.277  22.060  25.198  1.00  0.00     0.170 HD
ATOM     99  O   UNL A   1      37.912  19.476  24.826  1.00  0.00    -0.269 OA
ENDBRANCH  83  86
ENDBRANCH  80  83
ENDBRANCH  75  78
ENDBRANCH  73  74
ENDBRANCH  72  73
ENDBRANCH   1  72
TORSDOF 13
ENDMDL
MODEL 2
REMARK VINA RESULT:     -15.2      0.522      7.221
REMARK SMILES O=C(NCCCCNC(=O)[C@@H]1CCCN1S(=O)(=O)c1ccc2c3c(cccc13)C(=O)N2)c1ccc(-c2c3nc(c(-c4c(F)c(F)c(F)c(F)c4F)c4ccc([nH]4)c(-c4c(F)c(F)c(F)c(F)c4F)c4nc(c(-c5c(F)c(F)c(F)c(F)c5F)c5ccc2[nH]5)C=C4)C=C3)cc1
REMARK SMILES IDX 5 1 4 2 3 3 1 4 2 5 32 7 33 8 94 9 34 10 93 11 35 12 36 13
REMARK SMILES IDX 37 14 87 15 38 16 92 17 86 18 88 19 39 20 91 21 85 22 84 23
REMARK SMILES IDX 40 25 72 26 52 27 71 28 53 29 56 30 70 31 89 32 54 33 55 34
REMARK SMILES IDX 69 36 90 37 57 38 41 39 42 40 50 41 43 42 44 43 48 44 51 45
REMARK SMILES IDX 45 46 46 47 49 48 47 49 73 50 74 51 82 52 75 53 76 54 80 55
REMARK SMILES IDX 83 56 77 57 78 58 81 59 79 60 58 61 59 62 67 63 60 64 61 65
REMARK SMILES IDX 65 66 68 67 62 68 63 69 66 70 64 71 6 72 7 73 8 74 9 75
REMARK SMILES IDX 10 77 11 78 12 79 15 80 13 81 14 82 16 83 17 84 18 85 19 86
REMARK SMILES IDX 20 87 28 88 21 89 23 90 27 91 22 92 24 93 26 94 31 95 25 96
REMARK SMILES IDX 29 97 30 99
REMARK H PARENT 3 6 88 24 56 35 8 76 31 98
REMARK Flexibility Score: inf
ROOT
ATOM      1  C   UNL A   1      34.576  31.382  27.649  1.00  0.00     0.023 C 
ENDROOT
BRANCH   1   2
ATOM      2  C   UNL A   1      32.849  32.676  27.250  1.00  0.00     0.116 C 
BRANCH   2   3
ATOM      3  N   UNL A   1      32.477  34.178  27.696  1.00  0.00    -0.352 N 
ATOM      4  O   UNL A   1      32.583  36.064  28.954  1.00  0.00    -0.269 OA
ATOM      5  C   UNL A   1      33.037  34.960  28.677  1.00  0.00     0.251 C 
ATOM      6  H   UNL A   1      31.743  34.597  27.193  1.00  0.00     0.163 HD
BRANCH   5   7
ATOM      7  C   UNL A   1      34.223  34.463  29.397  1.00  0.00     0.039 A 
ATOM      8  C   UNL A   1      34.050  33.773  30.599  1.00  0.00     0.014 A 
ATOM      9  C   UNL A   1      35.496  34.665  28.859  1.00  0.00     0.014 A 
ATOM     10  C   UNL A   1      35.165  33.301  31.285  1.00  0.00     0.010 A 
ATOM     11  C   UNL A   1      36.610  34.151  29.525  1.00  0.00     0.010 A 
ATOM     12  C   UNL A   1      36.450  33.453  30.734  1.00  0.00    -0.014 A 
BRANCH  12  13
ATOM     13  C   UNL A   1      37.587  32.730  31.351  1.00  0.00     0.031 A 
ATOM     14  C   UNL A   1      38.103  33.081  32.710  1.00  0.00     0.074 A 
ATOM     15  C   UNL A   1      38.162  31.741  30.638  1.00  0.00     0.049 A 
ATOM     16  N   UNL A   1      39.050  32.499  33.402  1.00  0.00    -0.248 NA
ATOM     17  C   UNL A   1      37.490  34.237  33.377  1.00  0.00     0.031 C 
ATOM     18  C   UNL A   1      37.760  31.351  29.285  1.00  0.00     0.029 A 
ATOM     19  N   UNL A   1      39.184  30.881  30.943  1.00  0.00    -0.354 N 
ATOM     20  C   UNL A   1      39.149  33.215  34.586  1.00  0.00     0.074 A 
ATOM     21  C   UNL A   1      38.195  34.301  34.500  1.00  0.00     0.031 C 
ATOM     22  C   UNL A   1      38.496  30.304  28.892  1.00  0.00     0.029 A 
ATOM     23  C   UNL A   1      39.456  29.979  29.943  1.00  0.00     0.049 A 
ATOM     24  H   UNL A   1      39.676  30.906  31.795  1.00  0.00     0.167 HD
ATOM     25  C   UNL A   1      39.956  32.970  35.646  1.00  0.00     0.037 A 
ATOM     26  C   UNL A   1      40.376  28.998  29.874  1.00  0.00     0.037 A 
ATOM     27  C   UNL A   1      40.902  31.882  35.707  1.00  0.00     0.049 A 
ATOM     28  C   UNL A   1      41.274  28.760  31.052  1.00  0.00     0.074 A 
ATOM     29  C   UNL A   1      41.720  31.512  36.760  1.00  0.00     0.029 A 
ATOM     30  N   UNL A   1      41.169  31.002  34.666  1.00  0.00    -0.354 N 
ATOM     31  N   UNL A   1      41.300  29.387  32.204  1.00  0.00    -0.248 NA
ATOM     32  C   UNL A   1      42.266  27.685  30.930  1.00  0.00     0.031 C 
ATOM     33  C   UNL A   1      42.536  30.462  36.330  1.00  0.00     0.029 A 
ATOM     34  C   UNL A   1      42.174  30.122  35.037  1.00  0.00     0.049 A 
ATOM     35  H   UNL A   1      40.713  31.003  33.793  1.00  0.00     0.167 HD
ATOM     36  C   UNL A   1      42.297  28.775  32.951  1.00  0.00     0.074 A 
ATOM     37  C   UNL A   1      42.843  27.716  32.125  1.00  0.00     0.031 C 
ATOM     38  C   UNL A   1      42.715  29.070  34.205  1.00  0.00     0.037 A 
BRANCH  25  39
ATOM     39  C   UNL A   1      39.870  33.899  36.824  1.00  0.00     0.064 A 
ATOM     40  C   UNL A   1      40.562  35.119  36.858  1.00  0.00     0.173 A 
ATOM     41  C   UNL A   1      39.034  33.595  37.911  1.00  0.00     0.173 A 
ATOM     42  F   UNL A   1      41.371  35.466  35.845  1.00  0.00    -0.203 F 
ATOM     43  C   UNL A   1      40.449  35.981  37.947  1.00  0.00     0.198 A 
ATOM     44  C   UNL A   1      38.895  34.475  38.981  1.00  0.00     0.198 A 
ATOM     45  F   UNL A   1      38.334  32.451  37.928  1.00  0.00    -0.203 F 
ATOM     46  F   UNL A   1      41.158  37.118  37.975  1.00  0.00    -0.200 F 
ATOM     47  C   UNL A   1      39.610  35.663  39.003  1.00  0.00     0.200 A 
ATOM     48  F   UNL A   1      38.064  34.176  39.989  1.00  0.00    -0.200 F 
ATOM     49  F   UNL A   1      39.490  36.500  40.043  1.00  0.00    -0.200 F 
ENDBRANCH  25  39
BRANCH  26  50
ATOM     50  C   UNL A   1      40.443  28.166  28.646  1.00  0.00     0.064 A 
ATOM     51  C   UNL A   1      41.258  28.535  27.568  1.00  0.00     0.173 A 
ATOM     52  C   UNL A   1      39.773  26.934  28.567  1.00  0.00     0.173 A 
ATOM     53  F   UNL A   1      41.907  29.708  27.590  1.00  0.00    -0.203 F 
ATOM     54  C   UNL A   1      41.410  27.698  26.463  1.00  0.00     0.198 A 
ATOM     55  C   UNL A   1      39.949  26.087  27.475  1.00  0.00     0.198 A 
ATOM     56  F   UNL A   1      38.988  26.531  29.577  1.00  0.00    -0.203 F 
ATOM     57  F   UNL A   1      42.187  28.080  25.439  1.00  0.00    -0.200 F 
ATOM     58  C   UNL A   1      40.768  26.470  26.425  1.00  0.00     0.200 A 
ATOM     59  F   UNL A   1      39.346  24.890  27.453  1.00  0.00    -0.200 F 
ATOM     60  F   UNL A   1      40.943  25.652  25.376  1.00  0.00    -0.200 F 
ENDBRANCH  26  50
BRANCH  38  61
ATOM     61  C   UNL A   1      43.820  28.239  34.791  1.00  0.00     0.064 A 
ATOM     62  C   UNL A   1      45.157  28.659  34.744  1.00  0.00     0.173 A 
ATOM     63  C   UNL A   1      43.524  27.072  35.514  1.00  0.00     0.173 A 
ATOM     64  F   UNL A   1      45.495  29.759  34.054  1.00  0.00    -0.203 F 
ATOM     65  C   UNL A   1      46.154  27.946  35.403  1.00  0.00     0.198 A 
ATOM     66  C   UNL A   1      44.517  26.380  36.199  1.00  0.00     0.198 A 
ATOM     67  F   UNL A   1      42.259  26.630  35.594  1.00  0.00    -0.203 F 
ATOM     68  F   UNL A   1      47.429  28.356  35.330  1.00  0.00    -0.200 F 
ATOM     69  C   UNL A   1      45.832  26.817  36.143  1.00  0.00     0.200 A 
ATOM     70  F   UNL A   1      44.200  25.303  36.930  1.00  0.00    -0.200 F 
ATOM     71  F   UNL A   1      46.788  26.153  36.806  1.00  0.00    -0.200 F 
ENDBRANCH  38  61
ENDBRANCH  12  13
ENDBRANCH   5   7
ENDBRANCH   2   3
ENDBRANCH   1   2
BRANCH   1  72
ATOM     72  C   UNL A   1      34.970  29.722  27.624  1.00  0.00     0.023 C 
BRANCH  72  73
ATOM     73  C   UNL A   1      34.125  28.646  26.941  1.00  0.00     0.116 C 
BRANCH  73  74
ATOM     74  N   UNL A   1      32.901  28.203  27.600  1.00  0.00    -0.355 N 
ATOM     75  C   UNL A   1      31.741  27.773  26.965  1.00  0.00     0.238 C 
ATOM     76  H   UNL A   1      32.895  28.210  28.584  1.00  0.00     0.163 HD
ATOM     77  O   UNL A   1      30.740  27.496  27.622  1.00  0.00    -0.273 OA
BRANCH  75  78
ATOM     78  C   UNL A   1      31.781  27.710  25.450  1.00  0.00     0.162 C 
ATOM     79  C   UNL A   1      30.509  27.835  24.627  1.00  0.00     0.032 C 
ATOM     80  N   UNL A   1      32.454  26.529  24.837  1.00  0.00    -0.185 NA
ATOM     81  C   UNL A   1      31.047  27.608  23.208  1.00  0.00     0.019 C 
ATOM     82  C   UNL A   1      32.333  26.787  23.373  1.00  0.00     0.103 C 
BRANCH  80  83
ATOM     83  S   UNL A   1      32.043  24.940  25.315  1.00  0.00     0.244 S 
ATOM     84  O   UNL A   1      31.592  24.990  26.687  1.00  0.00    -0.207 OA
ATOM     85  O   UNL A   1      31.168  24.417  24.285  1.00  0.00    -0.207 OA
BRANCH  83  86
ATOM     86  C   UNL A   1      33.535  23.968  25.270  1.00  0.00     0.090 A 
ATOM     87  C   UNL A   1      34.811  24.622  25.524  1.00  0.00     0.024 A 
ATOM     88  C   UNL A   1      33.465  22.582  25.019  1.00  0.00     0.005 A 
ATOM     89  C   UNL A   1      36.137  24.035  25.498  1.00  0.00     0.028 A 
ATOM     90  C   UNL A   1      35.081  21.970  25.157  1.00  0.00     0.019 A 
ATOM     91  C   UNL A   1      32.154  21.372  24.683  1.00  0.00     0.010 A 
ATOM     92  C   UNL A   1      36.224  22.670  25.310  1.00  0.00     0.050 A 
ATOM     93  C   UNL A   1      35.534  20.305  24.933  1.00  0.00     0.050 A 
ATOM     94  C   UNL A   1      32.587  19.627  24.469  1.00  0.00     0.002 A 
ATOM     95  N   UNL A   1      37.290  21.749  25.204  1.00  0.00    -0.321 N 
ATOM     96  C   UNL A   1      34.304  19.033  24.671  1.00  0.00     0.014 A 
ATOM     97  C   UNL A   1      36.981  20.353  25.001  1.00  0.00     0.256 C 
ATOM     98  H   UNL A   1      38.223  22.054  25.267  1.00  0.00     0.170 HD
ATOM     99  O   UNL A   1      37.826  19.475  24.897  1.00  0.00    -0.269 OA
ENDBRANCH  83  86
ENDBRANCH  80  83
ENDBRANCH  75  78
ENDBRANCH  73  74
ENDBRANCH  72  73
ENDBRANCH   1  72
TORSDOF 13
ENDMDL
MODEL 3
REMARK VINA RESULT:     -15.1      0.503      1.627
REMARK SMILES O=C(NCCCCNC(=O)[C@@H]1CCCN1S(=O)(=O)c1ccc2c3c(cccc13)C(=O)N2)c1ccc(-c2c3nc(c(-c4c(F)c(F)c(F)c(F)c4F)c4ccc([nH]4)c(-c4c(F)c(F)c(F)c(F)c4F)c4nc(c(-c5c(F)c(F)c(F)c(F)c5F)c5ccc2[nH]5)C=C4)C=C3)cc1
REMARK SMILES IDX 5 1 4 2 3 3 1 4 2 5 32 7 33 8 94 9 34 10 93 11 35 12 36 13
REMARK SMILES IDX 37 14 87 15 38 16 92 17 86 18 88 19 39 20 91 21 85 22 84 23
REMARK SMILES IDX 40 25 72 26 52 27 71 28 53 29 56 30 70 31 89 32 54 33 55 34
REMARK SMILES IDX 69 36 90 37 57 38 41 39 42 40 50 41 43 42 44 43 48 44 51 45
REMARK SMILES IDX 45 46 46 47 49 48 47 49 73 50 74 51 82 52 75 53 76 54 80 55
REMARK SMILES IDX 83 56 77 57 78 58 81 59 79 60 58 61 59 62 67 63 60 64 61 65
REMARK SMILES IDX 65 66 68 67 62 68 63 69 66 70 64 71 6 72 7 73 8 74 9 75
REMARK SMILES IDX 10 77 11 78 12 79 15 80 13 81 14 82 16 83 17 84 18 85 19 86
REMARK SMILES IDX 20 87 28 88 21 89 23 90 27 91 22 92 24 93 26 94 31 95 25 96
REMARK SMILES IDX 29 97 30 99
REMARK H PARENT 3 6 88 24 56 35 8 76 31 98
REMARK Flexibility Score: inf
ROOT
ATOM      1  C   UNL A   1      34.448  31.164  27.613  1.00  0.00     0.023 C 
ENDROOT
BRANCH   1   2
ATOM      2  C   UNL A   1      32.767  32.528  27.251  1.00  0.00     0.116 C 
BRANCH   2   3
ATOM      3  N   UNL A   1      32.508  34.072  27.626  1.00  0.00    -0.352 N 
ATOM      4  O   UNL A   1      32.751  36.001  28.798  1.00  0.00    -0.269 OA
ATOM      5  C   UNL A   1      33.122  34.854  28.574  1.00  0.00     0.251 C 
ATOM      6  H   UNL A   1      31.809  34.522  27.100  1.00  0.00     0.163 HD
BRANCH   5   7
ATOM      7  C   UNL A   1      34.265  34.304  29.324  1.00  0.00     0.039 A 
ATOM      8  C   UNL A   1      34.028  33.600  30.507  1.00  0.00     0.014 A 
ATOM      9  C   UNL A   1      35.562  34.469  28.831  1.00  0.00     0.014 A 
ATOM     10  C   UNL A   1      35.103  33.078  31.220  1.00  0.00     0.010 A 
ATOM     11  C   UNL A   1      36.634  33.905  29.524  1.00  0.00     0.010 A 
ATOM     12  C   UNL A   1      36.409  33.193  30.714  1.00  0.00    -0.014 A 
BRANCH  12  13
ATOM     13  C   UNL A   1      37.500  32.420  31.355  1.00  0.00     0.031 A 
ATOM     14  C   UNL A   1      38.167  31.273  30.665  1.00  0.00     0.074 A 
ATOM     15  C   UNL A   1      37.873  32.776  32.600  1.00  0.00     0.049 A 
ATOM     16  N   UNL A   1      39.173  30.544  31.076  1.00  0.00    -0.248 NA
ATOM     17  C   UNL A   1      37.633  30.884  29.353  1.00  0.00     0.031 C 
ATOM     18  C   UNL A   1      37.254  33.854  33.375  1.00  0.00     0.029 A 
ATOM     19  N   UNL A   1      38.854  32.293  33.425  1.00  0.00    -0.354 N 
ATOM     20  C   UNL A   1      39.397  29.608  30.076  1.00  0.00     0.074 A 
ATOM     21  C   UNL A   1      38.392  29.835  29.058  1.00  0.00     0.031 C 
ATOM     22  C   UNL A   1      37.896  33.979  34.544  1.00  0.00     0.029 A 
ATOM     23  C   UNL A   1      38.938  32.960  34.623  1.00  0.00     0.049 A 
ATOM     24  H   UNL A   1      39.442  31.542  33.183  1.00  0.00     0.167 HD
ATOM     25  C   UNL A   1      40.364  28.661  30.018  1.00  0.00     0.037 A 
ATOM     26  C   UNL A   1      39.759  32.773  35.674  1.00  0.00     0.037 A 
ATOM     27  C   UNL A   1      41.353  28.452  31.047  1.00  0.00     0.049 A 
ATOM     28  C   UNL A   1      40.808  31.703  35.596  1.00  0.00     0.074 A 
ATOM     29  C   UNL A   1      42.411  27.561  31.054  1.00  0.00     0.029 A 
ATOM     30  N   UNL A   1      41.393  29.129  32.260  1.00  0.00    -0.354 N 
ATOM     31  N   UNL A   1      41.070  30.881  34.608  1.00  0.00    -0.248 NA
ATOM     32  C   UNL A   1      41.677  31.532  36.766  1.00  0.00     0.031 C 
ATOM     33  C   UNL A   1      43.043  27.643  32.299  1.00  0.00     0.029 A 
ATOM     34  C   UNL A   1      42.430  28.640  33.041  1.00  0.00     0.049 A 
ATOM     35  H   UNL A   1      40.776  29.849  32.526  1.00  0.00     0.167 HD
ATOM     36  C   UNL A   1      42.140  30.105  35.028  1.00  0.00     0.074 A 
ATOM     37  C   UNL A   1      42.490  30.566  36.357  1.00  0.00     0.031 C 
ATOM     38  C   UNL A   1      42.769  29.104  34.366  1.00  0.00     0.037 A 
BRANCH  25  39
ATOM     39  C   UNL A   1      40.397  27.764  28.812  1.00  0.00     0.064 A 
ATOM     40  C   UNL A   1      39.647  26.580  28.750  1.00  0.00     0.173 A 
ATOM     41  C   UNL A   1      41.142  28.125  27.677  1.00  0.00     0.173 A 
ATOM     42  F   UNL A   1      38.912  26.188  29.802  1.00  0.00    -0.203 F 
ATOM     43  C   UNL A   1      39.669  25.773  27.613  1.00  0.00     0.198 A 
ATOM     44  C   UNL A   1      41.132  27.335  26.530  1.00  0.00     0.198 A 
ATOM     45  F   UNL A   1      41.865  29.254  27.672  1.00  0.00    -0.203 F 
ATOM     46  F   UNL A   1      38.981  24.624  27.597  1.00  0.00    -0.200 F 
ATOM     47  C   UNL A   1      40.404  26.156  26.502  1.00  0.00     0.200 A 
ATOM     48  F   UNL A   1      41.824  27.720  25.448  1.00  0.00    -0.200 F 
ATOM     49  F   UNL A   1      40.412  25.387  25.404  1.00  0.00    -0.200 F 
ENDBRANCH  25  39
BRANCH  26  50
ATOM     50  C   UNL A   1      39.618  33.659  36.858  1.00  0.00     0.064 A 
ATOM     51  C   UNL A   1      40.213  34.927  36.885  1.00  0.00     0.173 A 
ATOM     52  C   UNL A   1      38.802  33.297  37.942  1.00  0.00     0.173 A 
ATOM     53  F   UNL A   1      41.012  35.313  35.880  1.00  0.00    -0.203 F 
ATOM     54  C   UNL A   1      39.988  35.804  37.944  1.00  0.00     0.198 A 
ATOM     55  C   UNL A   1      38.555  34.186  38.986  1.00  0.00     0.198 A 
ATOM     56  F   UNL A   1      38.202  32.098  37.959  1.00  0.00    -0.203 F 
ATOM     57  F   UNL A   1      40.578  37.008  37.952  1.00  0.00    -0.200 F 
ATOM     58  C   UNL A   1      39.148  35.439  38.986  1.00  0.00     0.200 A 
ATOM     59  F   UNL A   1      37.724  33.838  39.977  1.00  0.00    -0.200 F 
ATOM     60  F   UNL A   1      38.906  36.297  39.987  1.00  0.00    -0.200 F 
ENDBRANCH  26  50
BRANCH  38  61
ATOM     61  C   UNL A   1      43.919  28.423  35.052  1.00  0.00     0.064 A 
ATOM     62  C   UNL A   1      43.734  27.256  35.808  1.00  0.00     0.173 A 
ATOM     63  C   UNL A   1      45.234  28.873  34.850  1.00  0.00     0.173 A 
ATOM     64  F   UNL A   1      42.497  26.793  36.043  1.00  0.00    -0.203 F 
ATOM     65  C   UNL A   1      44.823  26.562  36.329  1.00  0.00     0.198 A 
ATOM     66  C   UNL A   1      46.320  28.159  35.345  1.00  0.00     0.198 A 
ATOM     67  F   UNL A   1      45.465  29.982  34.130  1.00  0.00    -0.203 F 
ATOM     68  F   UNL A   1      44.622  25.459  37.063  1.00  0.00    -0.200 F 
ATOM     69  C   UNL A   1      46.114  27.004  36.084  1.00  0.00     0.200 A 
ATOM     70  F   UNL A   1      47.568  28.577  35.088  1.00  0.00    -0.200 F 
ATOM     71  F   UNL A   1      47.162  26.315  36.556  1.00  0.00    -0.200 F 
ENDBRANCH  38  61
ENDBRANCH  12  13
ENDBRANCH   5   7
ENDBRANCH   2   3
ENDBRANCH   1   2
BRANCH   1  72
ATOM     72  C   UNL A   1      34.866  29.535  27.319  1.00  0.00     0.023 C 
BRANCH  72  73
ATOM     73  C   UNL A   1      33.996  28.549  26.541  1.00  0.00     0.116 C 
BRANCH  73  74
ATOM     74  N   UNL A   1      32.815  27.999  27.197  1.00  0.00    -0.355 N 
ATOM     75  C   UNL A   1      31.664  27.545  26.562  1.00  0.00     0.238 C 
ATOM     76  H   UNL A   1      32.833  27.945  28.179  1.00  0.00     0.163 HD
ATOM     77  O   UNL A   1      30.696  27.172  27.222  1.00  0.00    -0.273 OA
BRANCH  75  78
ATOM     78  C   UNL A   1      31.670  27.577  25.045  1.00  0.00     0.162 C 
ATOM     79  C   UNL A   1      30.379  27.754  24.261  1.00  0.00     0.032 C 
ATOM     80  N   UNL A   1      32.326  26.437  24.344  1.00  0.00    -0.185 NA
ATOM     81  C   UNL A   1      30.884  27.617  22.819  1.00  0.00     0.019 C 
ATOM     82  C   UNL A   1      32.172  26.786  22.903  1.00  0.00     0.103 C 
BRANCH  80  83
ATOM     83  S   UNL A   1      31.923  24.821  24.730  1.00  0.00     0.244 S 
ATOM     84  O   UNL A   1      31.317  24.814  26.043  1.00  0.00    -0.207 OA
ATOM     85  O   UNL A   1      31.191  24.299  23.593  1.00  0.00    -0.207 OA
BRANCH  83  86
ATOM     86  C   UNL A   1      33.445  23.902  24.832  1.00  0.00     0.090 A 
ATOM     87  C   UNL A   1      34.684  24.617  25.104  1.00  0.00     0.024 A 
ATOM     88  C   UNL A   1      33.433  22.500  24.677  1.00  0.00     0.005 A 
ATOM     89  C   UNL A   1      36.028  24.077  25.189  1.00  0.00     0.028 A 
ATOM     90  C   UNL A   1      35.058  21.957  24.942  1.00  0.00     0.019 A 
ATOM     91  C   UNL A   1      32.182  21.224  24.360  1.00  0.00     0.010 A 
ATOM     92  C   UNL A   1      36.169  22.707  25.103  1.00  0.00     0.050 A 
ATOM     93  C   UNL A   1      35.576  20.298  24.860  1.00  0.00     0.050 A 
ATOM     94  C   UNL A   1      32.682  19.484  24.294  1.00  0.00     0.002 A 
ATOM     95  N   UNL A   1      37.267  21.820  25.119  1.00  0.00    -0.321 N 
ATOM     96  C   UNL A   1      34.403  18.968  24.626  1.00  0.00     0.014 A 
ATOM     97  C   UNL A   1      37.015  20.403  25.000  1.00  0.00     0.256 C 
ATOM     98  H   UNL A   1      38.186  22.161  25.208  1.00  0.00     0.170 HD
ATOM     99  O   UNL A   1      37.892  19.550  25.002  1.00  0.00    -0.269 OA
ENDBRANCH  83  86
ENDBRANCH  80  83
ENDBRANCH  75  78
ENDBRANCH  73  74
ENDBRANCH  72  73
ENDBRANCH   1  72
TORSDOF 13
ENDMDL
