MODEL 1
REMARK VINA RESULT:     -11.6      0.000      0.000
REMARK SMILES CCC(CC)(NC(=O)NCCc1nccs1)C(=O)NCCCCNC(=O)c1ccc(-c2c3nc(c(-c4c(F)c(F)c(F)c(F)c4F)c4ccc([nH]4)c(-c4c(F)c(F)c(F)c(F)c4F)c4nc(c(-c5c(F)c(F)c(F)c(F)c5F)c5ccc2[nH]5)C=C4)C=C3)cc1
REMARK SMILES IDX 20 1 19 2 17 3 18 4 3 6 2 7 1 8 4 9 5 10 6 11 7 12 8 14 9 15
REMARK SMILES IDX 10 17 11 18 12 19 13 20 16 21 14 22 15 23 21 24 22 25 23 26
REMARK SMILES IDX 24 27 25 28 26 30 27 31 28 32 89 33 29 34 88 35 30 36 31 37
REMARK SMILES IDX 32 38 82 39 33 40 87 41 81 42 83 43 34 44 86 45 80 46 79 47
REMARK SMILES IDX 35 49 67 50 47 51 66 52 48 53 51 54 65 55 84 56 49 57 50 58
REMARK SMILES IDX 64 60 85 61 52 62 36 63 37 64 45 65 38 66 39 67 43 68 46 69
REMARK SMILES IDX 40 70 41 71 44 72 42 73 68 74 69 75 77 76 70 77 71 78 75 79
REMARK SMILES IDX 78 80 72 81 73 82 76 83 74 84 53 85 54 86 62 87 55 88 56 89
REMARK SMILES IDX 60 90 63 91 57 92 58 93 61 94 59 95
REMARK H PARENT 19 5 6 13 9 16 24 29 83 48 51 59
REMARK Flexibility Score: inf
ROOT
ATOM      1  C   UNL A   1      32.652  30.119  26.208  1.00  0.00     0.116 C 
ENDROOT
BRANCH   1   2
ATOM      2  N   UNL A   1      33.440  29.703  25.050  1.00  0.00    -0.354 N 
ATOM      3  C   UNL A   1      33.527  28.528  24.338  1.00  0.00     0.245 C 
ATOM      4  O   UNL A   1      34.135  28.591  23.263  1.00  0.00    -0.272 OA
ATOM      5  H   UNL A   1      34.033  30.411  24.707  1.00  0.00     0.163 HD
BRANCH   3   6
ATOM      6  C   UNL A   1      32.794  27.232  24.785  1.00  0.00     0.120 C 
BRANCH   6   7
ATOM      7  C   UNL A   1      31.425  27.389  25.509  1.00  0.00     0.035 C 
ATOM      8  C   UNL A   1      30.677  26.121  25.903  1.00  0.00     0.007 C 
ENDBRANCH   6   7
BRANCH   6   9
ATOM      9  C   UNL A   1      33.810  26.547  25.771  1.00  0.00     0.035 C 
ATOM     10  C   UNL A   1      34.322  25.164  25.397  1.00  0.00     0.007 C 
ENDBRANCH   6   9
BRANCH   6  11
ATOM     11  N   UNL A   1      32.564  26.430  23.566  1.00  0.00    -0.324 N 
ATOM     12  C   UNL A   1      31.826  26.560  22.455  1.00  0.00     0.315 C 
ATOM     13  H   UNL A   1      33.083  25.593  23.570  1.00  0.00     0.166 HD
ATOM     14  O   UNL A   1      31.818  25.584  21.696  1.00  0.00    -0.249 OA
ATOM     15  N   UNL A   1      31.187  27.658  22.039  1.00  0.00    -0.338 N 
ATOM     16  H   UNL A   1      31.068  27.645  21.062  1.00  0.00     0.165 HD
BRANCH  15  17
ATOM     17  C   UNL A   1      30.615  28.872  22.619  1.00  0.00     0.125 C 
BRANCH  17  18
ATOM     18  C   UNL A   1      29.094  29.023  22.567  1.00  0.00     0.089 C 
BRANCH  18  19
ATOM     19  C   UNL A   1      28.561  30.303  21.998  1.00  0.00     0.094 A 
ATOM     20  N   UNL A   1      28.105  30.481  20.775  1.00  0.00    -0.250 NA
ATOM     21  S   UNL A   1      28.699  31.742  22.946  1.00  0.00    -0.127 S 
ATOM     22  C   UNL A   1      27.871  31.828  20.558  1.00  0.00     0.123 A 
ATOM     23  C   UNL A   1      28.139  32.664  21.619  1.00  0.00     0.087 A 
ENDBRANCH  18  19
ENDBRANCH  17  18
ENDBRANCH  15  17
ENDBRANCH   6  11
ENDBRANCH   3   6
ENDBRANCH   1   2
BRANCH   1  24
ATOM     24  C   UNL A   1      31.365  30.905  25.951  1.00  0.00     0.023 C 
BRANCH  24  25
ATOM     25  C   UNL A   1      31.255  32.300  26.548  1.00  0.00     0.023 C 
BRANCH  25  26
ATOM     26  C   UNL A   1      32.547  32.896  27.076  1.00  0.00     0.116 C 
BRANCH  26  27
ATOM     27  N   UNL A   1      32.369  34.246  27.581  1.00  0.00    -0.352 N 
ATOM     28  C   UNL A   1      33.001  34.884  28.618  1.00  0.00     0.251 C 
ATOM     29  H   UNL A   1      31.693  34.784  27.111  1.00  0.00     0.163 HD
ATOM     30  O   UNL A   1      32.600  35.982  28.992  1.00  0.00    -0.269 OA
BRANCH  28  31
ATOM     31  C   UNL A   1      34.152  34.255  29.304  1.00  0.00     0.039 A 
ATOM     32  C   UNL A   1      35.441  34.562  28.856  1.00  0.00     0.014 A 
ATOM     33  C   UNL A   1      33.977  33.337  30.343  1.00  0.00     0.014 A 
ATOM     34  C   UNL A   1      36.551  33.980  29.471  1.00  0.00     0.010 A 
ATOM     35  C   UNL A   1      35.085  32.805  30.999  1.00  0.00     0.010 A 
ATOM     36  C   UNL A   1      36.382  33.111  30.560  1.00  0.00    -0.014 A 
BRANCH  36  37
ATOM     37  C   UNL A   1      37.552  32.491  31.230  1.00  0.00     0.031 A 
ATOM     38  C   UNL A   1      38.306  31.379  30.555  1.00  0.00     0.074 A 
ATOM     39  C   UNL A   1      37.909  32.898  32.463  1.00  0.00     0.049 A 
ATOM     40  N   UNL A   1      39.318  30.676  30.999  1.00  0.00    -0.248 NA
ATOM     41  C   UNL A   1      37.846  30.990  29.213  1.00  0.00     0.031 C 
ATOM     42  C   UNL A   1      37.235  33.943  33.235  1.00  0.00     0.029 A 
ATOM     43  N   UNL A   1      38.922  32.476  33.285  1.00  0.00    -0.354 N 
ATOM     44  C   UNL A   1      39.606  29.758  29.999  1.00  0.00     0.074 A 
ATOM     45  C   UNL A   1      38.634  29.958  28.946  1.00  0.00     0.031 C 
ATOM     46  C   UNL A   1      37.864  34.091  34.412  1.00  0.00     0.029 A 
ATOM     47  C   UNL A   1      38.963  33.132  34.491  1.00  0.00     0.049 A 
ATOM     48  H   UNL A   1      39.560  31.769  33.034  1.00  0.00     0.167 HD
ATOM     49  C   UNL A   1      40.605  28.845  29.951  1.00  0.00     0.037 A 
ATOM     50  C   UNL A   1      39.790  32.974  35.541  1.00  0.00     0.037 A 
ATOM     51  C   UNL A   1      41.587  28.663  30.988  1.00  0.00     0.049 A 
ATOM     52  C   UNL A   1      40.892  31.954  35.464  1.00  0.00     0.074 A 
ATOM     53  C   UNL A   1      42.669  27.798  31.011  1.00  0.00     0.029 A 
ATOM     54  N   UNL A   1      41.606  29.360  32.186  1.00  0.00    -0.354 N 
ATOM     55  N   UNL A   1      41.191  31.130  34.489  1.00  0.00    -0.248 NA
ATOM     56  C   UNL A   1      41.779  31.846  36.631  1.00  0.00     0.031 C 
ATOM     57  C   UNL A   1      43.320  27.945  32.241  1.00  0.00     0.029 A 
ATOM     58  C   UNL A   1      42.670  28.932  32.965  1.00  0.00     0.049 A 
ATOM     59  H   UNL A   1      40.960  30.055  32.446  1.00  0.00     0.167 HD
ATOM     60  C   UNL A   1      42.310  30.425  34.913  1.00  0.00     0.074 A 
ATOM     61  C   UNL A   1      42.646  30.929  36.227  1.00  0.00     0.031 C 
ATOM     62  C   UNL A   1      42.995  29.448  34.270  1.00  0.00     0.037 A 
BRANCH  49  63
ATOM     63  C   UNL A   1      40.689  27.972  28.733  1.00  0.00     0.064 A 
ATOM     64  C   UNL A   1      39.982  26.763  28.647  1.00  0.00     0.173 A 
ATOM     65  C   UNL A   1      41.459  28.363  27.627  1.00  0.00     0.173 A 
ATOM     66  F   UNL A   1      39.241  26.338  29.682  1.00  0.00    -0.203 F 
ATOM     67  C   UNL A   1      40.064  25.964  27.509  1.00  0.00     0.198 A 
ATOM     68  C   UNL A   1      41.516  27.575  26.480  1.00  0.00     0.198 A 
ATOM     69  F   UNL A   1      42.150  29.512  27.655  1.00  0.00    -0.203 F 
ATOM     70  F   UNL A   1      39.418  24.791  27.467  1.00  0.00    -0.200 F 
ATOM     71  C   UNL A   1      40.825  26.374  26.424  1.00  0.00     0.200 A 
ATOM     72  F   UNL A   1      42.242  27.978  25.428  1.00  0.00    -0.200 F 
ATOM     73  F   UNL A   1      40.899  25.607  25.328  1.00  0.00    -0.200 F 
ENDBRANCH  49  63
BRANCH  50  74
ATOM     74  C   UNL A   1      39.618  33.821  36.749  1.00  0.00     0.064 A 
ATOM     75  C   UNL A   1      40.224  35.082  36.837  1.00  0.00     0.173 A 
ATOM     76  C   UNL A   1      38.842  33.391  37.835  1.00  0.00     0.173 A 
ATOM     77  F   UNL A   1      40.990  35.527  35.831  1.00  0.00    -0.203 F 
ATOM     78  C   UNL A   1      40.075  35.874  37.973  1.00  0.00     0.198 A 
ATOM     79  C   UNL A   1      38.674  34.194  38.961  1.00  0.00     0.198 A 
ATOM     80  F   UNL A   1      38.236  32.195  37.796  1.00  0.00    -0.203 F 
ATOM     81  F   UNL A   1      40.697  37.058  38.048  1.00  0.00    -0.200 F 
ATOM     82  C   UNL A   1      39.295  35.432  39.032  1.00  0.00     0.200 A 
ATOM     83  F   UNL A   1      37.908  33.769  39.975  1.00  0.00    -0.200 F 
ATOM     84  F   UNL A   1      39.148  36.195  40.123  1.00  0.00    -0.200 F 
ENDBRANCH  50  74
BRANCH  62  85
ATOM     85  C   UNL A   1      44.194  28.878  34.968  1.00  0.00     0.064 A 
ATOM     86  C   UNL A   1      44.095  27.748  35.793  1.00  0.00     0.173 A 
ATOM     87  C   UNL A   1      45.463  29.443  34.776  1.00  0.00     0.173 A 
ATOM     88  F   UNL A   1      42.901  27.181  36.020  1.00  0.00    -0.203 F 
ATOM     89  C   UNL A   1      45.221  27.219  36.419  1.00  0.00     0.198 A 
ATOM     90  C   UNL A   1      46.591  28.897  35.382  1.00  0.00     0.198 A 
ATOM     91  F   UNL A   1      45.612  30.521  33.991  1.00  0.00    -0.203 F 
ATOM     92  F   UNL A   1      45.097  26.165  37.237  1.00  0.00    -0.200 F 
ATOM     93  C   UNL A   1      46.467  27.789  36.208  1.00  0.00     0.200 A 
ATOM     94  F   UNL A   1      47.796  29.441  35.167  1.00  0.00    -0.200 F 
ATOM     95  F   UNL A   1      47.551  27.274  36.806  1.00  0.00    -0.200 F 
ENDBRANCH  62  85
ENDBRANCH  36  37
ENDBRANCH  28  31
ENDBRANCH  26  27
ENDBRANCH  25  26
ENDBRANCH  24  25
ENDBRANCH   1  24
TORSDOF 17
ENDMDL
MODEL 2
REMARK VINA RESULT:     -11.3      0.701      7.519
REMARK SMILES CCC(CC)(NC(=O)NCCc1nccs1)C(=O)NCCCCNC(=O)c1ccc(-c2c3nc(c(-c4c(F)c(F)c(F)c(F)c4F)c4ccc([nH]4)c(-c4c(F)c(F)c(F)c(F)c4F)c4nc(c(-c5c(F)c(F)c(F)c(F)c5F)c5ccc2[nH]5)C=C4)C=C3)cc1
REMARK SMILES IDX 20 1 19 2 17 3 18 4 3 6 2 7 1 8 4 9 5 10 6 11 7 12 8 14 9 15
REMARK SMILES IDX 10 17 11 18 12 19 13 20 16 21 14 22 15 23 21 24 22 25 23 26
REMARK SMILES IDX 24 27 25 28 26 30 27 31 28 32 89 33 29 34 88 35 30 36 31 37
REMARK SMILES IDX 32 38 82 39 33 40 87 41 81 42 83 43 34 44 86 45 80 46 79 47
REMARK SMILES IDX 35 49 67 50 47 51 66 52 48 53 51 54 65 55 84 56 49 57 50 58
REMARK SMILES IDX 64 60 85 61 52 62 36 63 37 64 45 65 38 66 39 67 43 68 46 69
REMARK SMILES IDX 40 70 41 71 44 72 42 73 68 74 69 75 77 76 70 77 71 78 75 79
REMARK SMILES IDX 78 80 72 81 73 82 76 83 74 84 53 85 54 86 62 87 55 88 56 89
REMARK SMILES IDX 60 90 63 91 57 92 58 93 61 94 59 95
REMARK H PARENT 19 5 6 13 9 16 24 29 83 48 51 59
REMARK Flexibility Score: inf
ROOT
ATOM      1  C   UNL A   1      32.660  30.049  26.232  1.00  0.00     0.116 C 
ENDROOT
BRANCH   1   2
ATOM      2  N   UNL A   1      33.414  29.662  25.043  1.00  0.00    -0.354 N 
ATOM      3  C   UNL A   1      33.480  28.504  24.301  1.00  0.00     0.245 C 
ATOM      4  O   UNL A   1      34.056  28.592  23.210  1.00  0.00    -0.272 OA
ATOM      5  H   UNL A   1      33.996  30.378  24.699  1.00  0.00     0.163 HD
BRANCH   3   6
ATOM      6  C   UNL A   1      32.761  27.197  24.738  1.00  0.00     0.120 C 
BRANCH   6   7
ATOM      7  C   UNL A   1      31.396  27.334  25.473  1.00  0.00     0.035 C 
ATOM      8  C   UNL A   1      30.615  26.060  25.772  1.00  0.00     0.007 C 
ENDBRANCH   6   7
BRANCH   6   9
ATOM      9  C   UNL A   1      33.789  26.510  25.710  1.00  0.00     0.035 C 
ATOM     10  C   UNL A   1      34.227  25.091  25.375  1.00  0.00     0.007 C 
ENDBRANCH   6   9
BRANCH   6  11
ATOM     11  N   UNL A   1      32.530  26.406  23.512  1.00  0.00    -0.324 N 
ATOM     12  C   UNL A   1      31.768  26.531  22.417  1.00  0.00     0.315 C 
ATOM     13  H   UNL A   1      33.070  25.583  23.495  1.00  0.00     0.166 HD
ATOM     14  O   UNL A   1      31.771  25.566  21.644  1.00  0.00    -0.249 OA
ATOM     15  N   UNL A   1      31.092  27.618  22.029  1.00  0.00    -0.338 N 
ATOM     16  H   UNL A   1      30.955  27.616  21.054  1.00  0.00     0.165 HD
BRANCH  15  17
ATOM     17  C   UNL A   1      30.500  28.808  22.636  1.00  0.00     0.125 C 
BRANCH  17  18
ATOM     18  C   UNL A   1      29.002  29.032  22.420  1.00  0.00     0.089 C 
BRANCH  18  19
ATOM     19  C   UNL A   1      28.571  30.423  22.065  1.00  0.00     0.094 A 
ATOM     20  N   UNL A   1      28.167  30.835  20.881  1.00  0.00    -0.250 NA
ATOM     21  S   UNL A   1      28.774  31.671  23.245  1.00  0.00    -0.127 S 
ATOM     22  C   UNL A   1      28.028  32.212  20.890  1.00  0.00     0.123 A 
ATOM     23  C   UNL A   1      28.316  32.838  22.082  1.00  0.00     0.087 A 
ENDBRANCH  18  19
ENDBRANCH  17  18
ENDBRANCH  15  17
ENDBRANCH   6  11
ENDBRANCH   3   6
ENDBRANCH   1   2
BRANCH   1  24
ATOM     24  C   UNL A   1      31.406  30.903  26.036  1.00  0.00     0.023 C 
BRANCH  24  25
ATOM     25  C   UNL A   1      31.392  32.294  26.653  1.00  0.00     0.023 C 
BRANCH  25  26
ATOM     26  C   UNL A   1      32.739  32.832  27.101  1.00  0.00     0.116 C 
BRANCH  26  27
ATOM     27  N   UNL A   1      32.642  34.162  27.675  1.00  0.00    -0.352 N 
ATOM     28  C   UNL A   1      33.347  34.724  28.708  1.00  0.00     0.251 C 
ATOM     29  H   UNL A   1      31.968  34.748  27.261  1.00  0.00     0.163 HD
ATOM     30  O   UNL A   1      33.011  35.820  29.149  1.00  0.00    -0.269 OA
BRANCH  28  31
ATOM     31  C   UNL A   1      34.501  34.019  29.309  1.00  0.00     0.039 A 
ATOM     32  C   UNL A   1      34.249  33.003  30.237  1.00  0.00     0.014 A 
ATOM     33  C   UNL A   1      35.819  34.375  29.008  1.00  0.00     0.014 A 
ATOM     34  C   UNL A   1      35.312  32.322  30.832  1.00  0.00     0.010 A 
ATOM     35  C   UNL A   1      36.879  33.654  29.553  1.00  0.00     0.010 A 
ATOM     36  C   UNL A   1      36.636  32.630  30.482  1.00  0.00    -0.014 A 
BRANCH  36  37
ATOM     37  C   UNL A   1      37.776  31.910  31.100  1.00  0.00     0.031 A 
ATOM     38  C   UNL A   1      38.216  32.251  32.497  1.00  0.00     0.074 A 
ATOM     39  C   UNL A   1      38.443  30.981  30.390  1.00  0.00     0.049 A 
ATOM     40  N   UNL A   1      39.219  31.773  33.189  1.00  0.00    -0.248 NA
ATOM     41  C   UNL A   1      37.437  33.282  33.200  1.00  0.00     0.031 C 
ATOM     42  C   UNL A   1      38.134  30.587  29.014  1.00  0.00     0.029 A 
ATOM     43  N   UNL A   1      39.524  30.205  30.725  1.00  0.00    -0.354 N 
ATOM     44  C   UNL A   1      39.199  32.453  34.399  1.00  0.00     0.074 A 
ATOM     45  C   UNL A   1      38.116  33.410  34.331  1.00  0.00     0.031 C 
ATOM     46  C   UNL A   1      38.996  29.632  28.629  1.00  0.00     0.029 A 
ATOM     47  C   UNL A   1      39.935  29.369  29.716  1.00  0.00     0.049 A 
ATOM     48  H   UNL A   1      39.962  30.244  31.606  1.00  0.00     0.167 HD
ATOM     49  C   UNL A   1      39.998  32.279  35.479  1.00  0.00     0.037 A 
ATOM     50  C   UNL A   1      40.957  28.494  29.673  1.00  0.00     0.037 A 
ATOM     51  C   UNL A   1      41.060  31.310  35.556  1.00  0.00     0.049 A 
ATOM     52  C   UNL A   1      41.829  28.319  30.886  1.00  0.00     0.074 A 
ATOM     53  C   UNL A   1      41.892  31.023  36.625  1.00  0.00     0.029 A 
ATOM     54  N   UNL A   1      41.434  30.468  34.520  1.00  0.00    -0.354 N 
ATOM     55  N   UNL A   1      41.765  28.926  32.046  1.00  0.00    -0.248 NA
ATOM     56  C   UNL A   1      42.912  27.330  30.787  1.00  0.00     0.031 C 
ATOM     57  C   UNL A   1      42.796  30.034  36.221  1.00  0.00     0.029 A 
ATOM     58  C   UNL A   1      42.499  29.674  34.917  1.00  0.00     0.049 A 
ATOM     59  H   UNL A   1      41.008  30.439  33.633  1.00  0.00     0.167 HD
ATOM     60  C   UNL A   1      42.779  28.379  32.821  1.00  0.00     0.074 A 
ATOM     61  C   UNL A   1      43.435  27.380  32.004  1.00  0.00     0.031 C 
ATOM     62  C   UNL A   1      43.136  28.679  34.093  1.00  0.00     0.037 A 
BRANCH  49  63
ATOM     63  C   UNL A   1      39.750  33.156  36.672  1.00  0.00     0.064 A 
ATOM     64  C   UNL A   1      40.444  34.364  36.851  1.00  0.00     0.173 A 
ATOM     65  C   UNL A   1      38.788  32.804  37.630  1.00  0.00     0.173 A 
ATOM     66  F   UNL A   1      41.383  34.740  35.970  1.00  0.00    -0.203 F 
ATOM     67  C   UNL A   1      40.202  35.171  37.960  1.00  0.00     0.198 A 
ATOM     68  C   UNL A   1      38.528  33.629  38.722  1.00  0.00     0.198 A 
ATOM     69  F   UNL A   1      38.093  31.664  37.503  1.00  0.00    -0.203 F 
ATOM     70  F   UNL A   1      40.908  36.296  38.134  1.00  0.00    -0.200 F 
ATOM     71  C   UNL A   1      39.240  34.807  38.889  1.00  0.00     0.200 A 
ATOM     72  F   UNL A   1      37.590  33.280  39.613  1.00  0.00    -0.200 F 
ATOM     73  F   UNL A   1      39.004  35.588  39.953  1.00  0.00    -0.200 F 
ENDBRANCH  49  63
BRANCH  50  74
ATOM     74  C   UNL A   1      41.196  27.700  28.441  1.00  0.00     0.064 A 
ATOM     75  C   UNL A   1      40.504  26.503  28.210  1.00  0.00     0.173 A 
ATOM     76  C   UNL A   1      42.115  28.123  27.470  1.00  0.00     0.173 A 
ATOM     77  F   UNL A   1      39.630  26.050  29.120  1.00  0.00    -0.203 F 
ATOM     78  C   UNL A   1      40.735  25.749  27.061  1.00  0.00     0.198 A 
ATOM     79  C   UNL A   1      42.327  27.380  26.310  1.00  0.00     0.198 A 
ATOM     80  F   UNL A   1      42.797  29.264  27.641  1.00  0.00    -0.203 F 
ATOM     81  F   UNL A   1      40.089  24.589  26.884  1.00  0.00    -0.200 F 
ATOM     82  C   UNL A   1      41.642  26.191  26.109  1.00  0.00     0.200 A 
ATOM     83  F   UNL A   1      43.193  27.818  25.386  1.00  0.00    -0.200 F 
ATOM     84  F   UNL A   1      41.860  25.469  25.003  1.00  0.00    -0.200 F 
ENDBRANCH  50  74
BRANCH  62  85
ATOM     85  C   UNL A   1      44.268  27.899  34.691  1.00  0.00     0.064 A 
ATOM     86  C   UNL A   1      45.591  28.362  34.633  1.00  0.00     0.173 A 
ATOM     87  C   UNL A   1      44.022  26.694  35.367  1.00  0.00     0.173 A 
ATOM     88  F   UNL A   1      45.879  29.501  33.986  1.00  0.00    -0.203 F 
ATOM     89  C   UNL A   1      46.629  27.635  35.210  1.00  0.00     0.198 A 
ATOM     90  C   UNL A   1      45.058  25.983  35.966  1.00  0.00     0.198 A 
ATOM     91  F   UNL A   1      42.774  26.211  35.456  1.00  0.00    -0.203 F 
ATOM     92  F   UNL A   1      47.890  28.074  35.105  1.00  0.00    -0.200 F 
ATOM     93  C   UNL A   1      46.361  26.451  35.881  1.00  0.00     0.200 A 
ATOM     94  F   UNL A   1      44.796  24.845  36.624  1.00  0.00    -0.200 F 
ATOM     95  F   UNL A   1      47.362  25.756  36.441  1.00  0.00    -0.200 F 
ENDBRANCH  62  85
ENDBRANCH  36  37
ENDBRANCH  28  31
ENDBRANCH  26  27
ENDBRANCH  25  26
ENDBRANCH  24  25
ENDBRANCH   1  24
TORSDOF 17
ENDMDL
MODEL 3
REMARK VINA RESULT:     -11.2      6.236     11.587
REMARK SMILES CCC(CC)(NC(=O)NCCc1nccs1)C(=O)NCCCCNC(=O)c1ccc(-c2c3nc(c(-c4c(F)c(F)c(F)c(F)c4F)c4ccc([nH]4)c(-c4c(F)c(F)c(F)c(F)c4F)c4nc(c(-c5c(F)c(F)c(F)c(F)c5F)c5ccc2[nH]5)C=C4)C=C3)cc1
REMARK SMILES IDX 20 1 19 2 17 3 18 4 3 6 2 7 1 8 4 9 5 10 6 11 7 12 8 14 9 15
REMARK SMILES IDX 10 17 11 18 12 19 13 20 16 21 14 22 15 23 21 24 22 25 23 26
REMARK SMILES IDX 24 27 25 28 26 30 27 31 28 32 89 33 29 34 88 35 30 36 31 37
REMARK SMILES IDX 32 38 82 39 33 40 87 41 81 42 83 43 34 44 86 45 80 46 79 47
REMARK SMILES IDX 35 49 67 50 47 51 66 52 48 53 51 54 65 55 84 56 49 57 50 58
REMARK SMILES IDX 64 60 85 61 52 62 36 63 37 64 45 65 38 66 39 67 43 68 46 69
REMARK SMILES IDX 40 70 41 71 44 72 42 73 68 74 69 75 77 76 70 77 71 78 75 79
REMARK SMILES IDX 78 80 72 81 73 82 76 83 74 84 53 85 54 86 62 87 55 88 56 89
REMARK SMILES IDX 60 90 63 91 57 92 58 93 61 94 59 95
REMARK H PARENT 19 5 6 13 9 16 24 29 83 48 51 59
REMARK Flexibility Score: inf
ROOT
ATOM      1  C   UNL A   1      36.733  21.583  25.378  1.00  0.00     0.116 C 
ENDROOT
BRANCH   1   2
ATOM      2  N   UNL A   1      35.909  22.002  26.509  1.00  0.00    -0.354 N 
ATOM      3  C   UNL A   1      34.740  22.721  26.611  1.00  0.00     0.245 C 
ATOM      4  O   UNL A   1      34.186  22.701  27.716  1.00  0.00    -0.272 OA
ATOM      5  H   UNL A   1      36.263  21.709  27.380  1.00  0.00     0.163 HD
BRANCH   3   6
ATOM      6  C   UNL A   1      34.079  23.408  25.383  1.00  0.00     0.120 C 
BRANCH   6   7
ATOM      7  C   UNL A   1      34.336  22.782  23.981  1.00  0.00     0.035 C 
ATOM      8  C   UNL A   1      35.171  23.579  22.986  1.00  0.00     0.007 C 
ENDBRANCH   6   7
BRANCH   6   9
ATOM      9  C   UNL A   1      34.673  24.864  25.401  1.00  0.00     0.035 C 
ATOM     10  C   UNL A   1      33.719  26.004  25.726  1.00  0.00     0.007 C 
ENDBRANCH   6   9
BRANCH   6  11
ATOM     11  N   UNL A   1      32.621  23.391  25.617  1.00  0.00    -0.324 N 
ATOM     12  C   UNL A   1      31.670  22.449  25.698  1.00  0.00     0.315 C 
ATOM     13  H   UNL A   1      32.256  24.296  25.748  1.00  0.00     0.166 HD
ATOM     14  O   UNL A   1      30.509  22.862  25.796  1.00  0.00    -0.249 OA
ATOM     15  N   UNL A   1      31.855  21.127  25.783  1.00  0.00    -0.338 N 
ATOM     16  H   UNL A   1      31.088  20.694  26.223  1.00  0.00     0.165 HD
BRANCH  15  17
ATOM     17  C   UNL A   1      32.868  20.142  25.411  1.00  0.00     0.125 C 
BRANCH  17  18
ATOM     18  C   UNL A   1      32.500  19.138  24.318  1.00  0.00     0.089 C 
BRANCH  18  19
ATOM     19  C   UNL A   1      32.686  17.687  24.643  1.00  0.00     0.094 A 
ATOM     20  N   UNL A   1      32.052  17.011  25.580  1.00  0.00    -0.250 NA
ATOM     21  S   UNL A   1      33.963  16.826  23.856  1.00  0.00    -0.127 S 
ATOM     22  C   UNL A   1      32.613  15.752  25.706  1.00  0.00     0.123 A 
ATOM     23  C   UNL A   1      33.662  15.474  24.858  1.00  0.00     0.087 A 
ENDBRANCH  18  19
ENDBRANCH  17  18
ENDBRANCH  15  17
ENDBRANCH   6  11
ENDBRANCH   3   6
ENDBRANCH   1   2
BRANCH   1  24
ATOM     24  C   UNL A   1      36.699  20.106  24.978  1.00  0.00     0.023 C 
BRANCH  24  25
ATOM     25  C   UNL A   1      38.024  19.363  24.898  1.00  0.00     0.023 C 
BRANCH  25  26
ATOM     26  C   UNL A   1      39.155  19.934  25.734  1.00  0.00     0.116 C 
BRANCH  26  27
ATOM     27  N   UNL A   1      40.259  19.004  25.883  1.00  0.00    -0.352 N 
ATOM     28  C   UNL A   1      41.591  19.252  26.099  1.00  0.00     0.251 C 
ATOM     29  H   UNL A   1      40.017  18.052  25.818  1.00  0.00     0.163 HD
ATOM     30  O   UNL A   1      42.399  18.329  26.043  1.00  0.00    -0.269 OA
BRANCH  28  31
ATOM     31  C   UNL A   1      42.069  20.623  26.383  1.00  0.00     0.039 A 
ATOM     32  C   UNL A   1      42.271  20.995  27.716  1.00  0.00     0.014 A 
ATOM     33  C   UNL A   1      42.272  21.557  25.362  1.00  0.00     0.014 A 
ATOM     34  C   UNL A   1      42.711  22.283  28.023  1.00  0.00     0.010 A 
ATOM     35  C   UNL A   1      42.772  22.822  25.662  1.00  0.00     0.010 A 
ATOM     36  C   UNL A   1      42.982  23.202  26.997  1.00  0.00    -0.014 A 
BRANCH  36  37
ATOM     37  C   UNL A   1      43.458  24.573  27.307  1.00  0.00     0.031 A 
ATOM     38  C   UNL A   1      42.503  25.597  27.854  1.00  0.00     0.074 A 
ATOM     39  C   UNL A   1      44.737  24.908  27.055  1.00  0.00     0.049 A 
ATOM     40  N   UNL A   1      42.714  26.858  28.137  1.00  0.00    -0.248 NA
ATOM     41  C   UNL A   1      41.123  25.150  28.093  1.00  0.00     0.031 C 
ATOM     42  C   UNL A   1      45.750  24.014  26.492  1.00  0.00     0.029 A 
ATOM     43  N   UNL A   1      45.402  26.095  27.232  1.00  0.00    -0.354 N 
ATOM     44  C   UNL A   1      41.494  27.355  28.574  1.00  0.00     0.074 A 
ATOM     45  C   UNL A   1      40.536  26.276  28.474  1.00  0.00     0.031 C 
ATOM     46  C   UNL A   1      46.911  24.679  26.386  1.00  0.00     0.029 A 
ATOM     47  C   UNL A   1      46.717  26.053  26.842  1.00  0.00     0.049 A 
ATOM     48  H   UNL A   1      44.975  26.901  27.604  1.00  0.00     0.167 HD
ATOM     49  C   UNL A   1      41.204  28.594  29.038  1.00  0.00     0.037 A 
ATOM     50  C   UNL A   1      47.658  27.016  26.847  1.00  0.00     0.037 A 
ATOM     51  C   UNL A   1      42.163  29.660  29.160  1.00  0.00     0.049 A 
ATOM     52  C   UNL A   1      47.311  28.383  27.369  1.00  0.00     0.074 A 
ATOM     53  C   UNL A   1      41.977  30.936  29.667  1.00  0.00     0.029 A 
ATOM     54  N   UNL A   1      43.491  29.573  28.772  1.00  0.00    -0.354 N 
ATOM     55  N   UNL A   1      46.168  28.826  27.833  1.00  0.00    -0.248 NA
ATOM     56  C   UNL A   1      48.387  29.384  27.374  1.00  0.00     0.031 C 
ATOM     57  C   UNL A   1      43.184  31.633  29.548  1.00  0.00     0.029 A 
ATOM     58  C   UNL A   1      44.133  30.779  29.009  1.00  0.00     0.049 A 
ATOM     59  H   UNL A   1      43.915  28.774  28.384  1.00  0.00     0.167 HD
ATOM     60  C   UNL A   1      46.392  30.144  28.207  1.00  0.00     0.074 A 
ATOM     61  C   UNL A   1      47.785  30.425  27.929  1.00  0.00     0.031 C 
ATOM     62  C   UNL A   1      45.522  31.041  28.732  1.00  0.00     0.037 A 
BRANCH  49  63
ATOM     63  C   UNL A   1      39.786  28.863  29.454  1.00  0.00     0.064 A 
ATOM     64  C   UNL A   1      38.841  29.372  28.550  1.00  0.00     0.173 A 
ATOM     65  C   UNL A   1      39.360  28.580  30.760  1.00  0.00     0.173 A 
ATOM     66  F   UNL A   1      39.201  29.671  27.293  1.00  0.00    -0.203 F 
ATOM     67  C   UNL A   1      37.528  29.613  28.946  1.00  0.00     0.198 A 
ATOM     68  C   UNL A   1      38.039  28.796  31.144  1.00  0.00     0.198 A 
ATOM     69  F   UNL A   1      40.222  28.087  31.661  1.00  0.00    -0.203 F 
ATOM     70  F   UNL A   1      36.654  30.142  28.080  1.00  0.00    -0.200 F 
ATOM     71  C   UNL A   1      37.126  29.318  30.240  1.00  0.00     0.200 A 
ATOM     72  F   UNL A   1      37.649  28.499  32.393  1.00  0.00    -0.200 F 
ATOM     73  F   UNL A   1      35.861  29.545  30.619  1.00  0.00    -0.200 F 
ENDBRANCH  49  63
BRANCH  50  74
ATOM     74  C   UNL A   1      49.028  26.710  26.361  1.00  0.00     0.064 A 
ATOM     75  C   UNL A   1      49.997  26.180  27.223  1.00  0.00     0.173 A 
ATOM     76  C   UNL A   1      49.394  26.937  25.026  1.00  0.00     0.173 A 
ATOM     77  F   UNL A   1      49.699  25.965  28.513  1.00  0.00    -0.203 F 
ATOM     78  C   UNL A   1      51.287  25.904  26.774  1.00  0.00     0.198 A 
ATOM     79  C   UNL A   1      50.676  26.638  24.572  1.00  0.00     0.198 A 
ATOM     80  F   UNL A   1      48.501  27.437  24.160  1.00  0.00    -0.203 F 
ATOM     81  F   UNL A   1      52.206  25.436  27.629  1.00  0.00    -0.200 F 
ATOM     82  C   UNL A   1      51.624  26.128  25.447  1.00  0.00     0.200 A 
ATOM     83  F   UNL A   1      50.993  26.842  23.286  1.00  0.00    -0.200 F 
ATOM     84  F   UNL A   1      52.862  25.858  25.014  1.00  0.00    -0.200 F 
ENDBRANCH  50  74
BRANCH  62  85
ATOM     85  C   UNL A   1      46.056  32.402  29.066  1.00  0.00     0.064 A 
ATOM     86  C   UNL A   1      46.004  33.458  28.144  1.00  0.00     0.173 A 
ATOM     87  C   UNL A   1      46.588  32.663  30.338  1.00  0.00     0.173 A 
ATOM     88  F   UNL A   1      45.519  33.253  26.911  1.00  0.00    -0.203 F 
ATOM     89  C   UNL A   1      46.487  34.720  28.477  1.00  0.00     0.198 A 
ATOM     90  C   UNL A   1      47.045  33.934  30.676  1.00  0.00     0.198 A 
ATOM     91  F   UNL A   1      46.654  31.689  31.257  1.00  0.00    -0.203 F 
ATOM     92  F   UNL A   1      46.468  35.704  27.567  1.00  0.00    -0.200 F 
ATOM     93  C   UNL A   1      47.001  34.959  29.743  1.00  0.00     0.200 A 
ATOM     94  F   UNL A   1      47.530  34.166  31.904  1.00  0.00    -0.200 F 
ATOM     95  F   UNL A   1      47.459  36.178  30.063  1.00  0.00    -0.200 F 
ENDBRANCH  62  85
ENDBRANCH  36  37
ENDBRANCH  28  31
ENDBRANCH  26  27
ENDBRANCH  25  26
ENDBRANCH  24  25
ENDBRANCH   1  24
TORSDOF 17
ENDMDL
