MODEL 1
REMARK VINA RESULT:     -12.5      0.000      0.000
REMARK SMILES C/C(=C(\C#N)C(=O)NCCCCNC(=O)c1ccc(-c2c3nc(c(-c4c(F)c(F)c(F)c(F)c4F)c4ccc([nH]4)c(-c4c(F)c(F)c(F)c(F)c4F)c4nc(c(-c5c(F)c(F)c(F)c(F)c5F)c5ccc2[nH]5)C=C4)C=C3)cc1)c1cccc2ccccc12
REMARK SMILES IDX 11 1 10 2 9 3 8 4 6 5 7 6 3 8 1 9 2 10 79 11 80 12 88 13
REMARK SMILES IDX 81 14 83 15 87 16 82 17 84 18 86 19 85 20 4 21 5 22 12 23
REMARK SMILES IDX 13 24 14 25 15 27 16 28 17 29 78 30 18 31 77 32 19 33 20 34
REMARK SMILES IDX 21 35 71 36 22 37 76 38 70 39 72 40 23 41 75 42 69 43 68 44
REMARK SMILES IDX 24 46 56 47 36 48 55 49 37 50 40 51 54 52 73 53 38 54 39 55
REMARK SMILES IDX 53 57 74 58 41 59 25 60 26 61 34 62 27 63 28 64 32 65 35 66
REMARK SMILES IDX 29 67 30 68 33 69 31 70 57 71 58 72 66 73 59 74 60 75 64 76
REMARK SMILES IDX 67 77 61 78 62 79 65 80 63 81 42 82 43 83 51 84 44 85 45 86
REMARK SMILES IDX 49 87 52 88 46 89 47 90 50 91 48 92
REMARK H PARENT 8 7 13 26 72 45 40 56
REMARK Flexibility Score: inf
ROOT
ATOM      1  C   UNL A   1      31.373  31.941  26.890  1.00  0.00     0.023 C 
ENDROOT
BRANCH   1   2
ATOM      2  C   UNL A   1      31.485  30.933  25.745  1.00  0.00     0.023 C 
BRANCH   2   3
ATOM      3  C   UNL A   1      32.678  29.986  25.828  1.00  0.00     0.116 C 
BRANCH   3   4
ATOM      4  N   UNL A   1      33.116  29.495  24.531  1.00  0.00    -0.351 N 
ATOM      5  C   UNL A   1      32.496  29.089  23.385  1.00  0.00     0.262 C 
ATOM      6  O   UNL A   1      33.241  29.086  22.401  1.00  0.00    -0.268 OA
ATOM      7  H   UNL A   1      34.097  29.443  24.462  1.00  0.00     0.163 HD
BRANCH   5   8
ATOM      8  C   UNL A   1      31.036  28.680  23.280  1.00  0.00     0.120 C 
ATOM      9  C   UNL A   1      29.087  27.096  23.497  1.00  0.00     0.046 C 
ATOM     10  C   UNL A   1      30.535  27.481  23.728  1.00  0.00    -0.020 C 
BRANCH  10  11
ATOM     11  C   UNL A   1      31.354  26.463  24.479  1.00  0.00    -0.013 A 
ATOM     12  C   UNL A   1      31.299  26.541  25.883  1.00  0.00     0.009 A 
ATOM     13  C   UNL A   1      32.237  25.491  23.895  1.00  0.00    -0.011 A 
ATOM     14  C   UNL A   1      32.274  25.944  26.673  1.00  0.00     0.001 A 
ATOM     15  C   UNL A   1      33.306  25.014  24.698  1.00  0.00    -0.018 A 
ATOM     16  C   UNL A   1      32.127  24.886  22.613  1.00  0.00     0.009 A 
ATOM     17  C   UNL A   1      33.332  25.281  26.068  1.00  0.00     0.009 A 
ATOM     18  C   UNL A   1      34.313  24.200  24.159  1.00  0.00     0.009 A 
ATOM     19  C   UNL A   1      33.011  23.889  22.177  1.00  0.00     0.001 A 
ATOM     20  C   UNL A   1      34.138  23.590  22.924  1.00  0.00     0.001 A 
ENDBRANCH  10  11
BRANCH   8  21
ATOM     21  C   UNL A   1      30.136  29.583  22.639  1.00  0.00     0.105 C 
ATOM     22  N   UNL A   1      29.437  30.357  22.132  1.00  0.00    -0.192 NA
ENDBRANCH   8  21
ENDBRANCH   5   8
ENDBRANCH   3   4
ENDBRANCH   2   3
ENDBRANCH   1   2
BRANCH   1  23
ATOM     23  C   UNL A   1      32.645  32.721  27.209  1.00  0.00     0.116 C 
BRANCH  23  24
ATOM     24  N   UNL A   1      32.397  34.114  27.556  1.00  0.00    -0.352 N 
ATOM     25  C   UNL A   1      33.002  34.887  28.520  1.00  0.00     0.251 C 
ATOM     26  H   UNL A   1      31.699  34.565  27.028  1.00  0.00     0.163 HD
ATOM     27  O   UNL A   1      32.582  36.012  28.771  1.00  0.00    -0.269 OA
BRANCH  25  28
ATOM     28  C   UNL A   1      34.145  34.338  29.278  1.00  0.00     0.039 A 
ATOM     29  C   UNL A   1      33.896  33.592  30.432  1.00  0.00     0.014 A 
ATOM     30  C   UNL A   1      35.453  34.522  28.824  1.00  0.00     0.014 A 
ATOM     31  C   UNL A   1      34.957  32.962  31.086  1.00  0.00     0.010 A 
ATOM     32  C   UNL A   1      36.493  33.823  29.422  1.00  0.00     0.010 A 
ATOM     33  C   UNL A   1      36.257  33.031  30.558  1.00  0.00    -0.014 A 
BRANCH  33  34
ATOM     34  C   UNL A   1      37.382  32.279  31.171  1.00  0.00     0.031 A 
ATOM     35  C   UNL A   1      37.890  32.659  32.533  1.00  0.00     0.074 A 
ATOM     36  C   UNL A   1      37.992  31.302  30.471  1.00  0.00     0.049 A 
ATOM     37  N   UNL A   1      38.912  32.184  33.199  1.00  0.00    -0.248 NA
ATOM     38  C   UNL A   1      37.168  33.736  33.229  1.00  0.00     0.031 C 
ATOM     39  C   UNL A   1      37.618  30.865  29.125  1.00  0.00     0.029 A 
ATOM     40  N   UNL A   1      39.066  30.506  30.789  1.00  0.00    -0.354 N 
ATOM     41  C   UNL A   1      38.961  32.908  34.382  1.00  0.00     0.074 A 
ATOM     42  C   UNL A   1      37.907  33.897  34.317  1.00  0.00     0.031 C 
ATOM     43  C   UNL A   1      38.429  29.866  28.744  1.00  0.00     0.029 A 
ATOM     44  C   UNL A   1      39.417  29.629  29.792  1.00  0.00     0.049 A 
ATOM     45  H   UNL A   1      39.539  30.560  31.651  1.00  0.00     0.167 HD
ATOM     46  C   UNL A   1      39.795  32.748  35.436  1.00  0.00     0.037 A 
ATOM     47  C   UNL A   1      40.432  28.746  29.723  1.00  0.00     0.037 A 
ATOM     48  C   UNL A   1      40.837  31.756  35.497  1.00  0.00     0.049 A 
ATOM     49  C   UNL A   1      41.376  28.620  30.890  1.00  0.00     0.074 A 
ATOM     50  C   UNL A   1      41.703  31.480  36.540  1.00  0.00     0.029 A 
ATOM     51  N   UNL A   1      41.164  30.888  34.465  1.00  0.00    -0.354 N 
ATOM     52  N   UNL A   1      41.370  29.263  32.032  1.00  0.00    -0.248 NA
ATOM     53  C   UNL A   1      42.467  27.644  30.759  1.00  0.00     0.031 C 
ATOM     54  C   UNL A   1      42.602  30.500  36.114  1.00  0.00     0.029 A 
ATOM     55  C   UNL A   1      42.244  30.103  34.836  1.00  0.00     0.049 A 
ATOM     56  H   UNL A   1      40.699  30.838  33.600  1.00  0.00     0.167 HD
ATOM     57  C   UNL A   1      42.429  28.744  32.768  1.00  0.00     0.074 A 
ATOM     58  C   UNL A   1      43.048  27.727  31.947  1.00  0.00     0.031 C 
ATOM     59  C   UNL A   1      42.845  29.081  34.014  1.00  0.00     0.037 A 
BRANCH  46  60
ATOM     60  C   UNL A   1      39.625  33.674  36.608  1.00  0.00     0.064 A 
ATOM     61  C   UNL A   1      40.225  34.942  36.645  1.00  0.00     0.173 A 
ATOM     62  C   UNL A   1      38.816  33.304  37.694  1.00  0.00     0.173 A 
ATOM     63  F   UNL A   1      41.015  35.345  35.637  1.00  0.00    -0.203 F 
ATOM     64  C   UNL A   1      40.053  35.787  37.738  1.00  0.00     0.198 A 
ATOM     65  C   UNL A   1      38.613  34.167  38.767  1.00  0.00     0.198 A 
ATOM     66  F   UNL A   1      38.210  32.107  37.710  1.00  0.00    -0.203 F 
ATOM     67  F   UNL A   1      40.685  36.968  37.775  1.00  0.00    -0.200 F 
ATOM     68  C   UNL A   1      39.241  35.403  38.793  1.00  0.00     0.200 A 
ATOM     69  F   UNL A   1      37.812  33.801  39.776  1.00  0.00    -0.200 F 
ATOM     70  F   UNL A   1      39.067  36.221  39.840  1.00  0.00    -0.200 F 
ENDBRANCH  46  60
BRANCH  47  71
ATOM     71  C   UNL A   1      40.610  27.907  28.505  1.00  0.00     0.064 A 
ATOM     72  C   UNL A   1      41.361  28.367  27.414  1.00  0.00     0.173 A 
ATOM     73  C   UNL A   1      40.018  26.639  28.399  1.00  0.00     0.173 A 
ATOM     74  F   UNL A   1      41.930  29.580  27.456  1.00  0.00    -0.203 F 
ATOM     75  C   UNL A   1      41.490  27.603  26.255  1.00  0.00     0.198 A 
ATOM     76  C   UNL A   1      40.179  25.861  27.255  1.00  0.00     0.198 A 
ATOM     77  F   UNL A   1      39.294  26.148  29.415  1.00  0.00    -0.203 F 
ATOM     78  F   UNL A   1      42.163  28.093  25.205  1.00  0.00    -0.200 F 
ATOM     79  C   UNL A   1      40.903  26.349  26.178  1.00  0.00     0.200 A 
ATOM     80  F   UNL A   1      39.628  24.641  27.193  1.00  0.00    -0.200 F 
ATOM     81  F   UNL A   1      41.031  25.614  25.065  1.00  0.00    -0.200 F 
ENDBRANCH  47  71
BRANCH  59  82
ATOM     82  C   UNL A   1      43.997  28.311  34.597  1.00  0.00     0.064 A 
ATOM     83  C   UNL A   1      45.322  28.761  34.493  1.00  0.00     0.173 A 
ATOM     84  C   UNL A   1      43.760  27.135  35.326  1.00  0.00     0.173 A 
ATOM     85  F   UNL A   1      45.606  29.872  33.796  1.00  0.00    -0.203 F 
ATOM     86  C   UNL A   1      46.367  28.051  35.079  1.00  0.00     0.198 A 
ATOM     87  C   UNL A   1      44.802  26.448  35.942  1.00  0.00     0.198 A 
ATOM     88  F   UNL A   1      42.512  26.663  35.463  1.00  0.00    -0.203 F 
ATOM     89  F   UNL A   1      47.629  28.473  34.927  1.00  0.00    -0.200 F 
ATOM     90  C   UNL A   1      46.106  26.902  35.811  1.00  0.00     0.200 A 
ATOM     91  F   UNL A   1      44.543  25.352  36.668  1.00  0.00    -0.200 F 
ATOM     92  F   UNL A   1      47.111  26.231  36.390  1.00  0.00    -0.200 F 
ENDBRANCH  59  82
ENDBRANCH  33  34
ENDBRANCH  25  28
ENDBRANCH  23  24
ENDBRANCH   1  23
TORSDOF 13
ENDMDL
MODEL 2
REMARK VINA RESULT:     -12.4      0.137      1.141
REMARK SMILES C/C(=C(\C#N)C(=O)NCCCCNC(=O)c1ccc(-c2c3nc(c(-c4c(F)c(F)c(F)c(F)c4F)c4ccc([nH]4)c(-c4c(F)c(F)c(F)c(F)c4F)c4nc(c(-c5c(F)c(F)c(F)c(F)c5F)c5ccc2[nH]5)C=C4)C=C3)cc1)c1cccc2ccccc12
REMARK SMILES IDX 11 1 10 2 9 3 8 4 6 5 7 6 3 8 1 9 2 10 79 11 80 12 88 13
REMARK SMILES IDX 81 14 83 15 87 16 82 17 84 18 86 19 85 20 4 21 5 22 12 23
REMARK SMILES IDX 13 24 14 25 15 27 16 28 17 29 78 30 18 31 77 32 19 33 20 34
REMARK SMILES IDX 21 35 71 36 22 37 76 38 70 39 72 40 23 41 75 42 69 43 68 44
REMARK SMILES IDX 24 46 56 47 36 48 55 49 37 50 40 51 54 52 73 53 38 54 39 55
REMARK SMILES IDX 53 57 74 58 41 59 25 60 26 61 34 62 27 63 28 64 32 65 35 66
REMARK SMILES IDX 29 67 30 68 33 69 31 70 57 71 58 72 66 73 59 74 60 75 64 76
REMARK SMILES IDX 67 77 61 78 62 79 65 80 63 81 42 82 43 83 51 84 44 85 45 86
REMARK SMILES IDX 49 87 52 88 46 89 47 90 50 91 48 92
REMARK H PARENT 8 7 13 26 72 45 40 56
REMARK Flexibility Score: inf
ROOT
ATOM      1  C   UNL A   1      31.404  32.011  26.986  1.00  0.00     0.023 C 
ENDROOT
BRANCH   1   2
ATOM      2  C   UNL A   1      31.446  31.086  25.769  1.00  0.00     0.023 C 
BRANCH   2   3
ATOM      3  C   UNL A   1      32.470  29.958  25.844  1.00  0.00     0.116 C 
BRANCH   3   4
ATOM      4  N   UNL A   1      32.903  29.483  24.539  1.00  0.00    -0.351 N 
ATOM      5  C   UNL A   1      32.277  29.081  23.395  1.00  0.00     0.262 C 
ATOM      6  O   UNL A   1      33.013  29.094  22.405  1.00  0.00    -0.268 OA
ATOM      7  H   UNL A   1      33.883  29.441  24.462  1.00  0.00     0.163 HD
BRANCH   5   8
ATOM      8  C   UNL A   1      30.820  28.659  23.299  1.00  0.00     0.120 C 
ATOM      9  C   UNL A   1      28.889  27.054  23.519  1.00  0.00     0.046 C 
ATOM     10  C   UNL A   1      30.334  27.452  23.742  1.00  0.00    -0.020 C 
BRANCH  10  11
ATOM     11  C   UNL A   1      31.169  26.437  24.479  1.00  0.00    -0.013 A 
ATOM     12  C   UNL A   1      31.080  26.468  25.883  1.00  0.00     0.009 A 
ATOM     13  C   UNL A   1      32.095  25.511  23.886  1.00  0.00    -0.011 A 
ATOM     14  C   UNL A   1      32.057  25.876  26.676  1.00  0.00     0.001 A 
ATOM     15  C   UNL A   1      33.161  25.043  24.698  1.00  0.00    -0.018 A 
ATOM     16  C   UNL A   1      32.033  24.945  22.583  1.00  0.00     0.009 A 
ATOM     17  C   UNL A   1      33.149  25.266  26.075  1.00  0.00     0.009 A 
ATOM     18  C   UNL A   1      34.205  24.279  24.156  1.00  0.00     0.009 A 
ATOM     19  C   UNL A   1      32.958  23.990  22.136  1.00  0.00     0.001 A 
ATOM     20  C   UNL A   1      34.077  23.704  22.900  1.00  0.00     0.001 A 
ENDBRANCH  10  11
BRANCH   8  21
ATOM     21  C   UNL A   1      29.906  29.557  22.671  1.00  0.00     0.105 C 
ATOM     22  N   UNL A   1      29.206  30.319  22.149  1.00  0.00    -0.192 NA
ENDBRANCH   8  21
ENDBRANCH   5   8
ENDBRANCH   3   4
ENDBRANCH   2   3
ENDBRANCH   1   2
BRANCH   1  23
ATOM     23  C   UNL A   1      32.668  32.829  27.235  1.00  0.00     0.116 C 
BRANCH  23  24
ATOM     24  N   UNL A   1      32.397  34.207  27.620  1.00  0.00    -0.352 N 
ATOM     25  C   UNL A   1      32.984  34.961  28.611  1.00  0.00     0.251 C 
ATOM     26  H   UNL A   1      31.697  34.664  27.100  1.00  0.00     0.163 HD
ATOM     27  O   UNL A   1      32.545  36.071  28.892  1.00  0.00    -0.269 OA
BRANCH  25  28
ATOM     28  C   UNL A   1      34.129  34.406  29.362  1.00  0.00     0.039 A 
ATOM     29  C   UNL A   1      33.886  33.684  30.532  1.00  0.00     0.014 A 
ATOM     30  C   UNL A   1      35.433  34.562  28.886  1.00  0.00     0.014 A 
ATOM     31  C   UNL A   1      34.946  33.048  31.181  1.00  0.00     0.010 A 
ATOM     32  C   UNL A   1      36.471  33.856  29.481  1.00  0.00     0.010 A 
ATOM     33  C   UNL A   1      36.239  33.087  30.633  1.00  0.00    -0.014 A 
BRANCH  33  34
ATOM     34  C   UNL A   1      37.360  32.327  31.242  1.00  0.00     0.031 A 
ATOM     35  C   UNL A   1      37.880  32.707  32.600  1.00  0.00     0.074 A 
ATOM     36  C   UNL A   1      37.958  31.343  30.542  1.00  0.00     0.049 A 
ATOM     37  N   UNL A   1      38.901  32.226  33.263  1.00  0.00    -0.248 NA
ATOM     38  C   UNL A   1      37.171  33.794  33.297  1.00  0.00     0.031 C 
ATOM     39  C   UNL A   1      37.572  30.904  29.201  1.00  0.00     0.029 A 
ATOM     40  N   UNL A   1      39.027  30.539  30.858  1.00  0.00    -0.354 N 
ATOM     41  C   UNL A   1      38.963  32.954  34.443  1.00  0.00     0.074 A 
ATOM     42  C   UNL A   1      37.918  33.952  34.380  1.00  0.00     0.031 C 
ATOM     43  C   UNL A   1      38.373  29.897  28.818  1.00  0.00     0.029 A 
ATOM     44  C   UNL A   1      39.365  29.655  29.862  1.00  0.00     0.049 A 
ATOM     45  H   UNL A   1      39.505  30.591  31.717  1.00  0.00     0.167 HD
ATOM     46  C   UNL A   1      39.802  32.790  35.493  1.00  0.00     0.037 A 
ATOM     47  C   UNL A   1      40.372  28.762  29.790  1.00  0.00     0.037 A 
ATOM     48  C   UNL A   1      40.835  31.790  35.551  1.00  0.00     0.049 A 
ATOM     49  C   UNL A   1      41.321  28.633  30.952  1.00  0.00     0.074 A 
ATOM     50  C   UNL A   1      41.705  31.510  36.590  1.00  0.00     0.029 A 
ATOM     51  N   UNL A   1      41.150  30.915  34.521  1.00  0.00    -0.354 N 
ATOM     52  N   UNL A   1      41.327  29.279  32.092  1.00  0.00    -0.248 NA
ATOM     53  C   UNL A   1      42.403  27.647  30.818  1.00  0.00     0.031 C 
ATOM     54  C   UNL A   1      42.593  30.520  36.163  1.00  0.00     0.029 A 
ATOM     55  C   UNL A   1      42.225  30.122  34.888  1.00  0.00     0.049 A 
ATOM     56  H   UNL A   1      40.678  30.866  33.658  1.00  0.00     0.167 HD
ATOM     57  C   UNL A   1      42.385  28.754  32.824  1.00  0.00     0.074 A 
ATOM     58  C   UNL A   1      42.991  27.728  32.003  1.00  0.00     0.031 C 
ATOM     59  C   UNL A   1      42.812  29.092  34.066  1.00  0.00     0.037 A 
BRANCH  46  60
ATOM     60  C   UNL A   1      39.646  33.722  36.662  1.00  0.00     0.064 A 
ATOM     61  C   UNL A   1      40.277  34.975  36.701  1.00  0.00     0.173 A 
ATOM     62  C   UNL A   1      38.821  33.373  37.743  1.00  0.00     0.173 A 
ATOM     63  F   UNL A   1      41.083  35.357  35.699  1.00  0.00    -0.203 F 
ATOM     64  C   UNL A   1      40.118  35.825  37.792  1.00  0.00     0.198 A 
ATOM     65  C   UNL A   1      38.633  34.243  38.814  1.00  0.00     0.198 A 
ATOM     66  F   UNL A   1      38.186  32.191  37.756  1.00  0.00    -0.203 F 
ATOM     67  F   UNL A   1      40.779  36.991  37.832  1.00  0.00    -0.200 F 
ATOM     68  C   UNL A   1      39.290  35.463  38.842  1.00  0.00     0.200 A 
ATOM     69  F   UNL A   1      37.816  33.898  39.818  1.00  0.00    -0.200 F 
ATOM     70  F   UNL A   1      39.129  36.287  39.887  1.00  0.00    -0.200 F 
ENDBRANCH  46  60
BRANCH  47  71
ATOM     71  C   UNL A   1      40.535  27.918  28.574  1.00  0.00     0.064 A 
ATOM     72  C   UNL A   1      41.287  28.366  27.478  1.00  0.00     0.173 A 
ATOM     73  C   UNL A   1      39.929  26.656  28.475  1.00  0.00     0.173 A 
ATOM     74  F   UNL A   1      41.870  29.573  27.515  1.00  0.00    -0.203 F 
ATOM     75  C   UNL A   1      41.403  27.597  26.322  1.00  0.00     0.198 A 
ATOM     76  C   UNL A   1      40.076  25.873  27.333  1.00  0.00     0.198 A 
ATOM     77  F   UNL A   1      39.203  26.177  29.495  1.00  0.00    -0.203 F 
ATOM     78  F   UNL A   1      42.078  28.075  25.268  1.00  0.00    -0.200 F 
ATOM     79  C   UNL A   1      40.802  26.349  26.252  1.00  0.00     0.200 A 
ATOM     80  F   UNL A   1      39.511  24.659  27.277  1.00  0.00    -0.200 F 
ATOM     81  F   UNL A   1      40.917  25.610  25.140  1.00  0.00    -0.200 F 
ENDBRANCH  47  71
BRANCH  59  82
ATOM     82  C   UNL A   1      43.960  28.314  34.645  1.00  0.00     0.064 A 
ATOM     83  C   UNL A   1      43.768  27.112  35.343  1.00  0.00     0.173 A 
ATOM     84  C   UNL A   1      45.279  28.749  34.442  1.00  0.00     0.173 A 
ATOM     85  F   UNL A   1      42.527  26.657  35.577  1.00  0.00    -0.203 F 
ATOM     86  C   UNL A   1      44.852  26.388  35.832  1.00  0.00     0.198 A 
ATOM     87  C   UNL A   1      46.362  28.004  34.900  1.00  0.00     0.198 A 
ATOM     88  F   UNL A   1      45.521  29.888  33.776  1.00  0.00    -0.203 F 
ATOM     89  F   UNL A   1      44.643  25.267  36.537  1.00  0.00    -0.200 F 
ATOM     90  C   UNL A   1      46.147  26.827  35.602  1.00  0.00     0.200 A 
ATOM     91  F   UNL A   1      47.611  28.420  34.655  1.00  0.00    -0.200 F 
ATOM     92  F   UNL A   1      47.189  26.119  36.058  1.00  0.00    -0.200 F 
ENDBRANCH  59  82
ENDBRANCH  33  34
ENDBRANCH  25  28
ENDBRANCH  23  24
ENDBRANCH   1  23
TORSDOF 13
ENDMDL
MODEL 3
REMARK VINA RESULT:     -12.4      0.415      7.538
REMARK SMILES C/C(=C(\C#N)C(=O)NCCCCNC(=O)c1ccc(-c2c3nc(c(-c4c(F)c(F)c(F)c(F)c4F)c4ccc([nH]4)c(-c4c(F)c(F)c(F)c(F)c4F)c4nc(c(-c5c(F)c(F)c(F)c(F)c5F)c5ccc2[nH]5)C=C4)C=C3)cc1)c1cccc2ccccc12
REMARK SMILES IDX 11 1 10 2 9 3 8 4 6 5 7 6 3 8 1 9 2 10 79 11 80 12 88 13
REMARK SMILES IDX 81 14 83 15 87 16 82 17 84 18 86 19 85 20 4 21 5 22 12 23
REMARK SMILES IDX 13 24 14 25 15 27 16 28 17 29 78 30 18 31 77 32 19 33 20 34
REMARK SMILES IDX 21 35 71 36 22 37 76 38 70 39 72 40 23 41 75 42 69 43 68 44
REMARK SMILES IDX 24 46 56 47 36 48 55 49 37 50 40 51 54 52 73 53 38 54 39 55
REMARK SMILES IDX 53 57 74 58 41 59 25 60 26 61 34 62 27 63 28 64 32 65 35 66
REMARK SMILES IDX 29 67 30 68 33 69 31 70 57 71 58 72 66 73 59 74 60 75 64 76
REMARK SMILES IDX 67 77 61 78 62 79 65 80 63 81 42 82 43 83 51 84 44 85 45 86
REMARK SMILES IDX 49 87 52 88 46 89 47 90 50 91 48 92
REMARK H PARENT 8 7 13 26 72 45 40 56
REMARK Flexibility Score: inf
ROOT
ATOM      1  C   UNL A   1      31.652  31.720  27.056  1.00  0.00     0.023 C 
ENDROOT
BRANCH   1   2
ATOM      2  C   UNL A   1      31.720  30.822  25.821  1.00  0.00     0.023 C 
BRANCH   2   3
ATOM      3  C   UNL A   1      32.804  29.750  25.855  1.00  0.00     0.116 C 
BRANCH   3   4
ATOM      4  N   UNL A   1      33.208  29.294  24.534  1.00  0.00    -0.351 N 
ATOM      5  C   UNL A   1      32.558  28.947  23.385  1.00  0.00     0.262 C 
ATOM      6  O   UNL A   1      33.286  28.959  22.389  1.00  0.00    -0.268 OA
ATOM      7  H   UNL A   1      34.186  29.219  24.446  1.00  0.00     0.163 HD
BRANCH   5   8
ATOM      8  C   UNL A   1      31.086  28.582  23.291  1.00  0.00     0.120 C 
ATOM      9  C   UNL A   1      29.093  27.055  23.518  1.00  0.00     0.046 C 
ATOM     10  C   UNL A   1      30.553  27.396  23.739  1.00  0.00    -0.020 C 
BRANCH  10  11
ATOM     11  C   UNL A   1      31.348  26.352  24.479  1.00  0.00    -0.013 A 
ATOM     12  C   UNL A   1      31.260  26.390  25.883  1.00  0.00     0.009 A 
ATOM     13  C   UNL A   1      32.239  25.390  23.889  1.00  0.00    -0.011 A 
ATOM     14  C   UNL A   1      32.212  25.763  26.679  1.00  0.00     0.001 A 
ATOM     15  C   UNL A   1      33.285  24.884  24.703  1.00  0.00    -0.018 A 
ATOM     16  C   UNL A   1      32.156  24.823  22.588  1.00  0.00     0.009 A 
ATOM     17  C   UNL A   1      33.281  25.111  26.080  1.00  0.00     0.009 A 
ATOM     18  C   UNL A   1      34.300  24.079  24.164  1.00  0.00     0.009 A 
ATOM     19  C   UNL A   1      33.044  23.833  22.144  1.00  0.00     0.001 A 
ATOM     20  C   UNL A   1      34.151  23.506  22.909  1.00  0.00     0.001 A 
ENDBRANCH  10  11
BRANCH   8  21
ATOM     21  C   UNL A   1      30.208  29.513  22.661  1.00  0.00     0.105 C 
ATOM     22  N   UNL A   1      29.536  30.302  22.142  1.00  0.00    -0.192 NA
ENDBRANCH   8  21
ENDBRANCH   5   8
ENDBRANCH   3   4
ENDBRANCH   2   3
ENDBRANCH   1   2
BRANCH   1  23
ATOM     23  C   UNL A   1      32.850  32.642  27.268  1.00  0.00     0.116 C 
BRANCH  23  24
ATOM     24  N   UNL A   1      32.475  34.015  27.578  1.00  0.00    -0.352 N 
ATOM     25  C   UNL A   1      33.000  34.863  28.526  1.00  0.00     0.251 C 
ATOM     26  H   UNL A   1      31.745  34.388  27.034  1.00  0.00     0.163 HD
ATOM     27  O   UNL A   1      32.478  35.950  28.747  1.00  0.00    -0.269 OA
BRANCH  25  28
ATOM     28  C   UNL A   1      34.180  34.437  29.306  1.00  0.00     0.039 A 
ATOM     29  C   UNL A   1      33.987  33.812  30.540  1.00  0.00     0.014 A 
ATOM     30  C   UNL A   1      35.469  34.614  28.798  1.00  0.00     0.014 A 
ATOM     31  C   UNL A   1      35.085  33.292  31.228  1.00  0.00     0.010 A 
ATOM     32  C   UNL A   1      36.548  34.018  29.439  1.00  0.00     0.010 A 
ATOM     33  C   UNL A   1      36.368  33.346  30.659  1.00  0.00    -0.014 A 
BRANCH  33  34
ATOM     34  C   UNL A   1      37.534  32.702  31.316  1.00  0.00     0.031 A 
ATOM     35  C   UNL A   1      38.240  31.557  30.647  1.00  0.00     0.074 A 
ATOM     36  C   UNL A   1      37.911  33.100  32.548  1.00  0.00     0.049 A 
ATOM     37  N   UNL A   1      39.217  30.809  31.093  1.00  0.00    -0.248 NA
ATOM     38  C   UNL A   1      37.765  31.184  29.304  1.00  0.00     0.031 C 
ATOM     39  C   UNL A   1      37.284  34.174  33.318  1.00  0.00     0.029 A 
ATOM     40  N   UNL A   1      38.908  32.639  33.373  1.00  0.00    -0.354 N 
ATOM     41  C   UNL A   1      39.465  29.877  30.096  1.00  0.00     0.074 A 
ATOM     42  C   UNL A   1      38.496  30.109  29.047  1.00  0.00     0.031 C 
ATOM     43  C   UNL A   1      37.923  34.307  34.491  1.00  0.00     0.029 A 
ATOM     44  C   UNL A   1      38.969  33.292  34.581  1.00  0.00     0.049 A 
ATOM     45  H   UNL A   1      39.521  31.910  33.124  1.00  0.00     0.167 HD
ATOM     46  C   UNL A   1      40.430  28.927  30.049  1.00  0.00     0.037 A 
ATOM     47  C   UNL A   1      39.766  33.084  35.648  1.00  0.00     0.037 A 
ATOM     48  C   UNL A   1      41.395  28.706  31.093  1.00  0.00     0.049 A 
ATOM     49  C   UNL A   1      40.798  31.990  35.589  1.00  0.00     0.074 A 
ATOM     50  C   UNL A   1      42.443  27.802  31.120  1.00  0.00     0.029 A 
ATOM     51  N   UNL A   1      41.423  29.385  32.303  1.00  0.00    -0.354 N 
ATOM     52  N   UNL A   1      41.070  31.159  34.613  1.00  0.00    -0.248 NA
ATOM     53  C   UNL A   1      41.637  31.805  36.782  1.00  0.00     0.031 C 
ATOM     54  C   UNL A   1      43.056  27.881  32.372  1.00  0.00     0.029 A 
ATOM     55  C   UNL A   1      42.447  28.893  33.096  1.00  0.00     0.049 A 
ATOM     56  H   UNL A   1      40.807  30.109  32.558  1.00  0.00     0.167 HD
ATOM     57  C   UNL A   1      42.132  30.380  35.056  1.00  0.00     0.074 A 
ATOM     58  C   UNL A   1      42.462  30.845  36.386  1.00  0.00     0.031 C 
ATOM     59  C   UNL A   1      42.775  29.373  34.416  1.00  0.00     0.037 A 
BRANCH  46  60
ATOM     60  C   UNL A   1      40.481  28.044  28.834  1.00  0.00     0.064 A 
ATOM     61  C   UNL A   1      39.770  26.836  28.764  1.00  0.00     0.173 A 
ATOM     62  C   UNL A   1      41.220  28.432  27.705  1.00  0.00     0.173 A 
ATOM     63  F   UNL A   1      39.053  26.412  29.816  1.00  0.00    -0.203 F 
ATOM     64  C   UNL A   1      39.828  26.033  27.628  1.00  0.00     0.198 A 
ATOM     65  C   UNL A   1      41.243  27.646  26.555  1.00  0.00     0.198 A 
ATOM     66  F   UNL A   1      41.912  29.581  27.711  1.00  0.00    -0.203 F 
ATOM     67  F   UNL A   1      39.188  24.855  27.609  1.00  0.00    -0.200 F 
ATOM     68  C   UNL A   1      40.556  26.443  26.522  1.00  0.00     0.200 A 
ATOM     69  F   UNL A   1      41.932  28.055  25.481  1.00  0.00    -0.200 F 
ATOM     70  F   UNL A   1      40.603  25.674  25.425  1.00  0.00    -0.200 F 
ENDBRANCH  46  60
BRANCH  47  71
ATOM     71  C   UNL A   1      39.622  33.932  36.863  1.00  0.00     0.064 A 
ATOM     72  C   UNL A   1      38.826  33.521  37.941  1.00  0.00     0.173 A 
ATOM     73  C   UNL A   1      40.260  35.178  36.964  1.00  0.00     0.173 A 
ATOM     74  F   UNL A   1      38.178  32.348  37.886  1.00  0.00    -0.203 F 
ATOM     75  C   UNL A   1      38.652  34.334  39.060  1.00  0.00     0.198 A 
ATOM     76  C   UNL A   1      40.115  35.973  38.098  1.00  0.00     0.198 A 
ATOM     77  F   UNL A   1      41.037  35.619  35.964  1.00  0.00    -0.203 F 
ATOM     78  F   UNL A   1      37.839  33.941  40.050  1.00  0.00    -0.200 F 
ATOM     79  C   UNL A   1      39.302  35.556  39.141  1.00  0.00     0.200 A 
ATOM     80  F   UNL A   1      40.761  37.144  38.180  1.00  0.00    -0.200 F 
ATOM     81  F   UNL A   1      39.137  36.335  40.218  1.00  0.00    -0.200 F 
ENDBRANCH  47  71
BRANCH  59  82
ATOM     82  C   UNL A   1      43.940  28.732  35.117  1.00  0.00     0.064 A 
ATOM     83  C   UNL A   1      43.787  27.600  35.931  1.00  0.00     0.173 A 
ATOM     84  C   UNL A   1      45.240  29.224  34.917  1.00  0.00     0.173 A 
ATOM     85  F   UNL A   1      42.566  27.096  36.166  1.00  0.00    -0.203 F 
ATOM     86  C   UNL A   1      44.889  26.999  36.535  1.00  0.00     0.198 A 
ATOM     87  C   UNL A   1      46.342  28.599  35.492  1.00  0.00     0.198 A 
ATOM     88  F   UNL A   1      45.444  30.300  34.142  1.00  0.00    -0.203 F 
ATOM     89  F   UNL A   1      44.714  25.947  37.347  1.00  0.00    -0.200 F 
ATOM     90  C   UNL A   1      46.165  27.491  36.307  1.00  0.00     0.200 A 
ATOM     91  F   UNL A   1      47.575  29.063  35.251  1.00  0.00    -0.200 F 
ATOM     92  F   UNL A   1      47.225  26.899  36.875  1.00  0.00    -0.200 F 
ENDBRANCH  59  82
ENDBRANCH  33  34
ENDBRANCH  25  28
ENDBRANCH  23  24
ENDBRANCH   1  23
TORSDOF 13
ENDMDL
