MODEL 1
REMARK VINA RESULT:     -13.3      0.000      0.000
REMARK SMILES COC(=O)c1ccc(C)c(NC(=O)[C@@H]2CC=CC[C@H]2C(=O)NCCCCNC(=O)c2ccc(-c3c4nc(c(-c5c(F)c(F)c(F)c(F)c5F)c5ccc([nH]5)c(-c5c(F)c(F)c(F)c(F)c5F)c5nc(c(-c6c(F)c(F)c(F)c(F)c6F)c6ccc3[nH]6)C=C5)C=C4)cc2)c1
REMARK SMILES IDX 23 1 22 2 20 3 21 4 19 6 14 7 15 8 16 9 18 10 17 11 12 12
REMARK SMILES IDX 11 13 13 15 10 16 5 17 6 18 93 19 7 20 8 21 9 22 3 23 4 24
REMARK SMILES IDX 2 25 1 26 24 27 25 28 26 29 27 30 28 31 29 33 30 34 31 35
REMARK SMILES IDX 92 36 32 37 91 38 33 39 34 40 35 41 85 42 36 43 90 44 84 45
REMARK SMILES IDX 86 46 37 47 89 48 83 49 82 50 38 52 70 53 50 54 69 55 51 56
REMARK SMILES IDX 54 57 68 58 87 59 52 60 53 61 67 63 88 64 55 65 39 66 40 67
REMARK SMILES IDX 48 68 41 69 42 70 46 71 49 72 43 73 44 74 47 75 45 76 71 77
REMARK SMILES IDX 72 78 80 79 73 80 74 81 78 82 81 83 75 84 76 85 79 86 77 87
REMARK SMILES IDX 56 88 57 89 65 90 58 91 59 92 63 93 66 94 60 95 61 96 64 97
REMARK SMILES IDX 62 98
REMARK H PARENT 22 5 11 14 27 32 86 51 54 62
REMARK Flexibility Score: inf
ROOT
ATOM      1  C   UNL A   1      36.476  22.012  25.860  1.00  0.00     0.116 C 
ENDROOT
BRANCH   1   2
ATOM      2  N   UNL A   1      35.948  23.352  25.982  1.00  0.00    -0.356 N 
ATOM      3  C   UNL A   1      34.862  23.975  25.475  1.00  0.00     0.224 C 
ATOM      4  O   UNL A   1      34.768  25.178  25.749  1.00  0.00    -0.275 OA
ATOM      5  H   UNL A   1      36.496  23.935  26.556  1.00  0.00     0.163 HD
BRANCH   3   6
ATOM      6  C   UNL A   1      33.722  23.286  24.744  1.00  0.00     0.095 C 
ATOM      7  C   UNL A   1      32.252  23.680  24.960  1.00  0.00     0.095 C 
ATOM      8  C   UNL A   1      31.433  22.455  24.490  1.00  0.00     0.041 C 
ATOM      9  C   UNL A   1      31.721  22.172  23.042  1.00  0.00    -0.030 C 
ATOM     10  C   UNL A   1      33.974  23.269  23.217  1.00  0.00     0.041 C 
ATOM     11  C   UNL A   1      32.862  22.574  22.458  1.00  0.00    -0.030 C 
BRANCH   7  12
ATOM     12  C   UNL A   1      31.779  24.030  26.336  1.00  0.00     0.228 C 
ATOM     13  N   UNL A   1      31.403  25.300  26.683  1.00  0.00    -0.326 N 
ATOM     14  H   UNL A   1      30.983  25.314  27.574  1.00  0.00     0.169 HD
ATOM     15  O   UNL A   1      31.727  23.167  27.217  1.00  0.00    -0.274 OA
BRANCH  13  16
ATOM     16  C   UNL A   1      31.446  26.610  26.122  1.00  0.00     0.044 A 
ATOM     17  C   UNL A   1      32.618  28.767  26.413  1.00  0.00     0.062 A 
ATOM     18  C   UNL A   1      31.961  29.297  25.315  1.00  0.00     0.016 A 
ATOM     19  C   UNL A   1      32.322  27.464  26.839  1.00  0.00     0.042 A 
ATOM     20  C   UNL A   1      31.065  28.499  24.620  1.00  0.00     0.006 A 
ATOM     21  C   UNL A   1      30.795  27.158  24.996  1.00  0.00    -0.027 A 
ATOM     22  C   UNL A   1      29.766  26.508  24.122  1.00  0.00     0.046 C 
BRANCH  17  23
ATOM     23  C   UNL A   1      33.708  29.585  27.003  1.00  0.00     0.337 C 
ATOM     24  O   UNL A   1      34.862  29.233  27.052  1.00  0.00    -0.246 OA
BRANCH  23  25
ATOM     25  O   UNL A   1      33.157  30.666  27.623  1.00  0.00    -0.465 OA
ATOM     26  C   UNL A   1      34.040  31.789  27.651  1.00  0.00     0.282 C 
ENDBRANCH  23  25
ENDBRANCH  17  23
ENDBRANCH  13  16
ENDBRANCH   7  12
ENDBRANCH   3   6
ENDBRANCH   1   2
BRANCH   1  27
ATOM     27  C   UNL A   1      37.813  22.003  25.116  1.00  0.00     0.023 C 
BRANCH  27  28
ATOM     28  C   UNL A   1      39.033  21.568  25.919  1.00  0.00     0.023 C 
BRANCH  28  29
ATOM     29  C   UNL A   1      39.541  22.629  26.875  1.00  0.00     0.116 C 
BRANCH  29  30
ATOM     30  N   UNL A   1      40.900  23.071  26.571  1.00  0.00    -0.352 N 
ATOM     31  C   UNL A   1      41.382  24.344  26.312  1.00  0.00     0.251 C 
ATOM     32  H   UNL A   1      41.576  22.356  26.545  1.00  0.00     0.163 HD
ATOM     33  O   UNL A   1      42.543  24.531  25.968  1.00  0.00    -0.269 OA
BRANCH  31  34
ATOM     34  C   UNL A   1      40.520  25.497  26.643  1.00  0.00     0.039 A 
ATOM     35  C   UNL A   1      40.837  26.708  26.014  1.00  0.00     0.014 A 
ATOM     36  C   UNL A   1      39.778  25.468  27.813  1.00  0.00     0.014 A 
ATOM     37  C   UNL A   1      40.687  27.888  26.729  1.00  0.00     0.010 A 
ATOM     38  C   UNL A   1      39.779  26.609  28.581  1.00  0.00     0.010 A 
ATOM     39  C   UNL A   1      40.295  27.804  28.062  1.00  0.00    -0.014 A 
BRANCH  39  40
ATOM     40  C   UNL A   1      40.439  28.897  29.013  1.00  0.00     0.031 A 
ATOM     41  C   UNL A   1      39.354  29.890  29.130  1.00  0.00     0.074 A 
ATOM     42  C   UNL A   1      41.499  28.952  29.850  1.00  0.00     0.049 A 
ATOM     43  N   UNL A   1      39.506  31.067  29.633  1.00  0.00    -0.248 NA
ATOM     44  C   UNL A   1      37.998  29.631  28.656  1.00  0.00     0.031 C 
ATOM     45  C   UNL A   1      41.652  29.807  31.026  1.00  0.00     0.029 A 
ATOM     46  N   UNL A   1      42.768  28.372  29.680  1.00  0.00    -0.354 N 
ATOM     47  C   UNL A   1      38.255  31.607  29.792  1.00  0.00     0.074 A 
ATOM     48  C   UNL A   1      37.349  30.690  29.142  1.00  0.00     0.031 C 
ATOM     49  C   UNL A   1      42.959  29.965  31.279  1.00  0.00     0.029 A 
ATOM     50  C   UNL A   1      43.684  29.326  30.195  1.00  0.00     0.049 A 
ATOM     51  H   UNL A   1      42.977  27.494  29.288  1.00  0.00     0.167 HD
ATOM     52  C   UNL A   1      38.095  32.720  30.558  1.00  0.00     0.037 A 
ATOM     53  C   UNL A   1      44.582  29.945  29.374  1.00  0.00     0.037 A 
ATOM     54  C   UNL A   1      39.365  33.248  31.038  1.00  0.00     0.049 A 
ATOM     55  C   UNL A   1      44.420  31.450  29.276  1.00  0.00     0.074 A 
ATOM     56  C   UNL A   1      40.074  33.162  32.224  1.00  0.00     0.029 A 
ATOM     57  N   UNL A   1      40.261  33.729  30.100  1.00  0.00    -0.354 N 
ATOM     58  N   UNL A   1      43.472  32.133  29.857  1.00  0.00    -0.248 NA
ATOM     59  C   UNL A   1      45.260  32.287  28.415  1.00  0.00     0.031 C 
ATOM     60  C   UNL A   1      41.413  33.586  31.977  1.00  0.00     0.029 A 
ATOM     61  C   UNL A   1      41.513  33.933  30.643  1.00  0.00     0.049 A 
ATOM     62  H   UNL A   1      40.032  33.906  29.159  1.00  0.00     0.167 HD
ATOM     63  C   UNL A   1      43.516  33.430  29.417  1.00  0.00     0.074 A 
ATOM     64  C   UNL A   1      44.654  33.481  28.521  1.00  0.00     0.031 C 
ATOM     65  C   UNL A   1      42.590  34.367  29.772  1.00  0.00     0.037 A 
BRANCH  52  66
ATOM     66  C   UNL A   1      36.737  33.141  31.038  1.00  0.00     0.064 A 
ATOM     67  C   UNL A   1      35.866  33.864  30.203  1.00  0.00     0.173 A 
ATOM     68  C   UNL A   1      36.280  32.925  32.351  1.00  0.00     0.173 A 
ATOM     69  F   UNL A   1      36.147  34.064  28.909  1.00  0.00    -0.203 F 
ATOM     70  C   UNL A   1      34.686  34.433  30.683  1.00  0.00     0.198 A 
ATOM     71  C   UNL A   1      35.136  33.551  32.850  1.00  0.00     0.198 A 
ATOM     72  F   UNL A   1      36.934  32.097  33.180  1.00  0.00    -0.203 F 
ATOM     73  F   UNL A   1      33.894  35.122  29.849  1.00  0.00    -0.200 F 
ATOM     74  C   UNL A   1      34.343  34.315  32.016  1.00  0.00     0.200 A 
ATOM     75  F   UNL A   1      34.818  33.424  34.145  1.00  0.00    -0.200 F 
ATOM     76  F   UNL A   1      33.250  34.923  32.491  1.00  0.00    -0.200 F 
ENDBRANCH  52  66
BRANCH  53  77
ATOM     77  C   UNL A   1      45.040  29.061  28.267  1.00  0.00     0.064 A 
ATOM     78  C   UNL A   1      45.981  28.052  28.560  1.00  0.00     0.173 A 
ATOM     79  C   UNL A   1      44.313  28.942  27.078  1.00  0.00     0.173 A 
ATOM     80  F   UNL A   1      46.704  28.115  29.690  1.00  0.00    -0.203 F 
ATOM     81  C   UNL A   1      46.087  26.911  27.769  1.00  0.00     0.198 A 
ATOM     82  C   UNL A   1      44.440  27.808  26.275  1.00  0.00     0.198 A 
ATOM     83  F   UNL A   1      43.388  29.857  26.751  1.00  0.00    -0.203 F 
ATOM     84  F   UNL A   1      46.893  25.908  28.148  1.00  0.00    -0.200 F 
ATOM     85  C   UNL A   1      45.295  26.778  26.641  1.00  0.00     0.200 A 
ATOM     86  F   UNL A   1      43.655  27.667  25.198  1.00  0.00    -0.200 F 
ATOM     87  F   UNL A   1      45.319  25.640  25.933  1.00  0.00    -0.200 F 
ENDBRANCH  53  77
BRANCH  65  88
ATOM     88  C   UNL A   1      42.636  35.789  29.301  1.00  0.00     0.064 A 
ATOM     89  C   UNL A   1      42.034  36.196  28.101  1.00  0.00     0.173 A 
ATOM     90  C   UNL A   1      43.396  36.764  29.982  1.00  0.00     0.173 A 
ATOM     91  F   UNL A   1      41.331  35.327  27.360  1.00  0.00    -0.203 F 
ATOM     92  C   UNL A   1      42.159  37.504  27.628  1.00  0.00     0.198 A 
ATOM     93  C   UNL A   1      43.563  38.052  29.481  1.00  0.00     0.198 A 
ATOM     94  F   UNL A   1      43.975  36.498  31.161  1.00  0.00    -0.203 F 
ATOM     95  F   UNL A   1      41.529  37.867  26.502  1.00  0.00    -0.200 F 
ATOM     96  C   UNL A   1      42.935  38.426  28.309  1.00  0.00     0.200 A 
ATOM     97  F   UNL A   1      44.333  38.928  30.142  1.00  0.00    -0.200 F 
ATOM     98  F   UNL A   1      43.075  39.674  27.839  1.00  0.00    -0.200 F 
ENDBRANCH  65  88
ENDBRANCH  39  40
ENDBRANCH  31  34
ENDBRANCH  29  30
ENDBRANCH  28  29
ENDBRANCH  27  28
ENDBRANCH   1  27
TORSDOF 15
ENDMDL
MODEL 2
REMARK VINA RESULT:     -13.2      3.518      9.916
REMARK SMILES COC(=O)c1ccc(C)c(NC(=O)[C@@H]2CC=CC[C@H]2C(=O)NCCCCNC(=O)c2ccc(-c3c4nc(c(-c5c(F)c(F)c(F)c(F)c5F)c5ccc([nH]5)c(-c5c(F)c(F)c(F)c(F)c5F)c5nc(c(-c6c(F)c(F)c(F)c(F)c6F)c6ccc3[nH]6)C=C5)C=C4)cc2)c1
REMARK SMILES IDX 23 1 22 2 20 3 21 4 19 6 14 7 15 8 16 9 18 10 17 11 12 12
REMARK SMILES IDX 11 13 13 15 10 16 5 17 6 18 93 19 7 20 8 21 9 22 3 23 4 24
REMARK SMILES IDX 2 25 1 26 24 27 25 28 26 29 27 30 28 31 29 33 30 34 31 35
REMARK SMILES IDX 92 36 32 37 91 38 33 39 34 40 35 41 85 42 36 43 90 44 84 45
REMARK SMILES IDX 86 46 37 47 89 48 83 49 82 50 38 52 70 53 50 54 69 55 51 56
REMARK SMILES IDX 54 57 68 58 87 59 52 60 53 61 67 63 88 64 55 65 39 66 40 67
REMARK SMILES IDX 48 68 41 69 42 70 46 71 49 72 43 73 44 74 47 75 45 76 71 77
REMARK SMILES IDX 72 78 80 79 73 80 74 81 78 82 81 83 75 84 76 85 79 86 77 87
REMARK SMILES IDX 56 88 57 89 65 90 58 91 59 92 63 93 66 94 60 95 61 96 64 97
REMARK SMILES IDX 62 98
REMARK H PARENT 22 5 11 14 27 32 86 51 54 62
REMARK Flexibility Score: inf
ROOT
ATOM      1  C   UNL A   1      33.395  29.430  25.333  1.00  0.00     0.116 C 
ENDROOT
BRANCH   1   2
ATOM      2  N   UNL A   1      33.993  28.132  25.545  1.00  0.00    -0.356 N 
ATOM      3  C   UNL A   1      33.561  26.866  25.357  1.00  0.00     0.224 C 
ATOM      4  O   UNL A   1      34.344  25.981  25.725  1.00  0.00    -0.275 OA
ATOM      5  H   UNL A   1      34.910  28.179  25.901  1.00  0.00     0.163 HD
BRANCH   3   6
ATOM      6  C   UNL A   1      32.290  26.477  24.622  1.00  0.00     0.095 C 
ATOM      7  C   UNL A   1      32.237  25.290  23.645  1.00  0.00     0.095 C 
ATOM      8  C   UNL A   1      31.005  25.558  22.751  1.00  0.00     0.041 C 
ATOM      9  C   UNL A   1      29.765  25.632  23.596  1.00  0.00    -0.030 C 
ATOM     10  C   UNL A   1      31.107  26.316  25.607  1.00  0.00     0.041 C 
ATOM     11  C   UNL A   1      29.818  25.943  24.902  1.00  0.00    -0.030 C 
BRANCH   7  12
ATOM     12  C   UNL A   1      33.398  25.032  22.738  1.00  0.00     0.228 C 
ATOM     13  N   UNL A   1      34.228  23.953  22.895  1.00  0.00    -0.326 N 
ATOM     14  H   UNL A   1      34.838  23.862  22.127  1.00  0.00     0.169 HD
ATOM     15  O   UNL A   1      33.653  25.808  21.813  1.00  0.00    -0.274 OA
BRANCH  13  16
ATOM     16  C   UNL A   1      34.459  22.923  23.852  1.00  0.00     0.044 A 
ATOM     17  C   UNL A   1      33.479  20.789  24.625  1.00  0.00     0.062 A 
ATOM     18  C   UNL A   1      34.527  20.603  25.511  1.00  0.00     0.016 A 
ATOM     19  C   UNL A   1      33.420  21.957  23.851  1.00  0.00     0.042 A 
ATOM     20  C   UNL A   1      35.536  21.553  25.566  1.00  0.00     0.006 A 
ATOM     21  C   UNL A   1      35.530  22.713  24.748  1.00  0.00    -0.027 A 
ATOM     22  C   UNL A   1      36.699  23.612  25.010  1.00  0.00     0.046 C 
BRANCH  17  23
ATOM     23  C   UNL A   1      32.531  19.657  24.458  1.00  0.00     0.337 C 
ATOM     24  O   UNL A   1      32.153  18.958  25.367  1.00  0.00    -0.246 OA
BRANCH  23  25
ATOM     25  O   UNL A   1      32.333  19.445  23.127  1.00  0.00    -0.465 OA
ATOM     26  C   UNL A   1      32.527  18.079  22.756  1.00  0.00     0.282 C 
ENDBRANCH  23  25
ENDBRANCH  17  23
ENDBRANCH  13  16
ENDBRANCH   7  12
ENDBRANCH   3   6
ENDBRANCH   1   2
BRANCH   1  27
ATOM     27  C   UNL A   1      32.405  29.778  26.446  1.00  0.00     0.023 C 
BRANCH  27  28
ATOM     28  C   UNL A   1      32.952  30.600  27.609  1.00  0.00     0.023 C 
BRANCH  28  29
ATOM     29  C   UNL A   1      34.243  31.325  27.285  1.00  0.00     0.116 C 
BRANCH  29  30
ATOM     30  N   UNL A   1      34.856  31.953  28.452  1.00  0.00    -0.352 N 
ATOM     31  C   UNL A   1      35.679  31.407  29.424  1.00  0.00     0.251 C 
ATOM     32  H   UNL A   1      34.652  32.910  28.567  1.00  0.00     0.163 HD
ATOM     33  O   UNL A   1      36.025  32.054  30.406  1.00  0.00    -0.269 OA
BRANCH  31  34
ATOM     34  C   UNL A   1      36.289  30.089  29.161  1.00  0.00     0.039 A 
ATOM     35  C   UNL A   1      36.654  29.340  30.287  1.00  0.00     0.014 A 
ATOM     36  C   UNL A   1      36.861  29.848  27.921  1.00  0.00     0.014 A 
ATOM     37  C   UNL A   1      37.813  28.578  30.231  1.00  0.00     0.010 A 
ATOM     38  C   UNL A   1      38.089  29.229  27.910  1.00  0.00     0.010 A 
ATOM     39  C   UNL A   1      38.596  28.652  29.082  1.00  0.00    -0.014 A 
BRANCH  39  40
ATOM     40  C   UNL A   1      39.979  28.206  29.021  1.00  0.00     0.031 A 
ATOM     41  C   UNL A   1      40.261  26.789  28.723  1.00  0.00     0.074 A 
ATOM     42  C   UNL A   1      40.998  29.087  29.134  1.00  0.00     0.049 A 
ATOM     43  N   UNL A   1      41.374  26.200  29.000  1.00  0.00    -0.248 NA
ATOM     44  C   UNL A   1      39.278  25.907  28.100  1.00  0.00     0.031 C 
ATOM     45  C   UNL A   1      42.408  28.853  28.825  1.00  0.00     0.029 A 
ATOM     46  N   UNL A   1      40.989  30.345  29.761  1.00  0.00    -0.354 N 
ATOM     47  C   UNL A   1      41.359  24.981  28.374  1.00  0.00     0.074 A 
ATOM     48  C   UNL A   1      40.021  24.828  27.851  1.00  0.00     0.031 C 
ATOM     49  C   UNL A   1      43.153  29.724  29.520  1.00  0.00     0.029 A 
ATOM     50  C   UNL A   1      42.254  30.453  30.396  1.00  0.00     0.049 A 
ATOM     51  H   UNL A   1      40.262  31.009  29.761  1.00  0.00     0.167 HD
ATOM     52  C   UNL A   1      42.511  24.268  28.259  1.00  0.00     0.037 A 
ATOM     53  C   UNL A   1      42.350  30.507  31.757  1.00  0.00     0.037 A 
ATOM     54  C   UNL A   1      43.626  24.907  28.945  1.00  0.00     0.049 A 
ATOM     55  C   UNL A   1      43.110  29.355  32.386  1.00  0.00     0.074 A 
ATOM     56  C   UNL A   1      44.688  25.705  28.552  1.00  0.00     0.029 A 
ATOM     57  N   UNL A   1      43.556  25.029  30.321  1.00  0.00    -0.354 N 
ATOM     58  N   UNL A   1      43.592  28.337  31.727  1.00  0.00    -0.248 NA
ATOM     59  C   UNL A   1      43.284  29.212  33.834  1.00  0.00     0.031 C 
ATOM     60  C   UNL A   1      45.241  26.319  29.714  1.00  0.00     0.029 A 
ATOM     61  C   UNL A   1      44.519  25.888  30.811  1.00  0.00     0.049 A 
ATOM     62  H   UNL A   1      42.898  24.560  30.883  1.00  0.00     0.167 HD
ATOM     63  C   UNL A   1      44.056  27.403  32.616  1.00  0.00     0.074 A 
ATOM     64  C   UNL A   1      43.848  27.996  33.922  1.00  0.00     0.031 C 
ATOM     65  C   UNL A   1      44.533  26.184  32.232  1.00  0.00     0.037 A 
BRANCH  52  66
ATOM     66  C   UNL A   1      42.618  23.116  27.304  1.00  0.00     0.064 A 
ATOM     67  C   UNL A   1      42.018  21.877  27.593  1.00  0.00     0.173 A 
ATOM     68  C   UNL A   1      43.379  23.162  26.121  1.00  0.00     0.173 A 
ATOM     69  F   UNL A   1      41.202  21.727  28.643  1.00  0.00    -0.203 F 
ATOM     70  C   UNL A   1      42.263  20.740  26.821  1.00  0.00     0.198 A 
ATOM     71  C   UNL A   1      43.680  22.011  25.389  1.00  0.00     0.198 A 
ATOM     72  F   UNL A   1      43.845  24.327  25.647  1.00  0.00    -0.203 F 
ATOM     73  F   UNL A   1      41.674  19.580  27.143  1.00  0.00    -0.200 F 
ATOM     74  C   UNL A   1      43.129  20.797  25.747  1.00  0.00     0.200 A 
ATOM     75  F   UNL A   1      44.522  22.085  24.349  1.00  0.00    -0.200 F 
ATOM     76  F   UNL A   1      43.422  19.690  25.053  1.00  0.00    -0.200 F 
ENDBRANCH  52  66
BRANCH  53  77
ATOM     77  C   UNL A   1      41.192  31.208  32.378  1.00  0.00     0.064 A 
ATOM     78  C   UNL A   1      41.146  32.615  32.310  1.00  0.00     0.173 A 
ATOM     79  C   UNL A   1      40.002  30.535  32.673  1.00  0.00     0.173 A 
ATOM     80  F   UNL A   1      42.258  33.313  32.027  1.00  0.00    -0.203 F 
ATOM     81  C   UNL A   1      39.938  33.304  32.396  1.00  0.00     0.198 A 
ATOM     82  C   UNL A   1      38.798  31.231  32.783  1.00  0.00     0.198 A 
ATOM     83  F   UNL A   1      39.975  29.195  32.732  1.00  0.00    -0.203 F 
ATOM     84  F   UNL A   1      39.909  34.629  32.191  1.00  0.00    -0.200 F 
ATOM     85  C   UNL A   1      38.760  32.606  32.604  1.00  0.00     0.200 A 
ATOM     86  F   UNL A   1      37.655  30.553  32.958  1.00  0.00    -0.200 F 
ATOM     87  F   UNL A   1      37.585  33.251  32.587  1.00  0.00    -0.200 F 
ENDBRANCH  53  77
BRANCH  65  88
ATOM     88  C   UNL A   1      45.050  25.161  33.197  1.00  0.00     0.064 A 
ATOM     89  C   UNL A   1      44.206  24.493  34.098  1.00  0.00     0.173 A 
ATOM     90  C   UNL A   1      46.432  24.911  33.334  1.00  0.00     0.173 A 
ATOM     91  F   UNL A   1      42.881  24.702  34.076  1.00  0.00    -0.203 F 
ATOM     92  C   UNL A   1      44.710  23.608  35.053  1.00  0.00     0.198 A 
ATOM     93  C   UNL A   1      46.936  24.070  34.321  1.00  0.00     0.198 A 
ATOM     94  F   UNL A   1      47.325  25.459  32.497  1.00  0.00    -0.203 F 
ATOM     95  F   UNL A   1      43.867  22.952  35.862  1.00  0.00    -0.200 F 
ATOM     96  C   UNL A   1      46.074  23.409  35.174  1.00  0.00     0.200 A 
ATOM     97  F   UNL A   1      48.261  23.902  34.439  1.00  0.00    -0.200 F 
ATOM     98  F   UNL A   1      46.558  22.578  36.108  1.00  0.00    -0.200 F 
ENDBRANCH  65  88
ENDBRANCH  39  40
ENDBRANCH  31  34
ENDBRANCH  29  30
ENDBRANCH  28  29
ENDBRANCH  27  28
ENDBRANCH   1  27
TORSDOF 15
ENDMDL
MODEL 3
REMARK VINA RESULT:     -13.2      3.300      9.747
REMARK SMILES COC(=O)c1ccc(C)c(NC(=O)[C@@H]2CC=CC[C@H]2C(=O)NCCCCNC(=O)c2ccc(-c3c4nc(c(-c5c(F)c(F)c(F)c(F)c5F)c5ccc([nH]5)c(-c5c(F)c(F)c(F)c(F)c5F)c5nc(c(-c6c(F)c(F)c(F)c(F)c6F)c6ccc3[nH]6)C=C5)C=C4)cc2)c1
REMARK SMILES IDX 23 1 22 2 20 3 21 4 19 6 14 7 15 8 16 9 18 10 17 11 12 12
REMARK SMILES IDX 11 13 13 15 10 16 5 17 6 18 93 19 7 20 8 21 9 22 3 23 4 24
REMARK SMILES IDX 2 25 1 26 24 27 25 28 26 29 27 30 28 31 29 33 30 34 31 35
REMARK SMILES IDX 92 36 32 37 91 38 33 39 34 40 35 41 85 42 36 43 90 44 84 45
REMARK SMILES IDX 86 46 37 47 89 48 83 49 82 50 38 52 70 53 50 54 69 55 51 56
REMARK SMILES IDX 54 57 68 58 87 59 52 60 53 61 67 63 88 64 55 65 39 66 40 67
REMARK SMILES IDX 48 68 41 69 42 70 46 71 49 72 43 73 44 74 47 75 45 76 71 77
REMARK SMILES IDX 72 78 80 79 73 80 74 81 78 82 81 83 75 84 76 85 79 86 77 87
REMARK SMILES IDX 56 88 57 89 65 90 58 91 59 92 63 93 66 94 60 95 61 96 64 97
REMARK SMILES IDX 62 98
REMARK H PARENT 22 5 11 14 27 32 86 51 54 62
REMARK Flexibility Score: inf
ROOT
ATOM      1  C   UNL A   1      33.607  29.170  25.920  1.00  0.00     0.116 C 
ENDROOT
BRANCH   1   2
ATOM      2  N   UNL A   1      34.053  27.795  25.947  1.00  0.00    -0.356 N 
ATOM      3  C   UNL A   1      33.483  26.624  25.590  1.00  0.00     0.224 C 
ATOM      4  O   UNL A   1      34.158  25.615  25.827  1.00  0.00    -0.275 OA
ATOM      5  H   UNL A   1      34.966  27.690  26.301  1.00  0.00     0.163 HD
BRANCH   3   6
ATOM      6  C   UNL A   1      32.183  26.485  24.816  1.00  0.00     0.095 C 
ATOM      7  C   UNL A   1      32.054  25.572  23.586  1.00  0.00     0.095 C 
ATOM      8  C   UNL A   1      30.826  26.106  22.814  1.00  0.00     0.041 C 
ATOM      9  C   UNL A   1      29.603  26.035  23.683  1.00  0.00    -0.030 C 
ATOM     10  C   UNL A   1      31.007  26.149  25.764  1.00  0.00     0.041 C 
ATOM     11  C   UNL A   1      29.691  26.019  25.025  1.00  0.00    -0.030 C 
BRANCH   7  12
ATOM     12  C   UNL A   1      33.188  25.483  22.613  1.00  0.00     0.228 C 
ATOM     13  N   UNL A   1      34.054  24.422  22.588  1.00  0.00    -0.326 N 
ATOM     14  H   UNL A   1      34.637  24.461  21.795  1.00  0.00     0.169 HD
ATOM     15  O   UNL A   1      33.385  26.391  21.800  1.00  0.00    -0.274 OA
BRANCH  13  16
ATOM     16  C   UNL A   1      34.350  23.276  23.381  1.00  0.00     0.044 A 
ATOM     17  C   UNL A   1      36.115  22.403  24.877  1.00  0.00     0.062 A 
ATOM     18  C   UNL A   1      35.356  21.278  25.151  1.00  0.00     0.016 A 
ATOM     19  C   UNL A   1      35.641  23.357  23.964  1.00  0.00     0.042 A 
ATOM     20  C   UNL A   1      34.107  21.151  24.561  1.00  0.00     0.006 A 
ATOM     21  C   UNL A   1      33.581  22.132  23.683  1.00  0.00    -0.027 A 
ATOM     22  C   UNL A   1      32.236  21.760  23.139  1.00  0.00     0.046 C 
BRANCH  17  23
ATOM     23  C   UNL A   1      37.351  22.592  25.679  1.00  0.00     0.337 C 
ATOM     24  O   UNL A   1      37.711  23.658  26.116  1.00  0.00    -0.246 OA
BRANCH  23  25
ATOM     25  O   UNL A   1      38.065  21.432  25.662  1.00  0.00    -0.465 OA
ATOM     26  C   UNL A   1      39.427  21.623  26.049  1.00  0.00     0.282 C 
ENDBRANCH  23  25
ENDBRANCH  17  23
ENDBRANCH  13  16
ENDBRANCH   7  12
ENDBRANCH   3   6
ENDBRANCH   1   2
BRANCH   1  27
ATOM     27  C   UNL A   1      33.000  29.587  27.260  1.00  0.00     0.023 C 
BRANCH  27  28
ATOM     28  C   UNL A   1      32.974  31.083  27.557  1.00  0.00     0.023 C 
BRANCH  28  29
ATOM     29  C   UNL A   1      34.340  31.736  27.504  1.00  0.00     0.116 C 
BRANCH  29  30
ATOM     30  N   UNL A   1      34.814  32.179  28.813  1.00  0.00    -0.352 N 
ATOM     31  C   UNL A   1      35.583  31.510  29.752  1.00  0.00     0.251 C 
ATOM     32  H   UNL A   1      34.546  33.092  29.067  1.00  0.00     0.163 HD
ATOM     33  O   UNL A   1      35.806  31.992  30.857  1.00  0.00    -0.269 OA
BRANCH  31  34
ATOM     34  C   UNL A   1      36.290  30.285  29.329  1.00  0.00     0.039 A 
ATOM     35  C   UNL A   1      36.632  29.385  30.347  1.00  0.00     0.014 A 
ATOM     36  C   UNL A   1      36.950  30.276  28.110  1.00  0.00     0.014 A 
ATOM     37  C   UNL A   1      37.838  28.704  30.254  1.00  0.00     0.010 A 
ATOM     38  C   UNL A   1      38.213  29.732  28.089  1.00  0.00     0.010 A 
ATOM     39  C   UNL A   1      38.682  29.002  29.189  1.00  0.00    -0.014 A 
BRANCH  39  40
ATOM     40  C   UNL A   1      40.092  28.644  29.156  1.00  0.00     0.031 A 
ATOM     41  C   UNL A   1      40.475  27.280  28.744  1.00  0.00     0.074 A 
ATOM     42  C   UNL A   1      41.048  29.569  29.399  1.00  0.00     0.049 A 
ATOM     43  N   UNL A   1      41.609  26.734  29.021  1.00  0.00    -0.248 NA
ATOM     44  C   UNL A   1      39.577  26.405  27.995  1.00  0.00     0.031 C 
ATOM     45  C   UNL A   1      42.482  29.446  29.140  1.00  0.00     0.029 A 
ATOM     46  N   UNL A   1      40.934  30.759  30.138  1.00  0.00    -0.354 N 
ATOM     47  C   UNL A   1      41.697  25.580  28.286  1.00  0.00     0.074 A 
ATOM     48  C   UNL A   1      40.396  25.399  27.685  1.00  0.00     0.031 C 
ATOM     49  C   UNL A   1      43.141  30.290  29.948  1.00  0.00     0.029 A 
ATOM     50  C   UNL A   1      42.161  30.880  30.841  1.00  0.00     0.049 A 
ATOM     51  H   UNL A   1      40.167  31.377  30.162  1.00  0.00     0.167 HD
ATOM     52  C   UNL A   1      42.896  24.949  28.164  1.00  0.00     0.037 A 
ATOM     53  C   UNL A   1      42.192  30.810  32.204  1.00  0.00     0.037 A 
ATOM     54  C   UNL A   1      43.938  25.584  28.959  1.00  0.00     0.049 A 
ATOM     55  C   UNL A   1      42.995  29.651  32.762  1.00  0.00     0.074 A 
ATOM     56  C   UNL A   1      44.964  26.476  28.694  1.00  0.00     0.029 A 
ATOM     57  N   UNL A   1      43.799  25.572  30.335  1.00  0.00    -0.354 N 
ATOM     58  N   UNL A   1      43.568  28.729  32.038  1.00  0.00    -0.248 NA
ATOM     59  C   UNL A   1      43.114  29.382  34.198  1.00  0.00     0.031 C 
ATOM     60  C   UNL A   1      45.426  27.008  29.934  1.00  0.00     0.029 A 
ATOM     61  C   UNL A   1      44.684  26.435  30.949  1.00  0.00     0.049 A 
ATOM     62  H   UNL A   1      43.148  25.014  30.819  1.00  0.00     0.167 HD
ATOM     63  C   UNL A   1      44.049  27.743  32.860  1.00  0.00     0.074 A 
ATOM     64  C   UNL A   1      43.748  28.198  34.203  1.00  0.00     0.031 C 
ATOM     65  C   UNL A   1      44.617  26.596  32.390  1.00  0.00     0.037 A 
BRANCH  52  66
ATOM     66  C   UNL A   1      43.117  23.900  27.114  1.00  0.00     0.064 A 
ATOM     67  C   UNL A   1      42.731  22.565  27.331  1.00  0.00     0.173 A 
ATOM     68  C   UNL A   1      43.785  24.150  25.900  1.00  0.00     0.173 A 
ATOM     69  F   UNL A   1      42.016  22.213  28.406  1.00  0.00    -0.203 F 
ATOM     70  C   UNL A   1      43.097  21.539  26.458  1.00  0.00     0.198 A 
ATOM     71  C   UNL A   1      44.211  23.117  25.063  1.00  0.00     0.198 A 
ATOM     72  F   UNL A   1      44.037  25.406  25.499  1.00  0.00    -0.203 F 
ATOM     73  F   UNL A   1      42.714  20.281  26.715  1.00  0.00    -0.200 F 
ATOM     74  C   UNL A   1      43.875  21.809  25.349  1.00  0.00     0.200 A 
ATOM     75  F   UNL A   1      44.964  23.397  23.990  1.00  0.00    -0.200 F 
ATOM     76  F   UNL A   1      44.288  20.814  24.553  1.00  0.00    -0.200 F 
ENDBRANCH  52  66
BRANCH  53  77
ATOM     77  C   UNL A   1      40.967  31.382  32.829  1.00  0.00     0.064 A 
ATOM     78  C   UNL A   1      40.842  32.784  32.899  1.00  0.00     0.173 A 
ATOM     79  C   UNL A   1      39.806  30.620  32.991  1.00  0.00     0.173 A 
ATOM     80  F   UNL A   1      41.924  33.565  32.747  1.00  0.00    -0.203 F 
ATOM     81  C   UNL A   1      39.593  33.395  32.987  1.00  0.00     0.198 A 
ATOM     82  C   UNL A   1      38.559  31.235  33.104  1.00  0.00     0.198 A 
ATOM     83  F   UNL A   1      39.854  29.281  32.915  1.00  0.00    -0.203 F 
ATOM     84  F   UNL A   1      39.497  34.731  32.914  1.00  0.00    -0.200 F 
ATOM     85  C   UNL A   1      38.450  32.618  33.062  1.00  0.00     0.200 A 
ATOM     86  F   UNL A   1      37.451  30.483  33.150  1.00  0.00    -0.200 F 
ATOM     87  F   UNL A   1      37.241  33.197  33.045  1.00  0.00    -0.200 F 
ENDBRANCH  53  77
BRANCH  65  88
ATOM     88  C   UNL A   1      45.154  25.518  33.282  1.00  0.00     0.064 A 
ATOM     89  C   UNL A   1      46.524  25.224  33.353  1.00  0.00     0.173 A 
ATOM     90  C   UNL A   1      44.292  24.660  33.999  1.00  0.00     0.173 A 
ATOM     91  F   UNL A   1      47.417  25.954  32.668  1.00  0.00    -0.203 F 
ATOM     92  C   UNL A   1      47.004  24.159  34.119  1.00  0.00     0.198 A 
ATOM     93  C   UNL A   1      44.769  23.568  34.718  1.00  0.00     0.198 A 
ATOM     94  F   UNL A   1      42.970  24.876  34.039  1.00  0.00    -0.203 F 
ATOM     95  F   UNL A   1      48.324  23.941  34.201  1.00  0.00    -0.200 F 
ATOM     96  C   UNL A   1      46.126  23.323  34.788  1.00  0.00     0.200 A 
ATOM     97  F   UNL A   1      43.905  22.757  35.345  1.00  0.00    -0.200 F 
ATOM     98  F   UNL A   1      46.587  22.287  35.501  1.00  0.00    -0.200 F 
ENDBRANCH  65  88
ENDBRANCH  39  40
ENDBRANCH  31  34
ENDBRANCH  29  30
ENDBRANCH  28  29
ENDBRANCH  27  28
ENDBRANCH   1  27
TORSDOF 15
ENDMDL
