MODEL 1
REMARK VINA RESULT:     -12.0      0.000      0.000
REMARK SMILES Cc1cc2nc(NC3=[NH+][C@H](CC(=O)NCCCCNC(=O)c4ccc(-c5c6nc(c(-c7c(F)c(F)c(F)c(F)c7F)c7ccc([nH]7)c(-c7c(F)c(F)c(F)c(F)c7F)c7nc(c(-c8c(F)c(F)c(F)c(F)c8F)c8ccc5[nH]8)C=C7)C=C6)cc4)C(=O)N3)nc(C)c2cc1C
REMARK SMILES IDX 16 1 15 2 14 3 12 4 13 5 11 7 10 8 7 9 8 10 9 12 87 13 85 15
REMARK SMILES IDX 86 17 6 18 1 19 2 20 3 21 93 22 4 23 92 24 94 25 5 26 91 27
REMARK SMILES IDX 89 28 88 29 90 30 17 31 18 32 19 33 20 34 21 36 22 37 23 38
REMARK SMILES IDX 84 39 24 40 83 41 25 42 26 43 27 44 77 45 28 46 82 47 76 48
REMARK SMILES IDX 78 49 29 50 81 51 75 52 74 53 30 55 62 56 42 57 61 58 43 59
REMARK SMILES IDX 46 60 60 61 79 62 44 63 45 64 59 66 80 67 47 68 31 69 32 70
REMARK SMILES IDX 40 71 33 72 34 73 38 74 41 75 35 76 36 77 39 78 37 79 63 80
REMARK SMILES IDX 64 81 72 82 65 83 66 84 70 85 73 86 67 87 68 88 71 89 69 90
REMARK SMILES IDX 48 91 49 92 57 93 50 94 51 95 55 96 58 97 52 98 53 99 56 100
REMARK SMILES IDX 54 101
REMARK H PARENT 14 6 7 11 9 14 87 16 19 35 78 54 46 65
REMARK Flexibility Score: inf
ROOT
ATOM      1  C   UNL A   1      35.288  33.109  29.040  1.00  0.00     0.023 C 
ENDROOT
BRANCH   1   2
ATOM      2  C   UNL A   1      35.320  34.271  28.041  1.00  0.00     0.116 C 
BRANCH   2   3
ATOM      3  N   UNL A   1      34.064  34.995  28.024  1.00  0.00    -0.356 N 
ATOM      4  C   UNL A   1      33.448  35.651  29.051  1.00  0.00     0.224 C 
ATOM      5  O   UNL A   1      32.328  36.122  28.850  1.00  0.00    -0.275 OA
ATOM      6  H   UNL A   1      33.592  35.016  27.160  1.00  0.00     0.163 HD
BRANCH   4   7
ATOM      7  C   UNL A   1      34.143  35.835  30.389  1.00  0.00     0.153 C 
BRANCH   7   8
ATOM      8  C   UNL A   1      33.257  35.488  31.577  1.00  0.00     0.260 C 
ATOM      9  N   UNL A   1      34.902  34.447  34.561  1.00  0.00    -0.212 N 
ATOM     10  C   UNL A   1      34.199  35.019  33.557  1.00  0.00     0.358 C 
ATOM     11  H   UNL A   1      34.547  34.524  35.476  1.00  0.00     0.270 HD
ATOM     12  N   UNL A   1      33.935  34.473  32.416  1.00  0.00    -0.263 N 
ATOM     13  N   UNL A   1      33.694  36.257  33.702  1.00  0.00    -0.211 N 
ATOM     14  H   UNL A   1      34.147  33.548  32.153  1.00  0.00     0.261 HD
ATOM     15  C   UNL A   1      33.119  36.658  32.534  1.00  0.00     0.320 C 
ATOM     16  H   UNL A   1      33.732  36.792  34.527  1.00  0.00     0.270 HD
ATOM     17  O   UNL A   1      32.639  37.750  32.314  1.00  0.00    -0.252 OA
BRANCH   9  18
ATOM     18  C   UNL A   1      36.096  33.755  34.383  1.00  0.00     0.291 A 
ATOM     19  C   UNL A   1      38.230  28.344  32.640  1.00  0.00     0.044 C 
ATOM     20  C   UNL A   1      38.366  29.765  33.115  1.00  0.00    -0.046 A 
ATOM     21  C   UNL A   1      37.210  30.551  33.255  1.00  0.00     0.033 A 
ATOM     22  C   UNL A   1      39.612  30.340  33.393  1.00  0.00    -0.047 A 
ATOM     23  C   UNL A   1      37.241  31.862  33.720  1.00  0.00     0.078 A 
ATOM     24  C   UNL A   1      39.655  31.669  33.845  1.00  0.00     0.016 A 
ATOM     25  C   UNL A   1      40.891  29.562  33.254  1.00  0.00     0.044 C 
ATOM     26  N   UNL A   1      36.083  32.510  33.886  1.00  0.00    -0.198 NA
ATOM     27  C   UNL A   1      38.473  32.434  34.023  1.00  0.00     0.022 A 
ATOM     28  C   UNL A   1      38.399  33.750  34.505  1.00  0.00     0.052 A 
ATOM     29  N   UNL A   1      37.224  34.411  34.671  1.00  0.00    -0.203 NA
ATOM     30  C   UNL A   1      39.633  34.534  34.848  1.00  0.00     0.067 C 
ENDBRANCH   9  18
ENDBRANCH   7   8
ENDBRANCH   4   7
ENDBRANCH   2   3
ENDBRANCH   1   2
BRANCH   1  31
ATOM     31  C   UNL A   1      34.035  32.250  28.977  1.00  0.00     0.023 C 
BRANCH  31  32
ATOM     32  C   UNL A   1      33.615  31.858  27.569  1.00  0.00     0.116 C 
BRANCH  32  33
ATOM     33  N   UNL A   1      33.335  30.438  27.386  1.00  0.00    -0.352 N 
ATOM     34  C   UNL A   1      34.185  29.371  27.579  1.00  0.00     0.251 C 
ATOM     35  H   UNL A   1      32.423  30.214  27.087  1.00  0.00     0.163 HD
ATOM     36  O   UNL A   1      33.835  28.219  27.349  1.00  0.00    -0.269 OA
BRANCH  34  37
ATOM     37  C   UNL A   1      35.575  29.643  27.998  1.00  0.00     0.039 A 
ATOM     38  C   UNL A   1      36.528  30.040  27.060  1.00  0.00     0.014 A 
ATOM     39  C   UNL A   1      35.948  29.360  29.314  1.00  0.00     0.014 A 
ATOM     40  C   UNL A   1      37.872  29.913  27.373  1.00  0.00     0.010 A 
ATOM     41  C   UNL A   1      37.300  29.351  29.658  1.00  0.00     0.010 A 
ATOM     42  C   UNL A   1      38.276  29.552  28.670  1.00  0.00    -0.014 A 
BRANCH  42  43
ATOM     43  C   UNL A   1      39.721  29.365  28.956  1.00  0.00     0.031 A 
ATOM     44  C   UNL A   1      40.450  28.133  28.487  1.00  0.00     0.074 A 
ATOM     45  C   UNL A   1      40.392  30.351  29.582  1.00  0.00     0.049 A 
ATOM     46  N   UNL A   1      41.712  27.812  28.640  1.00  0.00    -0.248 NA
ATOM     47  C   UNL A   1      39.666  27.124  27.757  1.00  0.00     0.031 C 
ATOM     48  C   UNL A   1      39.794  31.598  30.062  1.00  0.00     0.029 A 
ATOM     49  N   UNL A   1      41.722  30.480  29.888  1.00  0.00    -0.354 N 
ATOM     50  C   UNL A   1      41.864  26.564  28.048  1.00  0.00     0.074 A 
ATOM     51  C   UNL A   1      40.562  26.166  27.560  1.00  0.00     0.031 C 
ATOM     52  C   UNL A   1      40.760  32.393  30.538  1.00  0.00     0.029 A 
ATOM     53  C   UNL A   1      42.033  31.684  30.470  1.00  0.00     0.049 A 
ATOM     54  H   UNL A   1      42.389  29.779  29.709  1.00  0.00     0.167 HD
ATOM     55  C   UNL A   1      42.992  25.827  27.913  1.00  0.00     0.037 A 
ATOM     56  C   UNL A   1      43.210  32.160  30.916  1.00  0.00     0.037 A 
ATOM     57  C   UNL A   1      44.291  26.244  28.374  1.00  0.00     0.049 A 
ATOM     58  C   UNL A   1      44.435  31.301  30.796  1.00  0.00     0.074 A 
ATOM     59  C   UNL A   1      45.499  25.577  28.268  1.00  0.00     0.029 A 
ATOM     60  N   UNL A   1      44.553  27.443  29.022  1.00  0.00    -0.354 N 
ATOM     61  N   UNL A   1      44.562  30.121  30.244  1.00  0.00    -0.248 NA
ATOM     62  C   UNL A   1      45.673  31.833  31.377  1.00  0.00     0.031 C 
ATOM     63  C   UNL A   1      46.483  26.351  28.891  1.00  0.00     0.029 A 
ATOM     64  C   UNL A   1      45.898  27.524  29.342  1.00  0.00     0.049 A 
ATOM     65  H   UNL A   1      43.881  28.134  29.225  1.00  0.00     0.167 HD
ATOM     66  C   UNL A   1      45.894  29.769  30.399  1.00  0.00     0.074 A 
ATOM     67  C   UNL A   1      46.541  30.874  31.080  1.00  0.00     0.031 C 
ATOM     68  C   UNL A   1      46.523  28.631  30.020  1.00  0.00     0.037 A 
BRANCH  55  69
ATOM     69  C   UNL A   1      42.884  24.485  27.245  1.00  0.00     0.064 A 
ATOM     70  C   UNL A   1      43.181  24.314  25.886  1.00  0.00     0.173 A 
ATOM     71  C   UNL A   1      42.551  23.343  27.991  1.00  0.00     0.173 A 
ATOM     72  F   UNL A   1      43.496  25.374  25.125  1.00  0.00    -0.203 F 
ATOM     73  C   UNL A   1      43.135  23.054  25.294  1.00  0.00     0.198 A 
ATOM     74  C   UNL A   1      42.532  22.081  27.403  1.00  0.00     0.198 A 
ATOM     75  F   UNL A   1      42.266  23.448  29.297  1.00  0.00    -0.203 F 
ATOM     76  F   UNL A   1      43.391  22.920  23.985  1.00  0.00    -0.200 F 
ATOM     77  C   UNL A   1      42.820  21.937  26.054  1.00  0.00     0.200 A 
ATOM     78  F   UNL A   1      42.243  21.002  28.144  1.00  0.00    -0.200 F 
ATOM     79  F   UNL A   1      42.791  20.723  25.487  1.00  0.00    -0.200 F 
ENDBRANCH  55  69
BRANCH  56  80
ATOM     80  C   UNL A   1      43.268  33.521  31.509  1.00  0.00     0.064 A 
ATOM     81  C   UNL A   1      43.444  34.649  30.698  1.00  0.00     0.173 A 
ATOM     82  C   UNL A   1      43.098  33.724  32.887  1.00  0.00     0.173 A 
ATOM     83  F   UNL A   1      43.626  34.504  29.377  1.00  0.00    -0.203 F 
ATOM     84  C   UNL A   1      43.445  35.931  31.244  1.00  0.00     0.198 A 
ATOM     85  C   UNL A   1      43.070  35.007  33.426  1.00  0.00     0.198 A 
ATOM     86  F   UNL A   1      42.919  32.676  33.704  1.00  0.00    -0.203 F 
ATOM     87  F   UNL A   1      43.638  36.993  30.449  1.00  0.00    -0.200 F 
ATOM     88  C   UNL A   1      43.247  36.110  32.605  1.00  0.00     0.200 A 
ATOM     89  F   UNL A   1      42.856  35.176  34.737  1.00  0.00    -0.200 F 
ATOM     90  F   UNL A   1      43.226  37.344  33.125  1.00  0.00    -0.200 F 
ENDBRANCH  56  80
BRANCH  68  91
ATOM     91  C   UNL A   1      47.988  28.518  30.321  1.00  0.00     0.064 A 
ATOM     92  C   UNL A   1      48.444  27.943  31.515  1.00  0.00     0.173 A 
ATOM     93  C   UNL A   1      48.942  28.923  29.375  1.00  0.00     0.173 A 
ATOM     94  F   UNL A   1      47.569  27.556  32.455  1.00  0.00    -0.203 F 
ATOM     95  C   UNL A   1      49.806  27.786  31.756  1.00  0.00     0.198 A 
ATOM     96  C   UNL A   1      50.302  28.738  29.608  1.00  0.00     0.198 A 
ATOM     97  F   UNL A   1      48.555  29.473  28.215  1.00  0.00    -0.203 F 
ATOM     98  F   UNL A   1      50.222  27.262  32.917  1.00  0.00    -0.200 F 
ATOM     99  C   UNL A   1      50.732  28.173  30.799  1.00  0.00     0.200 A 
ATOM    100  F   UNL A   1      51.195  29.100  28.677  1.00  0.00    -0.200 F 
ATOM    101  F   UNL A   1      52.042  28.004  31.026  1.00  0.00    -0.200 F 
ENDBRANCH  68  91
ENDBRANCH  42  43
ENDBRANCH  34  37
ENDBRANCH  32  33
ENDBRANCH  31  32
ENDBRANCH   1  31
TORSDOF 13
ENDMDL
MODEL 2
REMARK VINA RESULT:     -12.0      0.320      7.039
REMARK SMILES Cc1cc2nc(NC3=[NH+][C@H](CC(=O)NCCCCNC(=O)c4ccc(-c5c6nc(c(-c7c(F)c(F)c(F)c(F)c7F)c7ccc([nH]7)c(-c7c(F)c(F)c(F)c(F)c7F)c7nc(c(-c8c(F)c(F)c(F)c(F)c8F)c8ccc5[nH]8)C=C7)C=C6)cc4)C(=O)N3)nc(C)c2cc1C
REMARK SMILES IDX 16 1 15 2 14 3 12 4 13 5 11 7 10 8 7 9 8 10 9 12 87 13 85 15
REMARK SMILES IDX 86 17 6 18 1 19 2 20 3 21 93 22 4 23 92 24 94 25 5 26 91 27
REMARK SMILES IDX 89 28 88 29 90 30 17 31 18 32 19 33 20 34 21 36 22 37 23 38
REMARK SMILES IDX 84 39 24 40 83 41 25 42 26 43 27 44 77 45 28 46 82 47 76 48
REMARK SMILES IDX 78 49 29 50 81 51 75 52 74 53 30 55 62 56 42 57 61 58 43 59
REMARK SMILES IDX 46 60 60 61 79 62 44 63 45 64 59 66 80 67 47 68 31 69 32 70
REMARK SMILES IDX 40 71 33 72 34 73 38 74 41 75 35 76 36 77 39 78 37 79 63 80
REMARK SMILES IDX 64 81 72 82 65 83 66 84 70 85 73 86 67 87 68 88 71 89 69 90
REMARK SMILES IDX 48 91 49 92 57 93 50 94 51 95 55 96 58 97 52 98 53 99 56 100
REMARK SMILES IDX 54 101
REMARK H PARENT 14 6 7 11 9 14 87 16 19 35 78 54 46 65
REMARK Flexibility Score: inf
ROOT
ATOM      1  C   UNL A   1      35.215  33.274  29.080  1.00  0.00     0.023 C 
ENDROOT
BRANCH   1   2
ATOM      2  C   UNL A   1      35.182  34.382  28.022  1.00  0.00     0.116 C 
BRANCH   2   3
ATOM      3  N   UNL A   1      33.937  35.124  28.065  1.00  0.00    -0.356 N 
ATOM      4  C   UNL A   1      33.360  35.754  29.131  1.00  0.00     0.224 C 
ATOM      5  O   UNL A   1      32.242  36.247  28.977  1.00  0.00    -0.275 OA
ATOM      6  H   UNL A   1      33.441  35.180  27.216  1.00  0.00     0.163 HD
BRANCH   4   7
ATOM      7  C   UNL A   1      34.095  35.885  30.453  1.00  0.00     0.153 C 
BRANCH   7   8
ATOM      8  C   UNL A   1      33.225  35.553  31.658  1.00  0.00     0.260 C 
ATOM      9  N   UNL A   1      34.907  34.501  34.617  1.00  0.00    -0.212 N 
ATOM     10  C   UNL A   1      34.194  35.080  33.623  1.00  0.00     0.358 C 
ATOM     11  H   UNL A   1      34.568  34.587  35.537  1.00  0.00     0.270 HD
ATOM     12  N   UNL A   1      33.904  34.532  32.489  1.00  0.00    -0.263 N 
ATOM     13  N   UNL A   1      33.707  36.324  33.772  1.00  0.00    -0.211 N 
ATOM     14  H   UNL A   1      34.099  33.604  32.226  1.00  0.00     0.261 HD
ATOM     15  C   UNL A   1      33.119  36.728  32.612  1.00  0.00     0.320 C 
ATOM     16  H   UNL A   1      33.767  36.862  34.594  1.00  0.00     0.270 HD
ATOM     17  O   UNL A   1      32.649  37.826  32.396  1.00  0.00    -0.252 OA
BRANCH   9  18
ATOM     18  C   UNL A   1      36.088  33.793  34.421  1.00  0.00     0.291 A 
ATOM     19  C   UNL A   1      38.123  28.351  32.658  1.00  0.00     0.044 C 
ATOM     20  C   UNL A   1      38.286  29.771  33.127  1.00  0.00    -0.046 A 
ATOM     21  C   UNL A   1      37.142  30.573  33.284  1.00  0.00     0.033 A 
ATOM     22  C   UNL A   1      39.544  30.331  33.384  1.00  0.00    -0.047 A 
ATOM     23  C   UNL A   1      37.198  31.885  33.745  1.00  0.00     0.078 A 
ATOM     24  C   UNL A   1      39.611  31.660  33.832  1.00  0.00     0.016 A 
ATOM     25  C   UNL A   1      40.810  29.535  33.226  1.00  0.00     0.044 C 
ATOM     26  N   UNL A   1      36.051  32.548  33.928  1.00  0.00    -0.198 NA
ATOM     27  C   UNL A   1      38.442  32.441  34.026  1.00  0.00     0.022 A 
ATOM     28  C   UNL A   1      38.393  33.759  34.506  1.00  0.00     0.052 A 
ATOM     29  N   UNL A   1      37.230  34.435  34.690  1.00  0.00    -0.203 NA
ATOM     30  C   UNL A   1      39.643  34.527  34.828  1.00  0.00     0.067 C 
ENDBRANCH   9  18
ENDBRANCH   7   8
ENDBRANCH   4   7
ENDBRANCH   2   3
ENDBRANCH   1   2
BRANCH   1  31
ATOM     31  C   UNL A   1      34.055  32.293  29.011  1.00  0.00     0.023 C 
BRANCH  31  32
ATOM     32  C   UNL A   1      33.692  31.852  27.601  1.00  0.00     0.116 C 
BRANCH  32  33
ATOM     33  N   UNL A   1      33.393  30.431  27.463  1.00  0.00    -0.352 N 
ATOM     34  C   UNL A   1      34.242  29.361  27.647  1.00  0.00     0.251 C 
ATOM     35  H   UNL A   1      32.469  30.208  27.205  1.00  0.00     0.163 HD
ATOM     36  O   UNL A   1      33.874  28.207  27.457  1.00  0.00    -0.269 OA
BRANCH  34  37
ATOM     37  C   UNL A   1      35.650  29.629  28.005  1.00  0.00     0.039 A 
ATOM     38  C   UNL A   1      36.553  30.059  27.033  1.00  0.00     0.014 A 
ATOM     39  C   UNL A   1      36.088  29.312  29.291  1.00  0.00     0.014 A 
ATOM     40  C   UNL A   1      37.912  29.932  27.275  1.00  0.00     0.010 A 
ATOM     41  C   UNL A   1      37.456  29.301  29.569  1.00  0.00     0.010 A 
ATOM     42  C   UNL A   1      38.381  29.537  28.540  1.00  0.00    -0.014 A 
BRANCH  42  43
ATOM     43  C   UNL A   1      39.839  29.351  28.749  1.00  0.00     0.031 A 
ATOM     44  C   UNL A   1      40.647  30.367  29.514  1.00  0.00     0.074 A 
ATOM     45  C   UNL A   1      40.420  28.220  28.304  1.00  0.00     0.049 A 
ATOM     46  N   UNL A   1      41.927  30.358  29.798  1.00  0.00    -0.248 NA
ATOM     47  C   UNL A   1      39.934  31.550  30.023  1.00  0.00     0.031 C 
ATOM     48  C   UNL A   1      39.731  27.158  27.570  1.00  0.00     0.029 A 
ATOM     49  N   UNL A   1      41.704  27.758  28.434  1.00  0.00    -0.354 N 
ATOM     50  C   UNL A   1      42.172  31.535  30.494  1.00  0.00     0.074 A 
ATOM     51  C   UNL A   1      40.919  32.254  30.565  1.00  0.00     0.031 C 
ATOM     52  C   UNL A   1      40.579  26.139  27.375  1.00  0.00     0.029 A 
ATOM     53  C   UNL A   1      41.889  26.507  27.899  1.00  0.00     0.049 A 
ATOM     54  H   UNL A   1      42.423  28.271  28.867  1.00  0.00     0.167 HD
ATOM     55  C   UNL A   1      43.335  31.968  31.037  1.00  0.00     0.037 A 
ATOM     56  C   UNL A   1      42.996  25.745  27.823  1.00  0.00     0.037 A 
ATOM     57  C   UNL A   1      44.572  31.232  30.990  1.00  0.00     0.049 A 
ATOM     58  C   UNL A   1      44.281  26.270  28.391  1.00  0.00     0.074 A 
ATOM     59  C   UNL A   1      45.801  31.576  31.527  1.00  0.00     0.029 A 
ATOM     60  N   UNL A   1      44.735  29.998  30.378  1.00  0.00    -0.354 N 
ATOM     61  N   UNL A   1      44.500  27.388  29.038  1.00  0.00    -0.248 NA
ATOM     62  C   UNL A   1      45.475  25.437  28.204  1.00  0.00     0.031 C 
ATOM     63  C   UNL A   1      46.717  30.571  31.200  1.00  0.00     0.029 A 
ATOM     64  C   UNL A   1      46.049  29.577  30.503  1.00  0.00     0.049 A 
ATOM     65  H   UNL A   1      44.022  29.495  29.921  1.00  0.00     0.167 HD
ATOM     66  C   UNL A   1      45.853  27.392  29.344  1.00  0.00     0.074 A 
ATOM     67  C   UNL A   1      46.401  26.152  28.832  1.00  0.00     0.031 C 
ATOM     68  C   UNL A   1      46.576  28.340  29.985  1.00  0.00     0.037 A 
BRANCH  55  69
ATOM     69  C   UNL A   1      43.340  33.303  31.728  1.00  0.00     0.064 A 
ATOM     70  C   UNL A   1      43.469  34.501  31.012  1.00  0.00     0.173 A 
ATOM     71  C   UNL A   1      43.140  33.387  33.115  1.00  0.00     0.173 A 
ATOM     72  F   UNL A   1      43.672  34.477  29.685  1.00  0.00    -0.203 F 
ATOM     73  C   UNL A   1      43.413  35.734  31.660  1.00  0.00     0.198 A 
ATOM     74  C   UNL A   1      43.057  34.620  33.755  1.00  0.00     0.198 A 
ATOM     75  F   UNL A   1      43.003  32.271  33.847  1.00  0.00    -0.203 F 
ATOM     76  F   UNL A   1      43.570  36.865  30.959  1.00  0.00    -0.200 F 
ATOM     77  C   UNL A   1      43.197  35.793  33.029  1.00  0.00     0.200 A 
ATOM     78  F   UNL A   1      42.833  34.675  35.076  1.00  0.00    -0.200 F 
ATOM     79  F   UNL A   1      43.127  36.979  33.647  1.00  0.00    -0.200 F 
ENDBRANCH  55  69
BRANCH  56  80
ATOM     80  C   UNL A   1      42.916  24.405  27.185  1.00  0.00     0.064 A 
ATOM     81  C   UNL A   1      43.248  24.232  25.835  1.00  0.00     0.173 A 
ATOM     82  C   UNL A   1      42.559  23.267  27.923  1.00  0.00     0.173 A 
ATOM     83  F   UNL A   1      43.580  25.294  25.086  1.00  0.00    -0.203 F 
ATOM     84  C   UNL A   1      43.226  22.969  25.248  1.00  0.00     0.198 A 
ATOM     85  C   UNL A   1      42.567  22.001  27.343  1.00  0.00     0.198 A 
ATOM     86  F   UNL A   1      42.240  23.379  29.222  1.00  0.00    -0.203 F 
ATOM     87  F   UNL A   1      43.526  22.833  23.949  1.00  0.00    -0.200 F 
ATOM     88  C   UNL A   1      42.898  21.854  26.004  1.00  0.00     0.200 A 
ATOM     89  F   UNL A   1      42.271  20.925  28.082  1.00  0.00    -0.200 F 
ATOM     90  F   UNL A   1      42.899  20.637  25.444  1.00  0.00    -0.200 F 
ENDBRANCH  56  80
BRANCH  68  91
ATOM     91  C   UNL A   1      48.040  28.078  30.181  1.00  0.00     0.064 A 
ATOM     92  C   UNL A   1      48.506  27.328  31.270  1.00  0.00     0.173 A 
ATOM     93  C   UNL A   1      48.975  28.518  29.233  1.00  0.00     0.173 A 
ATOM     94  F   UNL A   1      47.651  26.899  32.210  1.00  0.00    -0.203 F 
ATOM     95  C   UNL A   1      49.860  27.037  31.408  1.00  0.00     0.198 A 
ATOM     96  C   UNL A   1      50.325  28.201  29.360  1.00  0.00     0.198 A 
ATOM     97  F   UNL A   1      48.577  29.233  28.170  1.00  0.00    -0.203 F 
ATOM     98  F   UNL A   1      50.289  26.346  32.473  1.00  0.00    -0.200 F 
ATOM     99  C   UNL A   1      50.766  27.465  30.448  1.00  0.00     0.200 A 
ATOM    100  F   UNL A   1      51.196  28.602  28.424  1.00  0.00    -0.200 F 
ATOM    101  F   UNL A   1      52.066  27.167  30.574  1.00  0.00    -0.200 F 
ENDBRANCH  68  91
ENDBRANCH  42  43
ENDBRANCH  34  37
ENDBRANCH  32  33
ENDBRANCH  31  32
ENDBRANCH   1  31
TORSDOF 13
ENDMDL
MODEL 3
REMARK VINA RESULT:     -11.7      4.379     10.403
REMARK SMILES Cc1cc2nc(NC3=[NH+][C@H](CC(=O)NCCCCNC(=O)c4ccc(-c5c6nc(c(-c7c(F)c(F)c(F)c(F)c7F)c7ccc([nH]7)c(-c7c(F)c(F)c(F)c(F)c7F)c7nc(c(-c8c(F)c(F)c(F)c(F)c8F)c8ccc5[nH]8)C=C7)C=C6)cc4)C(=O)N3)nc(C)c2cc1C
REMARK SMILES IDX 16 1 15 2 14 3 12 4 13 5 11 7 10 8 7 9 8 10 9 12 87 13 85 15
REMARK SMILES IDX 86 17 6 18 1 19 2 20 3 21 93 22 4 23 92 24 94 25 5 26 91 27
REMARK SMILES IDX 89 28 88 29 90 30 17 31 18 32 19 33 20 34 21 36 22 37 23 38
REMARK SMILES IDX 84 39 24 40 83 41 25 42 26 43 27 44 77 45 28 46 82 47 76 48
REMARK SMILES IDX 78 49 29 50 81 51 75 52 74 53 30 55 62 56 42 57 61 58 43 59
REMARK SMILES IDX 46 60 60 61 79 62 44 63 45 64 59 66 80 67 47 68 31 69 32 70
REMARK SMILES IDX 40 71 33 72 34 73 38 74 41 75 35 76 36 77 39 78 37 79 63 80
REMARK SMILES IDX 64 81 72 82 65 83 66 84 70 85 73 86 67 87 68 88 71 89 69 90
REMARK SMILES IDX 48 91 49 92 57 93 50 94 51 95 55 96 58 97 52 98 53 99 56 100
REMARK SMILES IDX 54 101
REMARK H PARENT 14 6 7 11 9 14 87 16 19 35 78 54 46 65
REMARK Flexibility Score: inf
ROOT
ATOM      1  C   UNL A   1      33.998  28.349  25.928  1.00  0.00     0.023 C 
ENDROOT
BRANCH   1   2
ATOM      2  C   UNL A   1      33.193  27.161  25.390  1.00  0.00     0.116 C 
BRANCH   2   3
ATOM      3  N   UNL A   1      33.813  26.587  24.212  1.00  0.00    -0.356 N 
ATOM      4  C   UNL A   1      33.363  26.605  22.922  1.00  0.00     0.224 C 
ATOM      5  O   UNL A   1      33.996  25.967  22.079  1.00  0.00    -0.275 OA
ATOM      6  H   UNL A   1      34.668  26.123  24.360  1.00  0.00     0.163 HD
BRANCH   4   7
ATOM      7  C   UNL A   1      32.147  27.423  22.530  1.00  0.00     0.153 C 
BRANCH   7   8
ATOM      8  C   UNL A   1      30.891  26.582  22.349  1.00  0.00     0.260 C 
ATOM      9  N   UNL A   1      30.747  23.498  24.128  1.00  0.00    -0.212 N 
ATOM     10  C   UNL A   1      30.615  24.728  23.579  1.00  0.00     0.358 C 
ATOM     11  H   UNL A   1      29.929  23.026  24.403  1.00  0.00     0.270 HD
ATOM     12  N   UNL A   1      31.228  25.150  22.522  1.00  0.00    -0.263 N 
ATOM     13  N   UNL A   1      29.781  25.629  24.126  1.00  0.00    -0.211 N 
ATOM     14  H   UNL A   1      31.813  24.616  21.938  1.00  0.00     0.261 HD
ATOM     15  C   UNL A   1      29.893  26.817  23.467  1.00  0.00     0.320 C 
ATOM     16  H   UNL A   1      29.180  25.458  24.886  1.00  0.00     0.270 HD
ATOM     17  O   UNL A   1      29.329  27.851  23.761  1.00  0.00    -0.252 OA
BRANCH   9  18
ATOM     18  C   UNL A   1      31.966  22.858  24.326  1.00  0.00     0.291 A 
ATOM     19  C   UNL A   1      37.721  23.990  25.897  1.00  0.00     0.044 C 
ATOM     20  C   UNL A   1      36.576  23.100  25.499  1.00  0.00    -0.046 A 
ATOM     21  C   UNL A   1      35.296  23.662  25.345  1.00  0.00     0.033 A 
ATOM     22  C   UNL A   1      36.736  21.722  25.307  1.00  0.00    -0.047 A 
ATOM     23  C   UNL A   1      34.189  22.919  24.947  1.00  0.00     0.078 A 
ATOM     24  C   UNL A   1      35.620  20.960  24.923  1.00  0.00     0.016 A 
ATOM     25  C   UNL A   1      38.073  21.052  25.466  1.00  0.00     0.044 C 
ATOM     26  N   UNL A   1      33.027  23.553  24.760  1.00  0.00    -0.198 NA
ATOM     27  C   UNL A   1      34.345  21.553  24.729  1.00  0.00     0.022 A 
ATOM     28  C   UNL A   1      33.178  20.896  24.310  1.00  0.00     0.052 A 
ATOM     29  N   UNL A   1      31.996  21.537  24.122  1.00  0.00    -0.203 NA
ATOM     30  C   UNL A   1      33.154  19.415  24.062  1.00  0.00     0.067 C 
ENDBRANCH   9  18
ENDBRANCH   7   8
ENDBRANCH   4   7
ENDBRANCH   2   3
ENDBRANCH   1   2
BRANCH   1  31
ATOM     31  C   UNL A   1      33.267  29.682  25.895  1.00  0.00     0.023 C 
BRANCH  31  32
ATOM     32  C   UNL A   1      33.204  30.394  27.237  1.00  0.00     0.116 C 
BRANCH  32  33
ATOM     33  N   UNL A   1      32.684  31.757  27.182  1.00  0.00    -0.352 N 
ATOM     34  C   UNL A   1      33.216  32.893  27.751  1.00  0.00     0.251 C 
ATOM     35  H   UNL A   1      31.848  31.879  26.676  1.00  0.00     0.163 HD
ATOM     36  O   UNL A   1      32.655  33.980  27.665  1.00  0.00    -0.269 OA
BRANCH  34  37
ATOM     37  C   UNL A   1      34.454  32.772  28.548  1.00  0.00     0.039 A 
ATOM     38  C   UNL A   1      35.700  32.907  27.938  1.00  0.00     0.014 A 
ATOM     39  C   UNL A   1      34.356  32.381  29.885  1.00  0.00     0.014 A 
ATOM     40  C   UNL A   1      36.823  32.415  28.586  1.00  0.00     0.010 A 
ATOM     41  C   UNL A   1      35.507  32.000  30.577  1.00  0.00     0.010 A 
ATOM     42  C   UNL A   1      36.739  31.941  29.907  1.00  0.00    -0.014 A 
BRANCH  42  43
ATOM     43  C   UNL A   1      37.946  31.365  30.551  1.00  0.00     0.031 A 
ATOM     44  C   UNL A   1      38.293  31.693  31.980  1.00  0.00     0.074 A 
ATOM     45  C   UNL A   1      38.693  30.484  29.858  1.00  0.00     0.049 A 
ATOM     46  N   UNL A   1      39.303  31.271  32.701  1.00  0.00    -0.248 NA
ATOM     47  C   UNL A   1      37.398  32.617  32.694  1.00  0.00     0.031 C 
ATOM     48  C   UNL A   1      38.440  30.076  28.475  1.00  0.00     0.029 A 
ATOM     49  N   UNL A   1      39.788  29.748  30.228  1.00  0.00    -0.354 N 
ATOM     50  C   UNL A   1      39.176  31.892  33.937  1.00  0.00     0.074 A 
ATOM     51  C   UNL A   1      38.011  32.746  33.863  1.00  0.00     0.031 C 
ATOM     52  C   UNL A   1      39.308  29.114  28.136  1.00  0.00     0.029 A 
ATOM     53  C   UNL A   1      40.227  28.893  29.247  1.00  0.00     0.049 A 
ATOM     54  H   UNL A   1      40.218  29.823  31.110  1.00  0.00     0.167 HD
ATOM     55  C   UNL A   1      39.954  31.750  35.037  1.00  0.00     0.037 A 
ATOM     56  C   UNL A   1      41.265  28.037  29.234  1.00  0.00     0.037 A 
ATOM     57  C   UNL A   1      41.094  30.874  35.112  1.00  0.00     0.049 A 
ATOM     58  C   UNL A   1      42.139  27.935  30.451  1.00  0.00     0.074 A 
ATOM     59  C   UNL A   1      41.936  30.645  36.187  1.00  0.00     0.029 A 
ATOM     60  N   UNL A   1      41.548  30.075  34.073  1.00  0.00    -0.354 N 
ATOM     61  N   UNL A   1      42.012  28.534  31.608  1.00  0.00    -0.248 NA
ATOM     62  C   UNL A   1      43.307  27.051  30.352  1.00  0.00     0.031 C 
ATOM     63  C   UNL A   1      42.924  29.742  35.784  1.00  0.00     0.029 A 
ATOM     64  C   UNL A   1      42.671  29.370  34.473  1.00  0.00     0.049 A 
ATOM     65  H   UNL A   1      41.133  30.018  33.182  1.00  0.00     0.167 HD
ATOM     66  C   UNL A   1      43.076  28.097  32.382  1.00  0.00     0.074 A 
ATOM     67  C   UNL A   1      43.827  27.162  31.568  1.00  0.00     0.031 C 
ATOM     68  C   UNL A   1      43.406  28.444  33.649  1.00  0.00     0.037 A 
BRANCH  55  69
ATOM     69  C   UNL A   1      39.611  32.560  36.255  1.00  0.00     0.064 A 
ATOM     70  C   UNL A   1      40.237  33.787  36.523  1.00  0.00     0.173 A 
ATOM     71  C   UNL A   1      38.594  32.141  37.126  1.00  0.00     0.173 A 
ATOM     72  F   UNL A   1      41.223  34.230  35.727  1.00  0.00    -0.203 F 
ATOM     73  C   UNL A   1      39.867  34.555  37.625  1.00  0.00     0.198 A 
ATOM     74  C   UNL A   1      38.208  32.924  38.211  1.00  0.00     0.198 A 
ATOM     75  F   UNL A   1      37.957  30.980  36.913  1.00  0.00    -0.203 F 
ATOM     76  F   UNL A   1      40.502  35.708  37.878  1.00  0.00    -0.200 F 
ATOM     77  C   UNL A   1      38.847  34.129  38.462  1.00  0.00     0.200 A 
ATOM     78  F   UNL A   1      37.211  32.517  39.009  1.00  0.00    -0.200 F 
ATOM     79  F   UNL A   1      38.482  34.877  39.512  1.00  0.00    -0.200 F 
ENDBRANCH  55  69
BRANCH  56  80
ATOM     80  C   UNL A   1      41.517  27.213  28.024  1.00  0.00     0.064 A 
ATOM     81  C   UNL A   1      42.310  27.700  26.977  1.00  0.00     0.173 A 
ATOM     82  C   UNL A   1      41.016  25.907  27.913  1.00  0.00     0.173 A 
ATOM     83  F   UNL A   1      42.798  28.948  27.031  1.00  0.00    -0.203 F 
ATOM     84  C   UNL A   1      42.592  26.911  25.865  1.00  0.00     0.198 A 
ATOM     85  C   UNL A   1      41.324  25.109  26.815  1.00  0.00     0.198 A 
ATOM     86  F   UNL A   1      40.257  25.393  28.893  1.00  0.00    -0.203 F 
ATOM     87  F   UNL A   1      43.335  27.408  24.866  1.00  0.00    -0.200 F 
ATOM     88  C   UNL A   1      42.110  25.613  25.790  1.00  0.00     0.200 A 
ATOM     89  F   UNL A   1      40.873  23.849  26.758  1.00  0.00    -0.200 F 
ATOM     90  F   UNL A   1      42.401  24.847  24.730  1.00  0.00    -0.200 F 
ENDBRANCH  56  80
BRANCH  68  91
ATOM     91  C   UNL A   1      44.626  27.807  34.245  1.00  0.00     0.064 A 
ATOM     92  C   UNL A   1      45.873  28.446  34.206  1.00  0.00     0.173 A 
ATOM     93  C   UNL A   1      44.531  26.583  34.922  1.00  0.00     0.173 A 
ATOM     94  F   UNL A   1      46.015  29.611  33.556  1.00  0.00    -0.203 F 
ATOM     95  C   UNL A   1      46.986  27.876  34.817  1.00  0.00     0.198 A 
ATOM     96  C   UNL A   1      45.640  26.029  35.556  1.00  0.00     0.198 A 
ATOM     97  F   UNL A   1      43.358  25.936  34.992  1.00  0.00    -0.203 F 
ATOM     98  F   UNL A   1      48.176  28.488  34.742  1.00  0.00    -0.200 F 
ATOM     99  C   UNL A   1      46.866  26.674  35.500  1.00  0.00     0.200 A 
ATOM    100  F   UNL A   1      45.519  24.876  36.228  1.00  0.00    -0.200 F 
ATOM    101  F   UNL A   1      47.935  26.137  36.103  1.00  0.00    -0.200 F 
ENDBRANCH  68  91
ENDBRANCH  42  43
ENDBRANCH  34  37
ENDBRANCH  32  33
ENDBRANCH  31  32
ENDBRANCH   1  31
TORSDOF 13
ENDMDL
