MODEL 1
REMARK VINA RESULT:     -12.4      0.000      0.000
REMARK SMILES Cc1nn(C)c(C)c1CN(C)C(=O)[C@@H]1CC=CC[C@@H]1C(=O)NCCCCNC(=O)c1ccc(-c2c3nc(c(-c4c(F)c(F)c(F)c(F)c4F)c4ccc([nH]4)c(-c4c(F)c(F)c(F)c(F)c4F)c4nc(c(-c5c(F)c(F)c(F)c(F)c5F)c5ccc2[nH]5)C=C4)C=C3)cc1
REMARK SMILES IDX 23 1 22 2 20 3 21 4 19 6 14 7 15 8 16 9 18 10 17 11 12 12
REMARK SMILES IDX 13 13 10 14 11 15 9 16 8 17 1 18 2 19 3 20 4 21 6 22 5 23
REMARK SMILES IDX 7 24 24 25 25 26 26 27 27 28 28 29 29 31 30 32 31 33 92 34
REMARK SMILES IDX 32 35 91 36 33 37 34 38 35 39 85 40 36 41 90 42 84 43 86 44
REMARK SMILES IDX 37 45 89 46 83 47 82 48 38 50 70 51 50 52 69 53 51 54 54 55
REMARK SMILES IDX 68 56 87 57 52 58 53 59 67 61 88 62 55 63 39 64 40 65 48 66
REMARK SMILES IDX 41 67 42 68 46 69 49 70 43 71 44 72 47 73 45 74 71 75 72 76
REMARK SMILES IDX 80 77 73 78 74 79 78 80 81 81 75 82 76 83 79 84 77 85 56 86
REMARK SMILES IDX 57 87 65 88 58 89 59 90 63 91 66 92 60 93 61 94 64 95 62 96
REMARK H PARENT 22 5 27 30 86 49 54 60
REMARK Flexibility Score: inf
ROOT
ATOM      1  C   UNL A   1      33.122  29.948  26.665  1.00  0.00     0.116 C 
ENDROOT
BRANCH   1   2
ATOM      2  N   UNL A   1      33.486  29.810  25.270  1.00  0.00    -0.356 N 
ATOM      3  C   UNL A   1      32.853  29.142  24.263  1.00  0.00     0.224 C 
ATOM      4  O   UNL A   1      33.289  29.312  23.128  1.00  0.00    -0.275 OA
ATOM      5  H   UNL A   1      34.318  30.267  25.010  1.00  0.00     0.163 HD
BRANCH   3   6
ATOM      6  C   UNL A   1      31.658  28.252  24.602  1.00  0.00     0.095 C 
ATOM      7  C   UNL A   1      31.898  26.751  24.312  1.00  0.00     0.095 C 
ATOM      8  C   UNL A   1      32.010  26.469  22.804  1.00  0.00     0.041 C 
ATOM      9  C   UNL A   1      30.994  27.227  21.991  1.00  0.00    -0.030 C 
ATOM     10  C   UNL A   1      30.394  28.746  23.881  1.00  0.00     0.041 C 
ATOM     11  C   UNL A   1      30.257  28.235  22.480  1.00  0.00    -0.030 C 
BRANCH   7  12
ATOM     12  C   UNL A   1      33.117  26.260  25.100  1.00  0.00     0.226 C 
ATOM     13  O   UNL A   1      34.162  26.908  25.128  1.00  0.00    -0.275 OA
BRANCH  12  14
ATOM     14  N   UNL A   1      32.960  25.095  25.853  1.00  0.00    -0.341 N 
ATOM     15  C   UNL A   1      31.718  24.705  26.506  1.00  0.00     0.147 C 
BRANCH  14  16
ATOM     16  C   UNL A   1      34.092  24.172  25.931  1.00  0.00     0.158 C 
BRANCH  16  17
ATOM     17  C   UNL A   1      33.778  22.800  25.431  1.00  0.00     0.015 A 
ATOM     18  C   UNL A   1      33.769  23.240  22.829  1.00  0.00     0.069 C 
ATOM     19  C   UNL A   1      33.650  22.415  24.060  1.00  0.00     0.065 A 
ATOM     20  N   UNL A   1      33.404  21.107  23.932  1.00  0.00    -0.178 NA
ATOM     21  N   UNL A   1      33.304  20.663  25.192  1.00  0.00    -0.272 N 
ATOM     22  C   UNL A   1      33.598  21.615  26.136  1.00  0.00     0.040 A 
ATOM     23  C   UNL A   1      32.917  19.287  25.389  1.00  0.00     0.174 C 
ATOM     24  C   UNL A   1      33.653  21.315  27.586  1.00  0.00     0.067 C 
ENDBRANCH  16  17
ENDBRANCH  14  16
ENDBRANCH  12  14
ENDBRANCH   7  12
ENDBRANCH   3   6
ENDBRANCH   1   2
BRANCH   1  25
ATOM     25  C   UNL A   1      31.718  30.514  26.850  1.00  0.00     0.023 C 
BRANCH  25  26
ATOM     26  C   UNL A   1      31.608  32.036  26.739  1.00  0.00     0.023 C 
BRANCH  26  27
ATOM     27  C   UNL A   1      32.810  32.820  27.249  1.00  0.00     0.116 C 
BRANCH  27  28
ATOM     28  N   UNL A   1      32.480  34.185  27.628  1.00  0.00    -0.352 N 
ATOM     29  C   UNL A   1      33.027  34.976  28.609  1.00  0.00     0.251 C 
ATOM     30  H   UNL A   1      31.758  34.604  27.104  1.00  0.00     0.163 HD
ATOM     31  O   UNL A   1      32.526  36.065  28.874  1.00  0.00    -0.269 OA
BRANCH  29  32
ATOM     32  C   UNL A   1      34.197  34.497  29.373  1.00  0.00     0.039 A 
ATOM     33  C   UNL A   1      33.992  33.924  30.631  1.00  0.00     0.014 A 
ATOM     34  C   UNL A   1      35.488  34.592  28.847  1.00  0.00     0.014 A 
ATOM     35  C   UNL A   1      35.071  33.374  31.325  1.00  0.00     0.010 A 
ATOM     36  C   UNL A   1      36.549  33.973  29.502  1.00  0.00     0.010 A 
ATOM     37  C   UNL A   1      36.351  33.356  30.748  1.00  0.00    -0.014 A 
BRANCH  37  38
ATOM     38  C   UNL A   1      37.492  32.687  31.423  1.00  0.00     0.031 A 
ATOM     39  C   UNL A   1      38.180  31.522  30.767  1.00  0.00     0.074 A 
ATOM     40  C   UNL A   1      37.860  33.079  32.658  1.00  0.00     0.049 A 
ATOM     41  N   UNL A   1      39.138  30.758  31.230  1.00  0.00    -0.248 NA
ATOM     42  C   UNL A   1      37.711  31.149  29.424  1.00  0.00     0.031 C 
ATOM     43  C   UNL A   1      37.238  34.161  33.423  1.00  0.00     0.029 A 
ATOM     44  N   UNL A   1      38.839  32.602  33.496  1.00  0.00    -0.354 N 
ATOM     45  C   UNL A   1      39.370  29.807  30.245  1.00  0.00     0.074 A 
ATOM     46  C   UNL A   1      38.422  30.056  29.182  1.00  0.00     0.031 C 
ATOM     47  C   UNL A   1      37.860  34.277  34.607  1.00  0.00     0.029 A 
ATOM     48  C   UNL A   1      38.897  33.255  34.702  1.00  0.00     0.049 A 
ATOM     49  H   UNL A   1      39.441  31.862  33.253  1.00  0.00     0.167 HD
ATOM     50  C   UNL A   1      40.305  28.827  30.221  1.00  0.00     0.037 A 
ATOM     51  C   UNL A   1      39.691  33.046  35.771  1.00  0.00     0.037 A 
ATOM     52  C   UNL A   1      41.266  28.599  31.268  1.00  0.00     0.049 A 
ATOM     53  C   UNL A   1      40.722  31.951  35.718  1.00  0.00     0.074 A 
ATOM     54  C   UNL A   1      42.298  27.677  31.305  1.00  0.00     0.029 A 
ATOM     55  N   UNL A   1      41.311  29.297  32.466  1.00  0.00    -0.354 N 
ATOM     56  N   UNL A   1      40.983  31.107  34.750  1.00  0.00    -0.248 NA
ATOM     57  C   UNL A   1      41.574  31.785  36.904  1.00  0.00     0.031 C 
ATOM     58  C   UNL A   1      42.936  27.784  32.545  1.00  0.00     0.029 A 
ATOM     59  C   UNL A   1      42.337  28.809  33.259  1.00  0.00     0.049 A 
ATOM     60  H   UNL A   1      40.702  30.030  32.716  1.00  0.00     0.167 HD
ATOM     61  C   UNL A   1      42.043  30.330  35.196  1.00  0.00     0.074 A 
ATOM     62  C   UNL A   1      42.388  30.814  36.517  1.00  0.00     0.031 C 
ATOM     63  C   UNL A   1      42.674  29.308  34.568  1.00  0.00     0.037 A 
BRANCH  50  64
ATOM     64  C   UNL A   1      40.339  27.927  29.020  1.00  0.00     0.064 A 
ATOM     65  C   UNL A   1      41.101  28.243  27.884  1.00  0.00     0.173 A 
ATOM     66  C   UNL A   1      39.634  26.714  29.019  1.00  0.00     0.173 A 
ATOM     67  F   UNL A   1      41.785  29.395  27.828  1.00  0.00    -0.203 F 
ATOM     68  C   UNL A   1      41.132  27.392  26.782  1.00  0.00     0.198 A 
ATOM     69  C   UNL A   1      39.693  25.850  27.928  1.00  0.00     0.198 A 
ATOM     70  F   UNL A   1      38.895  26.361  30.081  1.00  0.00    -0.203 F 
ATOM     71  F   UNL A   1      41.827  27.738  25.690  1.00  0.00    -0.200 F 
ATOM     72  C   UNL A   1      40.435  26.193  26.808  1.00  0.00     0.200 A 
ATOM     73  F   UNL A   1      39.029  24.686  27.960  1.00  0.00    -0.200 F 
ATOM     74  F   UNL A   1      40.473  25.371  25.750  1.00  0.00    -0.200 F 
ENDBRANCH  50  64
BRANCH  51  75
ATOM     75  C   UNL A   1      39.555  33.906  36.976  1.00  0.00     0.064 A 
ATOM     76  C   UNL A   1      38.776  33.498  38.067  1.00  0.00     0.173 A 
ATOM     77  C   UNL A   1      40.196  35.151  37.060  1.00  0.00     0.173 A 
ATOM     78  F   UNL A   1      38.128  32.326  38.026  1.00  0.00    -0.203 F 
ATOM     79  C   UNL A   1      38.624  34.312  39.188  1.00  0.00     0.198 A 
ATOM     80  C   UNL A   1      40.066  35.951  38.194  1.00  0.00     0.198 A 
ATOM     81  F   UNL A   1      40.957  35.586  36.046  1.00  0.00    -0.203 F 
ATOM     82  F   UNL A   1      37.835  33.919  40.197  1.00  0.00    -0.200 F 
ATOM     83  C   UNL A   1      39.274  35.535  39.253  1.00  0.00     0.200 A 
ATOM     84  F   UNL A   1      40.709  37.126  38.259  1.00  0.00    -0.200 F 
ATOM     85  F   UNL A   1      39.132  36.316  40.333  1.00  0.00    -0.200 F 
ENDBRANCH  51  75
BRANCH  63  86
ATOM     86  C   UNL A   1      43.828  28.665  35.283  1.00  0.00     0.064 A 
ATOM     87  C   UNL A   1      45.144  29.118  35.114  1.00  0.00     0.173 A 
ATOM     88  C   UNL A   1      43.606  27.612  36.183  1.00  0.00     0.173 A 
ATOM     89  F   UNL A   1      45.411  30.112  34.253  1.00  0.00    -0.203 F 
ATOM     90  C   UNL A   1      46.199  28.524  35.803  1.00  0.00     0.198 A 
ATOM     91  C   UNL A   1      44.658  27.042  36.893  1.00  0.00     0.198 A 
ATOM     92  F   UNL A   1      42.364  27.146  36.387  1.00  0.00    -0.203 F 
ATOM     93  F   UNL A   1      47.455  28.943  35.591  1.00  0.00    -0.200 F 
ATOM     94  C   UNL A   1      45.954  27.493  36.697  1.00  0.00     0.200 A 
ATOM     95  F   UNL A   1      44.418  26.055  37.768  1.00  0.00    -0.200 F 
ATOM     96  F   UNL A   1      46.970  26.929  37.366  1.00  0.00    -0.200 F 
ENDBRANCH  63  86
ENDBRANCH  37  38
ENDBRANCH  29  32
ENDBRANCH  27  28
ENDBRANCH  26  27
ENDBRANCH  25  26
ENDBRANCH   1  25
TORSDOF 15
ENDMDL
MODEL 2
REMARK VINA RESULT:     -12.3      5.673     11.264
REMARK SMILES Cc1nn(C)c(C)c1CN(C)C(=O)[C@@H]1CC=CC[C@@H]1C(=O)NCCCCNC(=O)c1ccc(-c2c3nc(c(-c4c(F)c(F)c(F)c(F)c4F)c4ccc([nH]4)c(-c4c(F)c(F)c(F)c(F)c4F)c4nc(c(-c5c(F)c(F)c(F)c(F)c5F)c5ccc2[nH]5)C=C4)C=C3)cc1
REMARK SMILES IDX 23 1 22 2 20 3 21 4 19 6 14 7 15 8 16 9 18 10 17 11 12 12
REMARK SMILES IDX 13 13 10 14 11 15 9 16 8 17 1 18 2 19 3 20 4 21 6 22 5 23
REMARK SMILES IDX 7 24 24 25 25 26 26 27 27 28 28 29 29 31 30 32 31 33 92 34
REMARK SMILES IDX 32 35 91 36 33 37 34 38 35 39 85 40 36 41 90 42 84 43 86 44
REMARK SMILES IDX 37 45 89 46 83 47 82 48 38 50 70 51 50 52 69 53 51 54 54 55
REMARK SMILES IDX 68 56 87 57 52 58 53 59 67 61 88 62 55 63 39 64 40 65 48 66
REMARK SMILES IDX 41 67 42 68 46 69 49 70 43 71 44 72 47 73 45 74 71 75 72 76
REMARK SMILES IDX 80 77 73 78 74 79 78 80 81 81 75 82 76 83 79 84 77 85 56 86
REMARK SMILES IDX 57 87 65 88 58 89 59 90 63 91 66 92 60 93 61 94 64 95 62 96
REMARK H PARENT 22 5 27 30 86 49 54 60
REMARK Flexibility Score: inf
ROOT
ATOM      1  C   UNL A   1      37.603  22.140  25.454  1.00  0.00     0.116 C 
ENDROOT
BRANCH   1   2
ATOM      2  N   UNL A   1      36.440  22.464  26.256  1.00  0.00    -0.356 N 
ATOM      3  C   UNL A   1      35.132  22.123  26.077  1.00  0.00     0.224 C 
ATOM      4  O   UNL A   1      34.360  22.394  26.991  1.00  0.00    -0.275 OA
ATOM      5  H   UNL A   1      36.623  23.015  27.051  1.00  0.00     0.163 HD
BRANCH   3   6
ATOM      6  C   UNL A   1      34.720  21.427  24.779  1.00  0.00     0.095 C 
ATOM      7  C   UNL A   1      33.869  22.314  23.840  1.00  0.00     0.095 C 
ATOM      8  C   UNL A   1      32.478  22.605  24.430  1.00  0.00     0.041 C 
ATOM      9  C   UNL A   1      31.853  21.396  25.075  1.00  0.00    -0.030 C 
ATOM     10  C   UNL A   1      33.993  20.107  25.082  1.00  0.00     0.041 C 
ATOM     11  C   UNL A   1      32.528  20.270  25.349  1.00  0.00    -0.030 C 
BRANCH   7  12
ATOM     12  C   UNL A   1      34.644  23.590  23.491  1.00  0.00     0.226 C 
ATOM     13  O   UNL A   1      35.725  23.539  22.908  1.00  0.00    -0.275 OA
BRANCH  12  14
ATOM     14  N   UNL A   1      34.026  24.808  23.782  1.00  0.00    -0.341 N 
ATOM     15  C   UNL A   1      34.069  25.455  25.085  1.00  0.00     0.147 C 
BRANCH  14  16
ATOM     16  C   UNL A   1      33.356  25.513  22.689  1.00  0.00     0.158 C 
BRANCH  16  17
ATOM     17  C   UNL A   1      32.310  26.474  23.153  1.00  0.00     0.015 A 
ATOM     18  C   UNL A   1      30.277  24.827  23.490  1.00  0.00     0.069 C 
ATOM     19  C   UNL A   1      30.965  26.145  23.507  1.00  0.00     0.065 A 
ATOM     20  N   UNL A   1      30.284  27.218  23.921  1.00  0.00    -0.178 NA
ATOM     21  N   UNL A   1      31.143  28.234  23.774  1.00  0.00    -0.272 N 
ATOM     22  C   UNL A   1      32.401  27.841  23.393  1.00  0.00     0.040 A 
ATOM     23  C   UNL A   1      30.654  29.568  24.029  1.00  0.00     0.174 C 
ATOM     24  C   UNL A   1      33.535  28.788  23.273  1.00  0.00     0.067 C 
ENDBRANCH  16  17
ENDBRANCH  14  16
ENDBRANCH  12  14
ENDBRANCH   7  12
ENDBRANCH   3   6
ENDBRANCH   1   2
BRANCH   1  25
ATOM     25  C   UNL A   1      37.405  20.880  24.619  1.00  0.00     0.023 C 
BRANCH  25  26
ATOM     26  C   UNL A   1      38.297  19.697  25.001  1.00  0.00     0.023 C 
BRANCH  26  27
ATOM     27  C   UNL A   1      39.464  20.025  25.924  1.00  0.00     0.116 C 
BRANCH  27  28
ATOM     28  N   UNL A   1      40.473  18.978  25.958  1.00  0.00    -0.352 N 
ATOM     29  C   UNL A   1      41.833  19.081  26.121  1.00  0.00     0.251 C 
ATOM     30  H   UNL A   1      40.132  18.060  25.848  1.00  0.00     0.163 HD
ATOM     31  O   UNL A   1      42.547  18.091  25.990  1.00  0.00    -0.269 OA
BRANCH  29  32
ATOM     32  C   UNL A   1      42.441  20.395  26.419  1.00  0.00     0.039 A 
ATOM     33  C   UNL A   1      42.954  21.153  25.364  1.00  0.00     0.014 A 
ATOM     34  C   UNL A   1      42.488  20.887  27.726  1.00  0.00     0.014 A 
ATOM     35  C   UNL A   1      43.441  22.439  25.608  1.00  0.00     0.010 A 
ATOM     36  C   UNL A   1      42.899  22.197  27.956  1.00  0.00     0.010 A 
ATOM     37  C   UNL A   1      43.378  22.987  26.900  1.00  0.00    -0.014 A 
BRANCH  37  38
ATOM     38  C   UNL A   1      43.795  24.388  27.164  1.00  0.00     0.031 A 
ATOM     39  C   UNL A   1      42.796  25.391  27.670  1.00  0.00     0.074 A 
ATOM     40  C   UNL A   1      45.053  24.775  26.877  1.00  0.00     0.049 A 
ATOM     41  N   UNL A   1      42.947  26.675  27.883  1.00  0.00    -0.248 NA
ATOM     42  C   UNL A   1      41.441  24.892  27.948  1.00  0.00     0.031 C 
ATOM     43  C   UNL A   1      46.101  23.910  26.332  1.00  0.00     0.029 A 
ATOM     44  N   UNL A   1      45.661  26.002  26.990  1.00  0.00    -0.354 N 
ATOM     45  C   UNL A   1      41.705  27.135  28.300  1.00  0.00     0.074 A 
ATOM     46  C   UNL A   1      40.799  26.008  28.262  1.00  0.00     0.031 C 
ATOM     47  C   UNL A   1      47.226  24.626  26.175  1.00  0.00     0.029 A 
ATOM     48  C   UNL A   1      46.969  26.008  26.571  1.00  0.00     0.049 A 
ATOM     49  H   UNL A   1      45.203  26.800  27.339  1.00  0.00     0.167 HD
ATOM     50  C   UNL A   1      41.356  28.382  28.699  1.00  0.00     0.037 A 
ATOM     51  C   UNL A   1      47.860  27.018  26.501  1.00  0.00     0.037 A 
ATOM     52  C   UNL A   1      42.266  29.496  28.763  1.00  0.00     0.049 A 
ATOM     53  C   UNL A   1      47.447  28.393  26.952  1.00  0.00     0.074 A 
ATOM     54  C   UNL A   1      42.026  30.779  29.220  1.00  0.00     0.029 A 
ATOM     55  N   UNL A   1      43.591  29.458  28.353  1.00  0.00    -0.354 N 
ATOM     56  N   UNL A   1      46.291  28.799  27.416  1.00  0.00    -0.248 NA
ATOM     57  C   UNL A   1      48.467  29.448  26.875  1.00  0.00     0.031 C 
ATOM     58  C   UNL A   1      43.191  31.533  29.040  1.00  0.00     0.029 A 
ATOM     59  C   UNL A   1      44.174  30.704  28.523  1.00  0.00     0.049 A 
ATOM     60  H   UNL A   1      44.049  28.664  27.993  1.00  0.00     0.167 HD
ATOM     61  C   UNL A   1      46.450  30.146  27.712  1.00  0.00     0.074 A 
ATOM     62  C   UNL A   1      47.821  30.485  27.390  1.00  0.00     0.031 C 
ATOM     63  C   UNL A   1      45.542  31.023  28.206  1.00  0.00     0.037 A 
BRANCH  50  64
ATOM     64  C   UNL A   1      39.928  28.610  29.104  1.00  0.00     0.064 A 
ATOM     65  C   UNL A   1      39.492  28.389  30.420  1.00  0.00     0.173 A 
ATOM     66  C   UNL A   1      38.994  29.094  28.176  1.00  0.00     0.173 A 
ATOM     67  F   UNL A   1      40.342  27.916  31.343  1.00  0.00    -0.203 F 
ATOM     68  C   UNL A   1      38.167  28.617  30.783  1.00  0.00     0.198 A 
ATOM     69  C   UNL A   1      37.677  29.350  28.551  1.00  0.00     0.198 A 
ATOM     70  F   UNL A   1      39.360  29.327  26.907  1.00  0.00    -0.203 F 
ATOM     71  F   UNL A   1      37.762  28.351  32.033  1.00  0.00    -0.200 F 
ATOM     72  C   UNL A   1      37.263  29.104  29.851  1.00  0.00     0.200 A 
ATOM     73  F   UNL A   1      36.809  29.834  27.652  1.00  0.00    -0.200 F 
ATOM     74  F   UNL A   1      35.990  29.331  30.205  1.00  0.00    -0.200 F 
ENDBRANCH  50  64
BRANCH  51  75
ATOM     75  C   UNL A   1      49.236  26.760  26.004  1.00  0.00     0.064 A 
ATOM     76  C   UNL A   1      50.244  26.319  26.872  1.00  0.00     0.173 A 
ATOM     77  C   UNL A   1      49.574  26.954  24.656  1.00  0.00     0.173 A 
ATOM     78  F   UNL A   1      49.975  26.139  28.173  1.00  0.00    -0.203 F 
ATOM     79  C   UNL A   1      51.543  26.101  26.417  1.00  0.00     0.198 A 
ATOM     80  C   UNL A   1      50.867  26.708  24.197  1.00  0.00     0.198 A 
ATOM     81  F   UNL A   1      48.646  27.371  23.784  1.00  0.00    -0.203 F 
ATOM     82  F   UNL A   1      52.498  25.724  27.278  1.00  0.00    -0.200 F 
ATOM     83  C   UNL A   1      51.852  26.291  25.079  1.00  0.00     0.200 A 
ATOM     84  F   UNL A   1      51.157  26.878  22.899  1.00  0.00    -0.200 F 
ATOM     85  F   UNL A   1      53.100  26.077  24.639  1.00  0.00    -0.200 F 
ENDBRANCH  51  75
BRANCH  63  86
ATOM     86  C   UNL A   1      46.009  32.426  28.466  1.00  0.00     0.064 A 
ATOM     87  C   UNL A   1      45.920  33.427  27.488  1.00  0.00     0.173 A 
ATOM     88  C   UNL A   1      46.510  32.784  29.727  1.00  0.00     0.173 A 
ATOM     89  F   UNL A   1      45.461  33.132  26.261  1.00  0.00    -0.203 F 
ATOM     90  C   UNL A   1      46.337  34.728  27.754  1.00  0.00     0.198 A 
ATOM     91  C   UNL A   1      46.898  34.092  30.000  1.00  0.00     0.198 A 
ATOM     92  F   UNL A   1      46.611  31.867  30.701  1.00  0.00    -0.203 F 
ATOM     93  F   UNL A   1      46.286  35.657  26.789  1.00  0.00    -0.200 F 
ATOM     94  C   UNL A   1      46.818  35.062  29.012  1.00  0.00     0.200 A 
ATOM     95  F   UNL A   1      47.348  34.416  31.220  1.00  0.00    -0.200 F 
ATOM     96  F   UNL A   1      47.210  36.317  29.269  1.00  0.00    -0.200 F 
ENDBRANCH  63  86
ENDBRANCH  37  38
ENDBRANCH  29  32
ENDBRANCH  27  28
ENDBRANCH  26  27
ENDBRANCH  25  26
ENDBRANCH   1  25
TORSDOF 15
ENDMDL
MODEL 3
REMARK VINA RESULT:     -12.3      5.554     10.203
REMARK SMILES Cc1nn(C)c(C)c1CN(C)C(=O)[C@@H]1CC=CC[C@@H]1C(=O)NCCCCNC(=O)c1ccc(-c2c3nc(c(-c4c(F)c(F)c(F)c(F)c4F)c4ccc([nH]4)c(-c4c(F)c(F)c(F)c(F)c4F)c4nc(c(-c5c(F)c(F)c(F)c(F)c5F)c5ccc2[nH]5)C=C4)C=C3)cc1
REMARK SMILES IDX 23 1 22 2 20 3 21 4 19 6 14 7 15 8 16 9 18 10 17 11 12 12
REMARK SMILES IDX 13 13 10 14 11 15 9 16 8 17 1 18 2 19 3 20 4 21 6 22 5 23
REMARK SMILES IDX 7 24 24 25 25 26 26 27 27 28 28 29 29 31 30 32 31 33 92 34
REMARK SMILES IDX 32 35 91 36 33 37 34 38 35 39 85 40 36 41 90 42 84 43 86 44
REMARK SMILES IDX 37 45 89 46 83 47 82 48 38 50 70 51 50 52 69 53 51 54 54 55
REMARK SMILES IDX 68 56 87 57 52 58 53 59 67 61 88 62 55 63 39 64 40 65 48 66
REMARK SMILES IDX 41 67 42 68 46 69 49 70 43 71 44 72 47 73 45 74 71 75 72 76
REMARK SMILES IDX 80 77 73 78 74 79 78 80 81 81 75 82 76 83 79 84 77 85 56 86
REMARK SMILES IDX 57 87 65 88 58 89 59 90 63 91 66 92 60 93 61 94 64 95 62 96
REMARK H PARENT 22 5 27 30 86 49 54 60
REMARK Flexibility Score: inf
ROOT
ATOM      1  C   UNL A   1      37.691  21.818  25.323  1.00  0.00     0.116 C 
ENDROOT
BRANCH   1   2
ATOM      2  N   UNL A   1      36.551  22.091  26.175  1.00  0.00    -0.356 N 
ATOM      3  C   UNL A   1      35.237  21.768  26.007  1.00  0.00     0.224 C 
ATOM      4  O   UNL A   1      34.490  21.979  26.957  1.00  0.00    -0.275 OA
ATOM      5  H   UNL A   1      36.758  22.585  27.001  1.00  0.00     0.163 HD
BRANCH   3   6
ATOM      6  C   UNL A   1      34.788  21.165  24.675  1.00  0.00     0.095 C 
ATOM      7  C   UNL A   1      33.943  22.129  23.809  1.00  0.00     0.095 C 
ATOM      8  C   UNL A   1      32.569  22.413  24.441  1.00  0.00     0.041 C 
ATOM      9  C   UNL A   1      31.926  21.181  25.019  1.00  0.00    -0.030 C 
ATOM     10  C   UNL A   1      34.035  19.846  24.907  1.00  0.00     0.041 C 
ATOM     11  C   UNL A   1      32.578  20.025  25.210  1.00  0.00    -0.030 C 
BRANCH   7  12
ATOM     12  C   UNL A   1      34.742  23.406  23.527  1.00  0.00     0.226 C 
ATOM     13  O   UNL A   1      35.808  23.369  22.915  1.00  0.00    -0.275 OA
BRANCH  12  14
ATOM     14  N   UNL A   1      34.164  24.616  23.915  1.00  0.00    -0.341 N 
ATOM     15  C   UNL A   1      34.240  25.164  25.262  1.00  0.00     0.147 C 
BRANCH  14  16
ATOM     16  C   UNL A   1      33.501  25.419  22.887  1.00  0.00     0.158 C 
BRANCH  16  17
ATOM     17  C   UNL A   1      32.530  26.411  23.438  1.00  0.00     0.015 A 
ATOM     18  C   UNL A   1      30.362  24.913  23.581  1.00  0.00     0.069 C 
ATOM     19  C   UNL A   1      31.156  26.160  23.743  1.00  0.00     0.065 A 
ATOM     20  N   UNL A   1      30.557  27.237  24.260  1.00  0.00    -0.178 NA
ATOM     21  N   UNL A   1      31.499  28.188  24.228  1.00  0.00    -0.272 N 
ATOM     22  C   UNL A   1      32.727  27.733  23.821  1.00  0.00     0.040 A 
ATOM     23  C   UNL A   1      31.116  29.524  24.617  1.00  0.00     0.174 C 
ATOM     24  C   UNL A   1      33.937  28.589  23.812  1.00  0.00     0.067 C 
ENDBRANCH  16  17
ENDBRANCH  14  16
ENDBRANCH  12  14
ENDBRANCH   7  12
ENDBRANCH   3   6
ENDBRANCH   1   2
BRANCH   1  25
ATOM     25  C   UNL A   1      37.579  20.477  24.607  1.00  0.00     0.023 C 
BRANCH  25  26
ATOM     26  C   UNL A   1      38.438  19.352  25.187  1.00  0.00     0.023 C 
BRANCH  26  27
ATOM     27  C   UNL A   1      39.646  19.801  26.000  1.00  0.00     0.116 C 
BRANCH  27  28
ATOM     28  N   UNL A   1      40.744  18.847  25.960  1.00  0.00    -0.352 N 
ATOM     29  C   UNL A   1      42.097  19.070  26.046  1.00  0.00     0.251 C 
ATOM     30  H   UNL A   1      40.479  17.905  25.855  1.00  0.00     0.163 HD
ATOM     31  O   UNL A   1      42.886  18.149  25.858  1.00  0.00    -0.269 OA
BRANCH  29  32
ATOM     32  C   UNL A   1      42.602  20.429  26.329  1.00  0.00     0.039 A 
ATOM     33  C   UNL A   1      43.009  21.232  25.259  1.00  0.00     0.014 A 
ATOM     34  C   UNL A   1      42.658  20.920  27.636  1.00  0.00     0.014 A 
ATOM     35  C   UNL A   1      43.394  22.553  25.494  1.00  0.00     0.010 A 
ATOM     36  C   UNL A   1      42.965  22.259  27.859  1.00  0.00     0.010 A 
ATOM     37  C   UNL A   1      43.334  23.090  26.790  1.00  0.00    -0.014 A 
BRANCH  37  38
ATOM     38  C   UNL A   1      43.642  24.521  27.047  1.00  0.00     0.031 A 
ATOM     39  C   UNL A   1      45.039  25.040  26.847  1.00  0.00     0.074 A 
ATOM     40  C   UNL A   1      42.683  25.333  27.532  1.00  0.00     0.049 A 
ATOM     41  N   UNL A   1      45.522  26.232  27.095  1.00  0.00    -0.248 NA
ATOM     42  C   UNL A   1      46.030  24.087  26.326  1.00  0.00     0.031 C 
ATOM     43  C   UNL A   1      41.303  24.936  27.819  1.00  0.00     0.029 A 
ATOM     44  N   UNL A   1      42.727  26.660  27.885  1.00  0.00    -0.354 N 
ATOM     45  C   UNL A   1      46.872  26.164  26.779  1.00  0.00     0.074 A 
ATOM     46  C   UNL A   1      47.144  24.803  26.370  1.00  0.00     0.031 C 
ATOM     47  C   UNL A   1      40.628  25.999  28.285  1.00  0.00     0.029 A 
ATOM     48  C   UNL A   1      41.534  27.140  28.367  1.00  0.00     0.049 A 
ATOM     49  H   UNL A   1      43.535  27.214  27.799  1.00  0.00     0.167 HD
ATOM     50  C   UNL A   1      47.797  27.154  26.806  1.00  0.00     0.037 A 
ATOM     51  C   UNL A   1      41.209  28.362  28.836  1.00  0.00     0.037 A 
ATOM     52  C   UNL A   1      47.518  28.513  27.186  1.00  0.00     0.049 A 
ATOM     53  C   UNL A   1      42.256  29.443  28.854  1.00  0.00     0.074 A 
ATOM     54  C   UNL A   1      48.371  29.603  27.178  1.00  0.00     0.029 A 
ATOM     55  N   UNL A   1      46.291  28.969  27.646  1.00  0.00    -0.354 N 
ATOM     56  N   UNL A   1      43.510  29.387  28.480  1.00  0.00    -0.248 NA
ATOM     57  C   UNL A   1      41.838  30.761  29.353  1.00  0.00     0.031 C 
ATOM     58  C   UNL A   1      47.674  30.707  27.681  1.00  0.00     0.029 A 
ATOM     59  C   UNL A   1      46.371  30.318  27.949  1.00  0.00     0.049 A 
ATOM     60  H   UNL A   1      45.483  28.414  27.743  1.00  0.00     0.167 HD
ATOM     61  C   UNL A   1      44.025  30.662  28.672  1.00  0.00     0.074 A 
ATOM     62  C   UNL A   1      42.940  31.476  29.181  1.00  0.00     0.031 C 
ATOM     63  C   UNL A   1      45.281  31.117  28.447  1.00  0.00     0.037 A 
BRANCH  50  64
ATOM     64  C   UNL A   1      49.202  26.803  26.408  1.00  0.00     0.064 A 
ATOM     65  C   UNL A   1      50.125  26.296  27.337  1.00  0.00     0.173 A 
ATOM     66  C   UNL A   1      49.620  26.935  25.076  1.00  0.00     0.173 A 
ATOM     67  F   UNL A   1      49.781  26.160  28.626  1.00  0.00    -0.203 F 
ATOM     68  C   UNL A   1      51.421  25.963  26.951  1.00  0.00     0.198 A 
ATOM     69  C   UNL A   1      50.907  26.572  24.687  1.00  0.00     0.198 A 
ATOM     70  F   UNL A   1      48.776  27.409  24.147  1.00  0.00    -0.203 F 
ATOM     71  F   UNL A   1      52.299  25.528  27.866  1.00  0.00    -0.200 F 
ATOM     72  C   UNL A   1      51.809  26.094  25.626  1.00  0.00     0.200 A 
ATOM     73  F   UNL A   1      51.275  26.686  23.404  1.00  0.00    -0.200 F 
ATOM     74  F   UNL A   1      53.054  25.764  25.255  1.00  0.00    -0.200 F 
ENDBRANCH  50  64
BRANCH  51  75
ATOM     75  C   UNL A   1      39.826  28.633  29.306  1.00  0.00     0.064 A 
ATOM     76  C   UNL A   1      39.452  28.372  30.631  1.00  0.00     0.173 A 
ATOM     77  C   UNL A   1      38.850  29.153  28.443  1.00  0.00     0.173 A 
ATOM     78  F   UNL A   1      40.344  27.856  31.489  1.00  0.00    -0.203 F 
ATOM     79  C   UNL A   1      38.149  28.600  31.071  1.00  0.00     0.198 A 
ATOM     80  C   UNL A   1      37.555  29.407  28.891  1.00  0.00     0.198 A 
ATOM     81  F   UNL A   1      39.157  29.425  27.166  1.00  0.00    -0.203 F 
ATOM     82  F   UNL A   1      37.807  28.297  32.330  1.00  0.00    -0.200 F 
ATOM     83  C   UNL A   1      37.204  29.122  30.202  1.00  0.00     0.200 A 
ATOM     84  F   UNL A   1      36.648  29.927  28.052  1.00  0.00    -0.200 F 
ATOM     85  F   UNL A   1      35.952  29.346  30.626  1.00  0.00    -0.200 F 
ENDBRANCH  51  75
BRANCH  63  86
ATOM     86  C   UNL A   1      45.546  32.571  28.712  1.00  0.00     0.064 A 
ATOM     87  C   UNL A   1      45.314  33.553  27.738  1.00  0.00     0.173 A 
ATOM     88  C   UNL A   1      45.995  32.991  29.973  1.00  0.00     0.173 A 
ATOM     89  F   UNL A   1      44.899  33.202  26.510  1.00  0.00    -0.203 F 
ATOM     90  C   UNL A   1      45.545  34.899  28.009  1.00  0.00     0.198 A 
ATOM     91  C   UNL A   1      46.194  34.340  30.251  1.00  0.00     0.198 A 
ATOM     92  F   UNL A   1      46.226  32.093  30.943  1.00  0.00    -0.203 F 
ATOM     93  F   UNL A   1      45.361  35.816  27.048  1.00  0.00    -0.200 F 
ATOM     94  C   UNL A   1      45.977  35.292  29.267  1.00  0.00     0.200 A 
ATOM     95  F   UNL A   1      46.597  34.720  31.472  1.00  0.00    -0.200 F 
ATOM     96  F   UNL A   1      46.189  36.589  29.528  1.00  0.00    -0.200 F 
ENDBRANCH  63  86
ENDBRANCH  37  38
ENDBRANCH  29  32
ENDBRANCH  27  28
ENDBRANCH  26  27
ENDBRANCH  25  26
ENDBRANCH   1  25
TORSDOF 15
ENDMDL
