MODEL 1
REMARK VINA RESULT:     -12.8      0.000      0.000
REMARK SMILES C[C@]12CCC(=O)N1[C@@H](C(=O)N1C[C@H](O)C[C@@H]1C(=O)NCCCCNC(=O)c1ccc(-c3c4nc(c(-c5c(F)c(F)c(F)c(F)c5F)c5ccc([nH]5)c(-c5c(F)c(F)c(F)c(F)c5F)c5nc(c(-c6c(F)c(F)c(F)c(F)c6F)c6ccc3[nH]6)C=C5)C=C4)cc1)CS2
REMARK SMILES IDX 21 1 20 2 19 3 17 4 18 5 16 7 11 8 12 9 13 10 15 11 9 12
REMARK SMILES IDX 10 13 8 14 1 15 2 16 3 17 7 18 91 19 4 20 5 21 90 22 6 23
REMARK SMILES IDX 14 24 22 26 23 27 24 28 25 29 26 31 27 32 28 33 89 34 29 35
REMARK SMILES IDX 88 36 30 37 31 38 32 39 82 40 33 41 87 42 81 43 83 44 34 45
REMARK SMILES IDX 86 46 80 47 79 48 35 50 67 51 47 52 66 53 48 54 51 55 65 56
REMARK SMILES IDX 84 57 49 58 50 59 64 61 85 62 52 63 36 64 37 65 45 66 38 67
REMARK SMILES IDX 39 68 43 69 46 70 40 71 41 72 44 73 42 74 68 75 69 76 77 77
REMARK SMILES IDX 70 78 71 79 75 80 78 81 72 82 73 83 76 84 74 85 53 86 54 87
REMARK SMILES IDX 62 88 55 89 56 90 60 91 63 92 57 93 58 94 61 95 59 96
REMARK H PARENT 19 6 14 25 24 30 83 49 51 60
REMARK Flexibility Score: inf
ROOT
ATOM      1  C   UNL A   1      31.430  30.445  26.425  1.00  0.00     0.023 C 
ENDROOT
BRANCH   1   2
ATOM      2  C   UNL A   1      32.788  29.769  26.247  1.00  0.00     0.116 C 
BRANCH   2   3
ATOM      3  N   UNL A   1      33.285  29.781  24.886  1.00  0.00    -0.354 N 
ATOM      4  C   UNL A   1      33.004  28.961  23.834  1.00  0.00     0.242 C 
ATOM      5  O   UNL A   1      33.553  29.239  22.760  1.00  0.00    -0.273 OA
ATOM      6  H   UNL A   1      33.932  30.496  24.690  1.00  0.00     0.163 HD
BRANCH   4   7
ATOM      7  C   UNL A   1      32.057  27.728  23.914  1.00  0.00     0.177 C 
ATOM      8  N   UNL A   1      32.148  26.707  22.871  1.00  0.00    -0.326 N 
ATOM      9  C   UNL A   1      30.973  26.768  22.001  1.00  0.00     0.152 C 
ATOM     10  C   UNL A   1      30.214  28.027  22.413  1.00  0.00     0.136 C 
ATOM     11  C   UNL A   1      30.598  28.205  23.871  1.00  0.00     0.069 C 
BRANCH   8  12
ATOM     12  C   UNL A   1      33.000  25.633  22.750  1.00  0.00     0.247 C 
ATOM     13  O   UNL A   1      34.028  25.750  22.067  1.00  0.00    -0.272 OA
BRANCH  12  14
ATOM     14  C   UNL A   1      32.658  24.236  23.322  1.00  0.00     0.186 C 
ATOM     15  C   UNL A   1      30.996  22.644  25.542  1.00  0.00     0.047 C 
ATOM     16  C   UNL A   1      32.494  22.771  25.262  1.00  0.00     0.087 C 
ATOM     17  C   UNL A   1      33.313  22.565  26.533  1.00  0.00     0.049 C 
ATOM     18  N   UNL A   1      32.872  24.062  24.760  1.00  0.00    -0.315 N 
ATOM     19  S   UNL A   1      32.927  21.628  23.891  1.00  0.00    -0.131 SA
ATOM     20  C   UNL A   1      34.402  23.623  26.501  1.00  0.00     0.103 C 
ATOM     21  C   UNL A   1      33.974  24.590  25.428  1.00  0.00     0.224 C 
ATOM     22  C   UNL A   1      33.131  22.957  22.639  1.00  0.00     0.107 C 
ATOM     23  O   UNL A   1      34.575  25.604  25.165  1.00  0.00    -0.275 OA
ENDBRANCH  12  14
ENDBRANCH   8  12
BRANCH  10  24
ATOM     24  O   UNL A   1      30.653  29.165  21.674  1.00  0.00    -0.391 OA
ATOM     25  H   UNL A   1      29.955  29.440  21.059  1.00  0.00     0.211 HD
ENDBRANCH  10  24
ENDBRANCH   4   7
ENDBRANCH   2   3
ENDBRANCH   1   2
BRANCH   1  26
ATOM     26  C   UNL A   1      31.430  31.971  26.499  1.00  0.00     0.023 C 
BRANCH  26  27
ATOM     27  C   UNL A   1      32.597  32.608  27.246  1.00  0.00     0.116 C 
BRANCH  27  28
ATOM     28  N   UNL A   1      32.360  33.991  27.626  1.00  0.00    -0.352 N 
ATOM     29  C   UNL A   1      32.986  34.807  28.538  1.00  0.00     0.251 C 
ATOM     30  H   UNL A   1      31.617  34.421  27.143  1.00  0.00     0.163 HD
ATOM     31  O   UNL A   1      32.528  35.928  28.751  1.00  0.00    -0.269 OA
BRANCH  29  32
ATOM     32  C   UNL A   1      34.167  34.354  29.308  1.00  0.00     0.039 A 
ATOM     33  C   UNL A   1      33.957  33.808  30.579  1.00  0.00     0.014 A 
ATOM     34  C   UNL A   1      35.470  34.479  28.821  1.00  0.00     0.014 A 
ATOM     35  C   UNL A   1      35.033  33.301  31.313  1.00  0.00     0.010 A 
ATOM     36  C   UNL A   1      36.533  33.901  29.517  1.00  0.00     0.010 A 
ATOM     37  C   UNL A   1      36.324  33.293  30.763  1.00  0.00    -0.014 A 
BRANCH  37  38
ATOM     38  C   UNL A   1      37.446  32.609  31.460  1.00  0.00     0.031 A 
ATOM     39  C   UNL A   1      38.167  31.456  30.822  1.00  0.00     0.074 A 
ATOM     40  C   UNL A   1      37.772  32.992  32.710  1.00  0.00     0.049 A 
ATOM     41  N   UNL A   1      39.137  30.719  31.305  1.00  0.00    -0.248 NA
ATOM     42  C   UNL A   1      37.723  31.056  29.478  1.00  0.00     0.031 C 
ATOM     43  C   UNL A   1      37.104  34.048  33.472  1.00  0.00     0.029 A 
ATOM     44  N   UNL A   1      38.742  32.531  33.564  1.00  0.00    -0.354 N 
ATOM     45  C   UNL A   1      39.402  29.759  30.338  1.00  0.00     0.074 A 
ATOM     46  C   UNL A   1      38.467  29.982  29.255  1.00  0.00     0.031 C 
ATOM     47  C   UNL A   1      37.700  34.173  34.669  1.00  0.00     0.029 A 
ATOM     48  C   UNL A   1      38.776  33.192  34.768  1.00  0.00     0.049 A 
ATOM     49  H   UNL A   1      39.357  31.796  33.336  1.00  0.00     0.167 HD
ATOM     50  C   UNL A   1      40.351  28.791  30.344  1.00  0.00     0.037 A 
ATOM     51  C   UNL A   1      39.583  33.029  35.832  1.00  0.00     0.037 A 
ATOM     52  C   UNL A   1      41.309  28.591  31.399  1.00  0.00     0.049 A 
ATOM     53  C   UNL A   1      40.666  31.990  35.786  1.00  0.00     0.074 A 
ATOM     54  C   UNL A   1      42.355  27.685  31.457  1.00  0.00     0.029 A 
ATOM     55  N   UNL A   1      41.342  29.315  32.582  1.00  0.00    -0.354 N 
ATOM     56  N   UNL A   1      40.952  31.136  34.834  1.00  0.00    -0.248 NA
ATOM     57  C   UNL A   1      41.546  31.900  36.960  1.00  0.00     0.031 C 
ATOM     58  C   UNL A   1      43.004  27.843  32.687  1.00  0.00     0.029 A 
ATOM     59  C   UNL A   1      42.382  28.869  33.380  1.00  0.00     0.049 A 
ATOM     60  H   UNL A   1      40.717  30.037  32.819  1.00  0.00     0.167 HD
ATOM     61  C   UNL A   1      42.050  30.418  35.286  1.00  0.00     0.074 A 
ATOM     62  C   UNL A   1      42.392  30.949  36.588  1.00  0.00     0.031 C 
ATOM     63  C   UNL A   1      42.712  29.406  34.675  1.00  0.00     0.037 A 
BRANCH  50  64
ATOM     64  C   UNL A   1      40.407  27.873  29.158  1.00  0.00     0.064 A 
ATOM     65  C   UNL A   1      39.657  26.689  29.114  1.00  0.00     0.173 A 
ATOM     66  C   UNL A   1      41.189  28.199  28.041  1.00  0.00     0.173 A 
ATOM     67  F   UNL A   1      38.903  26.328  30.165  1.00  0.00    -0.203 F 
ATOM     68  C   UNL A   1      39.707  25.851  28.004  1.00  0.00     0.198 A 
ATOM     69  C   UNL A   1      41.217  27.371  26.922  1.00  0.00     0.198 A 
ATOM     70  F   UNL A   1      41.920  29.324  28.031  1.00  0.00    -0.203 F 
ATOM     71  F   UNL A   1      39.014  24.703  28.001  1.00  0.00    -0.200 F 
ATOM     72  C   UNL A   1      40.481  26.196  26.907  1.00  0.00     0.200 A 
ATOM     73  F   UNL A   1      41.960  27.709  25.858  1.00  0.00    -0.200 F 
ATOM     74  F   UNL A   1      40.525  25.389  25.837  1.00  0.00    -0.200 F 
ENDBRANCH  50  64
BRANCH  51  75
ATOM     75  C   UNL A   1      39.425  33.907  37.018  1.00  0.00     0.064 A 
ATOM     76  C   UNL A   1      38.691  33.477  38.132  1.00  0.00     0.173 A 
ATOM     77  C   UNL A   1      40.005  35.182  37.065  1.00  0.00     0.173 A 
ATOM     78  F   UNL A   1      38.103  32.272  38.120  1.00  0.00    -0.203 F 
ATOM     79  C   UNL A   1      38.528  34.298  39.245  1.00  0.00     0.198 A 
ATOM     80  C   UNL A   1      39.859  35.994  38.187  1.00  0.00     0.198 A 
ATOM     81  F   UNL A   1      40.720  35.633  36.025  1.00  0.00    -0.203 F 
ATOM     82  F   UNL A   1      37.791  33.879  40.282  1.00  0.00    -0.200 F 
ATOM     83  C   UNL A   1      39.116  35.553  39.274  1.00  0.00     0.200 A 
ATOM     84  F   UNL A   1      40.436  37.203  38.217  1.00  0.00    -0.200 F 
ATOM     85  F   UNL A   1      38.961  36.342  40.346  1.00  0.00    -0.200 F 
ENDBRANCH  51  75
BRANCH  63  86
ATOM     86  C   UNL A   1      43.881  28.821  35.405  1.00  0.00     0.064 A 
ATOM     87  C   UNL A   1      45.186  29.285  35.187  1.00  0.00     0.173 A 
ATOM     88  C   UNL A   1      43.694  27.797  36.346  1.00  0.00     0.173 A 
ATOM     89  F   UNL A   1      45.416  30.250  34.284  1.00  0.00    -0.203 F 
ATOM     90  C   UNL A   1      46.266  28.727  35.865  1.00  0.00     0.198 A 
ATOM     91  C   UNL A   1      44.773  27.257  37.039  1.00  0.00     0.198 A 
ATOM     92  F   UNL A   1      42.464  27.322  36.592  1.00  0.00    -0.203 F 
ATOM     93  F   UNL A   1      47.510  29.155  35.608  1.00  0.00    -0.200 F 
ATOM     94  C   UNL A   1      46.059  27.718  36.793  1.00  0.00     0.200 A 
ATOM     95  F   UNL A   1      44.572  26.285  37.939  1.00  0.00    -0.200 F 
ATOM     96  F   UNL A   1      47.100  27.181  37.444  1.00  0.00    -0.200 F 
ENDBRANCH  63  86
ENDBRANCH  37  38
ENDBRANCH  29  32
ENDBRANCH  27  28
ENDBRANCH  26  27
ENDBRANCH   1  26
TORSDOF 14
ENDMDL
MODEL 2
REMARK VINA RESULT:     -12.8      5.670     11.154
REMARK SMILES C[C@]12CCC(=O)N1[C@@H](C(=O)N1C[C@H](O)C[C@@H]1C(=O)NCCCCNC(=O)c1ccc(-c3c4nc(c(-c5c(F)c(F)c(F)c(F)c5F)c5ccc([nH]5)c(-c5c(F)c(F)c(F)c(F)c5F)c5nc(c(-c6c(F)c(F)c(F)c(F)c6F)c6ccc3[nH]6)C=C5)C=C4)cc1)CS2
REMARK SMILES IDX 21 1 20 2 19 3 17 4 18 5 16 7 11 8 12 9 13 10 15 11 9 12
REMARK SMILES IDX 10 13 8 14 1 15 2 16 3 17 7 18 91 19 4 20 5 21 90 22 6 23
REMARK SMILES IDX 14 24 22 26 23 27 24 28 25 29 26 31 27 32 28 33 89 34 29 35
REMARK SMILES IDX 88 36 30 37 31 38 32 39 82 40 33 41 87 42 81 43 83 44 34 45
REMARK SMILES IDX 86 46 80 47 79 48 35 50 67 51 47 52 66 53 48 54 51 55 65 56
REMARK SMILES IDX 84 57 49 58 50 59 64 61 85 62 52 63 36 64 37 65 45 66 38 67
REMARK SMILES IDX 39 68 43 69 46 70 40 71 41 72 44 73 42 74 68 75 69 76 77 77
REMARK SMILES IDX 70 78 71 79 75 80 78 81 72 82 73 83 76 84 74 85 53 86 54 87
REMARK SMILES IDX 62 88 55 89 56 90 60 91 63 92 57 93 58 94 61 95 59 96
REMARK H PARENT 19 6 14 25 24 30 83 49 51 60
REMARK Flexibility Score: inf
ROOT
ATOM      1  C   UNL A   1      37.136  21.055  24.466  1.00  0.00     0.023 C 
ENDROOT
BRANCH   1   2
ATOM      2  C   UNL A   1      36.851  22.183  25.455  1.00  0.00     0.116 C 
BRANCH   2   3
ATOM      3  N   UNL A   1      35.911  21.835  26.501  1.00  0.00    -0.354 N 
ATOM      4  C   UNL A   1      34.548  21.855  26.509  1.00  0.00     0.242 C 
ATOM      5  O   UNL A   1      34.000  21.457  27.544  1.00  0.00    -0.273 OA
ATOM      6  H   UNL A   1      36.324  21.537  27.342  1.00  0.00     0.163 HD
BRANCH   4   7
ATOM      7  C   UNL A   1      33.673  22.342  25.318  1.00  0.00     0.177 C 
ATOM      8  N   UNL A   1      32.312  22.802  25.591  1.00  0.00    -0.326 N 
ATOM      9  C   UNL A   1      31.340  21.828  25.094  1.00  0.00     0.152 C 
ATOM     10  C   UNL A   1      32.153  20.607  24.671  1.00  0.00     0.136 C 
ATOM     11  C   UNL A   1      33.505  21.196  24.309  1.00  0.00     0.069 C 
BRANCH   8  12
ATOM     12  C   UNL A   1      31.856  24.034  26.003  1.00  0.00     0.247 C 
ATOM     13  O   UNL A   1      31.712  24.252  27.215  1.00  0.00    -0.272 OA
BRANCH  12  14
ATOM     14  C   UNL A   1      31.383  25.118  25.004  1.00  0.00     0.186 C 
ATOM     15  C   UNL A   1      31.601  26.195  22.002  1.00  0.00     0.047 C 
ATOM     16  C   UNL A   1      31.963  26.813  23.353  1.00  0.00     0.087 C 
ATOM     17  C   UNL A   1      33.080  27.844  23.208  1.00  0.00     0.049 C 
ATOM     18  N   UNL A   1      32.441  25.853  24.308  1.00  0.00    -0.315 N 
ATOM     19  S   UNL A   1      30.428  27.465  24.122  1.00  0.00    -0.131 SA
ATOM     20  C   UNL A   1      34.018  27.606  24.378  1.00  0.00     0.103 C 
ATOM     21  C   UNL A   1      33.612  26.268  24.938  1.00  0.00     0.224 C 
ATOM     22  C   UNL A   1      30.304  26.129  25.378  1.00  0.00     0.107 C 
ATOM     23  O   UNL A   1      34.188  25.723  25.848  1.00  0.00    -0.275 OA
ENDBRANCH  12  14
ENDBRANCH   8  12
BRANCH  10  24
ATOM     24  O   UNL A   1      32.319  19.691  25.751  1.00  0.00    -0.391 OA
ATOM     25  H   UNL A   1      32.121  20.140  26.588  1.00  0.00     0.211 HD
ENDBRANCH  10  24
ENDBRANCH   4   7
ENDBRANCH   2   3
ENDBRANCH   1   2
BRANCH   1  26
ATOM     26  C   UNL A   1      37.932  19.864  24.997  1.00  0.00     0.023 C 
BRANCH  26  27
ATOM     27  C   UNL A   1      39.085  20.194  25.939  1.00  0.00     0.116 C 
BRANCH  27  28
ATOM     28  N   UNL A   1      40.144  19.197  25.936  1.00  0.00    -0.352 N 
ATOM     29  C   UNL A   1      41.502  19.306  26.116  1.00  0.00     0.251 C 
ATOM     30  H   UNL A   1      39.831  18.277  25.775  1.00  0.00     0.163 HD
ATOM     31  O   UNL A   1      42.207  18.311  25.966  1.00  0.00    -0.269 OA
BRANCH  29  32
ATOM     32  C   UNL A   1      42.143  20.602  26.436  1.00  0.00     0.039 A 
ATOM     33  C   UNL A   1      42.619  21.383  25.376  1.00  0.00     0.014 A 
ATOM     34  C   UNL A   1      42.311  21.050  27.748  1.00  0.00     0.014 A 
ATOM     35  C   UNL A   1      43.167  22.645  25.625  1.00  0.00     0.010 A 
ATOM     36  C   UNL A   1      42.783  22.341  27.990  1.00  0.00     0.010 A 
ATOM     37  C   UNL A   1      43.202  23.158  26.931  1.00  0.00    -0.014 A 
BRANCH  37  38
ATOM     38  C   UNL A   1      43.627  24.559  27.188  1.00  0.00     0.031 A 
ATOM     39  C   UNL A   1      42.652  25.584  27.695  1.00  0.00     0.074 A 
ATOM     40  C   UNL A   1      44.891  24.925  26.898  1.00  0.00     0.049 A 
ATOM     41  N   UNL A   1      42.843  26.859  27.932  1.00  0.00    -0.248 NA
ATOM     42  C   UNL A   1      41.276  25.129  27.938  1.00  0.00     0.031 C 
ATOM     43  C   UNL A   1      45.917  24.047  26.332  1.00  0.00     0.029 A 
ATOM     44  N   UNL A   1      45.527  26.134  27.030  1.00  0.00    -0.354 N 
ATOM     45  C   UNL A   1      41.611  27.359  28.330  1.00  0.00     0.074 A 
ATOM     46  C   UNL A   1      40.669  26.260  28.267  1.00  0.00     0.031 C 
ATOM     47  C   UNL A   1      47.060  24.737  26.192  1.00  0.00     0.029 A 
ATOM     48  C   UNL A   1      46.842  26.111  26.634  1.00  0.00     0.049 A 
ATOM     49  H   UNL A   1      45.084  26.942  27.377  1.00  0.00     0.167 HD
ATOM     50  C   UNL A   1      41.296  28.615  28.729  1.00  0.00     0.037 A 
ATOM     51  C   UNL A   1      47.770  27.085  26.630  1.00  0.00     0.037 A 
ATOM     52  C   UNL A   1      42.236  29.700  28.833  1.00  0.00     0.049 A 
ATOM     53  C   UNL A   1      47.410  28.452  27.136  1.00  0.00     0.074 A 
ATOM     54  C   UNL A   1      42.024  30.987  29.300  1.00  0.00     0.029 A 
ATOM     55  N   UNL A   1      43.572  29.623  28.468  1.00  0.00    -0.354 N 
ATOM     56  N   UNL A   1      46.258  28.893  27.577  1.00  0.00    -0.248 NA
ATOM     57  C   UNL A   1      48.485  29.455  27.153  1.00  0.00     0.031 C 
ATOM     58  C   UNL A   1      43.226  31.696  29.193  1.00  0.00     0.029 A 
ATOM     59  C   UNL A   1      44.194  30.842  28.690  1.00  0.00     0.049 A 
ATOM     60  H   UNL A   1      44.013  28.822  28.105  1.00  0.00     0.167 HD
ATOM     61  C   UNL A   1      46.470  30.216  27.937  1.00  0.00     0.074 A 
ATOM     62  C   UNL A   1      47.866  30.502  27.682  1.00  0.00     0.031 C 
ATOM     63  C   UNL A   1      45.583  31.113  28.431  1.00  0.00     0.037 A 
BRANCH  50  64
ATOM     64  C   UNL A   1      39.867  28.884  29.096  1.00  0.00     0.064 A 
ATOM     65  C   UNL A   1      38.930  29.299  28.138  1.00  0.00     0.173 A 
ATOM     66  C   UNL A   1      39.420  28.691  30.412  1.00  0.00     0.173 A 
ATOM     67  F   UNL A   1      39.312  29.510  26.869  1.00  0.00    -0.203 F 
ATOM     68  C   UNL A   1      37.604  29.533  28.488  1.00  0.00     0.198 A 
ATOM     69  C   UNL A   1      38.087  28.902  30.753  1.00  0.00     0.198 A 
ATOM     70  F   UNL A   1      40.276  28.289  31.364  1.00  0.00    -0.203 F 
ATOM     71  F   UNL A   1      36.735  29.969  27.564  1.00  0.00    -0.200 F 
ATOM     72  C   UNL A   1      37.182  29.329  29.793  1.00  0.00     0.200 A 
ATOM     73  F   UNL A   1      37.679  28.697  32.013  1.00  0.00    -0.200 F 
ATOM     74  F   UNL A   1      35.903  29.552  30.128  1.00  0.00    -0.200 F 
ENDBRANCH  50  64
BRANCH  51  75
ATOM     75  C   UNL A   1      49.150  26.787  26.169  1.00  0.00     0.064 A 
ATOM     76  C   UNL A   1      49.516  26.992  24.832  1.00  0.00     0.173 A 
ATOM     77  C   UNL A   1      50.124  26.299  27.050  1.00  0.00     0.173 A 
ATOM     78  F   UNL A   1      48.609  27.439  23.951  1.00  0.00    -0.203 F 
ATOM     79  C   UNL A   1      50.804  26.704  24.388  1.00  0.00     0.198 A 
ATOM     80  C   UNL A   1      51.418  26.031  26.610  1.00  0.00     0.198 A 
ATOM     81  F   UNL A   1      49.820  26.092  28.340  1.00  0.00    -0.203 F 
ATOM     82  F   UNL A   1      51.120  26.874  23.098  1.00  0.00    -0.200 F 
ATOM     83  C   UNL A   1      51.755  26.229  25.278  1.00  0.00     0.200 A 
ATOM     84  F   UNL A   1      52.338  25.581  27.474  1.00  0.00    -0.200 F 
ATOM     85  F   UNL A   1      52.996  25.955  24.852  1.00  0.00    -0.200 F 
ENDBRANCH  51  75
BRANCH  63  86
ATOM     86  C   UNL A   1      46.106  32.482  28.741  1.00  0.00     0.064 A 
ATOM     87  C   UNL A   1      46.644  32.792  29.998  1.00  0.00     0.173 A 
ATOM     88  C   UNL A   1      46.083  33.492  27.767  1.00  0.00     0.173 A 
ATOM     89  F   UNL A   1      46.671  31.864  30.967  1.00  0.00    -0.203 F 
ATOM     90  C   UNL A   1      47.118  34.070  30.277  1.00  0.00     0.198 A 
ATOM     91  C   UNL A   1      46.577  34.763  28.042  1.00  0.00     0.198 A 
ATOM     92  F   UNL A   1      45.579  33.243  26.548  1.00  0.00    -0.203 F 
ATOM     93  F   UNL A   1      47.587  34.357  31.500  1.00  0.00    -0.200 F 
ATOM     94  C   UNL A   1      47.088  35.053  29.299  1.00  0.00     0.200 A 
ATOM     95  F   UNL A   1      46.553  35.710  27.095  1.00  0.00    -0.200 F 
ATOM     96  F   UNL A   1      47.543  36.284  29.571  1.00  0.00    -0.200 F 
ENDBRANCH  63  86
ENDBRANCH  37  38
ENDBRANCH  29  32
ENDBRANCH  27  28
ENDBRANCH  26  27
ENDBRANCH   1  26
TORSDOF 14
ENDMDL
MODEL 3
REMARK VINA RESULT:     -12.7      0.751      7.411
REMARK SMILES C[C@]12CCC(=O)N1[C@@H](C(=O)N1C[C@H](O)C[C@@H]1C(=O)NCCCCNC(=O)c1ccc(-c3c4nc(c(-c5c(F)c(F)c(F)c(F)c5F)c5ccc([nH]5)c(-c5c(F)c(F)c(F)c(F)c5F)c5nc(c(-c6c(F)c(F)c(F)c(F)c6F)c6ccc3[nH]6)C=C5)C=C4)cc1)CS2
REMARK SMILES IDX 21 1 20 2 19 3 17 4 18 5 16 7 11 8 12 9 13 10 15 11 9 12
REMARK SMILES IDX 10 13 8 14 1 15 2 16 3 17 7 18 91 19 4 20 5 21 90 22 6 23
REMARK SMILES IDX 14 24 22 26 23 27 24 28 25 29 26 31 27 32 28 33 89 34 29 35
REMARK SMILES IDX 88 36 30 37 31 38 32 39 82 40 33 41 87 42 81 43 83 44 34 45
REMARK SMILES IDX 86 46 80 47 79 48 35 50 67 51 47 52 66 53 48 54 51 55 65 56
REMARK SMILES IDX 84 57 49 58 50 59 64 61 85 62 52 63 36 64 37 65 45 66 38 67
REMARK SMILES IDX 39 68 43 69 46 70 40 71 41 72 44 73 42 74 68 75 69 76 77 77
REMARK SMILES IDX 70 78 71 79 75 80 78 81 72 82 73 83 76 84 74 85 53 86 54 87
REMARK SMILES IDX 62 88 55 89 56 90 60 91 63 92 57 93 58 94 61 95 59 96
REMARK H PARENT 19 6 14 25 24 30 83 49 51 60
REMARK Flexibility Score: inf
ROOT
ATOM      1  C   UNL A   1      31.409  30.399  26.343  1.00  0.00     0.023 C 
ENDROOT
BRANCH   1   2
ATOM      2  C   UNL A   1      32.782  29.746  26.208  1.00  0.00     0.116 C 
BRANCH   2   3
ATOM      3  N   UNL A   1      33.304  29.728  24.857  1.00  0.00    -0.354 N 
ATOM      4  C   UNL A   1      33.040  28.888  23.817  1.00  0.00     0.242 C 
ATOM      5  O   UNL A   1      33.609  29.143  22.748  1.00  0.00    -0.273 OA
ATOM      6  H   UNL A   1      33.956  30.438  24.658  1.00  0.00     0.163 HD
BRANCH   4   7
ATOM      7  C   UNL A   1      32.089  27.658  23.904  1.00  0.00     0.177 C 
ATOM      8  N   UNL A   1      32.166  26.639  22.860  1.00  0.00    -0.326 N 
ATOM      9  C   UNL A   1      30.984  26.705  22.001  1.00  0.00     0.152 C 
ATOM     10  C   UNL A   1      30.234  27.967  22.421  1.00  0.00     0.136 C 
ATOM     11  C   UNL A   1      30.632  28.141  23.876  1.00  0.00     0.069 C 
BRANCH   8  12
ATOM     12  C   UNL A   1      33.013  25.561  22.730  1.00  0.00     0.247 C 
ATOM     13  O   UNL A   1      34.028  25.670  22.027  1.00  0.00    -0.272 OA
BRANCH  12  14
ATOM     14  C   UNL A   1      32.678  24.169  23.319  1.00  0.00     0.186 C 
ATOM     15  C   UNL A   1      31.028  22.595  25.561  1.00  0.00     0.047 C 
ATOM     16  C   UNL A   1      32.525  22.726  25.276  1.00  0.00     0.087 C 
ATOM     17  C   UNL A   1      33.347  22.538  26.548  1.00  0.00     0.049 C 
ATOM     18  N   UNL A   1      32.896  24.013  24.759  1.00  0.00    -0.315 N 
ATOM     19  S   UNL A   1      32.960  21.569  23.917  1.00  0.00    -0.131 SA
ATOM     20  C   UNL A   1      34.431  23.600  26.501  1.00  0.00     0.103 C 
ATOM     21  C   UNL A   1      33.997  24.553  25.418  1.00  0.00     0.224 C 
ATOM     22  C   UNL A   1      33.156  22.884  22.649  1.00  0.00     0.107 C 
ATOM     23  O   UNL A   1      34.593  25.566  25.142  1.00  0.00    -0.275 OA
ENDBRANCH  12  14
ENDBRANCH   8  12
BRANCH  10  24
ATOM     24  O   UNL A   1      30.671  29.103  21.679  1.00  0.00    -0.391 OA
ATOM     25  H   UNL A   1      29.914  29.687  21.507  1.00  0.00     0.211 HD
ENDBRANCH  10  24
ENDBRANCH   4   7
ENDBRANCH   2   3
ENDBRANCH   1   2
BRANCH   1  26
ATOM     26  C   UNL A   1      31.387  31.919  26.501  1.00  0.00     0.023 C 
BRANCH  26  27
ATOM     27  C   UNL A   1      32.631  32.548  27.119  1.00  0.00     0.116 C 
BRANCH  27  28
ATOM     28  N   UNL A   1      32.427  33.912  27.579  1.00  0.00    -0.352 N 
ATOM     29  C   UNL A   1      33.076  34.661  28.531  1.00  0.00     0.251 C 
ATOM     30  H   UNL A   1      31.690  34.384  27.128  1.00  0.00     0.163 HD
ATOM     31  O   UNL A   1      32.644  35.778  28.811  1.00  0.00    -0.269 OA
BRANCH  29  32
ATOM     32  C   UNL A   1      34.253  34.140  29.264  1.00  0.00     0.039 A 
ATOM     33  C   UNL A   1      34.028  33.307  30.367  1.00  0.00     0.014 A 
ATOM     34  C   UNL A   1      35.562  34.472  28.910  1.00  0.00     0.014 A 
ATOM     35  C   UNL A   1      35.107  32.734  31.045  1.00  0.00     0.010 A 
ATOM     36  C   UNL A   1      36.636  33.837  29.535  1.00  0.00     0.010 A 
ATOM     37  C   UNL A   1      36.420  32.950  30.599  1.00  0.00    -0.014 A 
BRANCH  37  38
ATOM     38  C   UNL A   1      37.562  32.216  31.207  1.00  0.00     0.031 A 
ATOM     39  C   UNL A   1      38.042  32.540  32.593  1.00  0.00     0.074 A 
ATOM     40  C   UNL A   1      38.214  31.294  30.472  1.00  0.00     0.049 A 
ATOM     41  N   UNL A   1      39.048  32.030  33.260  1.00  0.00    -0.248 NA
ATOM     42  C   UNL A   1      37.318  33.596  33.317  1.00  0.00     0.031 C 
ATOM     43  C   UNL A   1      37.897  30.935  29.089  1.00  0.00     0.029 A 
ATOM     44  N   UNL A   1      39.285  30.493  30.784  1.00  0.00    -0.354 N 
ATOM     45  C   UNL A   1      39.091  32.715  34.466  1.00  0.00     0.074 A 
ATOM     46  C   UNL A   1      38.034  33.704  34.427  1.00  0.00     0.031 C 
ATOM     47  C   UNL A   1      38.735  29.970  28.680  1.00  0.00     0.029 A 
ATOM     48  C   UNL A   1      39.663  29.657  29.763  1.00  0.00     0.049 A 
ATOM     49  H   UNL A   1      39.739  30.516  31.657  1.00  0.00     0.167 HD
ATOM     50  C   UNL A   1      39.924  32.525  35.518  1.00  0.00     0.037 A 
ATOM     51  C   UNL A   1      40.645  28.739  29.703  1.00  0.00     0.037 A 
ATOM     52  C   UNL A   1      40.950  31.517  35.578  1.00  0.00     0.049 A 
ATOM     53  C   UNL A   1      41.513  28.506  30.906  1.00  0.00     0.074 A 
ATOM     54  C   UNL A   1      41.791  31.201  36.632  1.00  0.00     0.029 A 
ATOM     55  N   UNL A   1      41.270  30.656  34.539  1.00  0.00    -0.354 N 
ATOM     56  N   UNL A   1      41.497  29.113  32.067  1.00  0.00    -0.248 NA
ATOM     57  C   UNL A   1      42.532  27.453  30.792  1.00  0.00     0.031 C 
ATOM     58  C   UNL A   1      42.639  30.165  36.221  1.00  0.00     0.029 A 
ATOM     59  C   UNL A   1      42.303  29.815  34.923  1.00  0.00     0.049 A 
ATOM     60  H   UNL A   1      40.829  30.643  33.660  1.00  0.00     0.167 HD
ATOM     61  C   UNL A   1      42.488  28.508  32.826  1.00  0.00     0.074 A 
ATOM     62  C   UNL A   1      43.075  27.472  32.002  1.00  0.00     0.031 C 
ATOM     63  C   UNL A   1      42.878  28.790  34.093  1.00  0.00     0.037 A 
BRANCH  50  64
ATOM     64  C   UNL A   1      39.753  33.427  36.704  1.00  0.00     0.064 A 
ATOM     65  C   UNL A   1      40.455  34.637  36.811  1.00  0.00     0.173 A 
ATOM     66  C   UNL A   1      38.852  33.097  37.727  1.00  0.00     0.173 A 
ATOM     67  F   UNL A   1      41.337  34.991  35.864  1.00  0.00    -0.203 F 
ATOM     68  C   UNL A   1      40.278  35.472  37.911  1.00  0.00     0.198 A 
ATOM     69  C   UNL A   1      38.660  33.946  38.813  1.00  0.00     0.198 A 
ATOM     70  F   UNL A   1      38.153  31.953  37.669  1.00  0.00    -0.203 F 
ATOM     71  F   UNL A   1      40.990  36.604  38.012  1.00  0.00    -0.200 F 
ATOM     72  C   UNL A   1      39.377  35.129  38.907  1.00  0.00     0.200 A 
ATOM     73  F   UNL A   1      37.783  33.618  39.772  1.00  0.00    -0.200 F 
ATOM     74  F   UNL A   1      39.206  35.937  39.964  1.00  0.00    -0.200 F 
ENDBRANCH  50  64
BRANCH  51  75
ATOM     75  C   UNL A   1      40.829  27.935  28.469  1.00  0.00     0.064 A 
ATOM     76  C   UNL A   1      41.657  28.393  27.435  1.00  0.00     0.173 A 
ATOM     77  C   UNL A   1      40.190  26.699  28.301  1.00  0.00     0.173 A 
ATOM     78  F   UNL A   1      42.271  29.580  27.547  1.00  0.00    -0.203 F 
ATOM     79  C   UNL A   1      41.826  27.651  26.269  1.00  0.00     0.198 A 
ATOM     80  C   UNL A   1      40.377  25.948  27.143  1.00  0.00     0.198 A 
ATOM     81  F   UNL A   1      39.393  26.218  29.266  1.00  0.00    -0.203 F 
ATOM     82  F   UNL A   1      42.594  28.127  25.280  1.00  0.00    -0.200 F 
ATOM     83  C   UNL A   1      41.191  26.427  26.126  1.00  0.00     0.200 A 
ATOM     84  F   UNL A   1      39.769  24.761  27.011  1.00  0.00    -0.200 F 
ATOM     85  F   UNL A   1      41.356  25.712  25.005  1.00  0.00    -0.200 F 
ENDBRANCH  51  75
BRANCH  63  86
ATOM     86  C   UNL A   1      43.981  27.954  34.665  1.00  0.00     0.064 A 
ATOM     87  C   UNL A   1      43.719  26.726  35.290  1.00  0.00     0.173 A 
ATOM     88  C   UNL A   1      45.316  28.376  34.574  1.00  0.00     0.173 A 
ATOM     89  F   UNL A   1      42.457  26.290  35.416  1.00  0.00    -0.203 F 
ATOM     90  C   UNL A   1      44.752  25.962  35.825  1.00  0.00     0.198 A 
ATOM     91  C   UNL A   1      46.348  27.600  35.091  1.00  0.00     0.198 A 
ATOM     92  F   UNL A   1      45.616  29.542  33.982  1.00  0.00    -0.203 F 
ATOM     93  F   UNL A   1      44.475  24.813  36.459  1.00  0.00    -0.200 F 
ATOM     94  C   UNL A   1      46.065  26.397  35.723  1.00  0.00     0.200 A 
ATOM     95  F   UNL A   1      47.617  28.017  34.986  1.00  0.00    -0.200 F 
ATOM     96  F   UNL A   1      47.058  25.661  36.241  1.00  0.00    -0.200 F 
ENDBRANCH  63  86
ENDBRANCH  37  38
ENDBRANCH  29  32
ENDBRANCH  27  28
ENDBRANCH  26  27
ENDBRANCH   1  26
TORSDOF 14
ENDMDL
