MODEL 1
REMARK VINA RESULT:     -12.3      0.000      0.000
REMARK SMILES CC(C)=CC[C@@]1(C(=O)NCCCCNC(=O)c2ccc(-c3c4nc(c(-c5c(F)c(F)c(F)c(F)c5F)c5ccc([nH]5)c(-c5c(F)c(F)c(F)c(F)c5F)c5nc(c(-c6c(F)c(F)c(F)c(F)c6F)c6ccc3[nH]6)C=C5)C=C4)cc2)CCC[C@H](C)C1
REMARK SMILES IDX 11 1 10 2 9 3 7 4 8 5 6 7 80 8 85 9 81 10 83 11 82 12 84 13
REMARK SMILES IDX 5 14 4 15 1 16 2 17 3 18 12 19 13 20 14 21 15 22 16 24 17 25
REMARK SMILES IDX 18 26 79 27 19 28 78 29 20 30 21 31 22 32 72 33 23 34 77 35
REMARK SMILES IDX 71 36 73 37 24 38 76 39 70 40 69 41 25 43 57 44 37 45 56 46
REMARK SMILES IDX 38 47 41 48 55 49 74 50 39 51 40 52 54 54 75 55 42 56 26 57
REMARK SMILES IDX 27 58 35 59 28 60 29 61 33 62 36 63 30 64 31 65 34 66 32 67
REMARK SMILES IDX 58 68 59 69 67 70 60 71 61 72 65 73 68 74 62 75 63 76 66 77
REMARK SMILES IDX 64 78 43 79 44 80 52 81 45 82 46 83 50 84 53 85 47 86 48 87
REMARK SMILES IDX 51 88 49 89
REMARK H PARENT 9 6 14 23 73 42 41 53
REMARK Flexibility Score: inf
ROOT
ATOM      1  C   UNL A   1      32.170  27.639  26.876  1.00  0.00     0.023 C 
ENDROOT
BRANCH   1   2
ATOM      2  C   UNL A   1      31.328  26.594  26.124  1.00  0.00     0.116 C 
BRANCH   2   3
ATOM      3  N   UNL A   1      31.312  25.359  26.877  1.00  0.00    -0.356 N 
ATOM      4  C   UNL A   1      31.574  24.064  26.618  1.00  0.00     0.226 C 
ATOM      5  O   UNL A   1      31.046  23.315  27.458  1.00  0.00    -0.274 OA
ATOM      6  H   UNL A   1      31.042  25.502  27.814  1.00  0.00     0.163 HD
BRANCH   4   7
ATOM      7  C   UNL A   1      32.539  23.482  25.540  1.00  0.00     0.053 C 
ATOM      8  C   UNL A   1      31.674  23.498  24.217  1.00  0.00     0.017 C 
ATOM      9  C   UNL A   1      32.803  21.976  25.868  1.00  0.00     0.020 C 
ATOM     10  C   UNL A   1      32.286  22.746  23.044  1.00  0.00     0.001 C 
ATOM     11  C   UNL A   1      33.348  21.136  24.679  1.00  0.00    -0.013 C 
ATOM     12  C   UNL A   1      32.497  21.289  23.412  1.00  0.00     0.003 C 
ATOM     13  C   UNL A   1      33.454  19.653  25.039  1.00  0.00     0.007 C 
BRANCH   7  14
ATOM     14  C   UNL A   1      33.871  24.222  25.185  1.00  0.00     0.044 C 
BRANCH  14  15
ATOM     15  C   UNL A   1      35.234  23.969  25.756  1.00  0.00    -0.027 C 
ATOM     16  C   UNL A   1      36.353  22.986  23.708  1.00  0.00     0.039 C 
ATOM     17  C   UNL A   1      36.340  23.567  25.094  1.00  0.00    -0.080 C 
ATOM     18  C   UNL A   1      37.698  23.732  25.731  1.00  0.00     0.039 C 
ENDBRANCH  14  15
ENDBRANCH   7  14
ENDBRANCH   4   7
ENDBRANCH   2   3
ENDBRANCH   1   2
BRANCH   1  19
ATOM     19  C   UNL A   1      31.773  29.101  26.712  1.00  0.00     0.023 C 
BRANCH  19  20
ATOM     20  C   UNL A   1      32.849  30.073  26.257  1.00  0.00     0.116 C 
BRANCH  20  21
ATOM     21  N   UNL A   1      32.678  31.443  26.713  1.00  0.00    -0.352 N 
ATOM     22  C   UNL A   1      33.525  32.193  27.506  1.00  0.00     0.251 C 
ATOM     23  H   UNL A   1      31.853  31.894  26.418  1.00  0.00     0.163 HD
ATOM     24  O   UNL A   1      33.211  33.311  27.887  1.00  0.00    -0.269 OA
BRANCH  22  25
ATOM     25  C   UNL A   1      34.818  31.599  27.920  1.00  0.00     0.039 A 
ATOM     26  C   UNL A   1      35.947  32.414  28.032  1.00  0.00     0.014 A 
ATOM     27  C   UNL A   1      34.878  30.254  28.290  1.00  0.00     0.014 A 
ATOM     28  C   UNL A   1      37.107  31.902  28.621  1.00  0.00     0.010 A 
ATOM     29  C   UNL A   1      35.992  29.780  28.970  1.00  0.00     0.010 A 
ATOM     30  C   UNL A   1      37.117  30.599  29.147  1.00  0.00    -0.014 A 
BRANCH  30  31
ATOM     31  C   UNL A   1      38.285  30.062  29.890  1.00  0.00     0.031 A 
ATOM     32  C   UNL A   1      38.545  30.515  31.300  1.00  0.00     0.074 A 
ATOM     33  C   UNL A   1      39.163  29.252  29.264  1.00  0.00     0.049 A 
ATOM     34  N   UNL A   1      39.561  30.252  32.083  1.00  0.00    -0.248 NA
ATOM     35  C   UNL A   1      37.550  31.422  31.894  1.00  0.00     0.031 C 
ATOM     36  C   UNL A   1      39.062  28.805  27.873  1.00  0.00     0.029 A 
ATOM     37  N   UNL A   1      40.323  28.672  29.713  1.00  0.00    -0.354 N 
ATOM     38  C   UNL A   1      39.338  30.980  33.244  1.00  0.00     0.074 A 
ATOM     39  C   UNL A   1      38.127  31.744  33.041  1.00  0.00     0.031 C 
ATOM     40  C   UNL A   1      40.097  27.996  27.594  1.00  0.00     0.029 A 
ATOM     41  C   UNL A   1      40.951  27.893  28.772  1.00  0.00     0.049 A 
ATOM     42  H   UNL A   1      40.672  28.801  30.626  1.00  0.00     0.167 HD
ATOM     43  C   UNL A   1      40.060  30.988  34.389  1.00  0.00     0.037 A 
ATOM     44  C   UNL A   1      42.087  27.174  28.856  1.00  0.00     0.037 A 
ATOM     45  C   UNL A   1      41.240  30.192  34.600  1.00  0.00     0.049 A 
ATOM     46  C   UNL A   1      42.848  27.162  30.154  1.00  0.00     0.074 A 
ATOM     47  C   UNL A   1      42.011  30.073  35.742  1.00  0.00     0.029 A 
ATOM     48  N   UNL A   1      41.813  29.369  33.641  1.00  0.00    -0.354 N 
ATOM     49  N   UNL A   1      42.589  27.798  31.271  1.00  0.00    -0.248 NA
ATOM     50  C   UNL A   1      44.053  26.323  30.207  1.00  0.00     0.031 C 
ATOM     51  C   UNL A   1      43.069  29.200  35.465  1.00  0.00     0.029 A 
ATOM     52  C   UNL A   1      42.933  28.745  34.163  1.00  0.00     0.049 A 
ATOM     53  H   UNL A   1      41.474  29.248  32.725  1.00  0.00     0.167 HD
ATOM     54  C   UNL A   1      43.578  27.417  32.166  1.00  0.00     0.074 A 
ATOM     55  C   UNL A   1      44.436  26.483  31.466  1.00  0.00     0.031 C 
ATOM     56  C   UNL A   1      43.762  27.807  33.450  1.00  0.00     0.037 A 
BRANCH  43  57
ATOM     57  C   UNL A   1      39.581  31.873  35.502  1.00  0.00     0.064 A 
ATOM     58  C   UNL A   1      38.618  31.435  36.426  1.00  0.00     0.173 A 
ATOM     59  C   UNL A   1      40.092  33.171  35.654  1.00  0.00     0.173 A 
ATOM     60  F   UNL A   1      38.086  30.209  36.315  1.00  0.00    -0.203 F 
ATOM     61  C   UNL A   1      38.160  32.275  37.437  1.00  0.00     0.198 A 
ATOM     62  C   UNL A   1      39.653  33.997  36.686  1.00  0.00     0.198 A 
ATOM     63  F   UNL A   1      41.015  33.639  34.802  1.00  0.00    -0.203 F 
ATOM     64  F   UNL A   1      37.198  31.855  38.269  1.00  0.00    -0.200 F 
ATOM     65  C   UNL A   1      38.681  33.553  37.570  1.00  0.00     0.200 A 
ATOM     66  F   UNL A   1      40.165  35.228  36.820  1.00  0.00    -0.200 F 
ATOM     67  F   UNL A   1      38.239  34.360  38.543  1.00  0.00    -0.200 F 
ENDBRANCH  43  57
BRANCH  44  68
ATOM     68  C   UNL A   1      42.544  26.366  27.695  1.00  0.00     0.064 A 
ATOM     69  C   UNL A   1      43.498  26.873  26.802  1.00  0.00     0.173 A 
ATOM     70  C   UNL A   1      42.046  25.077  27.454  1.00  0.00     0.173 A 
ATOM     71  F   UNL A   1      43.990  28.108  26.979  1.00  0.00    -0.203 F 
ATOM     72  C   UNL A   1      43.924  26.130  25.702  1.00  0.00     0.198 A 
ATOM     73  C   UNL A   1      42.490  24.326  26.368  1.00  0.00     0.198 A 
ATOM     74  F   UNL A   1      41.136  24.544  28.283  1.00  0.00    -0.203 F 
ATOM     75  F   UNL A   1      44.806  26.657  24.842  1.00  0.00    -0.200 F 
ATOM     76  C   UNL A   1      43.423  24.855  25.489  1.00  0.00     0.200 A 
ATOM     77  F   UNL A   1      42.015  23.088  26.172  1.00  0.00    -0.200 F 
ATOM     78  F   UNL A   1      43.835  24.139  24.434  1.00  0.00    -0.200 F 
ENDBRANCH  44  68
BRANCH  56  79
ATOM     79  C   UNL A   1      44.914  27.196  34.191  1.00  0.00     0.064 A 
ATOM     80  C   UNL A   1      46.172  27.812  34.231  1.00  0.00     0.173 A 
ATOM     81  C   UNL A   1      44.742  26.001  34.904  1.00  0.00     0.173 A 
ATOM     82  F   UNL A   1      46.388  28.949  33.551  1.00  0.00    -0.203 F 
ATOM     83  C   UNL A   1      47.226  27.241  34.937  1.00  0.00     0.198 A 
ATOM     84  C   UNL A   1      45.790  25.445  35.633  1.00  0.00     0.198 A 
ATOM     85  F   UNL A   1      43.554  25.377  34.903  1.00  0.00    -0.203 F 
ATOM     86  F   UNL A   1      48.433  27.824  34.925  1.00  0.00    -0.200 F 
ATOM     87  C   UNL A   1      47.032  26.062  35.643  1.00  0.00     0.200 A 
ATOM     88  F   UNL A   1      45.598  24.313  36.323  1.00  0.00    -0.200 F 
ATOM     89  F   UNL A   1      48.045  25.516  36.329  1.00  0.00    -0.200 F 
ENDBRANCH  56  79
ENDBRANCH  30  31
ENDBRANCH  22  25
ENDBRANCH  20  21
ENDBRANCH  19  20
ENDBRANCH   1  19
TORSDOF 13
ENDMDL
MODEL 2
REMARK VINA RESULT:     -12.1      3.100      4.396
REMARK SMILES CC(C)=CC[C@@]1(C(=O)NCCCCNC(=O)c2ccc(-c3c4nc(c(-c5c(F)c(F)c(F)c(F)c5F)c5ccc([nH]5)c(-c5c(F)c(F)c(F)c(F)c5F)c5nc(c(-c6c(F)c(F)c(F)c(F)c6F)c6ccc3[nH]6)C=C5)C=C4)cc2)CCC[C@H](C)C1
REMARK SMILES IDX 11 1 10 2 9 3 7 4 8 5 6 7 80 8 85 9 81 10 83 11 82 12 84 13
REMARK SMILES IDX 5 14 4 15 1 16 2 17 3 18 12 19 13 20 14 21 15 22 16 24 17 25
REMARK SMILES IDX 18 26 79 27 19 28 78 29 20 30 21 31 22 32 72 33 23 34 77 35
REMARK SMILES IDX 71 36 73 37 24 38 76 39 70 40 69 41 25 43 57 44 37 45 56 46
REMARK SMILES IDX 38 47 41 48 55 49 74 50 39 51 40 52 54 54 75 55 42 56 26 57
REMARK SMILES IDX 27 58 35 59 28 60 29 61 33 62 36 63 30 64 31 65 34 66 32 67
REMARK SMILES IDX 58 68 59 69 67 70 60 71 61 72 65 73 68 74 62 75 63 76 66 77
REMARK SMILES IDX 64 78 43 79 44 80 52 81 45 82 46 83 50 84 53 85 47 86 48 87
REMARK SMILES IDX 51 88 49 89
REMARK H PARENT 9 6 14 23 73 42 41 53
REMARK Flexibility Score: inf
ROOT
ATOM      1  C   UNL A   1      32.191  27.045  25.961  1.00  0.00     0.023 C 
ENDROOT
BRANCH   1   2
ATOM      2  C   UNL A   1      30.943  26.149  26.041  1.00  0.00     0.116 C 
BRANCH   2   3
ATOM      3  N   UNL A   1      31.231  25.002  26.875  1.00  0.00    -0.356 N 
ATOM      4  C   UNL A   1      31.691  23.752  26.677  1.00  0.00     0.226 C 
ATOM      5  O   UNL A   1      31.400  23.004  27.625  1.00  0.00    -0.274 OA
ATOM      6  H   UNL A   1      31.042  25.181  27.825  1.00  0.00     0.163 HD
BRANCH   4   7
ATOM      7  C   UNL A   1      32.623  23.248  25.532  1.00  0.00     0.053 C 
ATOM      8  C   UNL A   1      31.710  23.331  24.244  1.00  0.00     0.017 C 
ATOM      9  C   UNL A   1      32.914  21.729  25.760  1.00  0.00     0.020 C 
ATOM     10  C   UNL A   1      32.287  22.658  23.007  1.00  0.00     0.001 C 
ATOM     11  C   UNL A   1      33.425  20.968  24.504  1.00  0.00    -0.013 C 
ATOM     12  C   UNL A   1      32.527  21.184  23.280  1.00  0.00     0.003 C 
ATOM     13  C   UNL A   1      33.559  19.467  24.770  1.00  0.00     0.007 C 
BRANCH   7  14
ATOM     14  C   UNL A   1      33.933  24.024  25.175  1.00  0.00     0.044 C 
BRANCH  14  15
ATOM     15  C   UNL A   1      35.300  23.819  25.755  1.00  0.00    -0.027 C 
ATOM     16  C   UNL A   1      36.486  22.956  23.691  1.00  0.00     0.039 C 
ATOM     17  C   UNL A   1      36.431  23.492  25.094  1.00  0.00    -0.080 C 
ATOM     18  C   UNL A   1      37.773  23.702  25.751  1.00  0.00     0.039 C 
ENDBRANCH  14  15
ENDBRANCH   7  14
ENDBRANCH   4   7
ENDBRANCH   2   3
ENDBRANCH   1   2
BRANCH   1  19
ATOM     19  C   UNL A   1      32.304  28.172  26.982  1.00  0.00     0.023 C 
BRANCH  19  20
ATOM     20  C   UNL A   1      33.688  28.738  27.251  1.00  0.00     0.116 C 
BRANCH  20  21
ATOM     21  N   UNL A   1      33.712  30.093  27.777  1.00  0.00    -0.352 N 
ATOM     22  C   UNL A   1      34.759  30.756  28.387  1.00  0.00     0.251 C 
ATOM     23  H   UNL A   1      32.874  30.603  27.688  1.00  0.00     0.163 HD
ATOM     24  O   UNL A   1      34.610  31.871  28.864  1.00  0.00    -0.269 OA
BRANCH  22  25
ATOM     25  C   UNL A   1      36.070  30.071  28.484  1.00  0.00     0.039 A 
ATOM     26  C   UNL A   1      36.977  30.165  27.426  1.00  0.00     0.014 A 
ATOM     27  C   UNL A   1      36.429  29.423  29.667  1.00  0.00     0.014 A 
ATOM     28  C   UNL A   1      38.285  29.703  27.599  1.00  0.00     0.010 A 
ATOM     29  C   UNL A   1      37.754  29.062  29.874  1.00  0.00     0.010 A 
ATOM     30  C   UNL A   1      38.697  29.201  28.846  1.00  0.00    -0.014 A 
BRANCH  30  31
ATOM     31  C   UNL A   1      40.107  28.816  29.108  1.00  0.00     0.031 A 
ATOM     32  C   UNL A   1      41.023  29.775  29.816  1.00  0.00     0.074 A 
ATOM     33  C   UNL A   1      40.586  27.653  28.622  1.00  0.00     0.049 A 
ATOM     34  N   UNL A   1      42.308  29.679  30.049  1.00  0.00    -0.248 NA
ATOM     35  C   UNL A   1      40.422  31.033  30.287  1.00  0.00     0.031 C 
ATOM     36  C   UNL A   1      39.815  26.674  27.851  1.00  0.00     0.029 A 
ATOM     37  N   UNL A   1      41.842  27.103  28.692  1.00  0.00    -0.354 N 
ATOM     38  C   UNL A   1      42.668  30.869  30.665  1.00  0.00     0.074 A 
ATOM     39  C   UNL A   1      41.484  31.698  30.715  1.00  0.00     0.031 C 
ATOM     40  C   UNL A   1      40.606  25.631  27.549  1.00  0.00     0.029 A 
ATOM     41  C   UNL A   1      41.944  25.881  28.073  1.00  0.00     0.049 A 
ATOM     42  H   UNL A   1      42.598  27.543  29.143  1.00  0.00     0.167 HD
ATOM     43  C   UNL A   1      43.871  31.229  31.173  1.00  0.00     0.037 A 
ATOM     44  C   UNL A   1      43.001  25.055  27.948  1.00  0.00     0.037 A 
ATOM     45  C   UNL A   1      45.033  30.382  31.160  1.00  0.00     0.049 A 
ATOM     46  C   UNL A   1      44.315  25.455  28.562  1.00  0.00     0.074 A 
ATOM     47  C   UNL A   1      46.282  30.619  31.704  1.00  0.00     0.029 A 
ATOM     48  N   UNL A   1      45.082  29.125  30.575  1.00  0.00    -0.354 N 
ATOM     49  N   UNL A   1      44.626  26.554  29.207  1.00  0.00    -0.248 NA
ATOM     50  C   UNL A   1      45.422  24.497  28.440  1.00  0.00     0.031 C 
ATOM     51  C   UNL A   1      47.097  29.516  31.423  1.00  0.00     0.029 A 
ATOM     52  C   UNL A   1      46.342  28.576  30.739  1.00  0.00     0.049 A 
ATOM     53  H   UNL A   1      44.331  28.688  30.112  1.00  0.00     0.167 HD
ATOM     54  C   UNL A   1      45.952  26.409  29.591  1.00  0.00     0.074 A 
ATOM     55  C   UNL A   1      46.382  25.109  29.119  1.00  0.00     0.031 C 
ATOM     56  C   UNL A   1      46.742  27.274  30.271  1.00  0.00     0.037 A 
BRANCH  43  57
ATOM     57  C   UNL A   1      43.977  32.589  31.798  1.00  0.00     0.064 A 
ATOM     58  C   UNL A   1      44.353  33.714  31.048  1.00  0.00     0.173 A 
ATOM     59  C   UNL A   1      43.693  32.774  33.160  1.00  0.00     0.173 A 
ATOM     60  F   UNL A   1      44.650  33.588  29.746  1.00  0.00    -0.203 F 
ATOM     61  C   UNL A   1      44.476  34.966  31.644  1.00  0.00     0.198 A 
ATOM     62  C   UNL A   1      43.787  34.035  33.746  1.00  0.00     0.198 A 
ATOM     63  F   UNL A   1      43.327  31.735  33.923  1.00  0.00    -0.203 F 
ATOM     64  F   UNL A   1      44.894  36.013  30.920  1.00  0.00    -0.200 F 
ATOM     65  C   UNL A   1      44.188  35.127  32.991  1.00  0.00     0.200 A 
ATOM     66  F   UNL A   1      43.498  34.191  35.045  1.00  0.00    -0.200 F 
ATOM     67  F   UNL A   1      44.307  36.332  33.563  1.00  0.00    -0.200 F 
ENDBRANCH  43  57
BRANCH  44  68
ATOM     68  C   UNL A   1      42.846  23.746  27.261  1.00  0.00     0.064 A 
ATOM     69  C   UNL A   1      42.320  22.639  27.943  1.00  0.00     0.173 A 
ATOM     70  C   UNL A   1      43.211  23.572  25.918  1.00  0.00     0.173 A 
ATOM     71  F   UNL A   1      41.974  22.751  29.233  1.00  0.00    -0.203 F 
ATOM     72  C   UNL A   1      42.183  21.404  27.313  1.00  0.00     0.198 A 
ATOM     73  C   UNL A   1      43.051  22.342  25.283  1.00  0.00     0.198 A 
ATOM     74  F   UNL A   1      43.713  24.602  25.221  1.00  0.00    -0.203 F 
ATOM     75  F   UNL A   1      41.716  20.353  28.001  1.00  0.00    -0.200 F 
ATOM     76  C   UNL A   1      42.543  21.257  25.982  1.00  0.00     0.200 A 
ATOM     77  F   UNL A   1      43.387  22.208  23.993  1.00  0.00    -0.200 F 
ATOM     78  F   UNL A   1      42.408  20.070  25.376  1.00  0.00    -0.200 F 
ENDBRANCH  44  68
BRANCH  56  79
ATOM     79  C   UNL A   1      48.141  26.826  30.575  1.00  0.00     0.064 A 
ATOM     80  C   UNL A   1      48.428  26.013  31.680  1.00  0.00     0.173 A 
ATOM     81  C   UNL A   1      49.198  27.183  29.725  1.00  0.00     0.173 A 
ATOM     82  F   UNL A   1      47.451  25.659  32.529  1.00  0.00    -0.203 F 
ATOM     83  C   UNL A   1      49.729  25.593  31.938  1.00  0.00     0.198 A 
ATOM     84  C   UNL A   1      50.494  26.739  29.971  1.00  0.00     0.198 A 
ATOM     85  F   UNL A   1      48.972  27.955  28.651  1.00  0.00    -0.203 F 
ATOM     86  F   UNL A   1      49.989  24.852  33.024  1.00  0.00    -0.200 F 
ATOM     87  C   UNL A   1      50.759  25.950  31.080  1.00  0.00     0.200 A 
ATOM     88  F   UNL A   1      51.486  27.076  29.135  1.00  0.00    -0.200 F 
ATOM     89  F   UNL A   1      52.011  25.539  31.326  1.00  0.00    -0.200 F 
ENDBRANCH  56  79
ENDBRANCH  30  31
ENDBRANCH  22  25
ENDBRANCH  20  21
ENDBRANCH  19  20
ENDBRANCH   1  19
TORSDOF 13
ENDMDL
MODEL 3
REMARK VINA RESULT:     -12.1      2.100      3.503
REMARK SMILES CC(C)=CC[C@@]1(C(=O)NCCCCNC(=O)c2ccc(-c3c4nc(c(-c5c(F)c(F)c(F)c(F)c5F)c5ccc([nH]5)c(-c5c(F)c(F)c(F)c(F)c5F)c5nc(c(-c6c(F)c(F)c(F)c(F)c6F)c6ccc3[nH]6)C=C5)C=C4)cc2)CCC[C@H](C)C1
REMARK SMILES IDX 11 1 10 2 9 3 7 4 8 5 6 7 80 8 85 9 81 10 83 11 82 12 84 13
REMARK SMILES IDX 5 14 4 15 1 16 2 17 3 18 12 19 13 20 14 21 15 22 16 24 17 25
REMARK SMILES IDX 18 26 79 27 19 28 78 29 20 30 21 31 22 32 72 33 23 34 77 35
REMARK SMILES IDX 71 36 73 37 24 38 76 39 70 40 69 41 25 43 57 44 37 45 56 46
REMARK SMILES IDX 38 47 41 48 55 49 74 50 39 51 40 52 54 54 75 55 42 56 26 57
REMARK SMILES IDX 27 58 35 59 28 60 29 61 33 62 36 63 30 64 31 65 34 66 32 67
REMARK SMILES IDX 58 68 59 69 67 70 60 71 61 72 65 73 68 74 62 75 63 76 66 77
REMARK SMILES IDX 64 78 43 79 44 80 52 81 45 82 46 83 50 84 53 85 47 86 48 87
REMARK SMILES IDX 51 88 49 89
REMARK H PARENT 9 6 14 23 73 42 41 53
REMARK Flexibility Score: inf
ROOT
ATOM      1  C   UNL A   1      31.916  30.409  26.874  1.00  0.00     0.023 C 
ENDROOT
BRANCH   1   2
ATOM      2  C   UNL A   1      33.308  29.877  26.493  1.00  0.00     0.116 C 
BRANCH   2   3
ATOM      3  N   UNL A   1      33.385  29.722  25.056  1.00  0.00    -0.356 N 
ATOM      4  C   UNL A   1      33.353  28.691  24.191  1.00  0.00     0.226 C 
ATOM      5  O   UNL A   1      33.849  29.001  23.095  1.00  0.00    -0.274 OA
ATOM      6  H   UNL A   1      33.487  30.588  24.597  1.00  0.00     0.163 HD
BRANCH   4   7
ATOM      7  C   UNL A   1      32.656  27.309  24.379  1.00  0.00     0.053 C 
ATOM      8  C   UNL A   1      33.013  26.527  23.053  1.00  0.00     0.017 C 
ATOM      9  C   UNL A   1      31.107  27.524  24.352  1.00  0.00     0.020 C 
ATOM     10  C   UNL A   1      32.248  25.226  22.852  1.00  0.00     0.001 C 
ATOM     11  C   UNL A   1      30.276  26.243  24.063  1.00  0.00    -0.013 C 
ATOM     12  C   UNL A   1      30.756  25.500  22.810  1.00  0.00     0.003 C 
ATOM     13  C   UNL A   1      28.786  26.558  23.921  1.00  0.00     0.007 C 
BRANCH   7  14
ATOM     14  C   UNL A   1      33.071  26.363  25.555  1.00  0.00     0.044 C 
BRANCH  14  15
ATOM     15  C   UNL A   1      34.386  25.668  25.744  1.00  0.00    -0.027 C 
ATOM     16  C   UNL A   1      33.575  23.269  25.748  1.00  0.00     0.039 C 
ATOM     17  C   UNL A   1      34.627  24.341  25.691  1.00  0.00    -0.080 C 
ATOM     18  C   UNL A   1      36.040  23.841  25.516  1.00  0.00     0.039 C 
ENDBRANCH  14  15
ENDBRANCH   7  14
ENDBRANCH   4   7
ENDBRANCH   2   3
ENDBRANCH   1   2
BRANCH   1  19
ATOM     19  C   UNL A   1      31.703  31.917  26.802  1.00  0.00     0.023 C 
BRANCH  19  20
ATOM     20  C   UNL A   1      32.822  32.808  27.316  1.00  0.00     0.116 C 
BRANCH  20  21
ATOM     21  N   UNL A   1      32.430  34.170  27.639  1.00  0.00    -0.352 N 
ATOM     22  C   UNL A   1      32.956  35.006  28.604  1.00  0.00     0.251 C 
ATOM     23  H   UNL A   1      31.694  34.544  27.100  1.00  0.00     0.163 HD
ATOM     24  O   UNL A   1      32.467  36.103  28.827  1.00  0.00    -0.269 OA
BRANCH  22  25
ATOM     25  C   UNL A   1      34.114  34.530  29.397  1.00  0.00     0.039 A 
ATOM     26  C   UNL A   1      33.897  33.897  30.623  1.00  0.00     0.014 A 
ATOM     27  C   UNL A   1      35.404  34.627  28.871  1.00  0.00     0.014 A 
ATOM     28  C   UNL A   1      34.964  33.263  31.267  1.00  0.00     0.010 A 
ATOM     29  C   UNL A   1      36.438  33.908  29.456  1.00  0.00     0.010 A 
ATOM     30  C   UNL A   1      36.230  33.215  30.658  1.00  0.00    -0.014 A 
BRANCH  30  31
ATOM     31  C   UNL A   1      37.355  32.448  31.248  1.00  0.00     0.031 A 
ATOM     32  C   UNL A   1      37.862  32.801  32.618  1.00  0.00     0.074 A 
ATOM     33  C   UNL A   1      37.984  31.508  30.513  1.00  0.00     0.049 A 
ATOM     34  N   UNL A   1      38.895  32.330  33.270  1.00  0.00    -0.248 NA
ATOM     35  C   UNL A   1      37.133  33.859  33.336  1.00  0.00     0.031 C 
ATOM     36  C   UNL A   1      37.636  31.130  29.142  1.00  0.00     0.029 A 
ATOM     37  N   UNL A   1      39.058  30.708  30.813  1.00  0.00    -0.354 N 
ATOM     38  C   UNL A   1      38.953  33.051  34.455  1.00  0.00     0.074 A 
ATOM     39  C   UNL A   1      37.892  34.033  34.407  1.00  0.00     0.031 C 
ATOM     40  C   UNL A   1      38.459  30.150  28.732  1.00  0.00     0.029 A 
ATOM     41  C   UNL A   1      39.412  29.854  29.796  1.00  0.00     0.049 A 
ATOM     42  H   UNL A   1      39.531  30.742  31.676  1.00  0.00     0.167 HD
ATOM     43  C   UNL A   1      39.795  32.889  35.503  1.00  0.00     0.037 A 
ATOM     44  C   UNL A   1      40.394  28.935  29.735  1.00  0.00     0.037 A 
ATOM     45  C   UNL A   1      40.820  31.882  35.562  1.00  0.00     0.049 A 
ATOM     46  C   UNL A   1      41.288  28.741  30.930  1.00  0.00     0.074 A 
ATOM     47  C   UNL A   1      41.684  31.587  36.600  1.00  0.00     0.029 A 
ATOM     48  N   UNL A   1      41.109  30.996  34.534  1.00  0.00    -0.354 N 
ATOM     49  N   UNL A   1      41.287  29.380  32.075  1.00  0.00    -0.248 NA
ATOM     50  C   UNL A   1      42.311  27.692  30.829  1.00  0.00     0.031 C 
ATOM     51  C   UNL A   1      42.518  30.541  36.189  1.00  0.00     0.029 A 
ATOM     52  C   UNL A   1      42.145  30.158  34.910  1.00  0.00     0.049 A 
ATOM     53  H   UNL A   1      40.647  30.968  33.665  1.00  0.00     0.167 HD
ATOM     54  C   UNL A   1      42.287  28.795  32.839  1.00  0.00     0.074 A 
ATOM     55  C   UNL A   1      42.863  27.739  32.033  1.00  0.00     0.031 C 
ATOM     56  C   UNL A   1      42.692  29.105  34.094  1.00  0.00     0.037 A 
BRANCH  43  57
ATOM     57  C   UNL A   1      39.626  33.815  36.672  1.00  0.00     0.064 A 
ATOM     58  C   UNL A   1      40.270  35.062  36.721  1.00  0.00     0.173 A 
ATOM     59  C   UNL A   1      38.806  33.459  37.753  1.00  0.00     0.173 A 
ATOM     60  F   UNL A   1      41.078  35.443  35.720  1.00  0.00    -0.203 F 
ATOM     61  C   UNL A   1      40.129  35.900  37.823  1.00  0.00     0.198 A 
ATOM     62  C   UNL A   1      38.643  34.314  38.841  1.00  0.00     0.198 A 
ATOM     63  F   UNL A   1      38.165  32.281  37.758  1.00  0.00    -0.203 F 
ATOM     64  F   UNL A   1      40.802  37.058  37.872  1.00  0.00    -0.200 F 
ATOM     65  C   UNL A   1      39.312  35.529  38.880  1.00  0.00     0.200 A 
ATOM     66  F   UNL A   1      37.844  33.959  39.856  1.00  0.00    -0.200 F 
ATOM     67  F   UNL A   1      39.177  36.336  39.940  1.00  0.00    -0.200 F 
ENDBRANCH  43  57
BRANCH  44  68
ATOM     68  C   UNL A   1      40.549  28.091  28.521  1.00  0.00     0.064 A 
ATOM     69  C   UNL A   1      39.912  26.845  28.431  1.00  0.00     0.173 A 
ATOM     70  C   UNL A   1      41.325  28.507  27.429  1.00  0.00     0.173 A 
ATOM     71  F   UNL A   1      39.175  26.395  29.457  1.00  0.00    -0.203 F 
ATOM     72  C   UNL A   1      40.061  26.039  27.304  1.00  0.00     0.198 A 
ATOM     73  C   UNL A   1      41.453  27.711  26.293  1.00  0.00     0.198 A 
ATOM     74  F   UNL A   1      41.949  29.694  27.463  1.00  0.00    -0.203 F 
ATOM     75  F   UNL A   1      39.475  24.835  27.263  1.00  0.00    -0.200 F 
ATOM     76  C   UNL A   1      40.827  26.474  26.233  1.00  0.00     0.200 A 
ATOM     77  F   UNL A   1      42.183  28.141  25.255  1.00  0.00    -0.200 F 
ATOM     78  F   UNL A   1      40.967  25.701  25.148  1.00  0.00    -0.200 F 
ENDBRANCH  44  68
BRANCH  56  79
ATOM     79  C   UNL A   1      43.788  28.268  34.684  1.00  0.00     0.064 A 
ATOM     80  C   UNL A   1      45.134  28.647  34.589  1.00  0.00     0.173 A 
ATOM     81  C   UNL A   1      43.480  27.095  35.389  1.00  0.00     0.173 A 
ATOM     82  F   UNL A   1      45.477  29.753  33.912  1.00  0.00    -0.203 F 
ATOM     83  C   UNL A   1      46.137  27.867  35.157  1.00  0.00     0.198 A 
ATOM     84  C   UNL A   1      44.483  26.331  35.979  1.00  0.00     0.198 A 
ATOM     85  F   UNL A   1      42.205  26.694  35.513  1.00  0.00    -0.203 F 
ATOM     86  F   UNL A   1      47.421  28.224  35.017  1.00  0.00    -0.200 F 
ATOM     87  C   UNL A   1      45.810  26.714  35.857  1.00  0.00     0.200 A 
ATOM     88  F   UNL A   1      44.165  25.225  36.664  1.00  0.00    -0.200 F 
ATOM     89  F   UNL A   1      46.776  25.969  36.410  1.00  0.00    -0.200 F 
ENDBRANCH  56  79
ENDBRANCH  30  31
ENDBRANCH  22  25
ENDBRANCH  20  21
ENDBRANCH  19  20
ENDBRANCH   1  19
TORSDOF 13
ENDMDL
