MODEL 1
REMARK VINA RESULT:     -13.2      0.000      0.000
REMARK SMILES Cc1ccc(C(=O)NCCCCNC(=O)c2ccc(-c3c4nc(c(-c5c(F)c(F)c(F)c(F)c5F)c5ccc([nH]5)c(-c5c(F)c(F)c(F)c(F)c5F)c5nc(c(-c6c(F)c(F)c(F)c(F)c6F)c6ccc3[nH]6)C=C5)C=C4)cc2)cc1S(=O)(=O)N(CC1CC1)C(C)C
REMARK SMILES IDX 9 1 8 2 6 3 7 4 5 6 1 7 2 8 3 9 80 10 4 11 79 12 81 13 82 14
REMARK SMILES IDX 83 15 84 16 85 17 86 18 87 19 88 20 89 21 90 22 91 23 10 24
REMARK SMILES IDX 11 25 12 26 13 27 14 28 15 30 16 31 17 32 78 33 18 34 77 35
REMARK SMILES IDX 19 36 20 37 21 38 71 39 22 40 76 41 70 42 72 43 23 44 75 45
REMARK SMILES IDX 69 46 68 47 24 49 56 50 36 51 55 52 37 53 40 54 54 55 73 56
REMARK SMILES IDX 38 57 39 58 53 60 74 61 41 62 25 63 26 64 34 65 27 66 28 67
REMARK SMILES IDX 32 68 35 69 29 70 30 71 33 72 31 73 57 74 58 75 66 76 59 77
REMARK SMILES IDX 60 78 64 79 67 80 61 81 62 82 65 83 63 84 42 85 43 86 51 87
REMARK SMILES IDX 44 88 45 89 49 90 52 91 46 92 47 93 50 94 48 95
REMARK H PARENT 8 5 13 29 72 48 40 59
REMARK Flexibility Score: inf
ROOT
ATOM      1  C   UNL A   1      35.509  20.721  24.611  1.00  0.00     0.116 C 
ENDROOT
BRANCH   1   2
ATOM      2  N   UNL A   1      34.478  19.851  25.159  1.00  0.00    -0.352 N 
ATOM      3  C   UNL A   1      33.113  19.960  25.273  1.00  0.00     0.251 C 
ATOM      4  O   UNL A   1      32.513  18.997  25.755  1.00  0.00    -0.269 OA
ATOM      5  H   UNL A   1      34.833  19.010  25.526  1.00  0.00     0.163 HD
BRANCH   3   6
ATOM      6  C   UNL A   1      32.323  21.131  24.792  1.00  0.00     0.041 A 
ATOM      7  C   UNL A   1      30.674  24.753  23.063  1.00  0.00     0.046 C 
ATOM      8  C   UNL A   1      31.147  23.499  23.734  1.00  0.00    -0.031 A 
ATOM      9  C   UNL A   1      31.587  22.458  22.893  1.00  0.00     0.005 A 
ATOM     10  C   UNL A   1      31.198  23.282  25.119  1.00  0.00     0.086 A 
ATOM     11  C   UNL A   1      32.191  21.307  23.412  1.00  0.00     0.014 A 
ATOM     12  C   UNL A   1      31.741  22.082  25.623  1.00  0.00     0.035 A 
BRANCH  10  13
ATOM     13  S   UNL A   1      30.966  24.532  26.390  1.00  0.00     0.243 S 
ATOM     14  O   UNL A   1      29.576  24.877  26.406  1.00  0.00    -0.207 OA
ATOM     15  O   UNL A   1      31.557  23.892  27.566  1.00  0.00    -0.207 OA
BRANCH  13  16
ATOM     16  N   UNL A   1      31.854  25.914  26.003  1.00  0.00    -0.195 NA
BRANCH  16  17
ATOM     17  C   UNL A   1      32.842  25.906  24.895  1.00  0.00     0.106 C 
BRANCH  17  18
ATOM     18  C   UNL A   1      34.260  25.519  25.192  1.00  0.00     0.004 C 
ATOM     19  C   UNL A   1      34.748  24.287  25.920  1.00  0.00     0.005 C 
ATOM     20  C   UNL A   1      34.828  24.336  24.428  1.00  0.00     0.005 C 
ENDBRANCH  17  18
ENDBRANCH  16  17
BRANCH  16  21
ATOM     21  C   UNL A   1      31.253  27.281  26.250  1.00  0.00     0.067 C 
ATOM     22  C   UNL A   1      31.834  27.967  27.480  1.00  0.00     0.025 C 
ATOM     23  C   UNL A   1      31.320  28.233  25.058  1.00  0.00     0.025 C 
ENDBRANCH  16  21
ENDBRANCH  13  16
ENDBRANCH  10  13
ENDBRANCH   3   6
ENDBRANCH   1   2
BRANCH   1  24
ATOM     24  C   UNL A   1      36.390  21.334  25.714  1.00  0.00     0.023 C 
BRANCH  24  25
ATOM     25  C   UNL A   1      37.838  21.606  25.295  1.00  0.00     0.023 C 
BRANCH  25  26
ATOM     26  C   UNL A   1      38.421  22.864  25.920  1.00  0.00     0.116 C 
BRANCH  26  27
ATOM     27  N   UNL A   1      39.779  22.725  26.428  1.00  0.00    -0.352 N 
ATOM     28  C   UNL A   1      40.645  23.687  26.917  1.00  0.00     0.251 C 
ATOM     29  H   UNL A   1      40.135  21.808  26.421  1.00  0.00     0.163 HD
ATOM     30  O   UNL A   1      41.802  23.378  27.191  1.00  0.00    -0.269 OA
BRANCH  28  31
ATOM     31  C   UNL A   1      40.157  25.054  27.238  1.00  0.00     0.039 A 
ATOM     32  C   UNL A   1      40.526  26.107  26.387  1.00  0.00     0.014 A 
ATOM     33  C   UNL A   1      39.502  25.335  28.432  1.00  0.00     0.014 A 
ATOM     34  C   UNL A   1      40.462  27.423  26.845  1.00  0.00     0.010 A 
ATOM     35  C   UNL A   1      39.547  26.620  28.934  1.00  0.00     0.010 A 
ATOM     36  C   UNL A   1      40.089  27.655  28.165  1.00  0.00    -0.014 A 
BRANCH  36  37
ATOM     37  C   UNL A   1      40.332  28.901  28.881  1.00  0.00     0.031 A 
ATOM     38  C   UNL A   1      39.308  29.968  28.903  1.00  0.00     0.074 A 
ATOM     39  C   UNL A   1      41.406  28.967  29.701  1.00  0.00     0.049 A 
ATOM     40  N   UNL A   1      39.507  31.145  29.396  1.00  0.00    -0.248 NA
ATOM     41  C   UNL A   1      37.979  29.819  28.311  1.00  0.00     0.031 C 
ATOM     42  C   UNL A   1      41.610  29.870  30.834  1.00  0.00     0.029 A 
ATOM     43  N   UNL A   1      42.654  28.338  29.533  1.00  0.00    -0.354 N 
ATOM     44  C   UNL A   1      38.282  31.755  29.501  1.00  0.00     0.074 A 
ATOM     45  C   UNL A   1      37.399  30.968  28.680  1.00  0.00     0.031 C 
ATOM     46  C   UNL A   1      42.925  29.970  31.080  1.00  0.00     0.029 A 
ATOM     47  C   UNL A   1      43.605  29.280  30.000  1.00  0.00     0.049 A 
ATOM     48  H   UNL A   1      42.828  27.439  29.172  1.00  0.00     0.167 HD
ATOM     49  C   UNL A   1      38.130  32.758  30.407  1.00  0.00     0.037 A 
ATOM     50  C   UNL A   1      44.501  29.869  29.153  1.00  0.00     0.037 A 
ATOM     51  C   UNL A   1      39.427  33.265  30.851  1.00  0.00     0.049 A 
ATOM     52  C   UNL A   1      44.433  31.378  29.129  1.00  0.00     0.074 A 
ATOM     53  C   UNL A   1      40.130  33.194  32.039  1.00  0.00     0.029 A 
ATOM     54  N   UNL A   1      40.310  33.769  29.897  1.00  0.00    -0.354 N 
ATOM     55  N   UNL A   1      43.399  32.067  29.525  1.00  0.00    -0.248 NA
ATOM     56  C   UNL A   1      45.507  32.227  28.620  1.00  0.00     0.031 C 
ATOM     57  C   UNL A   1      41.479  33.551  31.763  1.00  0.00     0.029 A 
ATOM     58  C   UNL A   1      41.578  33.894  30.424  1.00  0.00     0.049 A 
ATOM     59  H   UNL A   1      40.062  34.005  28.974  1.00  0.00     0.167 HD
ATOM     60  C   UNL A   1      43.629  33.400  29.314  1.00  0.00     0.074 A 
ATOM     61  C   UNL A   1      44.971  33.451  28.764  1.00  0.00     0.031 C 
ATOM     62  C   UNL A   1      42.685  34.346  29.593  1.00  0.00     0.037 A 
BRANCH  49  63
ATOM     63  C   UNL A   1      36.818  33.158  31.050  1.00  0.00     0.064 A 
ATOM     64  C   UNL A   1      35.874  33.917  30.323  1.00  0.00     0.173 A 
ATOM     65  C   UNL A   1      36.491  32.962  32.411  1.00  0.00     0.173 A 
ATOM     66  F   UNL A   1      36.065  34.196  29.025  1.00  0.00    -0.203 F 
ATOM     67  C   UNL A   1      34.714  34.437  30.910  1.00  0.00     0.198 A 
ATOM     68  C   UNL A   1      35.304  33.433  32.981  1.00  0.00     0.198 A 
ATOM     69  F   UNL A   1      37.328  32.372  33.269  1.00  0.00    -0.203 F 
ATOM     70  F   UNL A   1      33.887  35.205  30.187  1.00  0.00    -0.200 F 
ATOM     71  C   UNL A   1      34.422  34.183  32.235  1.00  0.00     0.200 A 
ATOM     72  F   UNL A   1      35.044  33.179  34.272  1.00  0.00    -0.200 F 
ATOM     73  F   UNL A   1      33.312  34.677  32.798  1.00  0.00    -0.200 F 
ENDBRANCH  49  63
BRANCH  50  74
ATOM     74  C   UNL A   1      44.847  29.018  27.985  1.00  0.00     0.064 A 
ATOM     75  C   UNL A   1      45.775  27.974  28.171  1.00  0.00     0.173 A 
ATOM     76  C   UNL A   1      44.016  28.955  26.861  1.00  0.00     0.173 A 
ATOM     77  F   UNL A   1      46.596  27.992  29.233  1.00  0.00    -0.203 F 
ATOM     78  C   UNL A   1      45.781  26.856  27.342  1.00  0.00     0.198 A 
ATOM     79  C   UNL A   1      44.038  27.839  26.022  1.00  0.00     0.198 A 
ATOM     80  F   UNL A   1      43.102  29.910  26.638  1.00  0.00    -0.203 F 
ATOM     81  F   UNL A   1      46.596  25.826  27.612  1.00  0.00    -0.200 F 
ATOM     82  C   UNL A   1      44.890  26.776  26.284  1.00  0.00     0.200 A 
ATOM     83  F   UNL A   1      43.157  27.747  25.015  1.00  0.00    -0.200 F 
ATOM     84  F   UNL A   1      44.821  25.660  25.547  1.00  0.00    -0.200 F 
ENDBRANCH  50  74
BRANCH  62  85
ATOM     85  C   UNL A   1      42.746  35.794  29.173  1.00  0.00     0.064 A 
ATOM     86  C   UNL A   1      42.045  36.322  28.075  1.00  0.00     0.173 A 
ATOM     87  C   UNL A   1      43.419  36.744  29.978  1.00  0.00     0.173 A 
ATOM     88  F   UNL A   1      41.264  35.548  27.309  1.00  0.00    -0.203 F 
ATOM     89  C   UNL A   1      42.075  37.685  27.764  1.00  0.00     0.198 A 
ATOM     90  C   UNL A   1      43.401  38.109  29.696  1.00  0.00     0.198 A 
ATOM     91  F   UNL A   1      44.094  36.375  31.077  1.00  0.00    -0.203 F 
ATOM     92  F   UNL A   1      41.425  38.132  26.679  1.00  0.00    -0.200 F 
ATOM     93  C   UNL A   1      42.744  38.579  28.577  1.00  0.00     0.200 A 
ATOM     94  F   UNL A   1      44.009  38.969  30.526  1.00  0.00    -0.200 F 
ATOM     95  F   UNL A   1      42.735  39.888  28.298  1.00  0.00    -0.200 F 
ENDBRANCH  62  85
ENDBRANCH  36  37
ENDBRANCH  28  31
ENDBRANCH  26  27
ENDBRANCH  25  26
ENDBRANCH  24  25
ENDBRANCH   1  24
TORSDOF 16
ENDMDL
MODEL 2
REMARK VINA RESULT:     -13.2      3.995     10.043
REMARK SMILES Cc1ccc(C(=O)NCCCCNC(=O)c2ccc(-c3c4nc(c(-c5c(F)c(F)c(F)c(F)c5F)c5ccc([nH]5)c(-c5c(F)c(F)c(F)c(F)c5F)c5nc(c(-c6c(F)c(F)c(F)c(F)c6F)c6ccc3[nH]6)C=C5)C=C4)cc2)cc1S(=O)(=O)N(CC1CC1)C(C)C
REMARK SMILES IDX 9 1 8 2 6 3 7 4 5 6 1 7 2 8 3 9 80 10 4 11 79 12 81 13 82 14
REMARK SMILES IDX 83 15 84 16 85 17 86 18 87 19 88 20 89 21 90 22 91 23 10 24
REMARK SMILES IDX 11 25 12 26 13 27 14 28 15 30 16 31 17 32 78 33 18 34 77 35
REMARK SMILES IDX 19 36 20 37 21 38 71 39 22 40 76 41 70 42 72 43 23 44 75 45
REMARK SMILES IDX 69 46 68 47 24 49 56 50 36 51 55 52 37 53 40 54 54 55 73 56
REMARK SMILES IDX 38 57 39 58 53 60 74 61 41 62 25 63 26 64 34 65 27 66 28 67
REMARK SMILES IDX 32 68 35 69 29 70 30 71 33 72 31 73 57 74 58 75 66 76 59 77
REMARK SMILES IDX 60 78 64 79 67 80 61 81 62 82 65 83 63 84 42 85 43 86 51 87
REMARK SMILES IDX 44 88 45 89 49 90 52 91 46 92 47 93 50 94 48 95
REMARK H PARENT 8 5 13 29 72 48 40 59
REMARK Flexibility Score: inf
ROOT
ATOM      1  C   UNL A   1      32.322  29.606  24.657  1.00  0.00     0.116 C 
ENDROOT
BRANCH   1   2
ATOM      2  N   UNL A   1      31.405  29.691  23.530  1.00  0.00    -0.352 N 
ATOM      3  C   UNL A   1      30.690  28.757  22.821  1.00  0.00     0.251 C 
ATOM      4  O   UNL A   1      29.946  29.176  21.932  1.00  0.00    -0.269 OA
ATOM      5  H   UNL A   1      31.270  30.611  23.206  1.00  0.00     0.163 HD
BRANCH   3   6
ATOM      6  C   UNL A   1      30.710  27.292  23.108  1.00  0.00     0.041 A 
ATOM      7  C   UNL A   1      30.927  23.244  24.657  1.00  0.00     0.046 C 
ATOM      8  C   UNL A   1      30.863  24.595  24.010  1.00  0.00    -0.031 A 
ATOM      9  C   UNL A   1      29.845  25.462  24.454  1.00  0.00     0.005 A 
ATOM     10  C   UNL A   1      31.733  25.068  23.017  1.00  0.00     0.086 A 
ATOM     11  C   UNL A   1      29.787  26.796  24.032  1.00  0.00     0.014 A 
ATOM     12  C   UNL A   1      31.611  26.393  22.548  1.00  0.00     0.035 A 
BRANCH  10  13
ATOM     13  S   UNL A   1      33.260  24.279  22.491  1.00  0.00     0.243 S 
ATOM     14  O   UNL A   1      32.906  23.144  21.694  1.00  0.00    -0.207 OA
ATOM     15  O   UNL A   1      33.986  25.389  21.873  1.00  0.00    -0.207 OA
BRANCH  13  16
ATOM     16  N   UNL A   1      34.118  23.736  23.840  1.00  0.00    -0.195 NA
BRANCH  16  17
ATOM     17  C   UNL A   1      34.623  22.342  23.917  1.00  0.00     0.106 C 
BRANCH  17  18
ATOM     18  C   UNL A   1      33.721  21.273  24.457  1.00  0.00     0.004 C 
ATOM     19  C   UNL A   1      34.085  19.848  24.809  1.00  0.00     0.005 C 
ATOM     20  C   UNL A   1      33.932  20.855  25.902  1.00  0.00     0.005 C 
ENDBRANCH  17  18
ENDBRANCH  16  17
BRANCH  16  21
ATOM     21  C   UNL A   1      34.953  24.713  24.637  1.00  0.00     0.067 C 
ATOM     22  C   UNL A   1      34.108  25.737  25.388  1.00  0.00     0.025 C 
ATOM     23  C   UNL A   1      35.945  24.067  25.603  1.00  0.00     0.025 C 
ENDBRANCH  16  21
ENDBRANCH  13  16
ENDBRANCH  10  13
ENDBRANCH   3   6
ENDBRANCH   1   2
BRANCH   1  24
ATOM     24  C   UNL A   1      31.690  30.145  25.953  1.00  0.00     0.023 C 
BRANCH  24  25
ATOM     25  C   UNL A   1      32.559  29.973  27.204  1.00  0.00     0.023 C 
BRANCH  25  26
ATOM     26  C   UNL A   1      34.051  30.041  26.915  1.00  0.00     0.116 C 
BRANCH  26  27
ATOM     27  N   UNL A   1      34.740  31.179  27.509  1.00  0.00    -0.352 N 
ATOM     28  C   UNL A   1      35.901  31.219  28.259  1.00  0.00     0.251 C 
ATOM     29  H   UNL A   1      34.313  32.052  27.354  1.00  0.00     0.163 HD
ATOM     30  O   UNL A   1      36.257  32.278  28.770  1.00  0.00    -0.269 OA
BRANCH  28  31
ATOM     31  C   UNL A   1      36.790  30.031  28.344  1.00  0.00     0.039 A 
ATOM     32  C   UNL A   1      36.865  29.345  29.566  1.00  0.00     0.014 A 
ATOM     33  C   UNL A   1      37.662  29.694  27.314  1.00  0.00     0.014 A 
ATOM     34  C   UNL A   1      37.956  28.515  29.829  1.00  0.00     0.010 A 
ATOM     35  C   UNL A   1      38.800  28.972  27.609  1.00  0.00     0.010 A 
ATOM     36  C   UNL A   1      38.979  28.436  28.889  1.00  0.00    -0.014 A 
BRANCH  36  37
ATOM     37  C   UNL A   1      40.316  27.930  29.171  1.00  0.00     0.031 A 
ATOM     38  C   UNL A   1      40.704  26.562  28.765  1.00  0.00     0.074 A 
ATOM     39  C   UNL A   1      41.253  28.806  29.604  1.00  0.00     0.049 A 
ATOM     40  N   UNL A   1      41.816  26.000  29.101  1.00  0.00    -0.248 NA
ATOM     41  C   UNL A   1      39.835  25.678  27.988  1.00  0.00     0.031 C 
ATOM     42  C   UNL A   1      42.707  28.675  29.514  1.00  0.00     0.029 A 
ATOM     43  N   UNL A   1      41.059  29.935  30.421  1.00  0.00    -0.354 N 
ATOM     44  C   UNL A   1      41.955  24.875  28.328  1.00  0.00     0.074 A 
ATOM     45  C   UNL A   1      40.648  24.635  27.776  1.00  0.00     0.031 C 
ATOM     46  C   UNL A   1      43.273  29.462  30.440  1.00  0.00     0.029 A 
ATOM     47  C   UNL A   1      42.197  29.976  31.266  1.00  0.00     0.049 A 
ATOM     48  H   UNL A   1      40.299  30.561  30.407  1.00  0.00     0.167 HD
ATOM     49  C   UNL A   1      43.205  24.381  28.116  1.00  0.00     0.037 A 
ATOM     50  C   UNL A   1      42.094  29.772  32.613  1.00  0.00     0.037 A 
ATOM     51  C   UNL A   1      44.157  24.933  29.078  1.00  0.00     0.049 A 
ATOM     52  C   UNL A   1      42.932  28.627  33.133  1.00  0.00     0.074 A 
ATOM     53  C   UNL A   1      45.212  25.822  28.984  1.00  0.00     0.029 A 
ATOM     54  N   UNL A   1      43.919  24.744  30.438  1.00  0.00    -0.354 N 
ATOM     55  N   UNL A   1      43.389  27.661  32.385  1.00  0.00    -0.248 NA
ATOM     56  C   UNL A   1      43.285  28.459  34.539  1.00  0.00     0.031 C 
ATOM     57  C   UNL A   1      45.528  26.256  30.300  1.00  0.00     0.029 A 
ATOM     58  C   UNL A   1      44.708  25.587  31.193  1.00  0.00     0.049 A 
ATOM     59  H   UNL A   1      43.275  24.097  30.809  1.00  0.00     0.167 HD
ATOM     60  C   UNL A   1      44.051  26.753  33.166  1.00  0.00     0.074 A 
ATOM     61  C   UNL A   1      43.977  27.306  34.505  1.00  0.00     0.031 C 
ATOM     62  C   UNL A   1      44.588  25.611  32.645  1.00  0.00     0.037 A 
BRANCH  49  63
ATOM     63  C   UNL A   1      43.621  23.551  26.920  1.00  0.00     0.064 A 
ATOM     64  C   UNL A   1      43.247  22.190  26.836  1.00  0.00     0.173 A 
ATOM     65  C   UNL A   1      44.505  23.980  25.904  1.00  0.00     0.173 A 
ATOM     66  F   UNL A   1      42.426  21.643  27.745  1.00  0.00    -0.203 F 
ATOM     67  C   UNL A   1      43.724  21.340  25.831  1.00  0.00     0.198 A 
ATOM     68  C   UNL A   1      44.934  23.143  24.869  1.00  0.00     0.198 A 
ATOM     69  F   UNL A   1      45.053  25.199  25.902  1.00  0.00    -0.203 F 
ATOM     70  F   UNL A   1      43.386  20.043  25.840  1.00  0.00    -0.200 F 
ATOM     71  C   UNL A   1      44.556  21.820  24.839  1.00  0.00     0.200 A 
ATOM     72  F   UNL A   1      45.747  23.630  23.919  1.00  0.00    -0.200 F 
ATOM     73  F   UNL A   1      45.010  21.009  23.875  1.00  0.00    -0.200 F 
ENDBRANCH  49  63
BRANCH  50  74
ATOM     74  C   UNL A   1      40.775  30.176  33.165  1.00  0.00     0.064 A 
ATOM     75  C   UNL A   1      40.507  31.550  33.318  1.00  0.00     0.173 A 
ATOM     76  C   UNL A   1      39.684  29.300  33.154  1.00  0.00     0.173 A 
ATOM     77  F   UNL A   1      41.521  32.430  33.338  1.00  0.00    -0.203 F 
ATOM     78  C   UNL A   1      39.203  32.036  33.327  1.00  0.00     0.198 A 
ATOM     79  C   UNL A   1      38.377  29.791  33.182  1.00  0.00     0.198 A 
ATOM     80  F   UNL A   1      39.873  27.982  32.996  1.00  0.00    -0.203 F 
ATOM     81  F   UNL A   1      38.981  33.358  33.356  1.00  0.00    -0.200 F 
ATOM     82  C   UNL A   1      38.138  31.157  33.229  1.00  0.00     0.200 A 
ATOM     83  F   UNL A   1      37.345  28.943  33.057  1.00  0.00    -0.200 F 
ATOM     84  F   UNL A   1      36.886  31.624  33.134  1.00  0.00    -0.200 F 
ENDBRANCH  50  74
BRANCH  62  85
ATOM     85  C   UNL A   1      45.113  24.445  33.446  1.00  0.00     0.064 A 
ATOM     86  C   UNL A   1      44.382  23.269  33.691  1.00  0.00     0.173 A 
ATOM     87  C   UNL A   1      46.461  24.423  33.877  1.00  0.00     0.173 A 
ATOM     88  F   UNL A   1      43.137  23.113  33.221  1.00  0.00    -0.203 F 
ATOM     89  C   UNL A   1      44.934  22.184  34.378  1.00  0.00     0.198 A 
ATOM     90  C   UNL A   1      47.025  23.318  34.513  1.00  0.00     0.198 A 
ATOM     91  F   UNL A   1      47.277  25.467  33.669  1.00  0.00    -0.203 F 
ATOM     92  F   UNL A   1      44.180  21.103  34.626  1.00  0.00    -0.200 F 
ATOM     93  C   UNL A   1      46.256  22.204  34.781  1.00  0.00     0.200 A 
ATOM     94  F   UNL A   1      48.323  23.332  34.849  1.00  0.00    -0.200 F 
ATOM     95  F   UNL A   1      46.791  21.146  35.403  1.00  0.00    -0.200 F 
ENDBRANCH  62  85
ENDBRANCH  36  37
ENDBRANCH  28  31
ENDBRANCH  26  27
ENDBRANCH  25  26
ENDBRANCH  24  25
ENDBRANCH   1  24
TORSDOF 16
ENDMDL
MODEL 3
REMARK VINA RESULT:     -12.7      0.900      1.945
REMARK SMILES Cc1ccc(C(=O)NCCCCNC(=O)c2ccc(-c3c4nc(c(-c5c(F)c(F)c(F)c(F)c5F)c5ccc([nH]5)c(-c5c(F)c(F)c(F)c(F)c5F)c5nc(c(-c6c(F)c(F)c(F)c(F)c6F)c6ccc3[nH]6)C=C5)C=C4)cc2)cc1S(=O)(=O)N(CC1CC1)C(C)C
REMARK SMILES IDX 9 1 8 2 6 3 7 4 5 6 1 7 2 8 3 9 80 10 4 11 79 12 81 13 82 14
REMARK SMILES IDX 83 15 84 16 85 17 86 18 87 19 88 20 89 21 90 22 91 23 10 24
REMARK SMILES IDX 11 25 12 26 13 27 14 28 15 30 16 31 17 32 78 33 18 34 77 35
REMARK SMILES IDX 19 36 20 37 21 38 71 39 22 40 76 41 70 42 72 43 23 44 75 45
REMARK SMILES IDX 69 46 68 47 24 49 56 50 36 51 55 52 37 53 40 54 54 55 73 56
REMARK SMILES IDX 38 57 39 58 53 60 74 61 41 62 25 63 26 64 34 65 27 66 28 67
REMARK SMILES IDX 32 68 35 69 29 70 30 71 33 72 31 73 57 74 58 75 66 76 59 77
REMARK SMILES IDX 60 78 64 79 67 80 61 81 62 82 65 83 63 84 42 85 43 86 51 87
REMARK SMILES IDX 44 88 45 89 49 90 52 91 46 92 47 93 50 94 48 95
REMARK H PARENT 8 5 13 29 72 48 40 59
REMARK Flexibility Score: inf
ROOT
ATOM      1  C   UNL A   1      34.616  22.037  26.798  1.00  0.00     0.116 C 
ENDROOT
BRANCH   1   2
ATOM      2  N   UNL A   1      33.695  20.999  26.359  1.00  0.00    -0.352 N 
ATOM      3  C   UNL A   1      32.678  20.967  25.436  1.00  0.00     0.251 C 
ATOM      4  O   UNL A   1      32.110  19.886  25.265  1.00  0.00    -0.269 OA
ATOM      5  H   UNL A   1      33.827  20.140  26.822  1.00  0.00     0.163 HD
BRANCH   3   6
ATOM      6  C   UNL A   1      32.274  22.131  24.594  1.00  0.00     0.041 A 
ATOM      7  C   UNL A   1      31.844  25.651  22.092  1.00  0.00     0.046 C 
ATOM      8  C   UNL A   1      31.875  24.447  22.985  1.00  0.00    -0.031 A 
ATOM      9  C   UNL A   1      32.497  23.293  22.470  1.00  0.00     0.005 A 
ATOM     10  C   UNL A   1      31.349  24.379  24.284  1.00  0.00     0.086 A 
ATOM     11  C   UNL A   1      32.719  22.165  23.270  1.00  0.00     0.014 A 
ATOM     12  C   UNL A   1      31.516  23.205  25.048  1.00  0.00     0.035 A 
BRANCH  10  13
ATOM     13  S   UNL A   1      30.769  25.772  25.259  1.00  0.00     0.243 S 
ATOM     14  O   UNL A   1      29.415  26.034  24.873  1.00  0.00    -0.207 OA
ATOM     15  O   UNL A   1      31.049  25.332  26.627  1.00  0.00    -0.207 OA
BRANCH  13  16
ATOM     16  N   UNL A   1      31.696  27.140  24.913  1.00  0.00    -0.195 NA
BRANCH  16  17
ATOM     17  C   UNL A   1      31.082  28.490  24.863  1.00  0.00     0.106 C 
BRANCH  17  18
ATOM     18  C   UNL A   1      30.744  29.083  23.528  1.00  0.00     0.004 C 
ATOM     19  C   UNL A   1      29.628  28.676  22.591  1.00  0.00     0.005 C 
ATOM     20  C   UNL A   1      29.465  29.897  23.436  1.00  0.00     0.005 C 
ENDBRANCH  17  18
ENDBRANCH  16  17
BRANCH  16  21
ATOM     21  C   UNL A   1      33.158  27.168  25.303  1.00  0.00     0.067 C 
ATOM     22  C   UNL A   1      34.035  27.840  24.253  1.00  0.00     0.025 C 
ATOM     23  C   UNL A   1      33.442  27.785  26.671  1.00  0.00     0.025 C 
ENDBRANCH  16  21
ENDBRANCH  13  16
ENDBRANCH  10  13
ENDBRANCH   3   6
ENDBRANCH   1   2
BRANCH   1  24
ATOM     24  C   UNL A   1      35.867  22.111  25.902  1.00  0.00     0.023 C 
BRANCH  24  25
ATOM     25  C   UNL A   1      36.813  23.272  26.226  1.00  0.00     0.023 C 
BRANCH  25  26
ATOM     26  C   UNL A   1      38.154  23.172  25.515  1.00  0.00     0.116 C 
BRANCH  26  27
ATOM     27  N   UNL A   1      39.282  22.840  26.376  1.00  0.00    -0.352 N 
ATOM     28  C   UNL A   1      40.098  23.668  27.126  1.00  0.00     0.251 C 
ATOM     29  H   UNL A   1      39.496  21.881  26.432  1.00  0.00     0.163 HD
ATOM     30  O   UNL A   1      41.076  23.197  27.699  1.00  0.00    -0.269 OA
BRANCH  28  31
ATOM     31  C   UNL A   1      39.732  25.091  27.353  1.00  0.00     0.039 A 
ATOM     32  C   UNL A   1      40.286  26.061  26.505  1.00  0.00     0.014 A 
ATOM     33  C   UNL A   1      39.005  25.490  28.469  1.00  0.00     0.014 A 
ATOM     34  C   UNL A   1      40.322  27.396  26.909  1.00  0.00     0.010 A 
ATOM     35  C   UNL A   1      39.141  26.784  28.929  1.00  0.00     0.010 A 
ATOM     36  C   UNL A   1      39.857  27.723  28.179  1.00  0.00    -0.014 A 
BRANCH  36  37
ATOM     37  C   UNL A   1      40.167  28.968  28.872  1.00  0.00     0.031 A 
ATOM     38  C   UNL A   1      39.183  30.071  28.912  1.00  0.00     0.074 A 
ATOM     39  C   UNL A   1      41.267  29.005  29.658  1.00  0.00     0.049 A 
ATOM     40  N   UNL A   1      39.438  31.245  29.384  1.00  0.00    -0.248 NA
ATOM     41  C   UNL A   1      37.831  29.963  28.361  1.00  0.00     0.031 C 
ATOM     42  C   UNL A   1      41.538  29.912  30.773  1.00  0.00     0.029 A 
ATOM     43  N   UNL A   1      42.486  28.329  29.461  1.00  0.00    -0.354 N 
ATOM     44  C   UNL A   1      38.239  31.900  29.517  1.00  0.00     0.074 A 
ATOM     45  C   UNL A   1      37.304  31.136  28.733  1.00  0.00     0.031 C 
ATOM     46  C   UNL A   1      42.862  29.968  30.978  1.00  0.00     0.029 A 
ATOM     47  C   UNL A   1      43.484  29.241  29.887  1.00  0.00     0.049 A 
ATOM     48  H   UNL A   1      42.617  27.420  29.106  1.00  0.00     0.167 HD
ATOM     49  C   UNL A   1      38.151  32.919  30.415  1.00  0.00     0.037 A 
ATOM     50  C   UNL A   1      44.374  29.789  29.007  1.00  0.00     0.037 A 
ATOM     51  C   UNL A   1      39.478  33.384  30.813  1.00  0.00     0.049 A 
ATOM     52  C   UNL A   1      44.359  31.299  28.965  1.00  0.00     0.074 A 
ATOM     53  C   UNL A   1      40.214  33.301  31.980  1.00  0.00     0.029 A 
ATOM     54  N   UNL A   1      40.349  33.845  29.827  1.00  0.00    -0.354 N 
ATOM     55  N   UNL A   1      43.362  32.028  29.383  1.00  0.00    -0.248 NA
ATOM     56  C   UNL A   1      45.447  32.102  28.414  1.00  0.00     0.031 C 
ATOM     57  C   UNL A   1      41.566  33.606  31.659  1.00  0.00     0.029 A 
ATOM     58  C   UNL A   1      41.636  33.930  30.314  1.00  0.00     0.049 A 
ATOM     59  H   UNL A   1      40.081  34.078  28.909  1.00  0.00     0.167 HD
ATOM     60  C   UNL A   1      43.633  33.350  29.149  1.00  0.00     0.074 A 
ATOM     61  C   UNL A   1      44.959  33.347  28.559  1.00  0.00     0.031 C 
ATOM     62  C   UNL A   1      42.733  34.333  29.444  1.00  0.00     0.037 A 
BRANCH  49  63
ATOM     63  C   UNL A   1      36.875  33.373  31.092  1.00  0.00     0.064 A 
ATOM     64  C   UNL A   1      36.632  33.040  32.444  1.00  0.00     0.173 A 
ATOM     65  C   UNL A   1      35.790  34.001  30.439  1.00  0.00     0.173 A 
ATOM     66  F   UNL A   1      37.567  32.424  33.181  1.00  0.00    -0.203 F 
ATOM     67  C   UNL A   1      35.411  33.306  33.076  1.00  0.00     0.198 A 
ATOM     68  C   UNL A   1      34.593  34.317  31.089  1.00  0.00     0.198 A 
ATOM     69  F   UNL A   1      35.805  34.273  29.130  1.00  0.00    -0.203 F 
ATOM     70  F   UNL A   1      35.216  32.909  34.341  1.00  0.00    -0.200 F 
ATOM     71  C   UNL A   1      34.397  33.957  32.403  1.00  0.00     0.200 A 
ATOM     72  F   UNL A   1      33.619  34.945  30.413  1.00  0.00    -0.200 F 
ATOM     73  F   UNL A   1      33.230  34.215  33.007  1.00  0.00    -0.200 F 
ENDBRANCH  49  63
BRANCH  50  74
ATOM     74  C   UNL A   1      44.654  28.912  27.839  1.00  0.00     0.064 A 
ATOM     75  C   UNL A   1      45.497  27.799  28.027  1.00  0.00     0.173 A 
ATOM     76  C   UNL A   1      43.822  28.914  26.714  1.00  0.00     0.173 A 
ATOM     77  F   UNL A   1      46.314  27.752  29.090  1.00  0.00    -0.203 F 
ATOM     78  C   UNL A   1      45.415  26.683  27.198  1.00  0.00     0.198 A 
ATOM     79  C   UNL A   1      43.757  27.799  25.875  1.00  0.00     0.198 A 
ATOM     80  F   UNL A   1      42.986  29.937  26.489  1.00  0.00    -0.203 F 
ATOM     81  F   UNL A   1      46.146  25.592  27.470  1.00  0.00    -0.200 F 
ATOM     82  C   UNL A   1      44.523  26.672  26.140  1.00  0.00     0.200 A 
ATOM     83  F   UNL A   1      42.873  27.776  24.867  1.00  0.00    -0.200 F 
ATOM     84  F   UNL A   1      44.367  25.565  25.402  1.00  0.00    -0.200 F 
ENDBRANCH  50  74
BRANCH  62  85
ATOM     85  C   UNL A   1      42.832  35.773  29.004  1.00  0.00     0.064 A 
ATOM     86  C   UNL A   1      42.133  36.308  27.909  1.00  0.00     0.173 A 
ATOM     87  C   UNL A   1      43.545  36.711  29.788  1.00  0.00     0.173 A 
ATOM     88  F   UNL A   1      41.319  35.548  27.163  1.00  0.00    -0.203 F 
ATOM     89  C   UNL A   1      42.200  37.665  27.579  1.00  0.00     0.198 A 
ATOM     90  C   UNL A   1      43.565  38.073  29.489  1.00  0.00     0.198 A 
ATOM     91  F   UNL A   1      44.223  36.335  30.883  1.00  0.00    -0.203 F 
ATOM     92  F   UNL A   1      41.550  38.118  26.497  1.00  0.00    -0.200 F 
ATOM     93  C   UNL A   1      42.907  38.548  28.372  1.00  0.00     0.200 A 
ATOM     94  F   UNL A   1      44.211  38.924  30.299  1.00  0.00    -0.200 F 
ATOM     95  F   UNL A   1      42.935  39.854  28.076  1.00  0.00    -0.200 F 
ENDBRANCH  62  85
ENDBRANCH  36  37
ENDBRANCH  28  31
ENDBRANCH  26  27
ENDBRANCH  25  26
ENDBRANCH  24  25
ENDBRANCH   1  24
TORSDOF 16
ENDMDL
