MODEL 1
REMARK VINA RESULT:     -14.5      0.000      0.000
REMARK SMILES O=C(NCCCCNC(=O)[C@H]1CCCCN1c1cc(-c2ccccc2)nc(-c2cccc(Cl)c2)n1)c1ccc(-c2c3nc(c(-c4c(F)c(F)c(F)c(F)c4F)c4ccc([nH]4)c(-c4c(F)c(F)c(F)c(F)c4F)c4nc(c(-c5c(F)c(F)c(F)c(F)c5F)c5ccc2[nH]5)C=C4)C=C3)cc1
REMARK SMILES IDX 5 1 4 2 3 3 1 4 2 5 36 7 37 8 98 9 38 10 97 11 39 12 40 13
REMARK SMILES IDX 41 14 91 15 42 16 96 17 90 18 92 19 43 20 95 21 89 22 88 23
REMARK SMILES IDX 44 25 76 26 56 27 75 28 57 29 60 30 74 31 93 32 58 33 59 34
REMARK SMILES IDX 73 36 94 37 61 38 45 39 46 40 54 41 47 42 48 43 52 44 55 45
REMARK SMILES IDX 49 46 50 47 53 48 51 49 77 50 78 51 86 52 79 53 80 54 84 55
REMARK SMILES IDX 87 56 81 57 82 58 85 59 83 60 62 61 63 62 71 63 64 64 65 65
REMARK SMILES IDX 69 66 72 67 66 68 67 69 70 70 68 71 6 72 7 73 8 74 9 75
REMARK SMILES IDX 10 77 11 78 12 79 16 80 13 81 15 82 14 83 17 84 18 85 35 86
REMARK SMILES IDX 19 87 27 88 26 89 20 90 21 91 25 92 22 93 24 94 23 95 28 96
REMARK SMILES IDX 29 97 34 98 30 99 32 100 31 101 33 102
REMARK H PARENT 3 6 92 24 60 35 8 76
REMARK Flexibility Score: inf
ROOT
ATOM      1  C   UNL A   1      31.905  29.198  25.436  1.00  0.00     0.023 C 
ENDROOT
BRANCH   1   2
ATOM      2  C   UNL A   1      32.600  29.759  26.672  1.00  0.00     0.116 C 
BRANCH   2   3
ATOM      3  N   UNL A   1      32.477  31.203  26.794  1.00  0.00    -0.352 N 
ATOM      4  O   UNL A   1      32.998  33.279  27.513  1.00  0.00    -0.269 OA
ATOM      5  C   UNL A   1      33.320  32.098  27.412  1.00  0.00     0.251 C 
ATOM      6  H   UNL A   1      31.678  31.596  26.376  1.00  0.00     0.163 HD
BRANCH   5   7
ATOM      7  C   UNL A   1      34.598  31.631  27.991  1.00  0.00     0.039 A 
ATOM      8  C   UNL A   1      34.755  30.309  28.413  1.00  0.00     0.014 A 
ATOM      9  C   UNL A   1      35.650  32.540  28.128  1.00  0.00     0.014 A 
ATOM     10  C   UNL A   1      35.902  29.940  29.110  1.00  0.00     0.010 A 
ATOM     11  C   UNL A   1      36.833  32.146  28.759  1.00  0.00     0.010 A 
ATOM     12  C   UNL A   1      36.950  30.856  29.298  1.00  0.00    -0.014 A 
BRANCH  12  13
ATOM     13  C   UNL A   1      38.159  30.435  30.053  1.00  0.00     0.031 A 
ATOM     14  C   UNL A   1      38.334  30.802  31.501  1.00  0.00     0.074 A 
ATOM     15  C   UNL A   1      39.087  29.680  29.434  1.00  0.00     0.049 A 
ATOM     16  N   UNL A   1      39.299  30.478  32.325  1.00  0.00    -0.248 NA
ATOM     17  C   UNL A   1      37.294  31.651  32.103  1.00  0.00     0.031 C 
ATOM     18  C   UNL A   1      39.037  29.269  28.030  1.00  0.00     0.029 A 
ATOM     19  N   UNL A   1      40.237  29.104  29.908  1.00  0.00    -0.354 N 
ATOM     20  C   UNL A   1      38.999  31.101  33.530  1.00  0.00     0.074 A 
ATOM     21  C   UNL A   1      37.772  31.843  33.324  1.00  0.00     0.031 C 
ATOM     22  C   UNL A   1      40.078  28.466  27.771  1.00  0.00     0.029 A 
ATOM     23  C   UNL A   1      40.896  28.345  28.973  1.00  0.00     0.049 A 
ATOM     24  H   UNL A   1      40.561  29.224  30.830  1.00  0.00     0.167 HD
ATOM     25  C   UNL A   1      39.679  31.052  34.701  1.00  0.00     0.037 A 
ATOM     26  C   UNL A   1      42.032  27.631  29.072  1.00  0.00     0.037 A 
ATOM     27  C   UNL A   1      40.883  30.289  34.912  1.00  0.00     0.049 A 
ATOM     28  C   UNL A   1      42.763  27.592  30.383  1.00  0.00     0.074 A 
ATOM     29  C   UNL A   1      41.617  30.137  36.075  1.00  0.00     0.029 A 
ATOM     30  N   UNL A   1      41.529  29.547  33.934  1.00  0.00    -0.354 N 
ATOM     31  N   UNL A   1      42.445  28.150  31.525  1.00  0.00    -0.248 NA
ATOM     32  C   UNL A   1      44.012  26.820  30.418  1.00  0.00     0.031 C 
ATOM     33  C   UNL A   1      42.731  29.338  35.792  1.00  0.00     0.029 A 
ATOM     34  C   UNL A   1      42.665  28.953  34.463  1.00  0.00     0.049 A 
ATOM     35  H   UNL A   1      41.227  29.457  33.001  1.00  0.00     0.167 HD
ATOM     36  C   UNL A   1      43.437  27.777  32.421  1.00  0.00     0.074 A 
ATOM     37  C   UNL A   1      44.361  26.933  31.692  1.00  0.00     0.031 C 
ATOM     38  C   UNL A   1      43.569  28.106  33.729  1.00  0.00     0.037 A 
BRANCH  25  39
ATOM     39  C   UNL A   1      39.149  31.863  35.849  1.00  0.00     0.064 A 
ATOM     40  C   UNL A   1      38.242  31.329  36.776  1.00  0.00     0.173 A 
ATOM     41  C   UNL A   1      39.589  33.181  36.048  1.00  0.00     0.173 A 
ATOM     42  F   UNL A   1      37.781  30.078  36.626  1.00  0.00    -0.203 F 
ATOM     43  C   UNL A   1      37.774  32.092  37.843  1.00  0.00     0.198 A 
ATOM     44  C   UNL A   1      39.141  33.932  37.130  1.00  0.00     0.198 A 
ATOM     45  F   UNL A   1      40.462  33.738  35.194  1.00  0.00    -0.203 F 
ATOM     46  F   UNL A   1      36.874  31.576  38.691  1.00  0.00    -0.200 F 
ATOM     47  C   UNL A   1      38.229  33.391  38.023  1.00  0.00     0.200 A 
ATOM     48  F   UNL A   1      39.590  35.182  37.309  1.00  0.00    -0.200 F 
ATOM     49  F   UNL A   1      37.783  34.122  39.054  1.00  0.00    -0.200 F 
ENDBRANCH  25  39
BRANCH  26  50
ATOM     50  C   UNL A   1      42.529  26.872  27.896  1.00  0.00     0.064 A 
ATOM     51  C   UNL A   1      43.237  27.516  26.874  1.00  0.00     0.173 A 
ATOM     52  C   UNL A   1      42.321  25.490  27.779  1.00  0.00     0.173 A 
ATOM     53  F   UNL A   1      43.444  28.840  26.933  1.00  0.00    -0.203 F 
ATOM     54  C   UNL A   1      43.709  26.807  25.771  1.00  0.00     0.198 A 
ATOM     55  C   UNL A   1      42.816  24.778  26.690  1.00  0.00     0.198 A 
ATOM     56  F   UNL A   1      41.653  24.828  28.736  1.00  0.00    -0.203 F 
ATOM     57  F   UNL A   1      44.352  27.453  24.788  1.00  0.00    -0.200 F 
ATOM     58  C   UNL A   1      43.505  25.439  25.684  1.00  0.00     0.200 A 
ATOM     59  F   UNL A   1      42.631  23.454  26.617  1.00  0.00    -0.200 F 
ATOM     60  F   UNL A   1      43.966  24.757  24.626  1.00  0.00    -0.200 F 
ENDBRANCH  26  50
BRANCH  38  61
ATOM     61  C   UNL A   1      44.733  27.514  34.466  1.00  0.00     0.064 A 
ATOM     62  C   UNL A   1      45.960  28.186  34.569  1.00  0.00     0.173 A 
ATOM     63  C   UNL A   1      44.612  26.265  35.093  1.00  0.00     0.173 A 
ATOM     64  F   UNL A   1      46.130  29.375  33.972  1.00  0.00    -0.203 F 
ATOM     65  C   UNL A   1      47.032  27.615  35.249  1.00  0.00     0.198 A 
ATOM     66  C   UNL A   1      45.678  25.710  35.796  1.00  0.00     0.198 A 
ATOM     67  F   UNL A   1      43.458  25.584  35.028  1.00  0.00    -0.203 F 
ATOM     68  F   UNL A   1      48.211  28.252  35.292  1.00  0.00    -0.200 F 
ATOM     69  C   UNL A   1      46.889  26.381  35.867  1.00  0.00     0.200 A 
ATOM     70  F   UNL A   1      45.535  24.522  36.400  1.00  0.00    -0.200 F 
ATOM     71  F   UNL A   1      47.923  25.834  36.520  1.00  0.00    -0.200 F 
ENDBRANCH  38  61
ENDBRANCH  12  13
ENDBRANCH   5   7
ENDBRANCH   2   3
ENDBRANCH   1   2
BRANCH   1  72
ATOM     72  C   UNL A   1      32.758  29.137  24.164  1.00  0.00     0.023 C 
BRANCH  72  73
ATOM     73  C   UNL A   1      33.819  28.038  24.155  1.00  0.00     0.116 C 
BRANCH  73  74
ATOM     74  N   UNL A   1      33.752  27.245  22.943  1.00  0.00    -0.354 N 
ATOM     75  C   UNL A   1      33.568  25.906  22.767  1.00  0.00     0.242 C 
ATOM     76  H   UNL A   1      33.856  27.760  22.109  1.00  0.00     0.163 HD
ATOM     77  O   UNL A   1      33.653  25.491  21.606  1.00  0.00    -0.273 OA
BRANCH  75  78
ATOM     78  C   UNL A   1      33.211  24.992  23.968  1.00  0.00     0.173 C 
ATOM     79  C   UNL A   1      31.937  25.504  24.647  1.00  0.00     0.035 C 
ATOM     80  N   UNL A   1      33.047  23.597  23.536  1.00  0.00    -0.344 N 
ATOM     81  C   UNL A   1      30.679  25.191  23.837  1.00  0.00     0.004 C 
ATOM     82  C   UNL A   1      31.860  23.208  22.788  1.00  0.00     0.119 C 
ATOM     83  C   UNL A   1      30.601  23.703  23.501  1.00  0.00     0.022 C 
BRANCH  80  84
ATOM     84  C   UNL A   1      33.836  22.633  24.129  1.00  0.00     0.133 A 
ATOM     85  C   UNL A   1      33.394  21.328  24.184  1.00  0.00     0.076 A 
ATOM     86  N   UNL A   1      35.049  22.980  24.585  1.00  0.00    -0.211 NA
ATOM     87  C   UNL A   1      34.263  20.383  24.693  1.00  0.00     0.076 A 
ATOM     88  C   UNL A   1      35.813  22.005  25.109  1.00  0.00     0.162 A 
ATOM     89  N   UNL A   1      35.479  20.706  25.172  1.00  0.00    -0.228 NA
BRANCH  87  90
ATOM     90  C   UNL A   1      33.923  18.957  24.711  1.00  0.00     0.000 A 
ATOM     91  C   UNL A   1      34.833  17.993  24.251  1.00  0.00     0.010 A 
ATOM     92  C   UNL A   1      32.676  18.518  25.192  1.00  0.00     0.010 A 
ATOM     93  C   UNL A   1      34.517  16.633  24.290  1.00  0.00     0.001 A 
ATOM     94  C   UNL A   1      32.355  17.160  25.220  1.00  0.00     0.001 A 
ATOM     95  C   UNL A   1      33.279  16.217  24.775  1.00  0.00     0.000 A 
ENDBRANCH  87  90
BRANCH  88  96
ATOM     96  C   UNL A   1      37.122  22.389  25.642  1.00  0.00     0.021 A 
ATOM     97  C   UNL A   1      37.367  23.702  26.087  1.00  0.00     0.012 A 
ATOM     98  C   UNL A   1      38.170  21.456  25.730  1.00  0.00     0.032 A 
ATOM     99  C   UNL A   1      38.611  24.070  26.606  1.00  0.00     0.002 A 
ATOM    100  C   UNL A   1      39.417  21.832  26.229  1.00  0.00     0.041 A 
ATOM    101  C   UNL A   1      39.641  23.133  26.672  1.00  0.00     0.020 A 
ATOM    102  Cl  UNL A   1      40.695  20.681  26.288  1.00  0.00    -0.084 Cl
ENDBRANCH  88  96
ENDBRANCH  80  84
ENDBRANCH  75  78
ENDBRANCH  73  74
ENDBRANCH  72  73
ENDBRANCH   1  72
TORSDOF 14
ENDMDL
MODEL 2
REMARK VINA RESULT:     -14.4      1.162      2.918
REMARK SMILES O=C(NCCCCNC(=O)[C@H]1CCCCN1c1cc(-c2ccccc2)nc(-c2cccc(Cl)c2)n1)c1ccc(-c2c3nc(c(-c4c(F)c(F)c(F)c(F)c4F)c4ccc([nH]4)c(-c4c(F)c(F)c(F)c(F)c4F)c4nc(c(-c5c(F)c(F)c(F)c(F)c5F)c5ccc2[nH]5)C=C4)C=C3)cc1
REMARK SMILES IDX 5 1 4 2 3 3 1 4 2 5 36 7 37 8 98 9 38 10 97 11 39 12 40 13
REMARK SMILES IDX 41 14 91 15 42 16 96 17 90 18 92 19 43 20 95 21 89 22 88 23
REMARK SMILES IDX 44 25 76 26 56 27 75 28 57 29 60 30 74 31 93 32 58 33 59 34
REMARK SMILES IDX 73 36 94 37 61 38 45 39 46 40 54 41 47 42 48 43 52 44 55 45
REMARK SMILES IDX 49 46 50 47 53 48 51 49 77 50 78 51 86 52 79 53 80 54 84 55
REMARK SMILES IDX 87 56 81 57 82 58 85 59 83 60 62 61 63 62 71 63 64 64 65 65
REMARK SMILES IDX 69 66 72 67 66 68 67 69 70 70 68 71 6 72 7 73 8 74 9 75
REMARK SMILES IDX 10 77 11 78 12 79 16 80 13 81 15 82 14 83 17 84 18 85 35 86
REMARK SMILES IDX 19 87 27 88 26 89 20 90 21 91 25 92 22 93 24 94 23 95 28 96
REMARK SMILES IDX 29 97 34 98 30 99 32 100 31 101 33 102
REMARK H PARENT 3 6 92 24 60 35 8 76
REMARK Flexibility Score: inf
ROOT
ATOM      1  C   UNL A   1      32.853  28.938  24.065  1.00  0.00     0.023 C 
ENDROOT
BRANCH   1   2
ATOM      2  C   UNL A   1      33.605  29.328  25.333  1.00  0.00     0.116 C 
BRANCH   2   3
ATOM      3  N   UNL A   1      33.035  30.484  26.007  1.00  0.00    -0.352 N 
ATOM      4  O   UNL A   1      32.822  32.057  27.611  1.00  0.00    -0.269 OA
ATOM      5  C   UNL A   1      33.498  31.163  27.110  1.00  0.00     0.251 C 
ATOM      6  H   UNL A   1      32.199  30.829  25.618  1.00  0.00     0.163 HD
BRANCH   5   7
ATOM      7  C   UNL A   1      34.793  30.790  27.718  1.00  0.00     0.039 A 
ATOM      8  C   UNL A   1      35.021  29.493  28.185  1.00  0.00     0.014 A 
ATOM      9  C   UNL A   1      35.790  31.762  27.835  1.00  0.00     0.014 A 
ATOM     10  C   UNL A   1      36.178  29.214  28.905  1.00  0.00     0.010 A 
ATOM     11  C   UNL A   1      36.986  31.457  28.491  1.00  0.00     0.010 A 
ATOM     12  C   UNL A   1      37.170  30.194  29.074  1.00  0.00    -0.014 A 
BRANCH  12  13
ATOM     13  C   UNL A   1      38.391  29.869  29.855  1.00  0.00     0.031 A 
ATOM     14  C   UNL A   1      38.561  30.359  31.267  1.00  0.00     0.074 A 
ATOM     15  C   UNL A   1      39.336  29.088  29.296  1.00  0.00     0.049 A 
ATOM     16  N   UNL A   1      39.536  30.129  32.110  1.00  0.00    -0.248 NA
ATOM     17  C   UNL A   1      37.502  31.229  31.802  1.00  0.00     0.031 C 
ATOM     18  C   UNL A   1      39.293  28.561  27.931  1.00  0.00     0.029 A 
ATOM     19  N   UNL A   1      40.503  28.584  29.811  1.00  0.00    -0.354 N 
ATOM     20  C   UNL A   1      39.223  30.843  33.261  1.00  0.00     0.074 A 
ATOM     21  C   UNL A   1      37.978  31.533  33.000  1.00  0.00     0.031 C 
ATOM     22  C   UNL A   1      40.354  27.766  27.735  1.00  0.00     0.029 A 
ATOM     23  C   UNL A   1      41.178  27.766  28.939  1.00  0.00     0.049 A 
ATOM     24  H   UNL A   1      40.826  28.788  30.718  1.00  0.00     0.167 HD
ATOM     25  C   UNL A   1      39.908  30.908  34.428  1.00  0.00     0.037 A 
ATOM     26  C   UNL A   1      42.332  27.092  29.091  1.00  0.00     0.037 A 
ATOM     27  C   UNL A   1      41.132  30.196  34.696  1.00  0.00     0.049 A 
ATOM     28  C   UNL A   1      43.068  27.180  30.397  1.00  0.00     0.074 A 
ATOM     29  C   UNL A   1      41.873  30.160  35.864  1.00  0.00     0.029 A 
ATOM     30  N   UNL A   1      41.794  29.392  33.779  1.00  0.00    -0.354 N 
ATOM     31  N   UNL A   1      42.739  27.824  31.491  1.00  0.00    -0.248 NA
ATOM     32  C   UNL A   1      44.337  26.446  30.490  1.00  0.00     0.031 C 
ATOM     33  C   UNL A   1      43.006  29.369  35.642  1.00  0.00     0.029 A 
ATOM     34  C   UNL A   1      42.947  28.873  34.350  1.00  0.00     0.049 A 
ATOM     35  H   UNL A   1      41.492  29.218  32.859  1.00  0.00     0.167 HD
ATOM     36  C   UNL A   1      43.743  27.552  32.409  1.00  0.00     0.074 A 
ATOM     37  C   UNL A   1      44.686  26.674  31.748  1.00  0.00     0.031 C 
ATOM     38  C   UNL A   1      43.870  27.992  33.685  1.00  0.00     0.037 A 
BRANCH  25  39
ATOM     39  C   UNL A   1      39.361  31.798  35.508  1.00  0.00     0.064 A 
ATOM     40  C   UNL A   1      38.429  31.334  36.448  1.00  0.00     0.173 A 
ATOM     41  C   UNL A   1      39.808  33.123  35.627  1.00  0.00     0.173 A 
ATOM     42  F   UNL A   1      37.961  30.079  36.372  1.00  0.00    -0.203 F 
ATOM     43  C   UNL A   1      37.946  32.170  37.451  1.00  0.00     0.198 A 
ATOM     44  C   UNL A   1      39.343  33.948  36.647  1.00  0.00     0.198 A 
ATOM     45  F   UNL A   1      40.704  33.615  34.758  1.00  0.00    -0.203 F 
ATOM     46  F   UNL A   1      37.023  31.719  38.312  1.00  0.00    -0.200 F 
ATOM     47  C   UNL A   1      38.408  33.475  37.554  1.00  0.00     0.200 A 
ATOM     48  F   UNL A   1      39.800  35.204  36.752  1.00  0.00    -0.200 F 
ATOM     49  F   UNL A   1      37.947  34.277  38.524  1.00  0.00    -0.200 F 
ENDBRANCH  25  39
BRANCH  26  50
ATOM     50  C   UNL A   1      42.845  26.251  27.980  1.00  0.00     0.064 A 
ATOM     51  C   UNL A   1      43.647  26.803  26.973  1.00  0.00     0.173 A 
ATOM     52  C   UNL A   1      42.559  24.879  27.912  1.00  0.00     0.173 A 
ATOM     53  F   UNL A   1      43.931  28.114  26.987  1.00  0.00    -0.203 F 
ATOM     54  C   UNL A   1      44.133  26.017  25.931  1.00  0.00     0.198 A 
ATOM     55  C   UNL A   1      43.068  24.089  26.885  1.00  0.00     0.198 A 
ATOM     56  F   UNL A   1      41.800  24.304  28.856  1.00  0.00    -0.203 F 
ATOM     57  F   UNL A   1      44.868  26.577  24.959  1.00  0.00    -0.200 F 
ATOM     58  C   UNL A   1      43.851  24.660  25.892  1.00  0.00     0.200 A 
ATOM     59  F   UNL A   1      42.806  22.776  26.859  1.00  0.00    -0.200 F 
ATOM     60  F   UNL A   1      44.327  23.903  24.893  1.00  0.00    -0.200 F 
ENDBRANCH  26  50
BRANCH  38  61
ATOM     61  C   UNL A   1      45.051  27.492  34.463  1.00  0.00     0.064 A 
ATOM     62  C   UNL A   1      46.268  28.191  34.486  1.00  0.00     0.173 A 
ATOM     63  C   UNL A   1      44.957  26.308  35.209  1.00  0.00     0.173 A 
ATOM     64  F   UNL A   1      46.411  29.319  33.774  1.00  0.00    -0.203 F 
ATOM     65  C   UNL A   1      47.355  27.706  35.207  1.00  0.00     0.198 A 
ATOM     66  C   UNL A   1      46.040  25.842  35.950  1.00  0.00     0.198 A 
ATOM     67  F   UNL A   1      43.815  25.606  35.224  1.00  0.00    -0.203 F 
ATOM     68  F   UNL A   1      48.524  28.363  35.174  1.00  0.00    -0.200 F 
ATOM     69  C   UNL A   1      47.239  26.536  35.942  1.00  0.00     0.200 A 
ATOM     70  F   UNL A   1      45.922  24.716  36.668  1.00  0.00    -0.200 F 
ATOM     71  F   UNL A   1      48.289  26.071  36.634  1.00  0.00    -0.200 F 
ENDBRANCH  38  61
ENDBRANCH  12  13
ENDBRANCH   5   7
ENDBRANCH   2   3
ENDBRANCH   1   2
BRANCH   1  72
ATOM     72  C   UNL A   1      33.726  28.596  22.853  1.00  0.00     0.023 C 
BRANCH  72  73
ATOM     73  C   UNL A   1      33.813  27.106  22.525  1.00  0.00     0.116 C 
BRANCH  73  74
ATOM     74  N   UNL A   1      32.497  26.503  22.445  1.00  0.00    -0.354 N 
ATOM     75  C   UNL A   1      31.924  25.519  23.196  1.00  0.00     0.242 C 
ATOM     76  H   UNL A   1      31.922  26.863  21.730  1.00  0.00     0.163 HD
ATOM     77  O   UNL A   1      30.808  25.135  22.832  1.00  0.00    -0.273 OA
BRANCH  75  78
ATOM     78  C   UNL A   1      32.634  24.979  24.465  1.00  0.00     0.173 C 
ATOM     79  C   UNL A   1      32.200  25.795  25.686  1.00  0.00     0.035 C 
ATOM     80  N   UNL A   1      32.343  23.552  24.661  1.00  0.00    -0.344 N 
ATOM     81  C   UNL A   1      30.782  25.451  26.144  1.00  0.00     0.004 C 
ATOM     82  C   UNL A   1      31.026  23.141  25.127  1.00  0.00     0.119 C 
ATOM     83  C   UNL A   1      30.629  23.947  26.365  1.00  0.00     0.022 C 
BRANCH  80  84
ATOM     84  C   UNL A   1      33.404  22.674  24.728  1.00  0.00     0.133 A 
ATOM     85  C   UNL A   1      34.655  23.139  25.074  1.00  0.00     0.076 A 
ATOM     86  N   UNL A   1      33.178  21.369  24.514  1.00  0.00    -0.211 NA
ATOM     87  C   UNL A   1      35.661  22.205  25.228  1.00  0.00     0.076 A 
ATOM     88  C   UNL A   1      34.226  20.533  24.640  1.00  0.00     0.162 A 
ATOM     89  N   UNL A   1      35.466  20.892  25.004  1.00  0.00    -0.228 NA
BRANCH  87  90
ATOM     90  C   UNL A   1      37.002  22.588  25.681  1.00  0.00     0.000 A 
ATOM     91  C   UNL A   1      37.267  23.889  26.132  1.00  0.00     0.010 A 
ATOM     92  C   UNL A   1      38.059  21.658  25.675  1.00  0.00     0.010 A 
ATOM     93  C   UNL A   1      38.540  24.246  26.585  1.00  0.00     0.001 A 
ATOM     94  C   UNL A   1      39.334  22.017  26.117  1.00  0.00     0.001 A 
ATOM     95  C   UNL A   1      39.572  23.310  26.577  1.00  0.00     0.000 A 
ENDBRANCH  87  90
BRANCH  88  96
ATOM     96  C   UNL A   1      33.988  19.112  24.369  1.00  0.00     0.021 A 
ATOM     97  C   UNL A   1      32.910  18.698  23.566  1.00  0.00     0.012 A 
ATOM     98  C   UNL A   1      34.835  18.124  24.900  1.00  0.00     0.032 A 
ATOM     99  C   UNL A   1      32.686  17.345  23.297  1.00  0.00     0.002 A 
ATOM    100  C   UNL A   1      34.597  16.773  24.647  1.00  0.00     0.041 A 
ATOM    101  C   UNL A   1      33.529  16.379  23.843  1.00  0.00     0.020 A 
ATOM    102  Cl  UNL A   1      35.625  15.580  25.341  1.00  0.00    -0.084 Cl
ENDBRANCH  88  96
ENDBRANCH  80  84
ENDBRANCH  75  78
ENDBRANCH  73  74
ENDBRANCH  72  73
ENDBRANCH   1  72
TORSDOF 14
ENDMDL
MODEL 3
REMARK VINA RESULT:     -14.3      4.383     10.312
REMARK SMILES O=C(NCCCCNC(=O)[C@H]1CCCCN1c1cc(-c2ccccc2)nc(-c2cccc(Cl)c2)n1)c1ccc(-c2c3nc(c(-c4c(F)c(F)c(F)c(F)c4F)c4ccc([nH]4)c(-c4c(F)c(F)c(F)c(F)c4F)c4nc(c(-c5c(F)c(F)c(F)c(F)c5F)c5ccc2[nH]5)C=C4)C=C3)cc1
REMARK SMILES IDX 5 1 4 2 3 3 1 4 2 5 36 7 37 8 98 9 38 10 97 11 39 12 40 13
REMARK SMILES IDX 41 14 91 15 42 16 96 17 90 18 92 19 43 20 95 21 89 22 88 23
REMARK SMILES IDX 44 25 76 26 56 27 75 28 57 29 60 30 74 31 93 32 58 33 59 34
REMARK SMILES IDX 73 36 94 37 61 38 45 39 46 40 54 41 47 42 48 43 52 44 55 45
REMARK SMILES IDX 49 46 50 47 53 48 51 49 77 50 78 51 86 52 79 53 80 54 84 55
REMARK SMILES IDX 87 56 81 57 82 58 85 59 83 60 62 61 63 62 71 63 64 64 65 65
REMARK SMILES IDX 69 66 72 67 66 68 67 69 70 70 68 71 6 72 7 73 8 74 9 75
REMARK SMILES IDX 10 77 11 78 12 79 16 80 13 81 15 82 14 83 17 84 18 85 35 86
REMARK SMILES IDX 19 87 27 88 26 89 20 90 21 91 25 92 22 93 24 94 23 95 28 96
REMARK SMILES IDX 29 97 34 98 30 99 32 100 31 101 33 102
REMARK H PARENT 3 6 92 24 60 35 8 76
REMARK Flexibility Score: inf
ROOT
ATOM      1  C   UNL A   1      35.628  21.598  25.224  1.00  0.00     0.023 C 
ENDROOT
BRANCH   1   2
ATOM      2  C   UNL A   1      36.997  22.135  25.628  1.00  0.00     0.116 C 
BRANCH   2   3
ATOM      3  N   UNL A   1      38.004  21.095  25.766  1.00  0.00    -0.352 N 
ATOM      4  O   UNL A   1      40.054  20.224  26.130  1.00  0.00    -0.269 OA
ATOM      5  C   UNL A   1      39.311  21.200  26.180  1.00  0.00     0.251 C 
ATOM      6  H   UNL A   1      37.708  20.186  25.529  1.00  0.00     0.163 HD
BRANCH   5   7
ATOM      7  C   UNL A   1      39.836  22.501  26.650  1.00  0.00     0.039 A 
ATOM      8  C   UNL A   1      39.349  23.702  26.130  1.00  0.00     0.014 A 
ATOM      9  C   UNL A   1      40.844  22.514  27.618  1.00  0.00     0.014 A 
ATOM     10  C   UNL A   1      39.975  24.900  26.459  1.00  0.00     0.010 A 
ATOM     11  C   UNL A   1      41.420  23.726  28.006  1.00  0.00     0.010 A 
ATOM     12  C   UNL A   1      41.022  24.925  27.395  1.00  0.00    -0.014 A 
BRANCH  12  13
ATOM     13  C   UNL A   1      41.677  26.218  27.721  1.00  0.00     0.031 A 
ATOM     14  C   UNL A   1      43.026  26.568  27.154  1.00  0.00     0.074 A 
ATOM     15  C   UNL A   1      41.028  27.102  28.504  1.00  0.00     0.049 A 
ATOM     16  N   UNL A   1      43.721  27.670  27.292  1.00  0.00    -0.248 NA
ATOM     17  C   UNL A   1      43.688  25.545  26.330  1.00  0.00     0.031 C 
ATOM     18  C   UNL A   1      39.722  26.874  29.124  1.00  0.00     0.029 A 
ATOM     19  N   UNL A   1      41.364  28.373  28.893  1.00  0.00    -0.354 N 
ATOM     20  C   UNL A   1      44.906  27.464  26.598  1.00  0.00     0.074 A 
ATOM     21  C   UNL A   1      44.849  26.123  26.057  1.00  0.00     0.031 C 
ATOM     22  C   UNL A   1      39.344  27.986  29.771  1.00  0.00     0.029 A 
ATOM     23  C   UNL A   1      40.400  28.986  29.654  1.00  0.00     0.049 A 
ATOM     24  H   UNL A   1      42.215  28.805  28.651  1.00  0.00     0.167 HD
ATOM     25  C   UNL A   1      45.943  28.320  26.422  1.00  0.00     0.037 A 
ATOM     26  C   UNL A   1      40.368  30.216  30.198  1.00  0.00     0.037 A 
ATOM     27  C   UNL A   1      45.985  29.665  26.935  1.00  0.00     0.049 A 
ATOM     28  C   UNL A   1      41.530  31.144  29.983  1.00  0.00     0.074 A 
ATOM     29  C   UNL A   1      46.970  30.624  26.768  1.00  0.00     0.029 A 
ATOM     30  N   UNL A   1      44.996  30.243  27.717  1.00  0.00    -0.354 N 
ATOM     31  N   UNL A   1      42.625  30.952  29.289  1.00  0.00    -0.248 NA
ATOM     32  C   UNL A   1      41.449  32.461  30.628  1.00  0.00     0.031 C 
ATOM     33  C   UNL A   1      46.597  31.767  27.484  1.00  0.00     0.029 A 
ATOM     34  C   UNL A   1      45.357  31.538  28.058  1.00  0.00     0.049 A 
ATOM     35  H   UNL A   1      44.162  29.799  27.992  1.00  0.00     0.167 HD
ATOM     36  C   UNL A   1      43.351  32.130  29.389  1.00  0.00     0.074 A 
ATOM     37  C   UNL A   1      42.565  33.036  30.202  1.00  0.00     0.031 C 
ATOM     38  C   UNL A   1      44.560  32.432  28.857  1.00  0.00     0.037 A 
BRANCH  25  39
ATOM     39  C   UNL A   1      47.134  27.821  25.653  1.00  0.00     0.064 A 
ATOM     40  C   UNL A   1      47.160  27.814  24.251  1.00  0.00     0.173 A 
ATOM     41  C   UNL A   1      48.282  27.384  26.332  1.00  0.00     0.173 A 
ATOM     42  F   UNL A   1      46.085  28.212  23.554  1.00  0.00    -0.203 F 
ATOM     43  C   UNL A   1      48.280  27.363  23.557  1.00  0.00     0.198 A 
ATOM     44  C   UNL A   1      49.409  26.959  25.636  1.00  0.00     0.198 A 
ATOM     45  F   UNL A   1      48.312  27.376  27.673  1.00  0.00    -0.203 F 
ATOM     46  F   UNL A   1      48.266  27.324  22.218  1.00  0.00    -0.200 F 
ATOM     47  C   UNL A   1      49.406  26.942  24.249  1.00  0.00     0.200 A 
ATOM     48  F   UNL A   1      50.501  26.564  26.306  1.00  0.00    -0.200 F 
ATOM     49  F   UNL A   1      50.486  26.515  23.581  1.00  0.00    -0.200 F 
ENDBRANCH  25  39
BRANCH  26  50
ATOM     50  C   UNL A   1      39.179  30.647  30.975  1.00  0.00     0.064 A 
ATOM     51  C   UNL A   1      39.029  30.282  32.319  1.00  0.00     0.173 A 
ATOM     52  C   UNL A   1      38.180  31.444  30.397  1.00  0.00     0.173 A 
ATOM     53  F   UNL A   1      39.951  29.505  32.909  1.00  0.00    -0.203 F 
ATOM     54  C   UNL A   1      37.917  30.688  33.053  1.00  0.00     0.198 A 
ATOM     55  C   UNL A   1      37.083  31.871  31.140  1.00  0.00     0.198 A 
ATOM     56  F   UNL A   1      38.283  31.824  29.115  1.00  0.00    -0.203 F 
ATOM     57  F   UNL A   1      37.779  30.294  34.327  1.00  0.00    -0.200 F 
ATOM     58  C   UNL A   1      36.949  31.488  32.466  1.00  0.00     0.200 A 
ATOM     59  F   UNL A   1      36.158  32.658  30.573  1.00  0.00    -0.200 F 
ATOM     60  F   UNL A   1      35.884  31.885  33.176  1.00  0.00    -0.200 F 
ENDBRANCH  26  50
BRANCH  38  61
ATOM     61  C   UNL A   1      45.085  33.816  29.100  1.00  0.00     0.064 A 
ATOM     62  C   UNL A   1      44.778  34.883  28.243  1.00  0.00     0.173 A 
ATOM     63  C   UNL A   1      45.892  34.080  30.217  1.00  0.00     0.173 A 
ATOM     64  F   UNL A   1      44.024  34.676  27.153  1.00  0.00    -0.203 F 
ATOM     65  C   UNL A   1      45.283  36.158  28.481  1.00  0.00     0.198 A 
ATOM     66  C   UNL A   1      46.373  35.363  30.466  1.00  0.00     0.198 A 
ATOM     67  F   UNL A   1      46.212  33.095  31.070  1.00  0.00    -0.203 F 
ATOM     68  F   UNL A   1      45.018  37.152  27.621  1.00  0.00    -0.200 F 
ATOM     69  C   UNL A   1      46.075  36.398  29.594  1.00  0.00     0.200 A 
ATOM     70  F   UNL A   1      47.130  35.594  31.548  1.00  0.00    -0.200 F 
ATOM     71  F   UNL A   1      46.560  37.627  29.820  1.00  0.00    -0.200 F 
ENDBRANCH  38  61
ENDBRANCH  12  13
ENDBRANCH   5   7
ENDBRANCH   2   3
ENDBRANCH   1   2
BRANCH   1  72
ATOM     72  C   UNL A   1      34.566  21.586  26.329  1.00  0.00     0.023 C 
BRANCH  72  73
ATOM     73  C   UNL A   1      34.299  22.945  26.976  1.00  0.00     0.116 C 
BRANCH  73  74
ATOM     74  N   UNL A   1      32.887  23.134  27.248  1.00  0.00    -0.354 N 
ATOM     75  C   UNL A   1      31.983  23.989  26.690  1.00  0.00     0.242 C 
ATOM     76  H   UNL A   1      32.522  22.549  27.951  1.00  0.00     0.163 HD
ATOM     77  O   UNL A   1      30.855  23.997  27.195  1.00  0.00    -0.273 OA
BRANCH  75  78
ATOM     78  C   UNL A   1      32.362  24.844  25.453  1.00  0.00     0.173 C 
ATOM     79  C   UNL A   1      32.878  23.934  24.334  1.00  0.00     0.035 C 
ATOM     80  N   UNL A   1      31.215  25.638  24.993  1.00  0.00    -0.344 N 
ATOM     81  C   UNL A   1      31.753  23.160  23.647  1.00  0.00     0.004 C 
ATOM     82  C   UNL A   1      30.115  24.982  24.299  1.00  0.00     0.119 C 
ATOM     83  C   UNL A   1      30.653  24.104  23.168  1.00  0.00     0.022 C 
BRANCH  80  84
ATOM     84  C   UNL A   1      31.356  27.008  24.922  1.00  0.00     0.133 A 
ATOM     85  C   UNL A   1      30.524  27.739  24.100  1.00  0.00     0.076 A 
ATOM     86  N   UNL A   1      32.262  27.607  25.709  1.00  0.00    -0.211 NA
ATOM     87  C   UNL A   1      30.635  29.115  24.143  1.00  0.00     0.076 A 
ATOM     88  C   UNL A   1      32.336  28.949  25.654  1.00  0.00     0.162 A 
ATOM     89  N   UNL A   1      31.547  29.740  24.911  1.00  0.00    -0.228 NA
BRANCH  87  90
ATOM     90  C   UNL A   1      29.738  29.983  23.375  1.00  0.00     0.000 A 
ATOM     91  C   UNL A   1      29.258  29.591  22.116  1.00  0.00     0.010 A 
ATOM     92  C   UNL A   1      29.333  31.232  23.881  1.00  0.00     0.010 A 
ATOM     93  C   UNL A   1      28.385  30.409  21.395  1.00  0.00     0.001 A 
ATOM     94  C   UNL A   1      28.470  32.055  23.156  1.00  0.00     0.001 A 
ATOM     95  C   UNL A   1      27.991  31.640  21.915  1.00  0.00     0.000 A 
ENDBRANCH  87  90
BRANCH  88  96
ATOM     96  C   UNL A   1      33.352  29.601  26.485  1.00  0.00     0.021 A 
ATOM     97  C   UNL A   1      34.516  28.915  26.879  1.00  0.00     0.012 A 
ATOM     98  C   UNL A   1      33.195  30.933  26.907  1.00  0.00     0.032 A 
ATOM     99  C   UNL A   1      35.492  29.537  27.662  1.00  0.00     0.002 A 
ATOM    100  C   UNL A   1      34.161  31.544  27.707  1.00  0.00     0.041 A 
ATOM    101  C   UNL A   1      35.312  30.854  28.081  1.00  0.00     0.020 A 
ATOM    102  Cl  UNL A   1      33.927  33.162  28.244  1.00  0.00    -0.084 Cl
ENDBRANCH  88  96
ENDBRANCH  80  84
ENDBRANCH  75  78
ENDBRANCH  73  74
ENDBRANCH  72  73
ENDBRANCH   1  72
TORSDOF 14
ENDMDL
