MODEL 1
REMARK VINA RESULT:     -11.7      0.000      0.000
REMARK SMILES CC(C)[C@@H]1SC[C@@H](C(=O)NCCCCNC(=O)c2ccc(-c3c4nc(c(-c5c(F)c(F)c(F)c(F)c5F)c5ccc([nH]5)c(-c5c(F)c(F)c(F)c(F)c5F)c5nc(c(-c6c(F)c(F)c(F)c(F)c6F)c6ccc3[nH]6)C=C5)C=C4)cc2)N1C(=O)COCC[NH3+]
REMARK SMILES IDX 8 1 9 2 10 3 7 5 4 6 5 7 81 8 6 9 2 10 1 11 3 12 82 13 83 14
REMARK SMILES IDX 84 15 85 16 86 17 87 18 88 19 11 23 12 24 13 25 14 26 15 27
REMARK SMILES IDX 16 28 17 30 18 31 19 32 80 33 20 34 79 35 21 36 22 37 23 38
REMARK SMILES IDX 73 39 24 40 78 41 72 42 74 43 25 44 77 45 71 46 70 47 26 49
REMARK SMILES IDX 58 50 38 51 57 52 39 53 42 54 56 55 75 56 40 57 41 58 55 60
REMARK SMILES IDX 76 61 43 62 27 63 28 64 36 65 29 66 30 67 34 68 37 69 31 70
REMARK SMILES IDX 32 71 35 72 33 73 59 74 60 75 68 76 61 77 62 78 66 79 69 80
REMARK SMILES IDX 63 81 64 82 67 83 65 84 44 85 45 86 53 87 46 88 47 89 51 90
REMARK SMILES IDX 54 91 48 92 49 93 52 94 50 95
REMARK H PARENT 10 4 88 20 88 21 88 22 15 29 74 48 42 59
REMARK Flexibility Score: inf
ROOT
ATOM      1  C   UNL A   1      33.621  28.408  24.093  1.00  0.00     0.243 C 
ATOM      2  O   UNL A   1      34.495  28.595  23.238  1.00  0.00    -0.273 OA
ATOM      3  N   UNL A   1      33.069  29.538  24.620  1.00  0.00    -0.354 N 
ATOM      4  H   UNL A   1      33.602  30.353  24.476  1.00  0.00     0.163 HD
ENDROOT
BRANCH   1   5
ATOM      5  C   UNL A   1      33.121  26.971  24.402  1.00  0.00     0.185 C 
ATOM      6  C   UNL A   1      34.518  24.972  24.002  1.00  0.00     0.146 C 
ATOM      7  S   UNL A   1      33.999  24.865  25.765  1.00  0.00    -0.134 SA
ATOM      8  N   UNL A   1      33.534  25.913  23.435  1.00  0.00    -0.316 N 
ATOM      9  C   UNL A   1      33.424  26.572  25.840  1.00  0.00     0.107 C 
BRANCH   6  10
ATOM     10  C   UNL A   1      34.901  23.594  23.402  1.00  0.00     0.016 C 
ATOM     11  C   UNL A   1      36.343  23.188  23.759  1.00  0.00     0.010 C 
ATOM     12  C   UNL A   1      34.018  22.447  23.949  1.00  0.00     0.010 C 
ENDBRANCH   6  10
BRANCH   8  13
ATOM     13  C   UNL A   1      32.821  25.952  22.248  1.00  0.00     0.250 C 
ATOM     14  O   UNL A   1      33.411  25.789  21.170  1.00  0.00    -0.272 OA
BRANCH  13  15
ATOM     15  C   UNL A   1      31.311  26.184  22.160  1.00  0.00     0.260 C 
BRANCH  15  16
ATOM     16  O   UNL A   1      30.819  27.451  21.761  1.00  0.00    -0.366 OA
BRANCH  16  17
ATOM     17  C   UNL A   1      29.986  28.123  22.708  1.00  0.00     0.222 C 
BRANCH  17  18
ATOM     18  C   UNL A   1      29.539  29.499  22.204  1.00  0.00     0.287 C 
BRANCH  18  19
ATOM     19  N   UNL A   1      30.624  30.248  21.575  1.00  0.00    -0.356 N 
ATOM     20  H   UNL A   1      31.192  29.615  21.012  1.00  0.00     0.344 HD
ATOM     21  H   UNL A   1      31.205  30.675  22.296  1.00  0.00     0.344 HD
ATOM     22  H   UNL A   1      30.233  30.977  20.978  1.00  0.00     0.344 HD
ENDBRANCH  18  19
ENDBRANCH  17  18
ENDBRANCH  16  17
ENDBRANCH  15  16
ENDBRANCH  13  15
ENDBRANCH   8  13
ENDBRANCH   1   5
BRANCH   3  23
ATOM     23  C   UNL A   1      31.841  29.754  25.351  1.00  0.00     0.116 C 
BRANCH  23  24
ATOM     24  C   UNL A   1      32.078  30.394  26.717  1.00  0.00     0.023 C 
BRANCH  24  25
ATOM     25  C   UNL A   1      31.723  31.877  26.802  1.00  0.00     0.023 C 
BRANCH  25  26
ATOM     26  C   UNL A   1      32.843  32.786  27.299  1.00  0.00     0.116 C 
BRANCH  26  27
ATOM     27  N   UNL A   1      32.408  34.135  27.630  1.00  0.00    -0.352 N 
ATOM     28  C   UNL A   1      32.940  34.999  28.563  1.00  0.00     0.251 C 
ATOM     29  H   UNL A   1      31.635  34.473  27.122  1.00  0.00     0.163 HD
ATOM     30  O   UNL A   1      32.411  36.077  28.788  1.00  0.00    -0.269 OA
BRANCH  28  31
ATOM     31  C   UNL A   1      34.133  34.577  29.327  1.00  0.00     0.039 A 
ATOM     32  C   UNL A   1      33.956  34.036  30.602  1.00  0.00     0.014 A 
ATOM     33  C   UNL A   1      35.408  34.663  28.762  1.00  0.00     0.014 A 
ATOM     34  C   UNL A   1      35.052  33.497  31.278  1.00  0.00     0.010 A 
ATOM     35  C   UNL A   1      36.486  34.067  29.408  1.00  0.00     0.010 A 
ATOM     36  C   UNL A   1      36.316  33.468  30.667  1.00  0.00    -0.014 A 
BRANCH  36  37
ATOM     37  C   UNL A   1      37.467  32.787  31.311  1.00  0.00     0.031 A 
ATOM     38  C   UNL A   1      38.125  31.616  30.638  1.00  0.00     0.074 A 
ATOM     39  C   UNL A   1      37.858  33.170  32.543  1.00  0.00     0.049 A 
ATOM     40  N   UNL A   1      39.082  30.841  31.079  1.00  0.00    -0.248 NA
ATOM     41  C   UNL A   1      37.622  31.248  29.305  1.00  0.00     0.031 C 
ATOM     42  C   UNL A   1      37.255  34.251  33.325  1.00  0.00     0.029 A 
ATOM     43  N   UNL A   1      38.845  32.680  33.364  1.00  0.00    -0.354 N 
ATOM     44  C   UNL A   1      39.278  29.883  30.093  1.00  0.00     0.074 A 
ATOM     45  C   UNL A   1      38.317  30.149  29.045  1.00  0.00     0.031 C 
ATOM     46  C   UNL A   1      37.889  34.348  34.505  1.00  0.00     0.029 A 
ATOM     47  C   UNL A   1      38.920  33.319  34.578  1.00  0.00     0.049 A 
ATOM     48  H   UNL A   1      39.441  31.940  33.105  1.00  0.00     0.167 HD
ATOM     49  C   UNL A   1      40.191  28.885  30.060  1.00  0.00     0.037 A 
ATOM     50  C   UNL A   1      39.723  33.089  35.635  1.00  0.00     0.037 A 
ATOM     51  C   UNL A   1      41.179  28.655  31.080  1.00  0.00     0.049 A 
ATOM     52  C   UNL A   1      40.744  31.986  35.554  1.00  0.00     0.074 A 
ATOM     53  C   UNL A   1      42.215  27.738  31.084  1.00  0.00     0.029 A 
ATOM     54  N   UNL A   1      41.251  29.348  32.278  1.00  0.00    -0.354 N 
ATOM     55  N   UNL A   1      40.987  31.153  34.572  1.00  0.00    -0.248 NA
ATOM     56  C   UNL A   1      41.608  31.794  36.728  1.00  0.00     0.031 C 
ATOM     57  C   UNL A   1      42.888  27.844  32.305  1.00  0.00     0.029 A 
ATOM     58  C   UNL A   1      42.298  28.857  33.043  1.00  0.00     0.049 A 
ATOM     59  H   UNL A   1      40.649  30.079  32.547  1.00  0.00     0.167 HD
ATOM     60  C   UNL A   1      42.045  30.361  34.996  1.00  0.00     0.074 A 
ATOM     61  C   UNL A   1      42.410  30.823  36.318  1.00  0.00     0.031 C 
ATOM     62  C   UNL A   1      42.656  29.339  34.351  1.00  0.00     0.037 A 
BRANCH  49  63
ATOM     63  C   UNL A   1      40.183  27.962  28.878  1.00  0.00     0.064 A 
ATOM     64  C   UNL A   1      40.900  28.257  27.710  1.00  0.00     0.173 A 
ATOM     65  C   UNL A   1      39.514  26.730  28.947  1.00  0.00     0.173 A 
ATOM     66  F   UNL A   1      41.546  29.427  27.591  1.00  0.00    -0.203 F 
ATOM     67  C   UNL A   1      40.939  27.357  26.648  1.00  0.00     0.198 A 
ATOM     68  C   UNL A   1      39.577  25.822  27.894  1.00  0.00     0.198 A 
ATOM     69  F   UNL A   1      38.818  26.399  30.045  1.00  0.00    -0.203 F 
ATOM     70  F   UNL A   1      41.607  27.672  25.529  1.00  0.00    -0.200 F 
ATOM     71  C   UNL A   1      40.287  26.137  26.745  1.00  0.00     0.200 A 
ATOM     72  F   UNL A   1      38.957  24.638  27.994  1.00  0.00    -0.200 F 
ATOM     73  F   UNL A   1      40.340  25.264  25.730  1.00  0.00    -0.200 F 
ENDBRANCH  49  63
BRANCH  50  74
ATOM     74  C   UNL A   1      39.606  33.920  36.862  1.00  0.00     0.064 A 
ATOM     75  C   UNL A   1      38.813  33.504  37.940  1.00  0.00     0.173 A 
ATOM     76  C   UNL A   1      40.252  35.161  36.967  1.00  0.00     0.173 A 
ATOM     77  F   UNL A   1      38.158  32.335  37.878  1.00  0.00    -0.203 F 
ATOM     78  C   UNL A   1      38.641  34.313  39.062  1.00  0.00     0.198 A 
ATOM     79  C   UNL A   1      40.104  35.955  38.103  1.00  0.00     0.198 A 
ATOM     80  F   UNL A   1      41.027  35.602  35.966  1.00  0.00    -0.203 F 
ATOM     81  F   UNL A   1      37.829  33.917  40.053  1.00  0.00    -0.200 F 
ATOM     82  C   UNL A   1      39.289  35.535  39.144  1.00  0.00     0.200 A 
ATOM     83  F   UNL A   1      40.743  37.129  38.183  1.00  0.00    -0.200 F 
ATOM     84  F   UNL A   1      39.121  36.315  40.221  1.00  0.00    -0.200 F 
ENDBRANCH  50  74
BRANCH  62  85
ATOM     85  C   UNL A   1      43.804  28.673  35.050  1.00  0.00     0.064 A 
ATOM     86  C   UNL A   1      43.612  27.554  35.872  1.00  0.00     0.173 A 
ATOM     87  C   UNL A   1      45.116  29.134  34.860  1.00  0.00     0.173 A 
ATOM     88  F   UNL A   1      42.374  27.085  36.096  1.00  0.00    -0.203 F 
ATOM     89  C   UNL A   1      44.690  26.935  36.499  1.00  0.00     0.198 A 
ATOM     90  C   UNL A   1      46.193  28.495  35.466  1.00  0.00     0.198 A 
ATOM     91  F   UNL A   1      45.352  30.197  34.077  1.00  0.00    -0.203 F 
ATOM     92  F   UNL A   1      44.478  25.894  37.318  1.00  0.00    -0.200 F 
ATOM     93  C   UNL A   1      45.979  27.400  36.289  1.00  0.00     0.200 A 
ATOM     94  F   UNL A   1      47.440  28.938  35.251  1.00  0.00    -0.200 F 
ATOM     95  F   UNL A   1      47.015  26.799  36.888  1.00  0.00    -0.200 F 
ENDBRANCH  62  85
ENDBRANCH  36  37
ENDBRANCH  28  31
ENDBRANCH  26  27
ENDBRANCH  25  26
ENDBRANCH  24  25
ENDBRANCH  23  24
ENDBRANCH   3  23
TORSDOF 18
ENDMDL
MODEL 2
REMARK VINA RESULT:     -11.2      6.068     11.415
REMARK SMILES CC(C)[C@@H]1SC[C@@H](C(=O)NCCCCNC(=O)c2ccc(-c3c4nc(c(-c5c(F)c(F)c(F)c(F)c5F)c5ccc([nH]5)c(-c5c(F)c(F)c(F)c(F)c5F)c5nc(c(-c6c(F)c(F)c(F)c(F)c6F)c6ccc3[nH]6)C=C5)C=C4)cc2)N1C(=O)COCC[NH3+]
REMARK SMILES IDX 8 1 9 2 10 3 7 5 4 6 5 7 81 8 6 9 2 10 1 11 3 12 82 13 83 14
REMARK SMILES IDX 84 15 85 16 86 17 87 18 88 19 11 23 12 24 13 25 14 26 15 27
REMARK SMILES IDX 16 28 17 30 18 31 19 32 80 33 20 34 79 35 21 36 22 37 23 38
REMARK SMILES IDX 73 39 24 40 78 41 72 42 74 43 25 44 77 45 71 46 70 47 26 49
REMARK SMILES IDX 58 50 38 51 57 52 39 53 42 54 56 55 75 56 40 57 41 58 55 60
REMARK SMILES IDX 76 61 43 62 27 63 28 64 36 65 29 66 30 67 34 68 37 69 31 70
REMARK SMILES IDX 32 71 35 72 33 73 59 74 60 75 68 76 61 77 62 78 66 79 69 80
REMARK SMILES IDX 63 81 64 82 67 83 65 84 44 85 45 86 53 87 46 88 47 89 51 90
REMARK SMILES IDX 54 91 48 92 49 93 52 94 50 95
REMARK H PARENT 10 4 88 20 88 21 88 22 15 29 74 48 42 59
REMARK Flexibility Score: inf
ROOT
ATOM      1  C   UNL A   1      34.923  23.037  26.497  1.00  0.00     0.243 C 
ATOM      2  O   UNL A   1      34.259  22.946  27.536  1.00  0.00    -0.273 OA
ATOM      3  N   UNL A   1      36.217  22.618  26.592  1.00  0.00    -0.354 N 
ATOM      4  H   UNL A   1      36.554  22.553  27.515  1.00  0.00     0.163 HD
ENDROOT
BRANCH   1   5
ATOM      5  C   UNL A   1      34.245  23.467  25.168  1.00  0.00     0.185 C 
ATOM      6  C   UNL A   1      32.058  24.616  25.114  1.00  0.00     0.146 C 
ATOM      7  S   UNL A   1      33.203  25.693  24.157  1.00  0.00    -0.134 SA
ATOM      8  N   UNL A   1      32.762  23.321  25.114  1.00  0.00    -0.316 N 
ATOM      9  C   UNL A   1      34.691  24.858  24.738  1.00  0.00     0.107 C 
BRANCH   6  10
ATOM     10  C   UNL A   1      30.569  24.837  24.738  1.00  0.00     0.016 C 
ATOM     11  C   UNL A   1      30.130  26.297  24.949  1.00  0.00     0.010 C 
ATOM     12  C   UNL A   1      30.289  24.548  23.245  1.00  0.00     0.010 C 
ENDBRANCH   6  10
BRANCH   8  13
ATOM     13  C   UNL A   1      32.350  22.008  24.949  1.00  0.00     0.250 C 
ATOM     14  O   UNL A   1      31.509  21.525  25.721  1.00  0.00    -0.272 OA
BRANCH  13  15
ATOM     15  C   UNL A   1      32.867  21.077  23.850  1.00  0.00     0.260 C 
BRANCH  15  16
ATOM     16  O   UNL A   1      32.296  19.791  23.694  1.00  0.00    -0.366 OA
BRANCH  16  17
ATOM     17  C   UNL A   1      33.145  18.689  24.021  1.00  0.00     0.222 C 
BRANCH  17  18
ATOM     18  C   UNL A   1      32.649  17.930  25.257  1.00  0.00     0.287 C 
BRANCH  18  19
ATOM     19  N   UNL A   1      32.904  18.651  26.501  1.00  0.00    -0.356 N 
ATOM     20  H   UNL A   1      33.792  18.344  26.896  1.00  0.00     0.344 HD
ATOM     21  H   UNL A   1      32.153  18.462  27.164  1.00  0.00     0.344 HD
ATOM     22  H   UNL A   1      32.945  19.652  26.311  1.00  0.00     0.344 HD
ENDBRANCH  18  19
ENDBRANCH  17  18
ENDBRANCH  16  17
ENDBRANCH  15  16
ENDBRANCH  13  15
ENDBRANCH   8  13
ENDBRANCH   1   5
BRANCH   3  23
ATOM     23  C   UNL A   1      37.183  22.250  25.582  1.00  0.00     0.116 C 
BRANCH  23  24
ATOM     24  C   UNL A   1      36.941  20.852  25.019  1.00  0.00     0.023 C 
BRANCH  24  25
ATOM     25  C   UNL A   1      38.205  20.050  24.721  1.00  0.00     0.023 C 
BRANCH  25  26
ATOM     26  C   UNL A   1      39.339  20.224  25.727  1.00  0.00     0.116 C 
BRANCH  26  27
ATOM     27  N   UNL A   1      40.228  19.076  25.821  1.00  0.00    -0.352 N 
ATOM     28  C   UNL A   1      41.574  19.060  26.119  1.00  0.00     0.251 C 
ATOM     29  H   UNL A   1      39.815  18.199  25.651  1.00  0.00     0.163 HD
ATOM     30  O   UNL A   1      42.210  18.018  26.080  1.00  0.00    -0.269 OA
BRANCH  28  31
ATOM     31  C   UNL A   1      42.249  20.336  26.435  1.00  0.00     0.039 A 
ATOM     32  C   UNL A   1      42.844  21.056  25.397  1.00  0.00     0.014 A 
ATOM     33  C   UNL A   1      42.241  20.843  27.738  1.00  0.00     0.014 A 
ATOM     34  C   UNL A   1      43.356  22.331  25.649  1.00  0.00     0.010 A 
ATOM     35  C   UNL A   1      42.691  22.138  27.972  1.00  0.00     0.010 A 
ATOM     36  C   UNL A   1      43.242  22.898  26.929  1.00  0.00    -0.014 A 
BRANCH  36  37
ATOM     37  C   UNL A   1      43.662  24.298  27.190  1.00  0.00     0.031 A 
ATOM     38  C   UNL A   1      42.659  25.311  27.665  1.00  0.00     0.074 A 
ATOM     39  C   UNL A   1      44.926  24.672  26.911  1.00  0.00     0.049 A 
ATOM     40  N   UNL A   1      42.814  26.595  27.864  1.00  0.00    -0.248 NA
ATOM     41  C   UNL A   1      41.295  24.825  27.921  1.00  0.00     0.031 C 
ATOM     42  C   UNL A   1      45.974  23.794  26.385  1.00  0.00     0.029 A 
ATOM     43  N   UNL A   1      45.543  25.896  27.014  1.00  0.00    -0.354 N 
ATOM     44  C   UNL A   1      41.567  27.072  28.245  1.00  0.00     0.074 A 
ATOM     45  C   UNL A   1      40.655  25.949  28.214  1.00  0.00     0.031 C 
ATOM     46  C   UNL A   1      47.103  24.504  26.220  1.00  0.00     0.029 A 
ATOM     47  C   UNL A   1      46.853  25.891  26.598  1.00  0.00     0.049 A 
ATOM     48  H   UNL A   1      45.088  26.700  27.354  1.00  0.00     0.167 HD
ATOM     49  C   UNL A   1      41.222  28.329  28.605  1.00  0.00     0.037 A 
ATOM     50  C   UNL A   1      47.746  26.896  26.518  1.00  0.00     0.037 A 
ATOM     51  C   UNL A   1      42.141  29.432  28.684  1.00  0.00     0.049 A 
ATOM     52  C   UNL A   1      47.334  28.278  26.950  1.00  0.00     0.074 A 
ATOM     53  C   UNL A   1      41.909  30.717  29.143  1.00  0.00     0.029 A 
ATOM     54  N   UNL A   1      43.470  29.380  28.293  1.00  0.00    -0.354 N 
ATOM     55  N   UNL A   1      46.178  28.693  27.406  1.00  0.00    -0.248 NA
ATOM     56  C   UNL A   1      48.355  29.332  26.862  1.00  0.00     0.031 C 
ATOM     57  C   UNL A   1      43.085  31.456  28.987  1.00  0.00     0.029 A 
ATOM     58  C   UNL A   1      44.062  30.621  28.472  1.00  0.00     0.049 A 
ATOM     59  H   UNL A   1      43.926  28.582  27.939  1.00  0.00     0.167 HD
ATOM     60  C   UNL A   1      46.339  30.043  27.685  1.00  0.00     0.074 A 
ATOM     61  C   UNL A   1      47.711  30.375  27.364  1.00  0.00     0.031 C 
ATOM     62  C   UNL A   1      45.433  30.930  28.160  1.00  0.00     0.037 A 
BRANCH  49  63
ATOM     63  C   UNL A   1      39.788  28.592  28.956  1.00  0.00     0.064 A 
ATOM     64  C   UNL A   1      39.302  28.398  30.257  1.00  0.00     0.173 A 
ATOM     65  C   UNL A   1      38.910  29.122  27.997  1.00  0.00     0.173 A 
ATOM     66  F   UNL A   1      40.099  27.885  31.206  1.00  0.00    -0.203 F 
ATOM     67  C   UNL A   1      37.986  28.714  30.583  1.00  0.00     0.198 A 
ATOM     68  C   UNL A   1      37.603  29.460  28.334  1.00  0.00     0.198 A 
ATOM     69  F   UNL A   1      39.328  29.330  26.740  1.00  0.00    -0.203 F 
ATOM     70  F   UNL A   1      37.534  28.494  31.826  1.00  0.00    -0.200 F 
ATOM     71  C   UNL A   1      37.140  29.254  29.625  1.00  0.00     0.200 A 
ATOM     72  F   UNL A   1      36.790  29.993  27.410  1.00  0.00    -0.200 F 
ATOM     73  F   UNL A   1      35.879  29.575  29.945  1.00  0.00    -0.200 F 
ENDBRANCH  49  63
BRANCH  50  74
ATOM     74  C   UNL A   1      49.121  26.641  26.016  1.00  0.00     0.064 A 
ATOM     75  C   UNL A   1      50.120  26.154  26.870  1.00  0.00     0.173 A 
ATOM     76  C   UNL A   1      49.475  26.914  24.687  1.00  0.00     0.173 A 
ATOM     77  F   UNL A   1      49.836  25.898  28.155  1.00  0.00    -0.203 F 
ATOM     78  C   UNL A   1      51.429  25.983  26.423  1.00  0.00     0.198 A 
ATOM     79  C   UNL A   1      50.777  26.713  24.232  1.00  0.00     0.198 A 
ATOM     80  F   UNL A   1      48.555  27.376  23.827  1.00  0.00    -0.203 F 
ATOM     81  F   UNL A   1      52.378  25.572  27.277  1.00  0.00    -0.200 F 
ATOM     82  C   UNL A   1      51.756  26.259  25.105  1.00  0.00     0.200 A 
ATOM     83  F   UNL A   1      51.086  26.969  22.954  1.00  0.00    -0.200 F 
ATOM     84  F   UNL A   1      53.016  26.100  24.676  1.00  0.00    -0.200 F 
ENDBRANCH  50  74
BRANCH  62  85
ATOM     85  C   UNL A   1      45.902  32.335  28.392  1.00  0.00     0.064 A 
ATOM     86  C   UNL A   1      45.789  33.320  27.400  1.00  0.00     0.173 A 
ATOM     87  C   UNL A   1      46.431  32.711  29.636  1.00  0.00     0.173 A 
ATOM     88  F   UNL A   1      45.304  33.004  26.189  1.00  0.00    -0.203 F 
ATOM     89  C   UNL A   1      46.211  34.624  27.637  1.00  0.00     0.198 A 
ATOM     90  C   UNL A   1      46.825  34.024  29.879  1.00  0.00     0.198 A 
ATOM     91  F   UNL A   1      46.553  31.808  30.620  1.00  0.00    -0.203 F 
ATOM     92  F   UNL A   1      46.137  35.539  26.659  1.00  0.00    -0.200 F 
ATOM     93  C   UNL A   1      46.721  34.977  28.878  1.00  0.00     0.200 A 
ATOM     94  F   UNL A   1      47.305  34.366  31.083  1.00  0.00    -0.200 F 
ATOM     95  F   UNL A   1      47.120  36.235  29.106  1.00  0.00    -0.200 F 
ENDBRANCH  62  85
ENDBRANCH  36  37
ENDBRANCH  28  31
ENDBRANCH  26  27
ENDBRANCH  25  26
ENDBRANCH  24  25
ENDBRANCH  23  24
ENDBRANCH   3  23
TORSDOF 18
ENDMDL
MODEL 3
REMARK VINA RESULT:     -10.8      0.989      7.340
REMARK SMILES CC(C)[C@@H]1SC[C@@H](C(=O)NCCCCNC(=O)c2ccc(-c3c4nc(c(-c5c(F)c(F)c(F)c(F)c5F)c5ccc([nH]5)c(-c5c(F)c(F)c(F)c(F)c5F)c5nc(c(-c6c(F)c(F)c(F)c(F)c6F)c6ccc3[nH]6)C=C5)C=C4)cc2)N1C(=O)COCC[NH3+]
REMARK SMILES IDX 8 1 9 2 10 3 7 5 4 6 5 7 81 8 6 9 2 10 1 11 3 12 82 13 83 14
REMARK SMILES IDX 84 15 85 16 86 17 87 18 88 19 11 23 12 24 13 25 14 26 15 27
REMARK SMILES IDX 16 28 17 30 18 31 19 32 80 33 20 34 79 35 21 36 22 37 23 38
REMARK SMILES IDX 73 39 24 40 78 41 72 42 74 43 25 44 77 45 71 46 70 47 26 49
REMARK SMILES IDX 58 50 38 51 57 52 39 53 42 54 56 55 75 56 40 57 41 58 55 60
REMARK SMILES IDX 76 61 43 62 27 63 28 64 36 65 29 66 30 67 34 68 37 69 31 70
REMARK SMILES IDX 32 71 35 72 33 73 59 74 60 75 68 76 61 77 62 78 66 79 69 80
REMARK SMILES IDX 63 81 64 82 67 83 65 84 44 85 45 86 53 87 46 88 47 89 51 90
REMARK SMILES IDX 54 91 48 92 49 93 52 94 50 95
REMARK H PARENT 10 4 88 20 88 21 88 22 15 29 74 48 42 59
REMARK Flexibility Score: inf
ROOT
ATOM      1  C   UNL A   1      33.368  28.501  24.424  1.00  0.00     0.243 C 
ATOM      2  O   UNL A   1      34.276  28.479  23.584  1.00  0.00    -0.273 OA
ATOM      3  N   UNL A   1      32.872  29.737  24.715  1.00  0.00    -0.354 N 
ATOM      4  H   UNL A   1      33.458  30.481  24.447  1.00  0.00     0.163 HD
ENDROOT
BRANCH   1   5
ATOM      5  C   UNL A   1      32.771  27.174  24.967  1.00  0.00     0.185 C 
ATOM      6  C   UNL A   1      32.785  25.084  23.650  1.00  0.00     0.146 C 
ATOM      7  S   UNL A   1      33.582  24.660  25.255  1.00  0.00    -0.134 SA
ATOM      8  N   UNL A   1      32.056  26.324  23.973  1.00  0.00    -0.316 N 
ATOM      9  C   UNL A   1      33.805  26.378  25.752  1.00  0.00     0.107 C 
BRANCH   6  10
ATOM     10  C   UNL A   1      32.189  23.846  22.929  1.00  0.00     0.016 C 
ATOM     11  C   UNL A   1      33.238  23.118  22.068  1.00  0.00     0.010 C 
ATOM     12  C   UNL A   1      31.676  22.776  23.920  1.00  0.00     0.010 C 
ENDBRANCH   6  10
BRANCH   8  13
ATOM     13  C   UNL A   1      30.798  26.806  23.650  1.00  0.00     0.250 C 
ATOM     14  O   UNL A   1      29.800  26.364  24.238  1.00  0.00    -0.272 OA
BRANCH  13  15
ATOM     15  C   UNL A   1      30.535  27.879  22.591  1.00  0.00     0.260 C 
BRANCH  15  16
ATOM     16  O   UNL A   1      29.549  28.867  22.825  1.00  0.00    -0.366 OA
BRANCH  16  17
ATOM     17  C   UNL A   1      29.345  29.807  21.767  1.00  0.00     0.222 C 
BRANCH  17  18
ATOM     18  C   UNL A   1      28.129  30.704  22.023  1.00  0.00     0.287 C 
BRANCH  18  19
ATOM     19  N   UNL A   1      27.637  30.608  23.395  1.00  0.00    -0.356 N 
ATOM     20  H   UNL A   1      28.426  30.622  24.040  1.00  0.00     0.344 HD
ATOM     21  H   UNL A   1      27.119  29.737  23.509  1.00  0.00     0.344 HD
ATOM     22  H   UNL A   1      27.022  31.397  23.591  1.00  0.00     0.344 HD
ENDBRANCH  18  19
ENDBRANCH  17  18
ENDBRANCH  16  17
ENDBRANCH  15  16
ENDBRANCH  13  15
ENDBRANCH   8  13
ENDBRANCH   1   5
BRANCH   3  23
ATOM     23  C   UNL A   1      31.640  30.152  25.347  1.00  0.00     0.116 C 
BRANCH  23  24
ATOM     24  C   UNL A   1      31.863  30.740  26.737  1.00  0.00     0.023 C 
BRANCH  24  25
ATOM     25  C   UNL A   1      31.602  32.240  26.851  1.00  0.00     0.023 C 
BRANCH  25  26
ATOM     26  C   UNL A   1      32.787  33.072  27.329  1.00  0.00     0.116 C 
BRANCH  26  27
ATOM     27  N   UNL A   1      32.431  34.415  27.762  1.00  0.00    -0.352 N 
ATOM     28  C   UNL A   1      33.010  35.173  28.758  1.00  0.00     0.251 C 
ATOM     29  H   UNL A   1      31.682  34.836  27.283  1.00  0.00     0.163 HD
ATOM     30  O   UNL A   1      32.546  36.260  29.065  1.00  0.00    -0.269 OA
BRANCH  28  31
ATOM     31  C   UNL A   1      34.173  34.625  29.486  1.00  0.00     0.039 A 
ATOM     32  C   UNL A   1      33.962  34.005  30.720  1.00  0.00     0.014 A 
ATOM     33  C   UNL A   1      35.452  34.671  28.925  1.00  0.00     0.014 A 
ATOM     34  C   UNL A   1      35.021  33.352  31.352  1.00  0.00     0.010 A 
ATOM     35  C   UNL A   1      36.490  33.965  29.524  1.00  0.00     0.010 A 
ATOM     36  C   UNL A   1      36.282  33.289  30.736  1.00  0.00    -0.014 A 
BRANCH  36  37
ATOM     37  C   UNL A   1      37.388  32.494  31.327  1.00  0.00     0.031 A 
ATOM     38  C   UNL A   1      37.923  32.840  32.688  1.00  0.00     0.074 A 
ATOM     39  C   UNL A   1      37.966  31.520  30.597  1.00  0.00     0.049 A 
ATOM     40  N   UNL A   1      38.935  32.320  33.334  1.00  0.00    -0.248 NA
ATOM     41  C   UNL A   1      37.251  33.933  33.407  1.00  0.00     0.031 C 
ATOM     42  C   UNL A   1      37.577  31.134  29.239  1.00  0.00     0.029 A 
ATOM     43  N   UNL A   1      39.018  30.685  30.888  1.00  0.00    -0.354 N 
ATOM     44  C   UNL A   1      39.036  33.036  34.518  1.00  0.00     0.074 A 
ATOM     45  C   UNL A   1      38.006  34.052  34.490  1.00  0.00     0.031 C 
ATOM     46  C   UNL A   1      38.372  30.135  28.819  1.00  0.00     0.029 A 
ATOM     47  C   UNL A   1      39.346  29.831  29.863  1.00  0.00     0.049 A 
ATOM     48  H   UNL A   1      39.493  30.700  31.751  1.00  0.00     0.167 HD
ATOM     49  C   UNL A   1      39.899  32.849  35.543  1.00  0.00     0.037 A 
ATOM     50  C   UNL A   1      40.329  28.916  29.771  1.00  0.00     0.037 A 
ATOM     51  C   UNL A   1      40.888  31.805  35.591  1.00  0.00     0.049 A 
ATOM     52  C   UNL A   1      41.256  28.717  30.940  1.00  0.00     0.074 A 
ATOM     53  C   UNL A   1      41.734  31.467  36.632  1.00  0.00     0.029 A 
ATOM     54  N   UNL A   1      41.165  30.933  34.549  1.00  0.00    -0.354 N 
ATOM     55  N   UNL A   1      41.274  29.332  32.097  1.00  0.00    -0.248 NA
ATOM     56  C   UNL A   1      42.298  27.690  30.793  1.00  0.00     0.031 C 
ATOM     57  C   UNL A   1      42.555  30.419  36.205  1.00  0.00     0.029 A 
ATOM     58  C   UNL A   1      42.190  30.075  34.914  1.00  0.00     0.049 A 
ATOM     59  H   UNL A   1      40.702  30.923  33.680  1.00  0.00     0.167 HD
ATOM     60  C   UNL A   1      42.304  28.751  32.823  1.00  0.00     0.074 A 
ATOM     61  C   UNL A   1      42.878  27.720  31.984  1.00  0.00     0.031 C 
ATOM     62  C   UNL A   1      42.740  29.046  34.071  1.00  0.00     0.037 A 
BRANCH  49  63
ATOM     63  C   UNL A   1      39.815  33.781  36.715  1.00  0.00     0.064 A 
ATOM     64  C   UNL A   1      40.498  35.006  36.730  1.00  0.00     0.173 A 
ATOM     65  C   UNL A   1      38.976  33.481  37.799  1.00  0.00     0.173 A 
ATOM     66  F   UNL A   1      41.320  35.333  35.722  1.00  0.00    -0.203 F 
ATOM     67  C   UNL A   1      40.354  35.892  37.795  1.00  0.00     0.198 A 
ATOM     68  C   UNL A   1      38.815  34.381  38.849  1.00  0.00     0.198 A 
ATOM     69  F   UNL A   1      38.298  32.325  37.829  1.00  0.00    -0.203 F 
ATOM     70  F   UNL A   1      41.039  37.044  37.802  1.00  0.00    -0.200 F 
ATOM     71  C   UNL A   1      39.505  35.584  38.847  1.00  0.00     0.200 A 
ATOM     72  F   UNL A   1      37.985  34.088  39.860  1.00  0.00    -0.200 F 
ATOM     73  F   UNL A   1      39.353  36.446  39.862  1.00  0.00    -0.200 F 
ENDBRANCH  49  63
BRANCH  50  74
ATOM     74  C   UNL A   1      40.492  28.109  28.534  1.00  0.00     0.064 A 
ATOM     75  C   UNL A   1      39.871  26.859  28.402  1.00  0.00     0.173 A 
ATOM     76  C   UNL A   1      41.300  28.550  27.475  1.00  0.00     0.173 A 
ATOM     77  F   UNL A   1      39.106  26.384  29.396  1.00  0.00    -0.203 F 
ATOM     78  C   UNL A   1      40.079  26.066  27.275  1.00  0.00     0.198 A 
ATOM     79  C   UNL A   1      41.483  27.769  26.335  1.00  0.00     0.198 A 
ATOM     80  F   UNL A   1      41.912  29.740  27.548  1.00  0.00    -0.203 F 
ATOM     81  F   UNL A   1      39.520  24.849  27.203  1.00  0.00    -0.200 F 
ATOM     82  C   UNL A   1      40.881  26.523  26.242  1.00  0.00     0.200 A 
ATOM     83  F   UNL A   1      42.248  28.220  25.333  1.00  0.00    -0.200 F 
ATOM     84  F   UNL A   1      41.086  25.758  25.160  1.00  0.00    -0.200 F 
ENDBRANCH  50  74
BRANCH  62  85
ATOM     85  C   UNL A   1      43.869  28.225  34.618  1.00  0.00     0.064 A 
ATOM     86  C   UNL A   1      43.637  27.031  35.316  1.00  0.00     0.173 A 
ATOM     87  C   UNL A   1      45.200  28.615  34.403  1.00  0.00     0.173 A 
ATOM     88  F   UNL A   1      42.381  26.625  35.559  1.00  0.00    -0.203 F 
ATOM     89  C   UNL A   1      44.696  26.270  35.801  1.00  0.00     0.198 A 
ATOM     90  C   UNL A   1      46.257  27.835  34.865  1.00  0.00     0.198 A 
ATOM     91  F   UNL A   1      45.474  29.745  33.735  1.00  0.00    -0.203 F 
ATOM     92  F   UNL A   1      44.451  25.156  36.505  1.00  0.00    -0.200 F 
ATOM     93  C   UNL A   1      46.004  26.668  35.568  1.00  0.00     0.200 A 
ATOM     94  F   UNL A   1      47.520  28.215  34.627  1.00  0.00    -0.200 F 
ATOM     95  F   UNL A   1      47.022  25.930  36.029  1.00  0.00    -0.200 F 
ENDBRANCH  62  85
ENDBRANCH  36  37
ENDBRANCH  28  31
ENDBRANCH  26  27
ENDBRANCH  25  26
ENDBRANCH  24  25
ENDBRANCH  23  24
ENDBRANCH   3  23
TORSDOF 18
ENDMDL
