MODEL 1
REMARK VINA RESULT:     -12.3      0.000      0.000
REMARK SMILES CC(C)(C)OC(=O)[C@@H]1CCCC[C@H]1C(=O)NCCCCNC(=O)c1ccc(-c2c3nc(c(-c4c(F)c(F)c(F)c(F)c4F)c4ccc([nH]4)c(-c4c(F)c(F)c(F)c(F)c4F)c4nc(c(-c5c(F)c(F)c(F)c(F)c5F)c5ccc2[nH]5)C=C4)C=C3)cc1
REMARK SMILES IDX 18 1 17 2 16 3 14 4 15 5 13 7 8 8 9 9 10 10 12 11 11 12 6 13
REMARK SMILES IDX 7 14 5 15 2 16 1 17 3 18 4 19 19 20 20 21 21 22 22 23 23 25
REMARK SMILES IDX 24 26 25 27 86 28 26 29 85 30 27 31 28 32 29 33 79 34 30 35
REMARK SMILES IDX 84 36 78 37 80 38 31 39 83 40 77 41 76 42 32 44 64 45 44 46
REMARK SMILES IDX 63 47 45 48 48 49 62 50 81 51 46 52 47 53 61 55 82 56 49 57
REMARK SMILES IDX 33 58 34 59 42 60 35 61 36 62 40 63 43 64 37 65 38 66 41 67
REMARK SMILES IDX 39 68 65 69 66 70 74 71 67 72 68 73 72 74 75 75 69 76 70 77
REMARK SMILES IDX 73 78 71 79 50 80 51 81 59 82 52 83 53 84 57 85 60 86 54 87
REMARK SMILES IDX 55 88 58 89 56 90
REMARK H PARENT 16 6 21 24 80 43 48 54
REMARK Flexibility Score: inf
ROOT
ATOM      1  C   UNL A   1      31.463  30.809  26.491  1.00  0.00     0.023 C 
ENDROOT
BRANCH   1   2
ATOM      2  C   UNL A   1      32.852  30.183  26.609  1.00  0.00     0.116 C 
BRANCH   2   3
ATOM      3  N   UNL A   1      33.338  29.691  25.334  1.00  0.00    -0.356 N 
ATOM      4  C   UNL A   1      32.775  28.851  24.423  1.00  0.00     0.223 C 
ATOM      5  O   UNL A   1      33.398  28.640  23.378  1.00  0.00    -0.275 OA
ATOM      6  H   UNL A   1      34.229  30.023  25.083  1.00  0.00     0.163 HD
BRANCH   4   7
ATOM      7  C   UNL A   1      31.388  28.244  24.626  1.00  0.00     0.092 C 
ATOM      8  C   UNL A   1      30.595  28.058  23.318  1.00  0.00     0.111 C 
ATOM      9  C   UNL A   1      29.314  27.243  23.547  1.00  0.00     0.016 C 
ATOM     10  C   UNL A   1      29.627  25.915  24.223  1.00  0.00     0.001 C 
ATOM     11  C   UNL A   1      31.518  26.985  25.505  1.00  0.00     0.014 C 
ATOM     12  C   UNL A   1      30.245  26.154  25.593  1.00  0.00     0.001 C 
BRANCH   8  13
ATOM     13  C   UNL A   1      30.356  29.407  22.643  1.00  0.00     0.310 C 
ATOM     14  O   UNL A   1      30.829  29.688  21.550  1.00  0.00    -0.252 OA
BRANCH  13  15
ATOM     15  O   UNL A   1      29.536  30.207  23.367  1.00  0.00    -0.460 OA
BRANCH  15  16
ATOM     16  C   UNL A   1      28.457  30.941  22.728  1.00  0.00     0.104 C 
ATOM     17  C   UNL A   1      27.421  31.155  23.842  1.00  0.00     0.056 C 
ATOM     18  C   UNL A   1      27.803  30.120  21.609  1.00  0.00     0.056 C 
ATOM     19  C   UNL A   1      28.936  32.308  22.230  1.00  0.00     0.056 C 
ENDBRANCH  15  16
ENDBRANCH  13  15
ENDBRANCH   8  13
ENDBRANCH   4   7
ENDBRANCH   2   3
ENDBRANCH   1   2
BRANCH   1  20
ATOM     20  C   UNL A   1      31.446  32.335  26.555  1.00  0.00     0.023 C 
BRANCH  20  21
ATOM     21  C   UNL A   1      32.608  32.962  27.315  1.00  0.00     0.116 C 
BRANCH  21  22
ATOM     22  N   UNL A   1      32.361  34.342  27.706  1.00  0.00    -0.352 N 
ATOM     23  C   UNL A   1      32.996  35.090  28.669  1.00  0.00     0.251 C 
ATOM     24  H   UNL A   1      31.642  34.802  27.217  1.00  0.00     0.163 HD
ATOM     25  O   UNL A   1      32.591  36.211  28.956  1.00  0.00    -0.269 OA
BRANCH  23  26
ATOM     26  C   UNL A   1      34.152  34.513  29.383  1.00  0.00     0.039 A 
ATOM     27  C   UNL A   1      33.933  33.839  30.587  1.00  0.00     0.014 A 
ATOM     28  C   UNL A   1      35.437  34.600  28.842  1.00  0.00     0.014 A 
ATOM     29  C   UNL A   1      34.996  33.185  31.211  1.00  0.00     0.010 A 
ATOM     30  C   UNL A   1      36.478  33.886  29.426  1.00  0.00     0.010 A 
ATOM     31  C   UNL A   1      36.266  33.170  30.614  1.00  0.00    -0.014 A 
BRANCH  31  32
ATOM     32  C   UNL A   1      37.389  32.404  31.211  1.00  0.00     0.031 A 
ATOM     33  C   UNL A   1      37.898  32.761  32.579  1.00  0.00     0.074 A 
ATOM     34  C   UNL A   1      37.998  31.442  30.492  1.00  0.00     0.049 A 
ATOM     35  N   UNL A   1      38.917  32.270  33.239  1.00  0.00    -0.248 NA
ATOM     36  C   UNL A   1      37.184  33.834  33.289  1.00  0.00     0.031 C 
ATOM     37  C   UNL A   1      37.629  31.040  29.134  1.00  0.00     0.029 A 
ATOM     38  N   UNL A   1      39.065  30.635  30.798  1.00  0.00    -0.354 N 
ATOM     39  C   UNL A   1      38.977  32.984  34.427  1.00  0.00     0.074 A 
ATOM     40  C   UNL A   1      37.925  33.977  34.379  1.00  0.00     0.031 C 
ATOM     41  C   UNL A   1      38.441  30.050  28.732  1.00  0.00     0.029 A 
ATOM     42  C   UNL A   1      39.412  29.773  29.786  1.00  0.00     0.049 A 
ATOM     43  H   UNL A   1      39.537  30.671  31.661  1.00  0.00     0.167 HD
ATOM     44  C   UNL A   1      39.817  32.811  35.475  1.00  0.00     0.037 A 
ATOM     45  C   UNL A   1      40.405  28.868  29.716  1.00  0.00     0.037 A 
ATOM     46  C   UNL A   1      40.843  31.803  35.530  1.00  0.00     0.049 A 
ATOM     47  C   UNL A   1      41.325  28.696  30.894  1.00  0.00     0.074 A 
ATOM     48  C   UNL A   1      41.701  31.503  36.572  1.00  0.00     0.029 A 
ATOM     49  N   UNL A   1      41.149  30.932  34.494  1.00  0.00    -0.354 N 
ATOM     50  N   UNL A   1      41.326  29.326  32.044  1.00  0.00    -0.248 NA
ATOM     51  C   UNL A   1      42.382  27.681  30.766  1.00  0.00     0.031 C 
ATOM     52  C   UNL A   1      42.557  30.479  36.153  1.00  0.00     0.029 A 
ATOM     53  C   UNL A   1      42.199  30.107  34.866  1.00  0.00     0.049 A 
ATOM     54  H   UNL A   1      40.689  30.904  33.625  1.00  0.00     0.167 HD
ATOM     55  C   UNL A   1      42.358  28.767  32.786  1.00  0.00     0.074 A 
ATOM     56  C   UNL A   1      42.954  27.736  31.961  1.00  0.00     0.031 C 
ATOM     57  C   UNL A   1      42.774  29.079  34.038  1.00  0.00     0.037 A 
BRANCH  44  58
ATOM     58  C   UNL A   1      39.660  33.732  36.650  1.00  0.00     0.064 A 
ATOM     59  C   UNL A   1      40.281  34.990  36.686  1.00  0.00     0.173 A 
ATOM     60  C   UNL A   1      38.852  33.368  37.737  1.00  0.00     0.173 A 
ATOM     61  F   UNL A   1      41.075  35.381  35.677  1.00  0.00    -0.203 F 
ATOM     62  C   UNL A   1      40.122  35.836  37.780  1.00  0.00     0.198 A 
ATOM     63  C   UNL A   1      38.670  34.230  38.815  1.00  0.00     0.198 A 
ATOM     64  F   UNL A   1      38.231  32.180  37.750  1.00  0.00    -0.203 F 
ATOM     65  F   UNL A   1      40.766  37.011  37.815  1.00  0.00    -0.200 F 
ATOM     66  C   UNL A   1      39.311  35.459  38.839  1.00  0.00     0.200 A 
ATOM     67  F   UNL A   1      37.875  33.870  39.832  1.00  0.00    -0.200 F 
ATOM     68  F   UNL A   1      39.152  36.278  39.888  1.00  0.00    -0.200 F 
ENDBRANCH  44  58
BRANCH  45  69
ATOM     69  C   UNL A   1      40.568  28.034  28.496  1.00  0.00     0.064 A 
ATOM     70  C   UNL A   1      39.961  26.774  28.403  1.00  0.00     0.173 A 
ATOM     71  C   UNL A   1      41.332  28.472  27.406  1.00  0.00     0.173 A 
ATOM     72  F   UNL A   1      39.236  26.302  29.428  1.00  0.00    -0.203 F 
ATOM     73  C   UNL A   1      40.130  25.975  27.274  1.00  0.00     0.198 A 
ATOM     74  C   UNL A   1      41.478  27.685  26.266  1.00  0.00     0.198 A 
ATOM     75  F   UNL A   1      41.930  29.673  27.444  1.00  0.00    -0.203 F 
ATOM     76  F   UNL A   1      39.577  24.755  27.230  1.00  0.00    -0.200 F 
ATOM     77  C   UNL A   1      40.885  26.433  26.204  1.00  0.00     0.200 A 
ATOM     78  F   UNL A   1      42.197  28.137  25.229  1.00  0.00    -0.200 F 
ATOM     79  F   UNL A   1      41.045  25.666  25.118  1.00  0.00    -0.200 F 
ENDBRANCH  45  69
BRANCH  57  80
ATOM     80  C   UNL A   1      43.904  28.273  34.608  1.00  0.00     0.064 A 
ATOM     81  C   UNL A   1      45.234  28.706  34.523  1.00  0.00     0.173 A 
ATOM     82  C   UNL A   1      43.644  27.073  35.289  1.00  0.00     0.173 A 
ATOM     83  F   UNL A   1      45.535  29.839  33.870  1.00  0.00    -0.203 F 
ATOM     84  C   UNL A   1      46.267  27.955  35.078  1.00  0.00     0.198 A 
ATOM     85  C   UNL A   1      44.676  26.341  35.868  1.00  0.00     0.198 A 
ATOM     86  F   UNL A   1      42.387  26.619  35.404  1.00  0.00    -0.203 F 
ATOM     87  F   UNL A   1      47.536  28.364  34.944  1.00  0.00    -0.200 F 
ATOM     88  C   UNL A   1      45.987  26.778  35.757  1.00  0.00     0.200 A 
ATOM     89  F   UNL A   1      44.401  25.212  36.535  1.00  0.00    -0.200 F 
ATOM     90  F   UNL A   1      46.982  26.062  36.297  1.00  0.00    -0.200 F 
ENDBRANCH  57  80
ENDBRANCH  31  32
ENDBRANCH  23  26
ENDBRANCH  21  22
ENDBRANCH  20  21
ENDBRANCH   1  20
TORSDOF 14
ENDMDL
MODEL 2
REMARK VINA RESULT:     -12.3      0.517      7.365
REMARK SMILES CC(C)(C)OC(=O)[C@@H]1CCCC[C@H]1C(=O)NCCCCNC(=O)c1ccc(-c2c3nc(c(-c4c(F)c(F)c(F)c(F)c4F)c4ccc([nH]4)c(-c4c(F)c(F)c(F)c(F)c4F)c4nc(c(-c5c(F)c(F)c(F)c(F)c5F)c5ccc2[nH]5)C=C4)C=C3)cc1
REMARK SMILES IDX 18 1 17 2 16 3 14 4 15 5 13 7 8 8 9 9 10 10 12 11 11 12 6 13
REMARK SMILES IDX 7 14 5 15 2 16 1 17 3 18 4 19 19 20 20 21 21 22 22 23 23 25
REMARK SMILES IDX 24 26 25 27 86 28 26 29 85 30 27 31 28 32 29 33 79 34 30 35
REMARK SMILES IDX 84 36 78 37 80 38 31 39 83 40 77 41 76 42 32 44 64 45 44 46
REMARK SMILES IDX 63 47 45 48 48 49 62 50 81 51 46 52 47 53 61 55 82 56 49 57
REMARK SMILES IDX 33 58 34 59 42 60 35 61 36 62 40 63 43 64 37 65 38 66 41 67
REMARK SMILES IDX 39 68 65 69 66 70 74 71 67 72 68 73 72 74 75 75 69 76 70 77
REMARK SMILES IDX 73 78 71 79 50 80 51 81 59 82 52 83 53 84 57 85 60 86 54 87
REMARK SMILES IDX 55 88 58 89 56 90
REMARK H PARENT 16 6 21 24 80 43 48 54
REMARK Flexibility Score: inf
ROOT
ATOM      1  C   UNL A   1      31.714  30.887  25.977  1.00  0.00     0.023 C 
ENDROOT
BRANCH   1   2
ATOM      2  C   UNL A   1      32.946  30.012  26.200  1.00  0.00     0.116 C 
BRANCH   2   3
ATOM      3  N   UNL A   1      33.363  29.337  24.986  1.00  0.00    -0.356 N 
ATOM      4  C   UNL A   1      32.709  28.461  24.175  1.00  0.00     0.223 C 
ATOM      5  O   UNL A   1      33.293  28.076  23.159  1.00  0.00    -0.275 OA
ATOM      6  H   UNL A   1      34.279  29.552  24.696  1.00  0.00     0.163 HD
BRANCH   4   7
ATOM      7  C   UNL A   1      31.273  28.018  24.451  1.00  0.00     0.092 C 
ATOM      8  C   UNL A   1      30.375  28.011  23.199  1.00  0.00     0.111 C 
ATOM      9  C   UNL A   1      29.019  27.348  23.481  1.00  0.00     0.016 C 
ATOM     10  C   UNL A   1      29.207  25.952  24.062  1.00  0.00     0.001 C 
ATOM     11  C   UNL A   1      31.301  26.701  25.251  1.00  0.00     0.014 C 
ATOM     12  C   UNL A   1      29.943  26.029  25.392  1.00  0.00     0.001 C 
BRANCH   8  13
ATOM     13  C   UNL A   1      30.264  29.418  22.615  1.00  0.00     0.310 C 
ATOM     14  O   UNL A   1      30.805  29.739  21.566  1.00  0.00    -0.252 OA
BRANCH  13  15
ATOM     15  O   UNL A   1      29.470  30.224  23.361  1.00  0.00    -0.460 OA
BRANCH  15  16
ATOM     16  C   UNL A   1      28.448  31.047  22.738  1.00  0.00     0.104 C 
ATOM     17  C   UNL A   1      27.329  31.135  23.786  1.00  0.00     0.056 C 
ATOM     18  C   UNL A   1      27.880  30.381  21.478  1.00  0.00     0.056 C 
ATOM     19  C   UNL A   1      28.971  32.458  22.454  1.00  0.00     0.056 C 
ENDBRANCH  15  16
ENDBRANCH  13  15
ENDBRANCH   8  13
ENDBRANCH   4   7
ENDBRANCH   2   3
ENDBRANCH   1   2
BRANCH   1  20
ATOM     20  C   UNL A   1      31.500  31.965  27.037  1.00  0.00     0.023 C 
BRANCH  20  21
ATOM     21  C   UNL A   1      32.723  32.816  27.349  1.00  0.00     0.116 C 
BRANCH  21  22
ATOM     22  N   UNL A   1      32.398  34.203  27.648  1.00  0.00    -0.352 N 
ATOM     23  C   UNL A   1      32.978  35.044  28.568  1.00  0.00     0.251 C 
ATOM     24  H   UNL A   1      31.663  34.592  27.122  1.00  0.00     0.163 HD
ATOM     25  O   UNL A   1      32.510  36.158  28.778  1.00  0.00    -0.269 OA
BRANCH  23  26
ATOM     26  C   UNL A   1      34.152  34.577  29.331  1.00  0.00     0.039 A 
ATOM     27  C   UNL A   1      33.957  34.029  30.600  1.00  0.00     0.014 A 
ATOM     28  C   UNL A   1      35.432  34.640  28.775  1.00  0.00     0.014 A 
ATOM     29  C   UNL A   1      35.039  33.472  31.283  1.00  0.00     0.010 A 
ATOM     30  C   UNL A   1      36.495  34.020  29.424  1.00  0.00     0.010 A 
ATOM     31  C   UNL A   1      36.307  33.428  30.682  1.00  0.00    -0.014 A 
BRANCH  31  32
ATOM     32  C   UNL A   1      37.453  32.761  31.349  1.00  0.00     0.031 A 
ATOM     33  C   UNL A   1      38.145  31.608  30.679  1.00  0.00     0.074 A 
ATOM     34  C   UNL A   1      37.819  33.142  32.588  1.00  0.00     0.049 A 
ATOM     35  N   UNL A   1      39.107  30.843  31.129  1.00  0.00    -0.248 NA
ATOM     36  C   UNL A   1      37.673  31.248  29.332  1.00  0.00     0.031 C 
ATOM     37  C   UNL A   1      37.190  34.213  33.364  1.00  0.00     0.029 A 
ATOM     38  N   UNL A   1      38.800  32.663  33.420  1.00  0.00    -0.354 N 
ATOM     39  C   UNL A   1      39.341  29.905  30.134  1.00  0.00     0.074 A 
ATOM     40  C   UNL A   1      38.387  30.162  29.076  1.00  0.00     0.031 C 
ATOM     41  C   UNL A   1      37.813  34.323  34.547  1.00  0.00     0.029 A 
ATOM     42  C   UNL A   1      38.859  33.308  34.631  1.00  0.00     0.049 A 
ATOM     43  H   UNL A   1      39.404  31.927  33.171  1.00  0.00     0.167 HD
ATOM     44  C   UNL A   1      40.282  28.932  30.095  1.00  0.00     0.037 A 
ATOM     45  C   UNL A   1      39.661  33.098  35.691  1.00  0.00     0.037 A 
ATOM     46  C   UNL A   1      41.248  28.699  31.137  1.00  0.00     0.049 A 
ATOM     47  C   UNL A   1      40.698  32.010  35.622  1.00  0.00     0.074 A 
ATOM     48  C   UNL A   1      42.284  27.784  31.163  1.00  0.00     0.029 A 
ATOM     49  N   UNL A   1      41.291  29.389  32.340  1.00  0.00    -0.354 N 
ATOM     50  N   UNL A   1      40.960  31.177  34.644  1.00  0.00    -0.248 NA
ATOM     51  C   UNL A   1      41.557  31.838  36.803  1.00  0.00     0.031 C 
ATOM     52  C   UNL A   1      42.929  27.887  32.399  1.00  0.00     0.029 A 
ATOM     53  C   UNL A   1      42.325  28.903  33.125  1.00  0.00     0.049 A 
ATOM     54  H   UNL A   1      40.680  30.114  32.598  1.00  0.00     0.167 HD
ATOM     55  C   UNL A   1      42.028  30.402  35.078  1.00  0.00     0.074 A 
ATOM     56  C   UNL A   1      42.376  30.875  36.402  1.00  0.00     0.031 C 
ATOM     57  C   UNL A   1      42.664  29.391  34.437  1.00  0.00     0.037 A 
BRANCH  44  58
ATOM     58  C   UNL A   1      40.316  28.047  28.883  1.00  0.00     0.064 A 
ATOM     59  C   UNL A   1      41.052  28.393  27.739  1.00  0.00     0.173 A 
ATOM     60  C   UNL A   1      39.633  26.821  28.877  1.00  0.00     0.173 A 
ATOM     61  F   UNL A   1      41.712  29.561  27.689  1.00  0.00    -0.203 F 
ATOM     62  C   UNL A   1      41.078  27.561  26.625  1.00  0.00     0.198 A 
ATOM     63  C   UNL A   1      39.688  25.976  27.772  1.00  0.00     0.198 A 
ATOM     64  F   UNL A   1      38.919  26.439  29.946  1.00  0.00    -0.203 F 
ATOM     65  F   UNL A   1      41.747  27.937  25.526  1.00  0.00    -0.200 F 
ATOM     66  C   UNL A   1      40.403  26.350  26.644  1.00  0.00     0.200 A 
ATOM     67  F   UNL A   1      39.046  24.800  27.797  1.00  0.00    -0.200 F 
ATOM     68  F   UNL A   1      40.436  25.545  25.573  1.00  0.00    -0.200 F 
ENDBRANCH  44  58
BRANCH  45  69
ATOM     69  C   UNL A   1      39.535  33.952  36.901  1.00  0.00     0.064 A 
ATOM     70  C   UNL A   1      38.767  33.533  37.997  1.00  0.00     0.173 A 
ATOM     71  C   UNL A   1      40.167  35.200  36.986  1.00  0.00     0.173 A 
ATOM     72  F   UNL A   1      38.126  32.356  37.955  1.00  0.00    -0.203 F 
ATOM     73  C   UNL A   1      38.621  34.340  39.124  1.00  0.00     0.198 A 
ATOM     74  C   UNL A   1      40.044  35.994  38.125  1.00  0.00     0.198 A 
ATOM     75  F   UNL A   1      40.917  35.644  35.966  1.00  0.00    -0.203 F 
ATOM     76  F   UNL A   1      37.845  33.935  40.139  1.00  0.00    -0.200 F 
ATOM     77  C   UNL A   1      39.264  35.567  39.189  1.00  0.00     0.200 A 
ATOM     78  F   UNL A   1      40.677  37.173  38.189  1.00  0.00    -0.200 F 
ATOM     79  F   UNL A   1      39.126  36.341  40.274  1.00  0.00    -0.200 F 
ENDBRANCH  45  69
BRANCH  57  80
ATOM     80  C   UNL A   1      43.825  28.752  35.141  1.00  0.00     0.064 A 
ATOM     81  C   UNL A   1      45.132  29.235  34.995  1.00  0.00     0.173 A 
ATOM     82  C   UNL A   1      43.616  27.668  36.009  1.00  0.00     0.173 A 
ATOM     83  F   UNL A   1      45.385  30.259  34.165  1.00  0.00    -0.203 F 
ATOM     84  C   UNL A   1      46.193  28.642  35.673  1.00  0.00     0.198 A 
ATOM     85  C   UNL A   1      44.676  27.098  36.709  1.00  0.00     0.198 A 
ATOM     86  F   UNL A   1      42.383  27.173  36.188  1.00  0.00    -0.203 F 
ATOM     87  F   UNL A   1      47.442  29.091  35.483  1.00  0.00    -0.200 F 
ATOM     88  C   UNL A   1      45.964  27.580  36.535  1.00  0.00     0.200 A 
ATOM     89  F   UNL A   1      44.449  26.081  37.551  1.00  0.00    -0.200 F 
ATOM     90  F   UNL A   1      46.986  27.017  37.194  1.00  0.00    -0.200 F 
ENDBRANCH  57  80
ENDBRANCH  31  32
ENDBRANCH  23  26
ENDBRANCH  21  22
ENDBRANCH  20  21
ENDBRANCH   1  20
TORSDOF 14
ENDMDL
MODEL 3
REMARK VINA RESULT:     -12.3      0.548      7.628
REMARK SMILES CC(C)(C)OC(=O)[C@@H]1CCCC[C@H]1C(=O)NCCCCNC(=O)c1ccc(-c2c3nc(c(-c4c(F)c(F)c(F)c(F)c4F)c4ccc([nH]4)c(-c4c(F)c(F)c(F)c(F)c4F)c4nc(c(-c5c(F)c(F)c(F)c(F)c5F)c5ccc2[nH]5)C=C4)C=C3)cc1
REMARK SMILES IDX 18 1 17 2 16 3 14 4 15 5 13 7 8 8 9 9 10 10 12 11 11 12 6 13
REMARK SMILES IDX 7 14 5 15 2 16 1 17 3 18 4 19 19 20 20 21 21 22 22 23 23 25
REMARK SMILES IDX 24 26 25 27 86 28 26 29 85 30 27 31 28 32 29 33 79 34 30 35
REMARK SMILES IDX 84 36 78 37 80 38 31 39 83 40 77 41 76 42 32 44 64 45 44 46
REMARK SMILES IDX 63 47 45 48 48 49 62 50 81 51 46 52 47 53 61 55 82 56 49 57
REMARK SMILES IDX 33 58 34 59 42 60 35 61 36 62 40 63 43 64 37 65 38 66 41 67
REMARK SMILES IDX 39 68 65 69 66 70 74 71 67 72 68 73 72 74 75 75 69 76 70 77
REMARK SMILES IDX 73 78 71 79 50 80 51 81 59 82 52 83 53 84 57 85 60 86 54 87
REMARK SMILES IDX 55 88 58 89 56 90
REMARK H PARENT 16 6 21 24 80 43 48 54
REMARK Flexibility Score: inf
ROOT
ATOM      1  C   UNL A   1      31.762  30.525  26.537  1.00  0.00     0.023 C 
ENDROOT
BRANCH   1   2
ATOM      2  C   UNL A   1      33.210  30.050  26.427  1.00  0.00     0.116 C 
BRANCH   2   3
ATOM      3  N   UNL A   1      33.539  29.612  25.084  1.00  0.00    -0.356 N 
ATOM      4  C   UNL A   1      32.845  28.854  24.192  1.00  0.00     0.223 C 
ATOM      5  O   UNL A   1      33.348  28.677  23.078  1.00  0.00    -0.275 OA
ATOM      6  H   UNL A   1      34.417  29.918  24.760  1.00  0.00     0.163 HD
BRANCH   4   7
ATOM      7  C   UNL A   1      31.457  28.299  24.505  1.00  0.00     0.092 C 
ATOM      8  C   UNL A   1      30.560  28.134  23.262  1.00  0.00     0.111 C 
ATOM      9  C   UNL A   1      29.272  27.368  23.594  1.00  0.00     0.016 C 
ATOM     10  C   UNL A   1      29.588  26.033  24.257  1.00  0.00     0.001 C 
ATOM     11  C   UNL A   1      31.607  27.042  25.383  1.00  0.00     0.014 C 
ATOM     12  C   UNL A   1      30.316  26.257  25.574  1.00  0.00     0.001 C 
BRANCH   8  13
ATOM     13  C   UNL A   1      30.319  29.486  22.595  1.00  0.00     0.310 C 
ATOM     14  O   UNL A   1      30.742  29.754  21.478  1.00  0.00    -0.252 OA
BRANCH  13  15
ATOM     15  O   UNL A   1      29.557  30.308  23.357  1.00  0.00    -0.460 OA
BRANCH  15  16
ATOM     16  C   UNL A   1      28.472  31.075  22.770  1.00  0.00     0.104 C 
ATOM     17  C   UNL A   1      27.380  31.092  23.849  1.00  0.00     0.056 C 
ATOM     18  C   UNL A   1      27.907  30.386  21.521  1.00  0.00     0.056 C 
ATOM     19  C   UNL A   1      28.906  32.516  22.483  1.00  0.00     0.056 C 
ENDBRANCH  15  16
ENDBRANCH  13  15
ENDBRANCH   8  13
ENDBRANCH   4   7
ENDBRANCH   2   3
ENDBRANCH   1   2
BRANCH   1  20
ATOM     20  C   UNL A   1      31.596  32.041  26.619  1.00  0.00     0.023 C 
BRANCH  20  21
ATOM     21  C   UNL A   1      32.694  32.771  27.380  1.00  0.00     0.116 C 
BRANCH  21  22
ATOM     22  N   UNL A   1      32.376  34.165  27.654  1.00  0.00    -0.352 N 
ATOM     23  C   UNL A   1      32.959  35.019  28.559  1.00  0.00     0.251 C 
ATOM     24  H   UNL A   1      31.643  34.548  27.120  1.00  0.00     0.163 HD
ATOM     25  O   UNL A   1      32.497  36.139  28.748  1.00  0.00    -0.269 OA
BRANCH  23  26
ATOM     26  C   UNL A   1      34.130  34.560  29.331  1.00  0.00     0.039 A 
ATOM     27  C   UNL A   1      33.933  34.049  30.616  1.00  0.00     0.014 A 
ATOM     28  C   UNL A   1      35.410  34.594  28.771  1.00  0.00     0.014 A 
ATOM     29  C   UNL A   1      35.011  33.499  31.311  1.00  0.00     0.010 A 
ATOM     30  C   UNL A   1      36.467  33.979  29.433  1.00  0.00     0.010 A 
ATOM     31  C   UNL A   1      36.276  33.424  30.708  1.00  0.00    -0.014 A 
BRANCH  31  32
ATOM     32  C   UNL A   1      37.416  32.762  31.390  1.00  0.00     0.031 A 
ATOM     33  C   UNL A   1      38.113  31.603  30.735  1.00  0.00     0.074 A 
ATOM     34  C   UNL A   1      37.772  33.154  32.628  1.00  0.00     0.049 A 
ATOM     35  N   UNL A   1      39.071  30.841  31.200  1.00  0.00    -0.248 NA
ATOM     36  C   UNL A   1      37.652  31.231  29.388  1.00  0.00     0.031 C 
ATOM     37  C   UNL A   1      37.138  34.232  33.389  1.00  0.00     0.029 A 
ATOM     38  N   UNL A   1      38.747  32.682  33.472  1.00  0.00    -0.354 N 
ATOM     39  C   UNL A   1      39.313  29.894  30.216  1.00  0.00     0.074 A 
ATOM     40  C   UNL A   1      38.367  30.142  29.148  1.00  0.00     0.031 C 
ATOM     41  C   UNL A   1      37.752  34.353  34.577  1.00  0.00     0.029 A 
ATOM     42  C   UNL A   1      38.797  33.338  34.678  1.00  0.00     0.049 A 
ATOM     43  H   UNL A   1      39.352  31.944  33.235  1.00  0.00     0.167 HD
ATOM     44  C   UNL A   1      40.253  28.921  30.193  1.00  0.00     0.037 A 
ATOM     45  C   UNL A   1      39.591  33.137  35.746  1.00  0.00     0.037 A 
ATOM     46  C   UNL A   1      41.210  28.696  31.244  1.00  0.00     0.049 A 
ATOM     47  C   UNL A   1      40.628  32.048  35.694  1.00  0.00     0.074 A 
ATOM     48  C   UNL A   1      42.246  27.781  31.286  1.00  0.00     0.029 A 
ATOM     49  N   UNL A   1      41.245  29.397  32.441  1.00  0.00    -0.354 N 
ATOM     50  N   UNL A   1      40.897  31.206  34.727  1.00  0.00    -0.248 NA
ATOM     51  C   UNL A   1      41.477  31.886  36.884  1.00  0.00     0.031 C 
ATOM     52  C   UNL A   1      42.881  27.896  32.527  1.00  0.00     0.029 A 
ATOM     53  C   UNL A   1      42.272  28.918  33.239  1.00  0.00     0.049 A 
ATOM     54  H   UNL A   1      40.632  30.125  32.687  1.00  0.00     0.167 HD
ATOM     55  C   UNL A   1      41.961  30.435  35.175  1.00  0.00     0.074 A 
ATOM     56  C   UNL A   1      42.298  30.919  36.498  1.00  0.00     0.031 C 
ATOM     57  C   UNL A   1      42.601  29.418  34.548  1.00  0.00     0.037 A 
BRANCH  44  58
ATOM     58  C   UNL A   1      40.296  28.025  28.989  1.00  0.00     0.064 A 
ATOM     59  C   UNL A   1      39.585  26.815  28.946  1.00  0.00     0.173 A 
ATOM     60  C   UNL A   1      41.027  28.395  27.850  1.00  0.00     0.173 A 
ATOM     61  F   UNL A   1      38.880  26.409  30.014  1.00  0.00    -0.203 F 
ATOM     62  C   UNL A   1      39.629  25.997  27.822  1.00  0.00     0.198 A 
ATOM     63  C   UNL A   1      41.043  27.589  26.715  1.00  0.00     0.198 A 
ATOM     64  F   UNL A   1      41.719  29.544  27.835  1.00  0.00    -0.203 F 
ATOM     65  F   UNL A   1      38.983  24.823  27.824  1.00  0.00    -0.200 F 
ATOM     66  C   UNL A   1      40.351  26.388  26.705  1.00  0.00     0.200 A 
ATOM     67  F   UNL A   1      41.730  27.975  25.631  1.00  0.00    -0.200 F 
ATOM     68  F   UNL A   1      40.386  25.603  25.619  1.00  0.00    -0.200 F 
ENDBRANCH  44  58
BRANCH  45  69
ATOM     69  C   UNL A   1      39.455  34.002  36.947  1.00  0.00     0.064 A 
ATOM     70  C   UNL A   1      40.088  35.252  37.006  1.00  0.00     0.173 A 
ATOM     71  C   UNL A   1      38.700  33.600  38.058  1.00  0.00     0.173 A 
ATOM     72  F   UNL A   1      40.839  35.671  35.977  1.00  0.00    -0.203 F 
ATOM     73  C   UNL A   1      39.989  36.057  38.139  1.00  0.00     0.198 A 
ATOM     74  C   UNL A   1      38.577  34.418  39.179  1.00  0.00     0.198 A 
ATOM     75  F   UNL A   1      38.070  32.415  38.049  1.00  0.00    -0.203 F 
ATOM     76  F   UNL A   1      40.642  37.225  38.187  1.00  0.00    -0.200 F 
ATOM     77  C   UNL A   1      39.229  35.641  39.223  1.00  0.00     0.200 A 
ATOM     78  F   UNL A   1      37.832  34.019  40.219  1.00  0.00    -0.200 F 
ATOM     79  F   UNL A   1      39.131  36.417  40.310  1.00  0.00    -0.200 F 
ENDBRANCH  45  69
BRANCH  57  80
ATOM     80  C   UNL A   1      43.756  28.784  35.268  1.00  0.00     0.064 A 
ATOM     81  C   UNL A   1      43.582  27.675  36.106  1.00  0.00     0.173 A 
ATOM     82  C   UNL A   1      45.060  29.268  35.077  1.00  0.00     0.173 A 
ATOM     83  F   UNL A   1      42.354  27.184  36.331  1.00  0.00    -0.203 F 
ATOM     84  C   UNL A   1      44.669  27.087  36.748  1.00  0.00     0.198 A 
ATOM     85  C   UNL A   1      46.147  28.659  35.697  1.00  0.00     0.198 A 
ATOM     86  F   UNL A   1      45.280  30.323  34.280  1.00  0.00    -0.203 F 
ATOM     87  F   UNL A   1      44.473  26.055  37.582  1.00  0.00    -0.200 F 
ATOM     88  C   UNL A   1      45.950  27.573  36.537  1.00  0.00     0.200 A 
ATOM     89  F   UNL A   1      47.385  29.123  35.481  1.00  0.00    -0.200 F 
ATOM     90  F   UNL A   1      46.996  27.000  37.149  1.00  0.00    -0.200 F 
ENDBRANCH  57  80
ENDBRANCH  31  32
ENDBRANCH  23  26
ENDBRANCH  21  22
ENDBRANCH  20  21
ENDBRANCH   1  20
TORSDOF 14
ENDMDL
