MODEL 1
REMARK VINA RESULT:     -13.4      0.000      0.000
REMARK SMILES Cc1ccc(S(=O)(=O)n2cc(C(=O)C(=O)NCC(=O)NCC(=O)NCCCCNC(=O)c3ccc(-c4c5nc(c(-c6c(F)c(F)c(F)c(F)c6F)c6ccc([nH]6)c(-c6c(F)c(F)c(F)c(F)c6F)c6nc(c(-c7c(F)c(F)c(F)c(F)c7F)c7ccc4[nH]7)C=C6)C=C5)cc3)c3ccccc32)cc1
REMARK SMILES IDX 22 1 23 2 24 3 21 5 20 6 18 7 19 8 17 10 16 11 14 12 15 13
REMARK SMILES IDX 12 15 13 16 11 17 9 18 10 19 100 20 95 21 99 22 96 23 98 24
REMARK SMILES IDX 97 25 6 26 7 27 8 28 5 29 1 30 2 31 3 32 102 33 4 34 101 35
REMARK SMILES IDX 25 36 26 37 27 38 28 39 29 40 30 41 31 43 32 44 33 45 94 46
REMARK SMILES IDX 34 47 93 48 35 49 36 50 37 51 87 52 38 53 92 54 86 55 88 56
REMARK SMILES IDX 39 57 91 58 85 59 84 60 40 62 72 63 52 64 71 65 53 66 56 67
REMARK SMILES IDX 70 68 89 69 54 70 55 71 69 73 90 74 57 75 41 76 42 77 50 78
REMARK SMILES IDX 43 79 44 80 48 81 51 82 45 83 46 84 49 85 47 86 73 87 74 88
REMARK SMILES IDX 82 89 75 90 76 91 80 92 83 93 77 94 78 95 81 96 79 97 58 98
REMARK SMILES IDX 59 99 67 100 60 101 61 102 65 103 68 104 62 105 63 106
REMARK SMILES IDX 66 107 64 108
REMARK H PARENT 24 4 20 9 16 14 29 42 88 61 56 72
REMARK Flexibility Score: inf
ROOT
ATOM      1  C   UNL A   1      38.332  23.356  26.121  1.00  0.00     0.239 C 
ATOM      2  O   UNL A   1      38.765  24.250  26.853  1.00  0.00    -0.273 OA
ATOM      3  N   UNL A   1      39.117  22.252  25.946  1.00  0.00    -0.355 N 
ATOM      4  H   UNL A   1      40.048  22.344  26.249  1.00  0.00     0.163 HD
ENDROOT
BRANCH   1   5
ATOM      5  C   UNL A   1      36.889  23.416  25.583  1.00  0.00     0.216 C 
BRANCH   5   6
ATOM      6  N   UNL A   1      35.882  22.917  26.502  1.00  0.00    -0.346 N 
ATOM      7  C   UNL A   1      35.057  21.835  26.440  1.00  0.00     0.239 C 
ATOM      8  O   UNL A   1      34.264  21.681  27.372  1.00  0.00    -0.273 OA
ATOM      9  H   UNL A   1      35.776  23.457  27.317  1.00  0.00     0.164 HD
BRANCH   7  10
ATOM     10  C   UNL A   1      35.127  20.805  25.298  1.00  0.00     0.216 C 
BRANCH  10  11
ATOM     11  N   UNL A   1      34.183  19.691  25.396  1.00  0.00    -0.340 N 
ATOM     12  C   UNL A   1      32.922  19.504  24.865  1.00  0.00     0.292 C 
ATOM     13  O   UNL A   1      32.249  18.562  25.272  1.00  0.00    -0.265 OA
ATOM     14  H   UNL A   1      34.506  18.936  25.940  1.00  0.00     0.164 HD
BRANCH  12  15
ATOM     15  C   UNL A   1      32.372  20.474  23.795  1.00  0.00     0.252 C 
ATOM     16  O   UNL A   1      32.154  20.010  22.679  1.00  0.00    -0.283 OA
BRANCH  15  17
ATOM     17  C   UNL A   1      32.103  21.896  24.046  1.00  0.00     0.054 A 
ATOM     18  N   UNL A   1      31.476  23.851  24.929  1.00  0.00    -0.240 N 
ATOM     19  C   UNL A   1      31.552  22.497  25.164  1.00  0.00     0.117 A 
ATOM     20  C   UNL A   1      31.975  24.173  23.684  1.00  0.00     0.065 A 
ATOM     21  C   UNL A   1      32.370  22.960  23.107  1.00  0.00     0.012 A 
ATOM     22  C   UNL A   1      32.090  25.393  22.990  1.00  0.00     0.028 A 
ATOM     23  C   UNL A   1      32.902  22.981  21.798  1.00  0.00     0.011 A 
ATOM     24  C   UNL A   1      32.595  25.371  21.686  1.00  0.00     0.002 A 
ATOM     25  C   UNL A   1      33.000  24.182  21.097  1.00  0.00     0.001 A 
BRANCH  18  26
ATOM     26  S   UNL A   1      30.758  24.966  26.002  1.00  0.00     0.268 S 
ATOM     27  O   UNL A   1      30.614  24.250  27.250  1.00  0.00    -0.201 OA
ATOM     28  O   UNL A   1      29.613  25.514  25.289  1.00  0.00    -0.201 OA
BRANCH  26  29
ATOM     29  C   UNL A   1      31.904  26.294  26.263  1.00  0.00     0.088 A 
ATOM     30  C   UNL A   1      34.549  29.545  27.248  1.00  0.00     0.044 C 
ATOM     31  C   UNL A   1      33.628  28.416  26.885  1.00  0.00    -0.051 A 
ATOM     32  C   UNL A   1      32.261  28.509  27.174  1.00  0.00     0.005 A 
ATOM     33  C   UNL A   1      34.116  27.264  26.256  1.00  0.00     0.005 A 
ATOM     34  C   UNL A   1      31.402  27.451  26.871  1.00  0.00     0.022 A 
ATOM     35  C   UNL A   1      33.258  26.209  25.932  1.00  0.00     0.022 A 
ENDBRANCH  26  29
ENDBRANCH  18  26
ENDBRANCH  15  17
ENDBRANCH  12  15
ENDBRANCH  10  11
ENDBRANCH   7  10
ENDBRANCH   5   6
ENDBRANCH   1   5
BRANCH   3  36
ATOM     36  C   UNL A   1      38.773  20.968  25.377  1.00  0.00     0.116 C 
BRANCH  36  37
ATOM     37  C   UNL A   1      39.392  19.771  26.101  1.00  0.00     0.023 C 
BRANCH  37  38
ATOM     38  C   UNL A   1      40.879  19.579  25.827  1.00  0.00     0.023 C 
BRANCH  38  39
ATOM     39  C   UNL A   1      41.786  20.040  26.957  1.00  0.00     0.116 C 
BRANCH  39  40
ATOM     40  N   UNL A   1      43.048  20.644  26.553  1.00  0.00    -0.352 N 
ATOM     41  C   UNL A   1      43.337  21.978  26.301  1.00  0.00     0.251 C 
ATOM     42  H   UNL A   1      43.802  20.020  26.444  1.00  0.00     0.163 HD
ATOM     43  O   UNL A   1      44.422  22.293  25.822  1.00  0.00    -0.269 OA
BRANCH  41  44
ATOM     44  C   UNL A   1      42.417  23.039  26.788  1.00  0.00     0.039 A 
ATOM     45  C   UNL A   1      42.319  24.198  26.006  1.00  0.00     0.014 A 
ATOM     46  C   UNL A   1      41.992  23.052  28.108  1.00  0.00     0.014 A 
ATOM     47  C   UNL A   1      42.135  25.420  26.635  1.00  0.00     0.010 A 
ATOM     48  C   UNL A   1      41.980  24.255  28.761  1.00  0.00     0.010 A 
ATOM     49  C   UNL A   1      42.116  25.429  28.024  1.00  0.00    -0.014 A 
BRANCH  49  50
ATOM     50  C   UNL A   1      42.161  26.623  28.834  1.00  0.00     0.031 A 
ATOM     51  C   UNL A   1      40.983  27.497  28.763  1.00  0.00     0.074 A 
ATOM     52  C   UNL A   1      43.188  26.772  29.697  1.00  0.00     0.049 A 
ATOM     53  N   UNL A   1      41.000  28.765  28.943  1.00  0.00    -0.248 NA
ATOM     54  C   UNL A   1      39.661  26.989  28.397  1.00  0.00     0.031 C 
ATOM     55  C   UNL A   1      43.349  27.752  30.764  1.00  0.00     0.029 A 
ATOM     56  N   UNL A   1      44.437  26.121  29.642  1.00  0.00    -0.354 N 
ATOM     57  C   UNL A   1      39.688  29.177  29.058  1.00  0.00     0.074 A 
ATOM     58  C   UNL A   1      38.902  28.075  28.567  1.00  0.00     0.031 C 
ATOM     59  C   UNL A   1      44.665  27.906  31.004  1.00  0.00     0.029 A 
ATOM     60  C   UNL A   1      45.377  27.111  30.015  1.00  0.00     0.049 A 
ATOM     61  H   UNL A   1      44.617  25.185  29.396  1.00  0.00     0.167 HD
ATOM     62  C   UNL A   1      39.439  30.335  29.732  1.00  0.00     0.037 A 
ATOM     63  C   UNL A   1      46.269  27.591  29.101  1.00  0.00     0.037 A 
ATOM     64  C   UNL A   1      40.711  30.928  30.147  1.00  0.00     0.049 A 
ATOM     65  C   UNL A   1      46.041  29.057  28.836  1.00  0.00     0.074 A 
ATOM     66  C   UNL A   1      41.432  30.814  31.325  1.00  0.00     0.029 A 
ATOM     67  N   UNL A   1      41.602  31.376  29.178  1.00  0.00    -0.354 N 
ATOM     68  N   UNL A   1      44.882  29.645  28.962  1.00  0.00    -0.248 NA
ATOM     69  C   UNL A   1      47.110  29.981  28.472  1.00  0.00     0.031 C 
ATOM     70  C   UNL A   1      42.785  31.123  31.036  1.00  0.00     0.029 A 
ATOM     71  C   UNL A   1      42.884  31.444  29.691  1.00  0.00     0.049 A 
ATOM     72  H   UNL A   1      41.354  31.613  28.255  1.00  0.00     0.167 HD
ATOM     73  C   UNL A   1      45.033  30.988  28.751  1.00  0.00     0.074 A 
ATOM     74  C   UNL A   1      46.443  31.148  28.444  1.00  0.00     0.031 C 
ATOM     75  C   UNL A   1      43.999  31.875  28.863  1.00  0.00     0.037 A 
BRANCH  62  76
ATOM     76  C   UNL A   1      38.103  30.768  30.300  1.00  0.00     0.064 A 
ATOM     77  C   UNL A   1      37.104  31.278  29.437  1.00  0.00     0.173 A 
ATOM     78  C   UNL A   1      37.738  30.750  31.661  1.00  0.00     0.173 A 
ATOM     79  F   UNL A   1      37.266  31.287  28.108  1.00  0.00    -0.203 F 
ATOM     80  C   UNL A   1      35.892  31.795  29.902  1.00  0.00     0.198 A 
ATOM     81  C   UNL A   1      36.537  31.297  32.130  1.00  0.00     0.198 A 
ATOM     82  F   UNL A   1      38.493  30.155  32.587  1.00  0.00    -0.203 F 
ATOM     83  F   UNL A   1      34.993  32.269  29.027  1.00  0.00    -0.200 F 
ATOM     84  C   UNL A   1      35.616  31.825  31.251  1.00  0.00     0.200 A 
ATOM     85  F   UNL A   1      36.277  31.297  33.446  1.00  0.00    -0.200 F 
ATOM     86  F   UNL A   1      34.460  32.332  31.699  1.00  0.00    -0.200 F 
ENDBRANCH  62  76
BRANCH  63  87
ATOM     87  C   UNL A   1      46.673  26.552  28.110  1.00  0.00     0.064 A 
ATOM     88  C   UNL A   1      46.061  26.609  26.838  1.00  0.00     0.173 A 
ATOM     89  C   UNL A   1      47.881  25.849  28.208  1.00  0.00     0.173 A 
ATOM     90  F   UNL A   1      44.885  27.238  26.685  1.00  0.00    -0.203 F 
ATOM     91  C   UNL A   1      46.718  26.161  25.694  1.00  0.00     0.198 A 
ATOM     92  C   UNL A   1      48.511  25.352  27.060  1.00  0.00     0.198 A 
ATOM     93  F   UNL A   1      48.512  25.741  29.385  1.00  0.00    -0.203 F 
ATOM     94  F   UNL A   1      46.183  26.398  24.487  1.00  0.00    -0.200 F 
ATOM     95  C   UNL A   1      47.958  25.559  25.803  1.00  0.00     0.200 A 
ATOM     96  F   UNL A   1      49.704  24.751  27.165  1.00  0.00    -0.200 F 
ATOM     97  F   UNL A   1      48.632  25.213  24.697  1.00  0.00    -0.200 F 
ENDBRANCH  63  87
BRANCH  75  98
ATOM     98  C   UNL A   1      43.997  33.278  28.302  1.00  0.00     0.064 A 
ATOM     99  C   UNL A   1      43.906  33.563  26.930  1.00  0.00     0.173 A 
ATOM    100  C   UNL A   1      43.935  34.403  29.160  1.00  0.00     0.173 A 
ATOM    101  F   UNL A   1      43.785  32.590  26.016  1.00  0.00    -0.203 F 
ATOM    102  C   UNL A   1      43.874  34.872  26.448  1.00  0.00     0.198 A 
ATOM    103  C   UNL A   1      43.816  35.703  28.677  1.00  0.00     0.198 A 
ATOM    104  F   UNL A   1      43.954  34.280  30.495  1.00  0.00    -0.203 F 
ATOM    105  F   UNL A   1      43.869  35.088  25.126  1.00  0.00    -0.200 F 
ATOM    106  C   UNL A   1      43.819  35.941  27.320  1.00  0.00     0.200 A 
ATOM    107  F   UNL A   1      43.682  36.722  29.539  1.00  0.00    -0.200 F 
ATOM    108  F   UNL A   1      43.745  37.194  26.853  1.00  0.00    -0.200 F 
ENDBRANCH  75  98
ENDBRANCH  49  50
ENDBRANCH  41  44
ENDBRANCH  39  40
ENDBRANCH  38  39
ENDBRANCH  37  38
ENDBRANCH  36  37
ENDBRANCH   3  36
TORSDOF 18
ENDMDL
MODEL 2
REMARK VINA RESULT:     -13.2      1.948      2.696
REMARK SMILES Cc1ccc(S(=O)(=O)n2cc(C(=O)C(=O)NCC(=O)NCC(=O)NCCCCNC(=O)c3ccc(-c4c5nc(c(-c6c(F)c(F)c(F)c(F)c6F)c6ccc([nH]6)c(-c6c(F)c(F)c(F)c(F)c6F)c6nc(c(-c7c(F)c(F)c(F)c(F)c7F)c7ccc4[nH]7)C=C6)C=C5)cc3)c3ccccc32)cc1
REMARK SMILES IDX 22 1 23 2 24 3 21 5 20 6 18 7 19 8 17 10 16 11 14 12 15 13
REMARK SMILES IDX 12 15 13 16 11 17 9 18 10 19 100 20 95 21 99 22 96 23 98 24
REMARK SMILES IDX 97 25 6 26 7 27 8 28 5 29 1 30 2 31 3 32 102 33 4 34 101 35
REMARK SMILES IDX 25 36 26 37 27 38 28 39 29 40 30 41 31 43 32 44 33 45 94 46
REMARK SMILES IDX 34 47 93 48 35 49 36 50 37 51 87 52 38 53 92 54 86 55 88 56
REMARK SMILES IDX 39 57 91 58 85 59 84 60 40 62 72 63 52 64 71 65 53 66 56 67
REMARK SMILES IDX 70 68 89 69 54 70 55 71 69 73 90 74 57 75 41 76 42 77 50 78
REMARK SMILES IDX 43 79 44 80 48 81 51 82 45 83 46 84 49 85 47 86 73 87 74 88
REMARK SMILES IDX 82 89 75 90 76 91 80 92 83 93 77 94 78 95 81 96 79 97 58 98
REMARK SMILES IDX 59 99 67 100 60 101 61 102 65 103 68 104 62 105 63 106
REMARK SMILES IDX 66 107 64 108
REMARK H PARENT 24 4 20 9 16 14 29 42 88 61 56 72
REMARK Flexibility Score: inf
ROOT
ATOM      1  C   UNL A   1      38.312  21.972  25.764  1.00  0.00     0.239 C 
ATOM      2  O   UNL A   1      38.080  21.071  24.953  1.00  0.00    -0.273 OA
ATOM      3  N   UNL A   1      39.442  21.856  26.524  1.00  0.00    -0.355 N 
ATOM      4  H   UNL A   1      39.871  20.971  26.510  1.00  0.00     0.163 HD
ENDROOT
BRANCH   1   5
ATOM      5  C   UNL A   1      37.454  23.251  25.780  1.00  0.00     0.216 C 
BRANCH   5   6
ATOM      6  N   UNL A   1      36.202  23.129  26.504  1.00  0.00    -0.346 N 
ATOM      7  C   UNL A   1      35.095  22.369  26.274  1.00  0.00     0.239 C 
ATOM      8  O   UNL A   1      34.151  22.503  27.057  1.00  0.00    -0.273 OA
ATOM      9  H   UNL A   1      36.141  23.696  27.305  1.00  0.00     0.164 HD
BRANCH   7  10
ATOM     10  C   UNL A   1      35.020  21.341  25.131  1.00  0.00     0.216 C 
BRANCH  10  11
ATOM     11  N   UNL A   1      34.080  20.238  25.337  1.00  0.00    -0.340 N 
ATOM     12  C   UNL A   1      32.840  19.970  24.790  1.00  0.00     0.292 C 
ATOM     13  O   UNL A   1      32.158  19.081  25.289  1.00  0.00    -0.265 OA
ATOM     14  H   UNL A   1      34.387  19.562  25.985  1.00  0.00     0.164 HD
BRANCH  12  15
ATOM     15  C   UNL A   1      32.324  20.789  23.585  1.00  0.00     0.252 C 
ATOM     16  O   UNL A   1      32.097  20.174  22.547  1.00  0.00    -0.283 OA
BRANCH  15  17
ATOM     17  C   UNL A   1      32.096  22.240  23.624  1.00  0.00     0.054 A 
ATOM     18  N   UNL A   1      32.082  24.434  23.201  1.00  0.00    -0.240 N 
ATOM     19  C   UNL A   1      32.519  23.215  22.737  1.00  0.00     0.117 A 
ATOM     20  C   UNL A   1      31.366  24.299  24.372  1.00  0.00     0.065 A 
ATOM     21  C   UNL A   1      31.366  22.929  24.661  1.00  0.00     0.012 A 
ATOM     22  C   UNL A   1      30.749  25.234  25.225  1.00  0.00     0.028 A 
ATOM     23  C   UNL A   1      30.718  22.492  25.839  1.00  0.00     0.011 A 
ATOM     24  C   UNL A   1      30.142  24.767  26.395  1.00  0.00     0.002 A 
ATOM     25  C   UNL A   1      30.122  23.414  26.699  1.00  0.00     0.001 A 
BRANCH  18  26
ATOM     26  S   UNL A   1      32.473  25.927  22.472  1.00  0.00     0.268 S 
ATOM     27  O   UNL A   1      31.238  26.394  21.882  1.00  0.00    -0.201 OA
ATOM     28  O   UNL A   1      33.663  25.673  21.674  1.00  0.00    -0.201 OA
BRANCH  26  29
ATOM     29  C   UNL A   1      32.929  27.063  23.756  1.00  0.00     0.088 A 
ATOM     30  C   UNL A   1      33.667  29.884  26.922  1.00  0.00     0.044 C 
ATOM     31  C   UNL A   1      33.429  28.904  25.811  1.00  0.00    -0.051 A 
ATOM     32  C   UNL A   1      32.555  29.231  24.766  1.00  0.00     0.005 A 
ATOM     33  C   UNL A   1      34.070  27.660  25.799  1.00  0.00     0.005 A 
ATOM     34  C   UNL A   1      32.300  28.314  23.745  1.00  0.00     0.022 A 
ATOM     35  C   UNL A   1      33.835  26.744  24.770  1.00  0.00     0.022 A 
ENDBRANCH  26  29
ENDBRANCH  18  26
ENDBRANCH  15  17
ENDBRANCH  12  15
ENDBRANCH  10  11
ENDBRANCH   7  10
ENDBRANCH   5   6
ENDBRANCH   1   5
BRANCH   3  36
ATOM     36  C   UNL A   1      40.095  22.851  27.345  1.00  0.00     0.116 C 
BRANCH  36  37
ATOM     37  C   UNL A   1      41.263  22.316  28.175  1.00  0.00     0.023 C 
BRANCH  37  38
ATOM     38  C   UNL A   1      42.433  21.801  27.345  1.00  0.00     0.023 C 
BRANCH  38  39
ATOM     39  C   UNL A   1      42.402  22.234  25.887  1.00  0.00     0.116 C 
BRANCH  39  40
ATOM     40  N   UNL A   1      43.325  21.541  24.999  1.00  0.00    -0.352 N 
ATOM     41  C   UNL A   1      44.582  21.938  24.564  1.00  0.00     0.251 C 
ATOM     42  H   UNL A   1      43.015  20.671  24.660  1.00  0.00     0.163 HD
ATOM     43  O   UNL A   1      45.162  21.297  23.692  1.00  0.00    -0.269 OA
BRANCH  41  44
ATOM     44  C   UNL A   1      45.308  23.016  25.285  1.00  0.00     0.039 A 
ATOM     45  C   UNL A   1      45.654  22.762  26.619  1.00  0.00     0.014 A 
ATOM     46  C   UNL A   1      45.294  24.318  24.806  1.00  0.00     0.014 A 
ATOM     47  C   UNL A   1      45.637  23.808  27.530  1.00  0.00     0.010 A 
ATOM     48  C   UNL A   1      45.106  25.328  25.710  1.00  0.00     0.010 A 
ATOM     49  C   UNL A   1      45.216  25.050  27.070  1.00  0.00    -0.014 A 
BRANCH  49  50
ATOM     50  C   UNL A   1      44.925  26.179  27.921  1.00  0.00     0.031 A 
ATOM     51  C   UNL A   1      43.540  26.666  27.897  1.00  0.00     0.074 A 
ATOM     52  C   UNL A   1      45.881  26.598  28.776  1.00  0.00     0.049 A 
ATOM     53  N   UNL A   1      43.185  27.877  28.122  1.00  0.00    -0.248 NA
ATOM     54  C   UNL A   1      42.418  25.801  27.531  1.00  0.00     0.031 C 
ATOM     55  C   UNL A   1      45.771  27.550  29.874  1.00  0.00     0.029 A 
ATOM     56  N   UNL A   1      47.266  26.349  28.680  1.00  0.00    -0.354 N 
ATOM     57  C   UNL A   1      41.813  27.877  28.269  1.00  0.00     0.074 A 
ATOM     58  C   UNL A   1      41.377  26.608  27.750  1.00  0.00     0.031 C 
ATOM     59  C   UNL A   1      46.988  28.080  30.102  1.00  0.00     0.029 A 
ATOM     60  C   UNL A   1      47.879  27.562  29.076  1.00  0.00     0.049 A 
ATOM     61  H   UNL A   1      47.708  25.516  28.399  1.00  0.00     0.167 HD
ATOM     62  C   UNL A   1      41.249  28.889  28.988  1.00  0.00     0.037 A 
ATOM     63  C   UNL A   1      48.568  28.311  28.167  1.00  0.00     0.037 A 
ATOM     64  C   UNL A   1      42.298  29.819  29.406  1.00  0.00     0.049 A 
ATOM     65  C   UNL A   1      47.911  29.652  27.958  1.00  0.00     0.074 A 
ATOM     66  C   UNL A   1      43.048  29.888  30.570  1.00  0.00     0.029 A 
ATOM     67  N   UNL A   1      42.993  30.540  28.442  1.00  0.00    -0.354 N 
ATOM     68  N   UNL A   1      46.633  29.865  28.120  1.00  0.00    -0.248 NA
ATOM     69  C   UNL A   1      48.650  30.861  27.613  1.00  0.00     0.031 C 
ATOM     70  C   UNL A   1      44.242  30.593  30.273  1.00  0.00     0.029 A 
ATOM     71  C   UNL A   1      44.210  30.969  28.940  1.00  0.00     0.049 A 
ATOM     72  H   UNL A   1      42.665  30.720  27.532  1.00  0.00     0.167 HD
ATOM     73  C   UNL A   1      46.375  31.199  27.955  1.00  0.00     0.074 A 
ATOM     74  C   UNL A   1      47.668  31.779  27.635  1.00  0.00     0.031 C 
ATOM     75  C   UNL A   1      45.128  31.736  28.112  1.00  0.00     0.037 A 
BRANCH  62  76
ATOM     76  C   UNL A   1      39.858  28.889  29.589  1.00  0.00     0.064 A 
ATOM     77  C   UNL A   1      38.753  29.301  28.805  1.00  0.00     0.173 A 
ATOM     78  C   UNL A   1      39.530  28.540  30.914  1.00  0.00     0.173 A 
ATOM     79  F   UNL A   1      38.887  29.589  27.504  1.00  0.00    -0.203 F 
ATOM     80  C   UNL A   1      37.462  29.430  29.323  1.00  0.00     0.198 A 
ATOM     81  C   UNL A   1      38.243  28.700  31.442  1.00  0.00     0.198 A 
ATOM     82  F   UNL A   1      40.418  27.978  31.737  1.00  0.00    -0.203 F 
ATOM     83  F   UNL A   1      36.464  29.833  28.525  1.00  0.00    -0.200 F 
ATOM     84  C   UNL A   1      37.209  29.150  30.648  1.00  0.00     0.200 A 
ATOM     85  F   UNL A   1      38.011  28.400  32.728  1.00  0.00    -0.200 F 
ATOM     86  F   UNL A   1      35.974  29.284  31.150  1.00  0.00    -0.200 F 
ENDBRANCH  62  76
BRANCH  63  87
ATOM     87  C   UNL A   1      49.238  27.469  27.134  1.00  0.00     0.064 A 
ATOM     88  C   UNL A   1      48.633  27.418  25.859  1.00  0.00     0.173 A 
ATOM     89  C   UNL A   1      50.591  27.116  27.215  1.00  0.00     0.173 A 
ATOM     90  F   UNL A   1      47.330  27.713  25.721  1.00  0.00    -0.203 F 
ATOM     91  C   UNL A   1      49.386  27.220  24.704  1.00  0.00     0.198 A 
ATOM     92  C   UNL A   1      51.332  26.863  26.053  1.00  0.00     0.198 A 
ATOM     93  F   UNL A   1      51.229  27.126  28.393  1.00  0.00    -0.203 F 
ATOM     94  F   UNL A   1      48.806  27.361  23.502  1.00  0.00    -0.200 F 
ATOM     95  C   UNL A   1      50.742  26.972  24.801  1.00  0.00     0.200 A 
ATOM     96  F   UNL A   1      52.643  26.603  26.145  1.00  0.00    -0.200 F 
ATOM     97  F   UNL A   1      51.484  26.875  23.688  1.00  0.00    -0.200 F 
ENDBRANCH  63  87
BRANCH  75  98
ATOM     98  C   UNL A   1      44.698  33.091  27.603  1.00  0.00     0.064 A 
ATOM     99  C   UNL A   1      44.082  33.289  26.356  1.00  0.00     0.173 A 
ATOM    100  C   UNL A   1      44.760  34.235  28.436  1.00  0.00     0.173 A 
ATOM    101  F   UNL A   1      43.807  32.266  25.537  1.00  0.00    -0.203 F 
ATOM    102  C   UNL A   1      43.668  34.552  25.929  1.00  0.00     0.198 A 
ATOM    103  C   UNL A   1      44.268  35.475  28.039  1.00  0.00     0.198 A 
ATOM    104  F   UNL A   1      45.271  34.183  29.675  1.00  0.00    -0.203 F 
ATOM    105  F   UNL A   1      43.160  34.698  24.698  1.00  0.00    -0.200 F 
ATOM    106  C   UNL A   1      43.751  35.641  26.772  1.00  0.00     0.200 A 
ATOM    107  F   UNL A   1      44.282  36.502  28.901  1.00  0.00    -0.200 F 
ATOM    108  F   UNL A   1      43.313  36.843  26.375  1.00  0.00    -0.200 F 
ENDBRANCH  75  98
ENDBRANCH  49  50
ENDBRANCH  41  44
ENDBRANCH  39  40
ENDBRANCH  38  39
ENDBRANCH  37  38
ENDBRANCH  36  37
ENDBRANCH   3  36
TORSDOF 18
ENDMDL
MODEL 3
REMARK VINA RESULT:     -13.0      4.179     10.005
REMARK SMILES Cc1ccc(S(=O)(=O)n2cc(C(=O)C(=O)NCC(=O)NCC(=O)NCCCCNC(=O)c3ccc(-c4c5nc(c(-c6c(F)c(F)c(F)c(F)c6F)c6ccc([nH]6)c(-c6c(F)c(F)c(F)c(F)c6F)c6nc(c(-c7c(F)c(F)c(F)c(F)c7F)c7ccc4[nH]7)C=C6)C=C5)cc3)c3ccccc32)cc1
REMARK SMILES IDX 22 1 23 2 24 3 21 5 20 6 18 7 19 8 17 10 16 11 14 12 15 13
REMARK SMILES IDX 12 15 13 16 11 17 9 18 10 19 100 20 95 21 99 22 96 23 98 24
REMARK SMILES IDX 97 25 6 26 7 27 8 28 5 29 1 30 2 31 3 32 102 33 4 34 101 35
REMARK SMILES IDX 25 36 26 37 27 38 28 39 29 40 30 41 31 43 32 44 33 45 94 46
REMARK SMILES IDX 34 47 93 48 35 49 36 50 37 51 87 52 38 53 92 54 86 55 88 56
REMARK SMILES IDX 39 57 91 58 85 59 84 60 40 62 72 63 52 64 71 65 53 66 56 67
REMARK SMILES IDX 70 68 89 69 54 70 55 71 69 73 90 74 57 75 41 76 42 77 50 78
REMARK SMILES IDX 43 79 44 80 48 81 51 82 45 83 46 84 49 85 47 86 73 87 74 88
REMARK SMILES IDX 82 89 75 90 76 91 80 92 83 93 77 94 78 95 81 96 79 97 58 98
REMARK SMILES IDX 59 99 67 100 60 101 61 102 65 103 68 104 62 105 63 106
REMARK SMILES IDX 66 107 64 108
REMARK H PARENT 24 4 20 9 16 14 29 42 88 61 56 72
REMARK Flexibility Score: inf
ROOT
ATOM      1  C   UNL A   1      33.495  28.926  26.636  1.00  0.00     0.239 C 
ATOM      2  O   UNL A   1      33.658  27.725  26.866  1.00  0.00    -0.273 OA
ATOM      3  N   UNL A   1      33.721  29.798  27.664  1.00  0.00    -0.355 N 
ATOM      4  H   UNL A   1      33.796  29.389  28.556  1.00  0.00     0.163 HD
ENDROOT
BRANCH   1   5
ATOM      5  C   UNL A   1      33.226  29.420  25.202  1.00  0.00     0.216 C 
BRANCH   5   6
ATOM      6  N   UNL A   1      31.931  30.050  25.015  1.00  0.00    -0.346 N 
ATOM      7  C   UNL A   1      30.882  29.737  24.205  1.00  0.00     0.239 C 
ATOM      8  O   UNL A   1      29.906  30.491  24.236  1.00  0.00    -0.273 OA
ATOM      9  H   UNL A   1      31.785  30.847  25.573  1.00  0.00     0.164 HD
BRANCH   7  10
ATOM     10  C   UNL A   1      30.865  28.476  23.322  1.00  0.00     0.216 C 
BRANCH  10  11
ATOM     11  N   UNL A   1      29.713  27.593  23.510  1.00  0.00    -0.340 N 
ATOM     12  C   UNL A   1      29.537  26.462  24.284  1.00  0.00     0.292 C 
ATOM     13  O   UNL A   1      28.534  25.778  24.103  1.00  0.00    -0.265 OA
ATOM     14  H   UNL A   1      28.918  27.851  22.989  1.00  0.00     0.164 HD
BRANCH  12  15
ATOM     15  C   UNL A   1      30.591  26.066  25.342  1.00  0.00     0.252 C 
ATOM     16  O   UNL A   1      30.613  26.718  26.381  1.00  0.00    -0.283 OA
BRANCH  15  17
ATOM     17  C   UNL A   1      31.550  24.967  25.164  1.00  0.00     0.054 A 
ATOM     18  N   UNL A   1      32.949  23.252  25.475  1.00  0.00    -0.240 N 
ATOM     19  C   UNL A   1      32.072  24.101  26.110  1.00  0.00     0.117 A 
ATOM     20  C   UNL A   1      33.017  23.519  24.124  1.00  0.00     0.065 A 
ATOM     21  C   UNL A   1      32.151  24.597  23.905  1.00  0.00     0.012 A 
ATOM     22  C   UNL A   1      33.771  22.954  23.077  1.00  0.00     0.028 A 
ATOM     23  C   UNL A   1      32.038  25.111  22.593  1.00  0.00     0.011 A 
ATOM     24  C   UNL A   1      33.654  23.507  21.799  1.00  0.00     0.002 A 
ATOM     25  C   UNL A   1      32.796  24.570  21.556  1.00  0.00     0.001 A 
BRANCH  18  26
ATOM     26  S   UNL A   1      33.904  22.091  26.282  1.00  0.00     0.268 S 
ATOM     27  O   UNL A   1      33.276  21.916  27.572  1.00  0.00    -0.201 OA
ATOM     28  O   UNL A   1      35.278  22.553  26.148  1.00  0.00    -0.201 OA
BRANCH  26  29
ATOM     29  C   UNL A   1      33.772  20.559  25.397  1.00  0.00     0.088 A 
ATOM     30  C   UNL A   1      33.697  16.697  23.497  1.00  0.00     0.044 C 
ATOM     31  C   UNL A   1      33.717  18.052  24.142  1.00  0.00    -0.051 A 
ATOM     32  C   UNL A   1      34.940  18.655  24.462  1.00  0.00     0.005 A 
ATOM     33  C   UNL A   1      32.527  18.730  24.430  1.00  0.00     0.005 A 
ATOM     34  C   UNL A   1      34.970  19.901  25.092  1.00  0.00     0.022 A 
ATOM     35  C   UNL A   1      32.549  19.985  25.043  1.00  0.00     0.022 A 
ENDBRANCH  26  29
ENDBRANCH  18  26
ENDBRANCH  15  17
ENDBRANCH  12  15
ENDBRANCH  10  11
ENDBRANCH   7  10
ENDBRANCH   5   6
ENDBRANCH   1   5
BRANCH   3  36
ATOM     36  C   UNL A   1      33.865  31.236  27.627  1.00  0.00     0.116 C 
BRANCH  36  37
ATOM     37  C   UNL A   1      35.272  31.739  27.954  1.00  0.00     0.023 C 
BRANCH  37  38
ATOM     38  C   UNL A   1      35.317  32.788  29.059  1.00  0.00     0.023 C 
BRANCH  38  39
ATOM     39  C   UNL A   1      34.778  32.309  30.397  1.00  0.00     0.116 C 
BRANCH  39  40
ATOM     40  N   UNL A   1      34.045  33.296  31.178  1.00  0.00    -0.352 N 
ATOM     41  C   UNL A   1      34.374  33.861  32.402  1.00  0.00     0.251 C 
ATOM     42  H   UNL A   1      33.198  33.606  30.782  1.00  0.00     0.163 HD
ATOM     43  O   UNL A   1      33.563  34.569  32.991  1.00  0.00    -0.269 OA
BRANCH  41  44
ATOM     44  C   UNL A   1      35.769  33.771  32.906  1.00  0.00     0.039 A 
ATOM     45  C   UNL A   1      36.722  34.588  32.280  1.00  0.00     0.014 A 
ATOM     46  C   UNL A   1      36.177  32.682  33.663  1.00  0.00     0.014 A 
ATOM     47  C   UNL A   1      38.017  34.115  32.127  1.00  0.00     0.010 A 
ATOM     48  C   UNL A   1      37.394  32.127  33.378  1.00  0.00     0.010 A 
ATOM     49  C   UNL A   1      38.281  32.821  32.557  1.00  0.00    -0.014 A 
BRANCH  49  50
ATOM     50  C   UNL A   1      39.498  32.099  32.273  1.00  0.00     0.031 A 
ATOM     51  C   UNL A   1      39.369  30.943  31.376  1.00  0.00     0.074 A 
ATOM     52  C   UNL A   1      40.665  32.616  32.712  1.00  0.00     0.049 A 
ATOM     53  N   UNL A   1      40.128  29.910  31.400  1.00  0.00    -0.248 NA
ATOM     54  C   UNL A   1      38.287  30.835  30.398  1.00  0.00     0.031 C 
ATOM     55  C   UNL A   1      42.025  32.214  32.377  1.00  0.00     0.029 A 
ATOM     56  N   UNL A   1      40.834  33.552  33.753  1.00  0.00    -0.354 N 
ATOM     57  C   UNL A   1      39.862  29.186  30.256  1.00  0.00     0.074 A 
ATOM     58  C   UNL A   1      38.623  29.716  29.752  1.00  0.00     0.031 C 
ATOM     59  C   UNL A   1      42.839  32.581  33.385  1.00  0.00     0.029 A 
ATOM     60  C   UNL A   1      41.995  33.122  34.440  1.00  0.00     0.049 A 
ATOM     61  H   UNL A   1      40.269  34.331  33.957  1.00  0.00     0.167 HD
ATOM     62  C   UNL A   1      40.835  28.353  29.788  1.00  0.00     0.037 A 
ATOM     63  C   UNL A   1      41.900  32.637  35.712  1.00  0.00     0.037 A 
ATOM     64  C   UNL A   1      41.975  28.389  30.704  1.00  0.00     0.049 A 
ATOM     65  C   UNL A   1      42.308  31.188  35.773  1.00  0.00     0.074 A 
ATOM     66  C   UNL A   1      43.128  29.158  30.700  1.00  0.00     0.029 A 
ATOM     67  N   UNL A   1      41.822  27.910  32.001  1.00  0.00    -0.354 N 
ATOM     68  N   UNL A   1      42.201  30.362  34.767  1.00  0.00    -0.248 NA
ATOM     69  C   UNL A   1      42.925  30.578  36.946  1.00  0.00     0.031 C 
ATOM     70  C   UNL A   1      43.625  29.202  32.027  1.00  0.00     0.029 A 
ATOM     71  C   UNL A   1      42.789  28.444  32.833  1.00  0.00     0.049 A 
ATOM     72  H   UNL A   1      41.124  27.278  32.287  1.00  0.00     0.167 HD
ATOM     73  C   UNL A   1      42.752  29.157  35.114  1.00  0.00     0.074 A 
ATOM     74  C   UNL A   1      43.187  29.342  36.487  1.00  0.00     0.031 C 
ATOM     75  C   UNL A   1      42.830  28.104  34.246  1.00  0.00     0.037 A 
BRANCH  62  76
ATOM     76  C   UNL A   1      40.918  27.773  28.391  1.00  0.00     0.064 A 
ATOM     77  C   UNL A   1      40.260  26.555  28.094  1.00  0.00     0.173 A 
ATOM     78  C   UNL A   1      41.638  28.320  27.310  1.00  0.00     0.173 A 
ATOM     79  F   UNL A   1      39.469  25.951  28.991  1.00  0.00    -0.203 F 
ATOM     80  C   UNL A   1      40.381  25.908  26.862  1.00  0.00     0.198 A 
ATOM     81  C   UNL A   1      41.786  27.656  26.086  1.00  0.00     0.198 A 
ATOM     82  F   UNL A   1      42.180  29.538  27.366  1.00  0.00    -0.203 F 
ATOM     83  F   UNL A   1      39.735  24.752  26.653  1.00  0.00    -0.200 F 
ATOM     84  C   UNL A   1      41.162  26.447  25.863  1.00  0.00     0.200 A 
ATOM     85  F   UNL A   1      42.532  28.207  25.118  1.00  0.00    -0.200 F 
ATOM     86  F   UNL A   1      41.289  25.822  24.685  1.00  0.00    -0.200 F 
ENDBRANCH  62  76
BRANCH  63  87
ATOM     87  C   UNL A   1      40.807  33.295  36.486  1.00  0.00     0.064 A 
ATOM     88  C   UNL A   1      39.616  32.557  36.665  1.00  0.00     0.173 A 
ATOM     89  C   UNL A   1      41.046  34.350  37.375  1.00  0.00     0.173 A 
ATOM     90  F   UNL A   1      39.313  31.555  35.823  1.00  0.00    -0.203 F 
ATOM     91  C   UNL A   1      38.813  32.735  37.789  1.00  0.00     0.198 A 
ATOM     92  C   UNL A   1      40.204  34.560  38.474  1.00  0.00     0.198 A 
ATOM     93  F   UNL A   1      42.148  35.103  37.258  1.00  0.00    -0.203 F 
ATOM     94  F   UNL A   1      37.794  31.892  38.015  1.00  0.00    -0.200 F 
ATOM     95  C   UNL A   1      39.125  33.717  38.710  1.00  0.00     0.200 A 
ATOM     96  F   UNL A   1      40.493  35.524  39.359  1.00  0.00    -0.200 F 
ATOM     97  F   UNL A   1      38.408  33.828  39.837  1.00  0.00    -0.200 F 
ENDBRANCH  63  87
BRANCH  75  98
ATOM     98  C   UNL A   1      43.076  26.669  34.647  1.00  0.00     0.064 A 
ATOM     99  C   UNL A   1      42.059  25.798  35.072  1.00  0.00     0.173 A 
ATOM    100  C   UNL A   1      44.349  26.072  34.470  1.00  0.00     0.173 A 
ATOM    101  F   UNL A   1      40.777  26.185  35.121  1.00  0.00    -0.203 F 
ATOM    102  C   UNL A   1      42.317  24.467  35.405  1.00  0.00     0.198 A 
ATOM    103  C   UNL A   1      44.582  24.723  34.722  1.00  0.00     0.198 A 
ATOM    104  F   UNL A   1      45.402  26.768  34.017  1.00  0.00    -0.203 F 
ATOM    105  F   UNL A   1      41.325  23.703  35.881  1.00  0.00    -0.200 F 
ATOM    106  C   UNL A   1      43.573  23.928  35.221  1.00  0.00     0.200 A 
ATOM    107  F   UNL A   1      45.787  24.197  34.460  1.00  0.00    -0.200 F 
ATOM    108  F   UNL A   1      43.806  22.639  35.501  1.00  0.00    -0.200 F 
ENDBRANCH  75  98
ENDBRANCH  49  50
ENDBRANCH  41  44
ENDBRANCH  39  40
ENDBRANCH  38  39
ENDBRANCH  37  38
ENDBRANCH  36  37
ENDBRANCH   3  36
TORSDOF 18
ENDMDL
