MODEL 1
REMARK VINA RESULT:     -12.7      0.000      0.000
REMARK SMILES O=C(NCCCCNC(=O)[C@H]1CCc2[nH]nc(C(F)(F)F)c2C1)c1ccc(-c2c3nc(c(-c4c(F)c(F)c(F)c(F)c4F)c4ccc([nH]4)c(-c4c(F)c(F)c(F)c(F)c4F)c4nc(c(-c5c(F)c(F)c(F)c(F)c5F)c5ccc2[nH]5)C=C4)C=C3)cc1
REMARK SMILES IDX 5 1 4 2 3 3 1 4 2 5 24 7 25 8 86 9 26 10 85 11 27 12 28 13
REMARK SMILES IDX 29 14 79 15 30 16 84 17 78 18 80 19 31 20 83 21 77 22 76 23
REMARK SMILES IDX 32 25 64 26 44 27 63 28 45 29 48 30 62 31 81 32 46 33 47 34
REMARK SMILES IDX 61 36 82 37 49 38 33 39 34 40 42 41 35 42 36 43 40 44 43 45
REMARK SMILES IDX 37 46 38 47 41 48 39 49 65 50 66 51 74 52 67 53 68 54 72 55
REMARK SMILES IDX 75 56 69 57 70 58 73 59 71 60 50 61 51 62 59 63 52 64 53 65
REMARK SMILES IDX 57 66 60 67 54 68 55 69 58 70 56 71 6 72 7 73 8 74 9 75
REMARK SMILES IDX 10 77 11 78 12 79 23 80 13 81 22 82 14 83 17 84 15 85 16 86
REMARK SMILES IDX 18 88 19 89 20 90 21 91
REMARK H PARENT 3 6 80 24 48 35 8 76 15 87
REMARK Flexibility Score: inf
ROOT
ATOM      1  C   UNL A   1      31.421  32.812  26.533  1.00  0.00     0.023 C 
ENDROOT
BRANCH   1   2
ATOM      2  C   UNL A   1      32.570  33.248  27.433  1.00  0.00     0.116 C 
BRANCH   2   3
ATOM      3  N   UNL A   1      32.456  34.634  27.855  1.00  0.00    -0.352 N 
ATOM      4  O   UNL A   1      32.828  36.432  29.166  1.00  0.00    -0.269 OA
ATOM      5  C   UNL A   1      33.148  35.293  28.840  1.00  0.00     0.251 C 
ATOM      6  H   UNL A   1      31.792  35.173  27.368  1.00  0.00     0.163 HD
BRANCH   5   7
ATOM      7  C   UNL A   1      34.266  34.614  29.527  1.00  0.00     0.039 A 
ATOM      8  C   UNL A   1      35.558  34.652  28.997  1.00  0.00     0.014 A 
ATOM      9  C   UNL A   1      34.015  33.934  30.723  1.00  0.00     0.014 A 
ATOM     10  C   UNL A   1      36.572  33.911  29.596  1.00  0.00     0.010 A 
ATOM     11  C   UNL A   1      35.053  33.254  31.365  1.00  0.00     0.010 A 
ATOM     12  C   UNL A   1      36.333  33.217  30.794  1.00  0.00    -0.014 A 
BRANCH  12  13
ATOM     13  C   UNL A   1      37.458  32.521  31.467  1.00  0.00     0.031 A 
ATOM     14  C   UNL A   1      38.187  31.391  30.800  1.00  0.00     0.074 A 
ATOM     15  C   UNL A   1      37.827  32.935  32.695  1.00  0.00     0.049 A 
ATOM     16  N   UNL A   1      39.193  30.682  31.247  1.00  0.00    -0.248 NA
ATOM     17  C   UNL A   1      37.723  30.995  29.462  1.00  0.00     0.031 C 
ATOM     18  C   UNL A   1      37.177  34.010  33.448  1.00  0.00     0.029 A 
ATOM     19  N   UNL A   1      38.836  32.513  33.520  1.00  0.00    -0.354 N 
ATOM     20  C   UNL A   1      39.472  29.748  30.257  1.00  0.00     0.074 A 
ATOM     21  C   UNL A   1      38.513  29.963  29.195  1.00  0.00     0.031 C 
ATOM     22  C   UNL A   1      37.827  34.190  34.606  1.00  0.00     0.029 A 
ATOM     23  C   UNL A   1      38.900  33.206  34.703  1.00  0.00     0.049 A 
ATOM     24  H   UNL A   1      39.456  31.785  33.287  1.00  0.00     0.167 HD
ATOM     25  C   UNL A   1      40.444  28.804  30.241  1.00  0.00     0.037 A 
ATOM     26  C   UNL A   1      39.720  33.058  35.759  1.00  0.00     0.037 A 
ATOM     27  C   UNL A   1      41.406  28.608  31.296  1.00  0.00     0.049 A 
ATOM     28  C   UNL A   1      40.782  31.997  35.715  1.00  0.00     0.074 A 
ATOM     29  C   UNL A   1      42.459  27.711  31.347  1.00  0.00     0.029 A 
ATOM     30  N   UNL A   1      41.428  29.319  32.487  1.00  0.00    -0.354 N 
ATOM     31  N   UNL A   1      41.061  31.149  34.756  1.00  0.00    -0.248 NA
ATOM     32  C   UNL A   1      41.641  31.872  36.899  1.00  0.00     0.031 C 
ATOM     33  C   UNL A   1      43.089  27.845  32.590  1.00  0.00     0.029 A 
ATOM     34  C   UNL A   1      42.462  28.862  33.292  1.00  0.00     0.049 A 
ATOM     35  H   UNL A   1      40.804  30.041  32.727  1.00  0.00     0.167 HD
ATOM     36  C   UNL A   1      42.134  30.398  35.212  1.00  0.00     0.074 A 
ATOM     37  C   UNL A   1      42.470  30.907  36.527  1.00  0.00     0.031 C 
ATOM     38  C   UNL A   1      42.779  29.376  34.599  1.00  0.00     0.037 A 
BRANCH  25  39
ATOM     39  C   UNL A   1      40.512  27.891  29.049  1.00  0.00     0.064 A 
ATOM     40  C   UNL A   1      39.745  26.719  28.971  1.00  0.00     0.173 A 
ATOM     41  C   UNL A   1      41.311  28.227  27.945  1.00  0.00     0.173 A 
ATOM     42  F   UNL A   1      38.973  26.348  30.004  1.00  0.00    -0.203 F 
ATOM     43  C   UNL A   1      39.791  25.907  27.840  1.00  0.00     0.198 A 
ATOM     44  C   UNL A   1      41.335  27.426  26.806  1.00  0.00     0.198 A 
ATOM     45  F   UNL A   1      42.058  29.340  27.965  1.00  0.00    -0.203 F 
ATOM     46  F   UNL A   1      39.078  24.772  27.803  1.00  0.00    -0.200 F 
ATOM     47  C   UNL A   1      40.579  26.265  26.756  1.00  0.00     0.200 A 
ATOM     48  F   UNL A   1      42.086  27.780  25.754  1.00  0.00    -0.200 F 
ATOM     49  F   UNL A   1      40.613  25.488  25.665  1.00  0.00    -0.200 F 
ENDBRANCH  25  39
BRANCH  26  50
ATOM     50  C   UNL A   1      39.559  33.940  36.943  1.00  0.00     0.064 A 
ATOM     51  C   UNL A   1      38.792  33.539  38.044  1.00  0.00     0.173 A 
ATOM     52  C   UNL A   1      40.193  35.189  37.007  1.00  0.00     0.173 A 
ATOM     53  F   UNL A   1      38.154  32.359  38.021  1.00  0.00    -0.203 F 
ATOM     54  C   UNL A   1      38.656  34.358  39.161  1.00  0.00     0.198 A 
ATOM     55  C   UNL A   1      40.081  35.996  38.137  1.00  0.00     0.198 A 
ATOM     56  F   UNL A   1      40.944  35.615  35.980  1.00  0.00    -0.203 F 
ATOM     57  F   UNL A   1      37.889  33.967  40.187  1.00  0.00    -0.200 F 
ATOM     58  C   UNL A   1      39.306  35.583  39.210  1.00  0.00     0.200 A 
ATOM     59  F   UNL A   1      40.726  37.169  38.187  1.00  0.00    -0.200 F 
ATOM     60  F   UNL A   1      39.186  36.366  40.291  1.00  0.00    -0.200 F 
ENDBRANCH  26  50
BRANCH  38  61
ATOM     61  C   UNL A   1      43.927  28.755  35.340  1.00  0.00     0.064 A 
ATOM     62  C   UNL A   1      45.245  29.197  35.154  1.00  0.00     0.173 A 
ATOM     63  C   UNL A   1      43.702  27.724  36.264  1.00  0.00     0.173 A 
ATOM     64  F   UNL A   1      45.512  30.169  34.266  1.00  0.00    -0.203 F 
ATOM     65  C   UNL A   1      46.300  28.612  35.848  1.00  0.00     0.198 A 
ATOM     66  C   UNL A   1      44.756  27.161  36.977  1.00  0.00     0.198 A 
ATOM     67  F   UNL A   1      42.459  27.270  36.481  1.00  0.00    -0.203 F 
ATOM     68  F   UNL A   1      47.557  29.015  35.618  1.00  0.00    -0.200 F 
ATOM     69  C   UNL A   1      46.054  27.599  36.762  1.00  0.00     0.200 A 
ATOM     70  F   UNL A   1      44.516  26.190  37.870  1.00  0.00    -0.200 F 
ATOM     71  F   UNL A   1      47.071  27.038  37.432  1.00  0.00    -0.200 F 
ENDBRANCH  38  61
ENDBRANCH  12  13
ENDBRANCH   5   7
ENDBRANCH   2   3
ENDBRANCH   1   2
BRANCH   1  72
ATOM     72  C   UNL A   1      31.427  31.330  26.138  1.00  0.00     0.023 C 
BRANCH  72  73
ATOM     73  C   UNL A   1      32.629  30.538  26.658  1.00  0.00     0.116 C 
BRANCH  73  74
ATOM     74  N   UNL A   1      32.186  29.446  27.499  1.00  0.00    -0.356 N 
ATOM     75  C   UNL A   1      31.936  28.154  27.154  1.00  0.00     0.223 C 
ATOM     76  H   UNL A   1      32.047  29.668  28.448  1.00  0.00     0.163 HD
ATOM     77  O   UNL A   1      31.183  27.515  27.887  1.00  0.00    -0.275 OA
BRANCH  75  78
ATOM     78  C   UNL A   1      32.659  27.550  25.953  1.00  0.00     0.083 C 
ATOM     79  C   UNL A   1      32.611  26.000  26.053  1.00  0.00     0.020 C 
ATOM     80  C   UNL A   1      32.039  28.046  24.625  1.00  0.00     0.053 C 
ATOM     81  C   UNL A   1      31.181  25.419  25.957  1.00  0.00     0.057 C 
ATOM     82  C   UNL A   1      30.743  27.367  24.358  1.00  0.00     0.006 A 
ATOM     83  C   UNL A   1      30.393  26.179  24.957  1.00  0.00     0.039 A 
ATOM     84  C   UNL A   1      29.606  27.760  23.603  1.00  0.00     0.169 A 
ATOM     85  N   UNL A   1      29.117  25.917  24.568  1.00  0.00    -0.282 N 
ATOM     86  N   UNL A   1      28.627  26.833  23.713  1.00  0.00    -0.171 NA
ATOM     87  H   UNL A   1      28.604  25.137  24.880  1.00  0.00     0.190 HD
BRANCH  84  88
ATOM     88  C   UNL A   1      29.439  29.032  22.808  1.00  0.00     0.435 C 
ATOM     89  F   UNL A   1      30.451  29.238  21.922  1.00  0.00    -0.164 F 
ATOM     90  F   UNL A   1      28.279  29.053  22.097  1.00  0.00    -0.164 F 
ATOM     91  F   UNL A   1      29.411  30.137  23.609  1.00  0.00    -0.164 F 
ENDBRANCH  84  88
ENDBRANCH  75  78
ENDBRANCH  73  74
ENDBRANCH  72  73
ENDBRANCH   1  72
TORSDOF 12
ENDMDL
MODEL 2
REMARK VINA RESULT:     -12.7      0.534      7.453
REMARK SMILES O=C(NCCCCNC(=O)[C@H]1CCc2[nH]nc(C(F)(F)F)c2C1)c1ccc(-c2c3nc(c(-c4c(F)c(F)c(F)c(F)c4F)c4ccc([nH]4)c(-c4c(F)c(F)c(F)c(F)c4F)c4nc(c(-c5c(F)c(F)c(F)c(F)c5F)c5ccc2[nH]5)C=C4)C=C3)cc1
REMARK SMILES IDX 5 1 4 2 3 3 1 4 2 5 24 7 25 8 86 9 26 10 85 11 27 12 28 13
REMARK SMILES IDX 29 14 79 15 30 16 84 17 78 18 80 19 31 20 83 21 77 22 76 23
REMARK SMILES IDX 32 25 64 26 44 27 63 28 45 29 48 30 62 31 81 32 46 33 47 34
REMARK SMILES IDX 61 36 82 37 49 38 33 39 34 40 42 41 35 42 36 43 40 44 43 45
REMARK SMILES IDX 37 46 38 47 41 48 39 49 65 50 66 51 74 52 67 53 68 54 72 55
REMARK SMILES IDX 75 56 69 57 70 58 73 59 71 60 50 61 51 62 59 63 52 64 53 65
REMARK SMILES IDX 57 66 60 67 54 68 55 69 58 70 56 71 6 72 7 73 8 74 9 75
REMARK SMILES IDX 10 77 11 78 12 79 23 80 13 81 22 82 14 83 17 84 15 85 16 86
REMARK SMILES IDX 18 88 19 89 20 90 21 91
REMARK H PARENT 3 6 80 24 48 35 8 76 15 87
REMARK Flexibility Score: inf
ROOT
ATOM      1  C   UNL A   1      31.423  32.695  26.534  1.00  0.00     0.023 C 
ENDROOT
BRANCH   1   2
ATOM      2  C   UNL A   1      32.639  33.197  27.303  1.00  0.00     0.116 C 
BRANCH   2   3
ATOM      3  N   UNL A   1      32.447  34.532  27.844  1.00  0.00    -0.352 N 
ATOM      4  O   UNL A   1      32.722  36.227  29.306  1.00  0.00    -0.269 OA
ATOM      5  C   UNL A   1      33.106  35.142  28.882  1.00  0.00     0.251 C 
ATOM      6  H   UNL A   1      31.751  35.072  27.405  1.00  0.00     0.163 HD
BRANCH   5   7
ATOM      7  C   UNL A   1      34.265  34.471  29.507  1.00  0.00     0.039 A 
ATOM      8  C   UNL A   1      35.554  34.658  29.003  1.00  0.00     0.014 A 
ATOM      9  C   UNL A   1      34.055  33.648  30.618  1.00  0.00     0.014 A 
ATOM     10  C   UNL A   1      36.614  33.929  29.532  1.00  0.00     0.010 A 
ATOM     11  C   UNL A   1      35.134  32.975  31.196  1.00  0.00     0.010 A 
ATOM     12  C   UNL A   1      36.418  33.092  30.643  1.00  0.00    -0.014 A 
BRANCH  12  13
ATOM     13  C   UNL A   1      37.585  32.407  31.253  1.00  0.00     0.031 A 
ATOM     14  C   UNL A   1      38.069  32.765  32.628  1.00  0.00     0.074 A 
ATOM     15  C   UNL A   1      38.200  31.437  30.548  1.00  0.00     0.049 A 
ATOM     16  N   UNL A   1      39.067  32.258  33.308  1.00  0.00    -0.248 NA
ATOM     17  C   UNL A   1      37.348  33.836  33.331  1.00  0.00     0.031 C 
ATOM     18  C   UNL A   1      37.828  31.019  29.194  1.00  0.00     0.029 A 
ATOM     19  N   UNL A   1      39.254  30.623  30.871  1.00  0.00    -0.354 N 
ATOM     20  C   UNL A   1      39.106  32.958  34.507  1.00  0.00     0.074 A 
ATOM     21  C   UNL A   1      38.046  33.941  34.454  1.00  0.00     0.031 C 
ATOM     22  C   UNL A   1      38.615  30.002  28.817  1.00  0.00     0.029 A 
ATOM     23  C   UNL A   1      39.582  29.735  29.876  1.00  0.00     0.049 A 
ATOM     24  H   UNL A   1      39.728  30.669  31.731  1.00  0.00     0.167 HD
ATOM     25  C   UNL A   1      39.949  32.786  35.554  1.00  0.00     0.037 A 
ATOM     26  C   UNL A   1      40.564  28.818  29.814  1.00  0.00     0.037 A 
ATOM     27  C   UNL A   1      40.991  31.791  35.605  1.00  0.00     0.049 A 
ATOM     28  C   UNL A   1      41.487  28.657  30.987  1.00  0.00     0.074 A 
ATOM     29  C   UNL A   1      41.862  31.507  36.643  1.00  0.00     0.029 A 
ATOM     30  N   UNL A   1      41.305  30.921  34.571  1.00  0.00    -0.354 N 
ATOM     31  N   UNL A   1      41.487  29.295  32.131  1.00  0.00    -0.248 NA
ATOM     32  C   UNL A   1      42.547  27.649  30.859  1.00  0.00     0.031 C 
ATOM     33  C   UNL A   1      42.735  30.498  36.219  1.00  0.00     0.029 A 
ATOM     34  C   UNL A   1      42.374  30.117  34.937  1.00  0.00     0.049 A 
ATOM     35  H   UNL A   1      40.837  30.880  33.706  1.00  0.00     0.167 HD
ATOM     36  C   UNL A   1      42.534  28.760  32.866  1.00  0.00     0.074 A 
ATOM     37  C   UNL A   1      43.135  27.728  32.045  1.00  0.00     0.031 C 
ATOM     38  C   UNL A   1      42.962  29.098  34.106  1.00  0.00     0.037 A 
BRANCH  25  39
ATOM     39  C   UNL A   1      39.795  33.703  36.734  1.00  0.00     0.064 A 
ATOM     40  C   UNL A   1      40.435  34.950  36.789  1.00  0.00     0.173 A 
ATOM     41  C   UNL A   1      38.946  33.355  37.796  1.00  0.00     0.173 A 
ATOM     42  F   UNL A   1      41.265  35.326  35.803  1.00  0.00    -0.203 F 
ATOM     43  C   UNL A   1      40.248  35.805  37.872  1.00  0.00     0.198 A 
ATOM     44  C   UNL A   1      38.740  34.223  38.865  1.00  0.00     0.198 A 
ATOM     45  F   UNL A   1      38.304  32.178  37.789  1.00  0.00    -0.203 F 
ATOM     46  F   UNL A   1      40.899  36.976  37.921  1.00  0.00    -0.200 F 
ATOM     47  C   UNL A   1      39.394  35.445  38.906  1.00  0.00     0.200 A 
ATOM     48  F   UNL A   1      37.906  33.879  39.856  1.00  0.00    -0.200 F 
ATOM     49  F   UNL A   1      39.207  36.274  39.941  1.00  0.00    -0.200 F 
ENDBRANCH  25  39
BRANCH  26  50
ATOM     50  C   UNL A   1      40.717  27.989  28.591  1.00  0.00     0.064 A 
ATOM     51  C   UNL A   1      40.079  26.747  28.476  1.00  0.00     0.173 A 
ATOM     52  C   UNL A   1      41.480  28.437  27.503  1.00  0.00     0.173 A 
ATOM     53  F   UNL A   1      39.352  26.271  29.498  1.00  0.00    -0.203 F 
ATOM     54  C   UNL A   1      40.207  25.978  27.323  1.00  0.00     0.198 A 
ATOM     55  C   UNL A   1      41.584  27.680  26.338  1.00  0.00     0.198 A 
ATOM     56  F   UNL A   1      42.104  29.623  27.562  1.00  0.00    -0.203 F 
ATOM     57  F   UNL A   1      39.617  24.778  27.251  1.00  0.00    -0.200 F 
ATOM     58  C   UNL A   1      40.954  26.449  26.252  1.00  0.00     0.200 A 
ATOM     59  F   UNL A   1      42.290  28.147  25.300  1.00  0.00    -0.200 F 
ATOM     60  F   UNL A   1      41.067  25.713  25.136  1.00  0.00    -0.200 F 
ENDBRANCH  26  50
BRANCH  38  61
ATOM     61  C   UNL A   1      44.126  28.327  34.657  1.00  0.00     0.064 A 
ATOM     62  C   UNL A   1      45.444  28.780  34.504  1.00  0.00     0.173 A 
ATOM     63  C   UNL A   1      43.917  27.136  35.369  1.00  0.00     0.173 A 
ATOM     64  F   UNL A   1      45.697  29.904  33.815  1.00  0.00    -0.203 F 
ATOM     65  C   UNL A   1      46.514  28.054  35.021  1.00  0.00     0.198 A 
ATOM     66  C   UNL A   1      44.986  26.428  35.909  1.00  0.00     0.198 A 
ATOM     67  F   UNL A   1      42.674  26.664  35.547  1.00  0.00    -0.203 F 
ATOM     68  F   UNL A   1      47.769  28.478  34.820  1.00  0.00    -0.200 F 
ATOM     69  C   UNL A   1      46.284  26.883  35.727  1.00  0.00     0.200 A 
ATOM     70  F   UNL A   1      44.762  25.303  36.602  1.00  0.00    -0.200 F 
ATOM     71  F   UNL A   1      47.314  26.187  36.227  1.00  0.00    -0.200 F 
ENDBRANCH  38  61
ENDBRANCH  12  13
ENDBRANCH   5   7
ENDBRANCH   2   3
ENDBRANCH   1   2
BRANCH   1  72
ATOM     72  C   UNL A   1      31.459  31.210  26.152  1.00  0.00     0.023 C 
BRANCH  72  73
ATOM     73  C   UNL A   1      32.658  30.439  26.709  1.00  0.00     0.116 C 
BRANCH  73  74
ATOM     74  N   UNL A   1      32.210  29.333  27.528  1.00  0.00    -0.356 N 
ATOM     75  C   UNL A   1      31.946  28.051  27.156  1.00  0.00     0.223 C 
ATOM     76  H   UNL A   1      32.076  29.535  28.482  1.00  0.00     0.163 HD
ATOM     77  O   UNL A   1      31.191  27.403  27.879  1.00  0.00    -0.275 OA
BRANCH  75  78
ATOM     78  C   UNL A   1      32.659  27.466  25.940  1.00  0.00     0.083 C 
ATOM     79  C   UNL A   1      32.612  25.915  26.014  1.00  0.00     0.020 C 
ATOM     80  C   UNL A   1      32.029  27.985  24.625  1.00  0.00     0.053 C 
ATOM     81  C   UNL A   1      31.180  25.336  25.920  1.00  0.00     0.057 C 
ATOM     82  C   UNL A   1      30.730  27.311  24.358  1.00  0.00     0.006 A 
ATOM     83  C   UNL A   1      30.385  26.113  24.939  1.00  0.00     0.039 A 
ATOM     84  C   UNL A   1      29.587  27.718  23.618  1.00  0.00     0.169 A 
ATOM     85  N   UNL A   1      29.105  25.859  24.556  1.00  0.00    -0.282 N 
ATOM     86  N   UNL A   1      28.609  26.790  23.720  1.00  0.00    -0.171 NA
ATOM     87  H   UNL A   1      28.594  25.074  24.859  1.00  0.00     0.190 HD
BRANCH  84  88
ATOM     88  C   UNL A   1      29.415  29.002  22.846  1.00  0.00     0.435 C 
ATOM     89  F   UNL A   1      30.414  29.218  21.949  1.00  0.00    -0.164 F 
ATOM     90  F   UNL A   1      28.245  29.040  22.152  1.00  0.00    -0.164 F 
ATOM     91  F   UNL A   1      29.405  30.095  23.664  1.00  0.00    -0.164 F 
ENDBRANCH  84  88
ENDBRANCH  75  78
ENDBRANCH  73  74
ENDBRANCH  72  73
ENDBRANCH   1  72
TORSDOF 12
ENDMDL
MODEL 3
REMARK VINA RESULT:     -12.7      0.184      1.678
REMARK SMILES O=C(NCCCCNC(=O)[C@H]1CCc2[nH]nc(C(F)(F)F)c2C1)c1ccc(-c2c3nc(c(-c4c(F)c(F)c(F)c(F)c4F)c4ccc([nH]4)c(-c4c(F)c(F)c(F)c(F)c4F)c4nc(c(-c5c(F)c(F)c(F)c(F)c5F)c5ccc2[nH]5)C=C4)C=C3)cc1
REMARK SMILES IDX 5 1 4 2 3 3 1 4 2 5 24 7 25 8 86 9 26 10 85 11 27 12 28 13
REMARK SMILES IDX 29 14 79 15 30 16 84 17 78 18 80 19 31 20 83 21 77 22 76 23
REMARK SMILES IDX 32 25 64 26 44 27 63 28 45 29 48 30 62 31 81 32 46 33 47 34
REMARK SMILES IDX 61 36 82 37 49 38 33 39 34 40 42 41 35 42 36 43 40 44 43 45
REMARK SMILES IDX 37 46 38 47 41 48 39 49 65 50 66 51 74 52 67 53 68 54 72 55
REMARK SMILES IDX 75 56 69 57 70 58 73 59 71 60 50 61 51 62 59 63 52 64 53 65
REMARK SMILES IDX 57 66 60 67 54 68 55 69 58 70 56 71 6 72 7 73 8 74 9 75
REMARK SMILES IDX 10 77 11 78 12 79 23 80 13 81 22 82 14 83 17 84 15 85 16 86
REMARK SMILES IDX 18 88 19 89 20 90 21 91
REMARK H PARENT 3 6 80 24 48 35 8 76 15 87
REMARK Flexibility Score: inf
ROOT
ATOM      1  C   UNL A   1      31.421  32.732  26.529  1.00  0.00     0.023 C 
ENDROOT
BRANCH   1   2
ATOM      2  C   UNL A   1      32.608  33.201  27.361  1.00  0.00     0.116 C 
BRANCH   2   3
ATOM      3  N   UNL A   1      32.459  34.569  27.830  1.00  0.00    -0.352 N 
ATOM      4  O   UNL A   1      32.782  36.328  29.203  1.00  0.00    -0.269 OA
ATOM      5  C   UNL A   1      33.131  35.210  28.839  1.00  0.00     0.251 C 
ATOM      6  H   UNL A   1      31.783  35.108  27.358  1.00  0.00     0.163 HD
BRANCH   5   7
ATOM      7  C   UNL A   1      34.263  34.535  29.508  1.00  0.00     0.039 A 
ATOM      8  C   UNL A   1      35.552  34.605  28.973  1.00  0.00     0.014 A 
ATOM      9  C   UNL A   1      34.029  33.827  30.691  1.00  0.00     0.014 A 
ATOM     10  C   UNL A   1      36.580  33.869  29.553  1.00  0.00     0.010 A 
ATOM     11  C   UNL A   1      35.080  33.151  31.314  1.00  0.00     0.010 A 
ATOM     12  C   UNL A   1      36.358  33.147  30.737  1.00  0.00    -0.014 A 
BRANCH  12  13
ATOM     13  C   UNL A   1      37.497  32.455  31.391  1.00  0.00     0.031 A 
ATOM     14  C   UNL A   1      38.238  31.347  30.700  1.00  0.00     0.074 A 
ATOM     15  C   UNL A   1      37.868  32.853  32.624  1.00  0.00     0.049 A 
ATOM     16  N   UNL A   1      39.257  30.645  31.128  1.00  0.00    -0.248 NA
ATOM     17  C   UNL A   1      37.771  30.968  29.358  1.00  0.00     0.031 C 
ATOM     18  C   UNL A   1      37.207  33.906  33.399  1.00  0.00     0.029 A 
ATOM     19  N   UNL A   1      38.889  32.431  33.435  1.00  0.00    -0.354 N 
ATOM     20  C   UNL A   1      39.543  29.733  30.121  1.00  0.00     0.074 A 
ATOM     21  C   UNL A   1      38.574  29.953  29.068  1.00  0.00     0.031 C 
ATOM     22  C   UNL A   1      37.862  34.075  34.556  1.00  0.00     0.029 A 
ATOM     23  C   UNL A   1      38.950  33.105  34.630  1.00  0.00     0.049 A 
ATOM     24  H   UNL A   1      39.517  31.717  33.186  1.00  0.00     0.167 HD
ATOM     25  C   UNL A   1      40.528  28.803  30.082  1.00  0.00     0.037 A 
ATOM     26  C   UNL A   1      39.778  32.950  35.678  1.00  0.00     0.037 A 
ATOM     27  C   UNL A   1      41.500  28.604  31.127  1.00  0.00     0.049 A 
ATOM     28  C   UNL A   1      40.855  31.906  35.608  1.00  0.00     0.074 A 
ATOM     29  C   UNL A   1      42.566  27.721  31.156  1.00  0.00     0.029 A 
ATOM     30  N   UNL A   1      41.519  29.294  32.331  1.00  0.00    -0.354 N 
ATOM     31  N   UNL A   1      41.140  31.079  34.633  1.00  0.00    -0.248 NA
ATOM     32  C   UNL A   1      41.724  31.773  36.785  1.00  0.00     0.031 C 
ATOM     33  C   UNL A   1      43.202  27.843  32.397  1.00  0.00     0.029 A 
ATOM     34  C   UNL A   1      42.565  28.838  33.121  1.00  0.00     0.049 A 
ATOM     35  H   UNL A   1      40.886  30.003  32.586  1.00  0.00     0.167 HD
ATOM     36  C   UNL A   1      42.227  30.336  35.069  1.00  0.00     0.074 A 
ATOM     37  C   UNL A   1      42.564  30.827  36.390  1.00  0.00     0.031 C 
ATOM     38  C   UNL A   1      42.883  29.334  34.435  1.00  0.00     0.037 A 
BRANCH  25  39
ATOM     39  C   UNL A   1      40.602  27.913  28.874  1.00  0.00     0.064 A 
ATOM     40  C   UNL A   1      39.870  26.719  28.790  1.00  0.00     0.173 A 
ATOM     41  C   UNL A   1      41.369  28.291  27.761  1.00  0.00     0.173 A 
ATOM     42  F   UNL A   1      39.129  26.307  29.831  1.00  0.00    -0.203 F 
ATOM     43  C   UNL A   1      39.919  25.927  27.645  1.00  0.00     0.198 A 
ATOM     44  C   UNL A   1      41.396  27.510  26.608  1.00  0.00     0.198 A 
ATOM     45  F   UNL A   1      42.082  29.426  27.786  1.00  0.00    -0.203 F 
ATOM     46  F   UNL A   1      39.241  24.772  27.602  1.00  0.00    -0.200 F 
ATOM     47  C   UNL A   1      40.675  26.326  26.553  1.00  0.00     0.200 A 
ATOM     48  F   UNL A   1      42.116  27.904  25.549  1.00  0.00    -0.200 F 
ATOM     49  F   UNL A   1      40.712  25.569  25.449  1.00  0.00    -0.200 F 
ENDBRANCH  25  39
BRANCH  26  50
ATOM     50  C   UNL A   1      39.612  33.809  36.877  1.00  0.00     0.064 A 
ATOM     51  C   UNL A   1      40.204  35.077  36.947  1.00  0.00     0.173 A 
ATOM     52  C   UNL A   1      38.833  33.390  37.966  1.00  0.00     0.173 A 
ATOM     53  F   UNL A   1      40.970  35.514  35.936  1.00  0.00    -0.203 F 
ATOM     54  C   UNL A   1      40.032  35.889  38.064  1.00  0.00     0.198 A 
ATOM     55  C   UNL A   1      38.638  34.214  39.071  1.00  0.00     0.198 A 
ATOM     56  F   UNL A   1      38.240  32.187  37.944  1.00  0.00    -0.203 F 
ATOM     57  F   UNL A   1      40.638  37.083  38.121  1.00  0.00    -0.200 F 
ATOM     58  C   UNL A   1      39.244  35.460  39.122  1.00  0.00     0.200 A 
ATOM     59  F   UNL A   1      37.861  33.804  40.082  1.00  0.00    -0.200 F 
ATOM     60  F   UNL A   1      39.069  36.248  40.193  1.00  0.00    -0.200 F 
ENDBRANCH  26  50
BRANCH  38  61
ATOM     61  C   UNL A   1      44.045  28.717  35.157  1.00  0.00     0.064 A 
ATOM     62  C   UNL A   1      43.884  27.594  35.981  1.00  0.00     0.173 A 
ATOM     63  C   UNL A   1      45.337  29.240  35.002  1.00  0.00     0.173 A 
ATOM     64  F   UNL A   1      42.663  27.069  36.175  1.00  0.00    -0.203 F 
ATOM     65  C   UNL A   1      44.971  27.032  36.644  1.00  0.00     0.198 A 
ATOM     66  C   UNL A   1      46.426  28.659  35.644  1.00  0.00     0.198 A 
ATOM     67  F   UNL A   1      45.544  30.311  34.220  1.00  0.00    -0.203 F 
ATOM     68  F   UNL A   1      44.786  25.990  37.466  1.00  0.00    -0.200 F 
ATOM     69  C   UNL A   1      46.241  27.561  36.470  1.00  0.00     0.200 A 
ATOM     70  F   UNL A   1      47.655  29.163  35.466  1.00  0.00    -0.200 F 
ATOM     71  F   UNL A   1      47.287  27.017  37.108  1.00  0.00    -0.200 F 
ENDBRANCH  38  61
ENDBRANCH  12  13
ENDBRANCH   5   7
ENDBRANCH   2   3
ENDBRANCH   1   2
BRANCH   1  72
ATOM     72  C   UNL A   1      31.439  31.247  26.144  1.00  0.00     0.023 C 
BRANCH  72  73
ATOM     73  C   UNL A   1      32.632  30.463  26.693  1.00  0.00     0.116 C 
BRANCH  73  74
ATOM     74  N   UNL A   1      32.175  29.359  27.511  1.00  0.00    -0.356 N 
ATOM     75  C   UNL A   1      31.909  28.077  27.139  1.00  0.00     0.223 C 
ATOM     76  H   UNL A   1      32.037  29.562  28.465  1.00  0.00     0.163 HD
ATOM     77  O   UNL A   1      31.147  27.433  27.858  1.00  0.00    -0.275 OA
BRANCH  75  78
ATOM     78  C   UNL A   1      32.626  27.489  25.926  1.00  0.00     0.083 C 
ATOM     79  C   UNL A   1      32.573  25.938  26.002  1.00  0.00     0.020 C 
ATOM     80  C   UNL A   1      32.004  28.008  24.608  1.00  0.00     0.053 C 
ATOM     81  C   UNL A   1      31.139  25.364  25.902  1.00  0.00     0.057 C 
ATOM     82  C   UNL A   1      30.704  27.339  24.335  1.00  0.00     0.006 A 
ATOM     83  C   UNL A   1      30.351  26.143  24.916  1.00  0.00     0.039 A 
ATOM     84  C   UNL A   1      29.566  27.749  23.589  1.00  0.00     0.169 A 
ATOM     85  N   UNL A   1      29.073  25.892  24.527  1.00  0.00    -0.282 N 
ATOM     86  N   UNL A   1      28.585  26.824  23.687  1.00  0.00    -0.171 NA
ATOM     87  H   UNL A   1      28.558  25.109  24.828  1.00  0.00     0.190 HD
BRANCH  84  88
ATOM     88  C   UNL A   1      29.402  29.034  22.815  1.00  0.00     0.435 C 
ATOM     89  F   UNL A   1      28.263  29.060  22.071  1.00  0.00    -0.164 F 
ATOM     90  F   UNL A   1      29.373  30.128  23.622  1.00  0.00    -0.164 F 
ATOM     91  F   UNL A   1      30.427  29.238  21.937  1.00  0.00    -0.164 F 
ENDBRANCH  84  88
ENDBRANCH  75  78
ENDBRANCH  73  74
ENDBRANCH  72  73
ENDBRANCH   1  72
TORSDOF 12
ENDMDL
