MODEL 1
REMARK VINA RESULT:     -13.0      0.000      0.000
REMARK SMILES O=C(NCCCCNC(=O)[C@@H]1CCCN(c2ccc3cc(S(=O)(=O)N4CCCCC4)ccc3n2)C1)c1ccc(-c2c3nc(c(-c4c(F)c(F)c(F)c(F)c4F)c4ccc([nH]4)c(-c4c(F)c(F)c(F)c(F)c4F)c4nc(c(-c5c(F)c(F)c(F)c(F)c5F)c5ccc2[nH]5)C=C4)C=C3)cc1
REMARK SMILES IDX 6 1 5 2 4 3 3 4 1 5 2 6 36 8 37 9 98 10 38 11 97 12 39 13
REMARK SMILES IDX 40 14 41 15 91 16 42 17 96 18 90 19 92 20 43 21 95 22 89 23
REMARK SMILES IDX 88 24 44 26 76 27 56 28 75 29 57 30 60 31 74 32 93 33 58 34
REMARK SMILES IDX 59 35 73 37 94 38 61 39 45 40 46 41 54 42 47 43 48 44 52 45
REMARK SMILES IDX 55 46 49 47 50 48 53 49 51 50 77 51 78 52 86 53 79 54 80 55
REMARK SMILES IDX 84 56 87 57 81 58 82 59 85 60 83 61 62 62 63 63 71 64 64 65
REMARK SMILES IDX 65 66 69 67 72 68 66 69 67 70 70 71 68 72 7 73 8 74 9 75
REMARK SMILES IDX 10 77 11 78 12 79 35 80 13 81 15 82 14 83 16 84 17 85 34 86
REMARK SMILES IDX 18 87 33 88 19 89 32 90 20 91 31 92 21 93 22 94 23 95 24 96
REMARK SMILES IDX 25 97 26 98 30 99 27 100 29 101 28 102
REMARK H PARENT 3 7 92 25 60 36 8 76
REMARK Flexibility Score: inf
ROOT
ATOM      1  C   UNL A   1      31.564  27.676  26.292  1.00  0.00     0.023 C 
ENDROOT
BRANCH   1   2
ATOM      2  C   UNL A   1      33.055  27.781  25.995  1.00  0.00     0.023 C 
BRANCH   2   3
ATOM      3  C   UNL A   1      33.464  29.081  25.320  1.00  0.00     0.116 C 
BRANCH   3   4
ATOM      4  N   UNL A   1      32.776  30.247  25.856  1.00  0.00    -0.352 N 
ATOM      5  O   UNL A   1      32.397  31.903  27.354  1.00  0.00    -0.269 OA
ATOM      6  C   UNL A   1      33.142  31.032  26.923  1.00  0.00     0.251 C 
ATOM      7  H   UNL A   1      31.944  30.506  25.396  1.00  0.00     0.163 HD
BRANCH   6   8
ATOM      8  C   UNL A   1      34.447  30.778  27.561  1.00  0.00     0.039 A 
ATOM      9  C   UNL A   1      34.717  29.521  28.107  1.00  0.00     0.014 A 
ATOM     10  C   UNL A   1      35.369  31.819  27.681  1.00  0.00     0.014 A 
ATOM     11  C   UNL A   1      35.832  29.352  28.912  1.00  0.00     0.010 A 
ATOM     12  C   UNL A   1      36.547  31.611  28.398  1.00  0.00     0.010 A 
ATOM     13  C   UNL A   1      36.773  30.385  29.044  1.00  0.00    -0.014 A 
BRANCH  13  14
ATOM     14  C   UNL A   1      38.027  30.122  29.793  1.00  0.00     0.031 A 
ATOM     15  C   UNL A   1      38.228  30.630  31.191  1.00  0.00     0.074 A 
ATOM     16  C   UNL A   1      38.984  29.392  29.187  1.00  0.00     0.049 A 
ATOM     17  N   UNL A   1      39.270  30.494  31.973  1.00  0.00    -0.248 NA
ATOM     18  C   UNL A   1      37.126  31.397  31.791  1.00  0.00     0.031 C 
ATOM     19  C   UNL A   1      38.895  28.854  27.826  1.00  0.00     0.029 A 
ATOM     20  N   UNL A   1      40.208  28.965  29.631  1.00  0.00    -0.354 N 
ATOM     21  C   UNL A   1      38.959  31.168  33.145  1.00  0.00     0.074 A 
ATOM     22  C   UNL A   1      37.641  31.740  32.964  1.00  0.00     0.031 C 
ATOM     23  C   UNL A   1      39.993  28.134  27.564  1.00  0.00     0.029 A 
ATOM     24  C   UNL A   1      40.897  28.226  28.702  1.00  0.00     0.049 A 
ATOM     25  H   UNL A   1      40.557  29.169  30.529  1.00  0.00     0.167 HD
ATOM     26  C   UNL A   1      39.707  31.291  34.269  1.00  0.00     0.037 A 
ATOM     27  C   UNL A   1      42.137  27.706  28.747  1.00  0.00     0.037 A 
ATOM     28  C   UNL A   1      41.017  30.711  34.436  1.00  0.00     0.049 A 
ATOM     29  C   UNL A   1      42.957  27.901  29.989  1.00  0.00     0.074 A 
ATOM     30  C   UNL A   1      41.842  30.750  35.548  1.00  0.00     0.029 A 
ATOM     31  N   UNL A   1      41.698  29.995  33.462  1.00  0.00    -0.354 N 
ATOM     32  N   UNL A   1      42.637  28.508  31.105  1.00  0.00    -0.248 NA
ATOM     33  C   UNL A   1      44.313  27.338  29.976  1.00  0.00     0.031 C 
ATOM     34  C   UNL A   1      43.044  30.115  35.225  1.00  0.00     0.029 A 
ATOM     35  C   UNL A   1      42.945  29.616  33.937  1.00  0.00     0.049 A 
ATOM     36  H   UNL A   1      41.348  29.788  32.566  1.00  0.00     0.167 HD
ATOM     37  C   UNL A   1      43.739  28.379  31.938  1.00  0.00     0.074 A 
ATOM     38  C   UNL A   1      44.728  27.615  31.203  1.00  0.00     0.031 C 
ATOM     39  C   UNL A   1      43.917  28.849  33.196  1.00  0.00     0.037 A 
BRANCH  26  40
ATOM     40  C   UNL A   1      39.146  32.100  35.405  1.00  0.00     0.064 A 
ATOM     41  C   UNL A   1      38.402  31.511  36.438  1.00  0.00     0.173 A 
ATOM     42  C   UNL A   1      39.409  33.477  35.493  1.00  0.00     0.173 A 
ATOM     43  F   UNL A   1      38.112  30.202  36.401  1.00  0.00    -0.203 F 
ATOM     44  C   UNL A   1      37.925  32.273  37.503  1.00  0.00     0.198 A 
ATOM     45  C   UNL A   1      38.959  34.228  36.575  1.00  0.00     0.198 A 
ATOM     46  F   UNL A   1      40.123  34.091  34.537  1.00  0.00    -0.203 F 
ATOM     47  F   UNL A   1      37.181  31.696  38.457  1.00  0.00    -0.200 F 
ATOM     48  C   UNL A   1      38.211  33.628  37.576  1.00  0.00     0.200 A 
ATOM     49  F   UNL A   1      39.252  35.534  36.652  1.00  0.00    -0.200 F 
ATOM     50  F   UNL A   1      37.764  34.355  38.608  1.00  0.00    -0.200 F 
ENDBRANCH  26  40
BRANCH  27  51
ATOM     51  C   UNL A   1      42.673  26.972  27.573  1.00  0.00     0.064 A 
ATOM     52  C   UNL A   1      42.215  25.686  27.252  1.00  0.00     0.173 A 
ATOM     53  C   UNL A   1      43.656  27.539  26.748  1.00  0.00     0.173 A 
ATOM     54  F   UNL A   1      41.286  25.096  28.018  1.00  0.00    -0.203 F 
ATOM     55  C   UNL A   1      42.741  24.987  26.169  1.00  0.00     0.198 A 
ATOM     56  C   UNL A   1      44.152  26.853  25.642  1.00  0.00     0.198 A 
ATOM     57  F   UNL A   1      44.121  28.771  27.004  1.00  0.00    -0.203 F 
ATOM     58  F   UNL A   1      42.325  23.738  25.917  1.00  0.00    -0.200 F 
ATOM     59  C   UNL A   1      43.703  25.573  25.361  1.00  0.00     0.200 A 
ATOM     60  F   UNL A   1      45.066  27.433  24.852  1.00  0.00    -0.200 F 
ATOM     61  F   UNL A   1      44.204  24.900  24.316  1.00  0.00    -0.200 F 
ENDBRANCH  27  51
BRANCH  39  62
ATOM     62  C   UNL A   1      45.212  28.511  33.877  1.00  0.00     0.064 A 
ATOM     63  C   UNL A   1      46.328  29.358  33.808  1.00  0.00     0.173 A 
ATOM     64  C   UNL A   1      45.327  27.333  34.631  1.00  0.00     0.173 A 
ATOM     65  F   UNL A   1      46.276  30.487  33.086  1.00  0.00    -0.203 F 
ATOM     66  C   UNL A   1      47.522  29.022  34.442  1.00  0.00     0.198 A 
ATOM     67  C   UNL A   1      46.510  27.019  35.293  1.00  0.00     0.198 A 
ATOM     68  F   UNL A   1      44.288  26.491  34.734  1.00  0.00    -0.203 F 
ATOM     69  F   UNL A   1      48.593  29.816  34.313  1.00  0.00    -0.200 F 
ATOM     70  C   UNL A   1      47.609  27.858  35.190  1.00  0.00     0.200 A 
ATOM     71  F   UNL A   1      46.586  25.902  36.031  1.00  0.00    -0.200 F 
ATOM     72  F   UNL A   1      48.755  27.539  35.807  1.00  0.00    -0.200 F 
ENDBRANCH  39  62
ENDBRANCH  13  14
ENDBRANCH   6   8
ENDBRANCH   3   4
ENDBRANCH   2   3
ENDBRANCH   1   2
BRANCH   1  73
ATOM     73  C   UNL A   1      31.002  26.283  26.035  1.00  0.00     0.116 C 
BRANCH  73  74
ATOM     74  N   UNL A   1      31.689  25.289  26.844  1.00  0.00    -0.356 N 
ATOM     75  C   UNL A   1      32.353  24.165  26.415  1.00  0.00     0.224 C 
ATOM     76  H   UNL A   1      31.678  25.440  27.817  1.00  0.00     0.163 HD
ATOM     77  O   UNL A   1      32.823  23.393  27.247  1.00  0.00    -0.275 OA
BRANCH  75  78
ATOM     78  C   UNL A   1      32.523  23.995  24.914  1.00  0.00     0.098 C 
ATOM     79  C   UNL A   1      32.036  22.641  24.359  1.00  0.00     0.017 C 
ATOM     80  C   UNL A   1      33.963  24.416  24.584  1.00  0.00     0.131 C 
ATOM     81  C   UNL A   1      33.099  21.666  23.844  1.00  0.00     0.022 C 
ATOM     82  N   UNL A   1      34.779  23.275  24.268  1.00  0.00    -0.356 N 
ATOM     83  C   UNL A   1      34.305  22.376  23.246  1.00  0.00     0.118 C 
BRANCH  82  84
ATOM     84  C   UNL A   1      35.996  23.066  24.853  1.00  0.00     0.129 A 
ATOM     85  C   UNL A   1      36.625  24.064  25.590  1.00  0.00     0.047 A 
ATOM     86  N   UNL A   1      36.542  21.848  24.705  1.00  0.00    -0.231 NA
ATOM     87  C   UNL A   1      37.843  23.794  26.211  1.00  0.00     0.014 A 
ATOM     88  C   UNL A   1      37.729  21.600  25.265  1.00  0.00     0.073 A 
ATOM     89  C   UNL A   1      38.428  22.535  26.053  1.00  0.00     0.002 A 
ATOM     90  C   UNL A   1      38.291  20.358  25.049  1.00  0.00     0.030 A 
ATOM     91  C   UNL A   1      39.661  22.184  26.636  1.00  0.00     0.032 A 
ATOM     92  C   UNL A   1      39.522  20.008  25.604  1.00  0.00     0.024 A 
ATOM     93  C   UNL A   1      40.206  20.914  26.409  1.00  0.00     0.083 A 
BRANCH  93  94
ATOM     94  S   UNL A   1      41.767  20.542  27.192  1.00  0.00     0.243 S 
ATOM     95  O   UNL A   1      42.105  21.714  27.977  1.00  0.00    -0.207 OA
ATOM     96  O   UNL A   1      41.605  19.246  27.808  1.00  0.00    -0.207 OA
BRANCH  94  97
ATOM     97  N   UNL A   1      42.941  20.389  25.957  1.00  0.00    -0.198 NA
ATOM     98  C   UNL A   1      43.949  21.475  25.876  1.00  0.00     0.102 C 
ATOM     99  C   UNL A   1      43.370  19.006  25.631  1.00  0.00     0.102 C 
ATOM    100  C   UNL A   1      44.828  21.355  24.639  1.00  0.00     0.017 C 
ATOM    101  C   UNL A   1      44.268  18.956  24.403  1.00  0.00     0.017 C 
ATOM    102  C   UNL A   1      45.408  19.956  24.506  1.00  0.00     0.003 C 
ENDBRANCH  94  97
ENDBRANCH  93  94
ENDBRANCH  82  84
ENDBRANCH  75  78
ENDBRANCH  73  74
ENDBRANCH   1  73
TORSDOF 14
ENDMDL
MODEL 2
REMARK VINA RESULT:     -12.9      4.122      7.626
REMARK SMILES O=C(NCCCCNC(=O)[C@@H]1CCCN(c2ccc3cc(S(=O)(=O)N4CCCCC4)ccc3n2)C1)c1ccc(-c2c3nc(c(-c4c(F)c(F)c(F)c(F)c4F)c4ccc([nH]4)c(-c4c(F)c(F)c(F)c(F)c4F)c4nc(c(-c5c(F)c(F)c(F)c(F)c5F)c5ccc2[nH]5)C=C4)C=C3)cc1
REMARK SMILES IDX 6 1 5 2 4 3 3 4 1 5 2 6 36 8 37 9 98 10 38 11 97 12 39 13
REMARK SMILES IDX 40 14 41 15 91 16 42 17 96 18 90 19 92 20 43 21 95 22 89 23
REMARK SMILES IDX 88 24 44 26 76 27 56 28 75 29 57 30 60 31 74 32 93 33 58 34
REMARK SMILES IDX 59 35 73 37 94 38 61 39 45 40 46 41 54 42 47 43 48 44 52 45
REMARK SMILES IDX 55 46 49 47 50 48 53 49 51 50 77 51 78 52 86 53 79 54 80 55
REMARK SMILES IDX 84 56 87 57 81 58 82 59 85 60 83 61 62 62 63 63 71 64 64 65
REMARK SMILES IDX 65 66 69 67 72 68 66 69 67 70 70 71 68 72 7 73 8 74 9 75
REMARK SMILES IDX 10 77 11 78 12 79 35 80 13 81 15 82 14 83 16 84 17 85 34 86
REMARK SMILES IDX 18 87 33 88 19 89 32 90 20 91 31 92 21 93 22 94 23 95 24 96
REMARK SMILES IDX 25 97 26 98 30 99 27 100 29 101 28 102
REMARK H PARENT 3 7 92 25 60 36 8 76
REMARK Flexibility Score: inf
ROOT
ATOM      1  C   UNL A   1      33.107  34.379  28.966  1.00  0.00     0.023 C 
ENDROOT
BRANCH   1   2
ATOM      2  C   UNL A   1      33.239  33.449  27.767  1.00  0.00     0.023 C 
BRANCH   2   3
ATOM      3  C   UNL A   1      34.213  32.300  27.976  1.00  0.00     0.116 C 
BRANCH   3   4
ATOM      4  N   UNL A   1      33.615  30.992  27.748  1.00  0.00    -0.352 N 
ATOM      5  O   UNL A   1      33.636  28.761  27.352  1.00  0.00    -0.269 OA
ATOM      6  C   UNL A   1      34.243  29.771  27.689  1.00  0.00     0.251 C 
ATOM      7  H   UNL A   1      32.639  30.980  27.620  1.00  0.00     0.163 HD
BRANCH   6   8
ATOM      8  C   UNL A   1      35.682  29.709  28.011  1.00  0.00     0.039 A 
ATOM      9  C   UNL A   1      36.624  29.958  27.011  1.00  0.00     0.014 A 
ATOM     10  C   UNL A   1      36.084  29.328  29.291  1.00  0.00     0.014 A 
ATOM     11  C   UNL A   1      37.959  29.666  27.245  1.00  0.00     0.010 A 
ATOM     12  C   UNL A   1      37.442  29.144  29.556  1.00  0.00     0.010 A 
ATOM     13  C   UNL A   1      38.387  29.284  28.526  1.00  0.00    -0.014 A 
BRANCH  13  14
ATOM     14  C   UNL A   1      39.840  29.122  28.779  1.00  0.00     0.031 A 
ATOM     15  C   UNL A   1      40.640  30.189  29.467  1.00  0.00     0.074 A 
ATOM     16  C   UNL A   1      40.425  27.973  28.389  1.00  0.00     0.049 A 
ATOM     17  N   UNL A   1      41.919  30.203  29.751  1.00  0.00    -0.248 NA
ATOM     18  C   UNL A   1      39.922  31.403  29.885  1.00  0.00     0.031 C 
ATOM     19  C   UNL A   1      39.742  26.871  27.705  1.00  0.00     0.029 A 
ATOM     20  N   UNL A   1      41.716  27.532  28.517  1.00  0.00    -0.354 N 
ATOM     21  C   UNL A   1      42.162  31.425  30.362  1.00  0.00     0.074 A 
ATOM     22  C   UNL A   1      40.904  32.142  30.383  1.00  0.00     0.031 C 
ATOM     23  C   UNL A   1      40.606  25.866  27.516  1.00  0.00     0.029 A 
ATOM     24  C   UNL A   1      41.919  26.281  27.988  1.00  0.00     0.049 A 
ATOM     25  H   UNL A   1      42.427  28.059  28.948  1.00  0.00     0.167 HD
ATOM     26  C   UNL A   1      43.329  31.898  30.862  1.00  0.00     0.037 A 
ATOM     27  C   UNL A   1      43.048  25.559  27.865  1.00  0.00     0.037 A 
ATOM     28  C   UNL A   1      44.574  31.170  30.838  1.00  0.00     0.049 A 
ATOM     29  C   UNL A   1      44.333  26.132  28.387  1.00  0.00     0.074 A 
ATOM     30  C   UNL A   1      45.805  31.548  31.349  1.00  0.00     0.029 A 
ATOM     31  N   UNL A   1      44.750  29.919  30.265  1.00  0.00    -0.354 N 
ATOM     32  N   UNL A   1      44.542  27.273  28.996  1.00  0.00    -0.248 NA
ATOM     33  C   UNL A   1      45.539  25.318  28.202  1.00  0.00     0.031 C 
ATOM     34  C   UNL A   1      46.736  30.556  31.029  1.00  0.00     0.029 A 
ATOM     35  C   UNL A   1      46.075  29.526  30.381  1.00  0.00     0.049 A 
ATOM     36  H   UNL A   1      44.040  29.388  29.838  1.00  0.00     0.167 HD
ATOM     37  C   UNL A   1      45.898  27.303  29.292  1.00  0.00     0.074 A 
ATOM     38  C   UNL A   1      46.454  26.054  28.814  1.00  0.00     0.031 C 
ATOM     39  C   UNL A   1      46.615  28.276  29.905  1.00  0.00     0.037 A 
BRANCH  26  40
ATOM     40  C   UNL A   1      43.333  33.277  31.461  1.00  0.00     0.064 A 
ATOM     41  C   UNL A   1      43.364  34.431  30.665  1.00  0.00     0.173 A 
ATOM     42  C   UNL A   1      43.240  33.446  32.852  1.00  0.00     0.173 A 
ATOM     43  F   UNL A   1      43.461  34.329  29.331  1.00  0.00    -0.203 F 
ATOM     44  C   UNL A   1      43.325  35.701  31.239  1.00  0.00     0.198 A 
ATOM     45  C   UNL A   1      43.169  34.716  33.420  1.00  0.00     0.198 A 
ATOM     46  F   UNL A   1      43.198  32.377  33.662  1.00  0.00    -0.203 F 
ATOM     47  F   UNL A   1      43.399  36.789  30.459  1.00  0.00    -0.200 F 
ATOM     48  C   UNL A   1      43.219  35.842  32.614  1.00  0.00     0.200 A 
ATOM     49  F   UNL A   1      43.048  34.849  34.749  1.00  0.00    -0.200 F 
ATOM     50  F   UNL A   1      43.168  37.063  33.163  1.00  0.00    -0.200 F 
ENDBRANCH  26  40
BRANCH  27  51
ATOM     51  C   UNL A   1      43.005  24.230  27.204  1.00  0.00     0.064 A 
ATOM     52  C   UNL A   1      42.613  23.084  27.909  1.00  0.00     0.173 A 
ATOM     53  C   UNL A   1      43.359  24.077  25.854  1.00  0.00     0.173 A 
ATOM     54  F   UNL A   1      42.279  23.177  29.205  1.00  0.00    -0.203 F 
ATOM     55  C   UNL A   1      42.603  21.833  27.297  1.00  0.00     0.198 A 
ATOM     56  C   UNL A   1      43.311  22.831  25.234  1.00  0.00     0.198 A 
ATOM     57  F   UNL A   1      43.732  25.143  25.131  1.00  0.00    -0.203 F 
ATOM     58  F   UNL A   1      42.277  20.745  28.009  1.00  0.00    -0.200 F 
ATOM     59  C   UNL A   1      42.945  21.708  25.959  1.00  0.00     0.200 A 
ATOM     60  F   UNL A   1      43.621  22.720  23.935  1.00  0.00    -0.200 F 
ATOM     61  F   UNL A   1      42.930  20.505  25.370  1.00  0.00    -0.200 F 
ENDBRANCH  27  51
BRANCH  39  62
ATOM     62  C   UNL A   1      48.075  28.007  30.135  1.00  0.00     0.064 A 
ATOM     63  C   UNL A   1      48.533  27.327  31.273  1.00  0.00     0.173 A 
ATOM     64  C   UNL A   1      49.026  28.417  29.188  1.00  0.00     0.173 A 
ATOM     65  F   UNL A   1      47.666  26.929  32.217  1.00  0.00    -0.203 F 
ATOM     66  C   UNL A   1      49.891  27.094  31.469  1.00  0.00     0.198 A 
ATOM     67  C   UNL A   1      50.379  28.150  29.370  1.00  0.00     0.198 A 
ATOM     68  F   UNL A   1      48.641  29.067  28.079  1.00  0.00    -0.203 F 
ATOM     69  F   UNL A   1      50.312  26.494  32.591  1.00  0.00    -0.200 F 
ATOM     70  C   UNL A   1      50.812  27.498  30.514  1.00  0.00     0.200 A 
ATOM     71  F   UNL A   1      51.266  28.526  28.437  1.00  0.00    -0.200 F 
ATOM     72  F   UNL A   1      52.119  27.266  30.700  1.00  0.00    -0.200 F 
ENDBRANCH  39  62
ENDBRANCH  13  14
ENDBRANCH   6   8
ENDBRANCH   3   4
ENDBRANCH   2   3
ENDBRANCH   1   2
BRANCH   1  73
ATOM     73  C   UNL A   1      34.145  35.495  28.972  1.00  0.00     0.116 C 
BRANCH  73  74
ATOM     74  N   UNL A   1      35.493  34.951  29.012  1.00  0.00    -0.356 N 
ATOM     75  C   UNL A   1      36.081  34.227  30.021  1.00  0.00     0.224 C 
ATOM     76  H   UNL A   1      36.052  35.121  28.220  1.00  0.00     0.163 HD
ATOM     77  O   UNL A   1      37.261  33.901  29.915  1.00  0.00    -0.275 OA
BRANCH  75  78
ATOM     78  C   UNL A   1      35.192  33.814  31.182  1.00  0.00     0.098 C 
ATOM     79  C   UNL A   1      34.974  34.906  32.250  1.00  0.00     0.017 C 
ATOM     80  C   UNL A   1      35.704  32.449  31.664  1.00  0.00     0.131 C 
ATOM     81  C   UNL A   1      35.613  34.686  33.625  1.00  0.00     0.022 C 
ATOM     82  N   UNL A   1      36.387  32.565  32.925  1.00  0.00    -0.356 N 
ATOM     83  C   UNL A   1      35.692  33.215  34.006  1.00  0.00     0.118 C 
BRANCH  82  84
ATOM     84  C   UNL A   1      37.625  32.026  33.134  1.00  0.00     0.129 A 
ATOM     85  C   UNL A   1      38.647  32.764  33.723  1.00  0.00     0.047 A 
ATOM     86  N   UNL A   1      37.801  30.746  32.768  1.00  0.00    -0.231 NA
ATOM     87  C   UNL A   1      39.880  32.161  33.962  1.00  0.00     0.014 A 
ATOM     88  C   UNL A   1      38.995  30.177  32.959  1.00  0.00     0.073 A 
ATOM     89  C   UNL A   1      40.079  30.834  33.573  1.00  0.00     0.002 A 
ATOM     90  C   UNL A   1      39.163  28.879  32.522  1.00  0.00     0.030 A 
ATOM     91  C   UNL A   1      41.297  30.153  33.767  1.00  0.00     0.032 A 
ATOM     92  C   UNL A   1      40.371  28.203  32.690  1.00  0.00     0.024 A 
ATOM     93  C   UNL A   1      41.439  28.832  33.324  1.00  0.00     0.083 A 
BRANCH  93  94
ATOM     94  S   UNL A   1      43.010  28.036  33.615  1.00  0.00     0.243 S 
ATOM     95  O   UNL A   1      43.617  27.868  32.309  1.00  0.00    -0.207 OA
ATOM     96  O   UNL A   1      43.660  28.806  34.652  1.00  0.00    -0.207 OA
BRANCH  94  97
ATOM     97  N   UNL A   1      42.691  26.478  34.244  1.00  0.00    -0.198 NA
ATOM     98  C   UNL A   1      43.769  25.472  34.072  1.00  0.00     0.102 C 
ATOM     99  C   UNL A   1      41.874  26.428  35.482  1.00  0.00     0.102 C 
ATOM    100  C   UNL A   1      43.325  24.076  34.488  1.00  0.00     0.017 C 
ATOM    101  C   UNL A   1      41.487  25.005  35.860  1.00  0.00     0.017 C 
ATOM    102  C   UNL A   1      42.695  24.083  35.872  1.00  0.00     0.003 C 
ENDBRANCH  94  97
ENDBRANCH  93  94
ENDBRANCH  82  84
ENDBRANCH  75  78
ENDBRANCH  73  74
ENDBRANCH   1  73
TORSDOF 14
ENDMDL
MODEL 3
REMARK VINA RESULT:     -12.8      7.827     14.746
REMARK SMILES O=C(NCCCCNC(=O)[C@@H]1CCCN(c2ccc3cc(S(=O)(=O)N4CCCCC4)ccc3n2)C1)c1ccc(-c2c3nc(c(-c4c(F)c(F)c(F)c(F)c4F)c4ccc([nH]4)c(-c4c(F)c(F)c(F)c(F)c4F)c4nc(c(-c5c(F)c(F)c(F)c(F)c5F)c5ccc2[nH]5)C=C4)C=C3)cc1
REMARK SMILES IDX 6 1 5 2 4 3 3 4 1 5 2 6 36 8 37 9 98 10 38 11 97 12 39 13
REMARK SMILES IDX 40 14 41 15 91 16 42 17 96 18 90 19 92 20 43 21 95 22 89 23
REMARK SMILES IDX 88 24 44 26 76 27 56 28 75 29 57 30 60 31 74 32 93 33 58 34
REMARK SMILES IDX 59 35 73 37 94 38 61 39 45 40 46 41 54 42 47 43 48 44 52 45
REMARK SMILES IDX 55 46 49 47 50 48 53 49 51 50 77 51 78 52 86 53 79 54 80 55
REMARK SMILES IDX 84 56 87 57 81 58 82 59 85 60 83 61 62 62 63 63 71 64 64 65
REMARK SMILES IDX 65 66 69 67 72 68 66 69 67 70 70 71 68 72 7 73 8 74 9 75
REMARK SMILES IDX 10 77 11 78 12 79 35 80 13 81 15 82 14 83 16 84 17 85 34 86
REMARK SMILES IDX 18 87 33 88 19 89 32 90 20 91 31 92 21 93 22 94 23 95 24 96
REMARK SMILES IDX 25 97 26 98 30 99 27 100 29 101 28 102
REMARK H PARENT 3 7 92 25 60 36 8 76
REMARK Flexibility Score: inf
ROOT
ATOM      1  C   UNL A   1      45.154  25.775  39.166  1.00  0.00     0.023 C 
ENDROOT
BRANCH   1   2
ATOM      2  C   UNL A   1      46.183  26.824  39.571  1.00  0.00     0.023 C 
BRANCH   2   3
ATOM      3  C   UNL A   1      46.823  27.551  38.398  1.00  0.00     0.116 C 
BRANCH   3   4
ATOM      4  N   UNL A   1      47.791  26.736  37.677  1.00  0.00    -0.352 N 
ATOM      5  O   UNL A   1      48.538  25.476  35.949  1.00  0.00    -0.269 OA
ATOM      6  C   UNL A   1      47.714  26.270  36.387  1.00  0.00     0.251 C 
ATOM      7  H   UNL A   1      48.603  26.488  38.177  1.00  0.00     0.163 HD
BRANCH   6   8
ATOM      8  C   UNL A   1      46.590  26.724  35.546  1.00  0.00     0.039 A 
ATOM      9  C   UNL A   1      46.714  27.899  34.803  1.00  0.00     0.014 A 
ATOM     10  C   UNL A   1      45.388  26.015  35.563  1.00  0.00     0.014 A 
ATOM     11  C   UNL A   1      45.591  28.453  34.209  1.00  0.00     0.010 A 
ATOM     12  C   UNL A   1      44.287  26.518  34.869  1.00  0.00     0.010 A 
ATOM     13  C   UNL A   1      44.372  27.756  34.212  1.00  0.00    -0.014 A 
BRANCH  13  14
ATOM     14  C   UNL A   1      43.229  28.306  33.443  1.00  0.00     0.031 A 
ATOM     15  C   UNL A   1      42.986  27.920  32.013  1.00  0.00     0.074 A 
ATOM     16  C   UNL A   1      42.394  29.155  34.072  1.00  0.00     0.049 A 
ATOM     17  N   UNL A   1      42.038  28.322  31.202  1.00  0.00    -0.248 NA
ATOM     18  C   UNL A   1      43.928  26.968  31.406  1.00  0.00     0.031 C 
ATOM     19  C   UNL A   1      42.540  29.603  35.460  1.00  0.00     0.029 A 
ATOM     20  N   UNL A   1      41.255  29.784  33.641  1.00  0.00    -0.354 N 
ATOM     21  C   UNL A   1      42.278  27.690  29.990  1.00  0.00     0.074 A 
ATOM     22  C   UNL A   1      43.478  26.897  30.160  1.00  0.00     0.031 C 
ATOM     23  C   UNL A   1      41.509  30.396  35.779  1.00  0.00     0.029 A 
ATOM     24  C   UNL A   1      40.675  30.578  34.599  1.00  0.00     0.049 A 
ATOM     25  H   UNL A   1      40.889  29.676  32.734  1.00  0.00     0.167 HD
ATOM     26  C   UNL A   1      41.555  27.763  28.846  1.00  0.00     0.037 A 
ATOM     27  C   UNL A   1      39.607  31.392  34.528  1.00  0.00     0.037 A 
ATOM     28  C   UNL A   1      40.358  28.553  28.694  1.00  0.00     0.049 A 
ATOM     29  C   UNL A   1      38.856  31.487  33.231  1.00  0.00     0.074 A 
ATOM     30  C   UNL A   1      39.535  28.668  27.586  1.00  0.00     0.029 A 
ATOM     31  N   UNL A   1      39.817  29.371  29.676  1.00  0.00    -0.354 N 
ATOM     32  N   UNL A   1      39.071  30.855  32.103  1.00  0.00    -0.248 NA
ATOM     33  C   UNL A   1      37.716  32.410  33.197  1.00  0.00     0.031 C 
ATOM     34  C   UNL A   1      38.537  29.602  27.876  1.00  0.00     0.029 A 
ATOM     35  C   UNL A   1      38.692  30.017  29.189  1.00  0.00     0.049 A 
ATOM     36  H   UNL A   1      40.180  29.477  30.585  1.00  0.00     0.167 HD
ATOM     37  C   UNL A   1      38.078  31.282  31.233  1.00  0.00     0.074 A 
ATOM     38  C   UNL A   1      37.249  32.211  31.974  1.00  0.00     0.031 C 
ATOM     39  C   UNL A   1      37.871  30.936  29.939  1.00  0.00     0.037 A 
BRANCH  26  40
ATOM     40  C   UNL A   1      42.043  26.989  27.653  1.00  0.00     0.064 A 
ATOM     41  C   UNL A   1      42.997  27.514  26.769  1.00  0.00     0.173 A 
ATOM     42  C   UNL A   1      41.594  25.678  27.427  1.00  0.00     0.173 A 
ATOM     43  F   UNL A   1      43.454  28.764  26.932  1.00  0.00    -0.203 F 
ATOM     44  C   UNL A   1      43.467  26.763  25.692  1.00  0.00     0.198 A 
ATOM     45  C   UNL A   1      42.090  24.920  26.369  1.00  0.00     0.198 A 
ATOM     46  F   UNL A   1      40.688  25.122  28.246  1.00  0.00    -0.203 F 
ATOM     47  F   UNL A   1      44.347  27.302  24.836  1.00  0.00    -0.200 F 
ATOM     48  C   UNL A   1      43.019  25.465  25.498  1.00  0.00     0.200 A 
ATOM     49  F   UNL A   1      41.669  23.659  26.194  1.00  0.00    -0.200 F 
ATOM     50  F   UNL A   1      43.483  24.741  24.470  1.00  0.00    -0.200 F 
ENDBRANCH  26  40
BRANCH  27  51
ATOM     51  C   UNL A   1      39.204  32.189  35.714  1.00  0.00     0.064 A 
ATOM     52  C   UNL A   1      39.713  33.477  35.927  1.00  0.00     0.173 A 
ATOM     53  C   UNL A   1      38.303  31.678  36.662  1.00  0.00     0.173 A 
ATOM     54  F   UNL A   1      40.587  34.004  35.057  1.00  0.00    -0.203 F 
ATOM     55  C   UNL A   1      39.358  34.212  37.056  1.00  0.00     0.198 A 
ATOM     56  C   UNL A   1      37.920  32.429  37.770  1.00  0.00     0.198 A 
ATOM     57  F   UNL A   1      37.779  30.454  36.500  1.00  0.00    -0.203 F 
ATOM     58  F   UNL A   1      39.902  35.419  37.264  1.00  0.00    -0.200 F 
ATOM     59  C   UNL A   1      38.457  33.691  37.972  1.00  0.00     0.200 A 
ATOM     60  F   UNL A   1      37.033  31.930  38.641  1.00  0.00    -0.200 F 
ATOM     61  F   UNL A   1      38.113  34.400  39.056  1.00  0.00    -0.200 F 
ENDBRANCH  27  51
BRANCH  39  62
ATOM     62  C   UNL A   1      36.674  31.530  29.255  1.00  0.00     0.064 A 
ATOM     63  C   UNL A   1      35.543  30.762  28.941  1.00  0.00     0.173 A 
ATOM     64  C   UNL A   1      36.651  32.896  28.931  1.00  0.00     0.173 A 
ATOM     65  F   UNL A   1      35.521  29.449  29.214  1.00  0.00    -0.203 F 
ATOM     66  C   UNL A   1      34.446  31.332  28.301  1.00  0.00     0.198 A 
ATOM     67  C   UNL A   1      35.538  33.469  28.324  1.00  0.00     0.198 A 
ATOM     68  F   UNL A   1      37.705  33.676  29.214  1.00  0.00    -0.203 F 
ATOM     69  F   UNL A   1      33.400  30.568  27.958  1.00  0.00    -0.200 F 
ATOM     70  C   UNL A   1      34.441  32.686  28.001  1.00  0.00     0.200 A 
ATOM     71  F   UNL A   1      35.528  34.782  28.051  1.00  0.00    -0.200 F 
ATOM     72  F   UNL A   1      33.381  33.236  27.392  1.00  0.00    -0.200 F 
ENDBRANCH  39  62
ENDBRANCH  13  14
ENDBRANCH   6   8
ENDBRANCH   3   4
ENDBRANCH   2   3
ENDBRANCH   1   2
BRANCH   1  73
ATOM     73  C   UNL A   1      45.729  24.365  39.116  1.00  0.00     0.116 C 
BRANCH  73  74
ATOM     74  N   UNL A   1      45.068  23.500  40.080  1.00  0.00    -0.356 N 
ATOM     75  C   UNL A   1      45.278  22.159  40.294  1.00  0.00     0.224 C 
ATOM     76  H   UNL A   1      44.386  23.927  40.648  1.00  0.00     0.163 HD
ATOM     77  O   UNL A   1      44.577  21.566  41.110  1.00  0.00    -0.275 OA
BRANCH  75  78
ATOM     78  C   UNL A   1      46.432  21.514  39.545  1.00  0.00     0.098 C 
ATOM     79  C   UNL A   1      46.169  21.265  38.045  1.00  0.00     0.017 C 
ATOM     80  C   UNL A   1      46.890  20.316  40.389  1.00  0.00     0.131 C 
ATOM     81  C   UNL A   1      46.028  19.810  37.586  1.00  0.00     0.022 C 
ATOM     82  N   UNL A   1      46.500  19.072  39.782  1.00  0.00    -0.356 N 
ATOM     83  C   UNL A   1      46.875  18.851  38.409  1.00  0.00     0.118 C 
BRANCH  82  84
ATOM     84  C   UNL A   1      45.856  18.091  40.482  1.00  0.00     0.129 A 
ATOM     85  C   UNL A   1      46.394  17.563  41.651  1.00  0.00     0.047 A 
ATOM     86  N   UNL A   1      44.669  17.681  40.004  1.00  0.00    -0.231 NA
ATOM     87  C   UNL A   1      45.681  16.599  42.361  1.00  0.00     0.014 A 
ATOM     88  C   UNL A   1      44.003  16.728  40.660  1.00  0.00     0.073 A 
ATOM     89  C   UNL A   1      44.452  16.155  41.866  1.00  0.00     0.002 A 
ATOM     90  C   UNL A   1      42.814  16.287  40.116  1.00  0.00     0.030 A 
ATOM     91  C   UNL A   1      43.674  15.176  42.514  1.00  0.00     0.032 A 
ATOM     92  C   UNL A   1      42.047  15.303  40.738  1.00  0.00     0.024 A 
ATOM     93  C   UNL A   1      42.466  14.752  41.946  1.00  0.00     0.083 A 
BRANCH  93  94
ATOM     94  S   UNL A   1      41.534  13.516  42.833  1.00  0.00     0.243 S 
ATOM     95  O   UNL A   1      40.823  14.230  43.876  1.00  0.00    -0.207 OA
ATOM     96  O   UNL A   1      40.827  12.753  41.829  1.00  0.00    -0.207 OA
BRANCH  94  97
ATOM     97  N   UNL A   1      42.653  12.468  43.591  1.00  0.00    -0.198 NA
ATOM     98  C   UNL A   1      42.939  12.743  45.021  1.00  0.00     0.102 C 
ATOM     99  C   UNL A   1      42.638  11.056  43.136  1.00  0.00     0.102 C 
ATOM    100  C   UNL A   1      44.080  11.888  45.556  1.00  0.00     0.017 C 
ATOM    101  C   UNL A   1      43.785  10.248  43.726  1.00  0.00     0.017 C 
ATOM    102  C   UNL A   1      43.868  10.417  45.234  1.00  0.00     0.003 C 
ENDBRANCH  94  97
ENDBRANCH  93  94
ENDBRANCH  82  84
ENDBRANCH  75  78
ENDBRANCH  73  74
ENDBRANCH   1  73
TORSDOF 14
ENDMDL
