MODEL 1
REMARK VINA RESULT:     -11.6      0.000      0.000
REMARK SMILES CCCN(CC(=O)NCCCCNC(=O)c1ccc(-c2c3nc(c(-c4c(F)c(F)c(F)c(F)c4F)c4ccc([nH]4)c(-c4c(F)c(F)c(F)c(F)c4F)c4nc(c(-c5c(F)c(F)c(F)c(F)c5F)c5ccc2[nH]5)C=C4)C=C3)cc1)C(=O)Cc1ccc(F)c(F)c1
REMARK SMILES IDX 9 1 8 2 6 3 7 4 5 6 4 7 3 8 2 9 1 10 79 11 80 12 81 13 82 14
REMARK SMILES IDX 83 15 89 16 84 17 87 18 85 19 88 20 86 21 10 22 11 23 12 24
REMARK SMILES IDX 13 25 14 26 15 28 16 29 17 30 78 31 18 32 77 33 19 34 20 35
REMARK SMILES IDX 21 36 71 37 22 38 76 39 70 40 72 41 23 42 75 43 69 44 68 45
REMARK SMILES IDX 24 47 56 48 36 49 55 50 37 51 40 52 54 53 73 54 38 55 39 56
REMARK SMILES IDX 53 58 74 59 41 60 25 61 26 62 34 63 27 64 28 65 32 66 35 67
REMARK SMILES IDX 29 68 30 69 33 70 31 71 57 72 58 73 66 74 59 75 60 76 64 77
REMARK SMILES IDX 67 78 61 79 62 80 65 81 63 82 42 83 43 84 51 85 44 86 45 87
REMARK SMILES IDX 49 88 52 89 46 90 47 91 50 92 48 93
REMARK H PARENT 8 5 13 27 72 46 40 57
REMARK Flexibility Score: inf
ROOT
ATOM      1  C   UNL A   1      33.160  29.775  25.959  1.00  0.00     0.116 C 
ENDROOT
BRANCH   1   2
ATOM      2  N   UNL A   1      32.918  29.786  24.534  1.00  0.00    -0.355 N 
ATOM      3  C   UNL A   1      33.134  28.793  23.624  1.00  0.00     0.239 C 
ATOM      4  O   UNL A   1      32.719  28.971  22.476  1.00  0.00    -0.273 OA
ATOM      5  H   UNL A   1      32.547  30.622  24.172  1.00  0.00     0.163 HD
BRANCH   3   6
ATOM      6  C   UNL A   1      33.813  27.474  24.033  1.00  0.00     0.219 C 
BRANCH   6   7
ATOM      7  N   UNL A   1      33.046  26.267  23.684  1.00  0.00    -0.333 N 
BRANCH   7   8
ATOM      8  C   UNL A   1      31.889  25.927  24.523  1.00  0.00     0.120 C 
BRANCH   8   9
ATOM      9  C   UNL A   1      32.208  25.801  26.016  1.00  0.00     0.018 C 
ATOM     10  C   UNL A   1      32.166  24.369  26.532  1.00  0.00     0.006 C 
ENDBRANCH   8   9
ENDBRANCH   7   8
BRANCH   7  11
ATOM     11  C   UNL A   1      33.303  25.475  22.567  1.00  0.00     0.227 C 
ATOM     12  O   UNL A   1      33.751  25.970  21.527  1.00  0.00    -0.275 OA
BRANCH  11  13
ATOM     13  C   UNL A   1      32.985  23.982  22.587  1.00  0.00     0.135 C 
BRANCH  13  14
ATOM     14  C   UNL A   1      33.961  23.122  23.358  1.00  0.00    -0.036 A 
ATOM     15  C   UNL A   1      35.323  23.470  23.387  1.00  0.00     0.007 A 
ATOM     16  C   UNL A   1      33.543  21.965  24.033  1.00  0.00     0.046 A 
ATOM     17  C   UNL A   1      36.258  22.644  24.013  1.00  0.00     0.043 A 
ATOM     18  C   UNL A   1      34.481  21.146  24.655  1.00  0.00     0.159 A 
ATOM     19  C   UNL A   1      35.831  21.477  24.635  1.00  0.00     0.158 A 
ATOM     20  F   UNL A   1      34.074  20.018  25.252  1.00  0.00    -0.204 F 
ATOM     21  F   UNL A   1      36.734  20.669  25.207  1.00  0.00    -0.204 F 
ENDBRANCH  13  14
ENDBRANCH  11  13
ENDBRANCH   7  11
ENDBRANCH   6   7
ENDBRANCH   3   6
ENDBRANCH   1   2
BRANCH   1  22
ATOM     22  C   UNL A   1      31.953  30.251  26.763  1.00  0.00     0.023 C 
BRANCH  22  23
ATOM     23  C   UNL A   1      31.714  31.760  26.742  1.00  0.00     0.023 C 
BRANCH  23  24
ATOM     24  C   UNL A   1      32.851  32.602  27.300  1.00  0.00     0.116 C 
BRANCH  24  25
ATOM     25  N   UNL A   1      32.462  33.968  27.617  1.00  0.00    -0.352 N 
ATOM     26  C   UNL A   1      33.020  34.815  28.544  1.00  0.00     0.251 C 
ATOM     27  H   UNL A   1      31.705  34.331  27.103  1.00  0.00     0.163 HD
ATOM     28  O   UNL A   1      32.527  35.915  28.768  1.00  0.00    -0.269 OA
BRANCH  26  29
ATOM     29  C   UNL A   1      34.203  34.362  29.302  1.00  0.00     0.039 A 
ATOM     30  C   UNL A   1      34.016  33.679  30.507  1.00  0.00     0.014 A 
ATOM     31  C   UNL A   1      35.487  34.568  28.794  1.00  0.00     0.014 A 
ATOM     32  C   UNL A   1      35.119  33.141  31.171  1.00  0.00     0.010 A 
ATOM     33  C   UNL A   1      36.575  33.972  29.418  1.00  0.00     0.010 A 
ATOM     34  C   UNL A   1      36.402  33.256  30.613  1.00  0.00    -0.014 A 
BRANCH  34  35
ATOM     35  C   UNL A   1      37.594  32.663  31.265  1.00  0.00     0.031 A 
ATOM     36  C   UNL A   1      38.337  31.554  30.577  1.00  0.00     0.074 A 
ATOM     37  C   UNL A   1      37.947  33.050  32.505  1.00  0.00     0.049 A 
ATOM     38  N   UNL A   1      39.304  30.798  31.027  1.00  0.00    -0.248 NA
ATOM     39  C   UNL A   1      37.903  31.228  29.210  1.00  0.00     0.031 C 
ATOM     40  C   UNL A   1      37.287  34.094  33.288  1.00  0.00     0.029 A 
ATOM     41  N   UNL A   1      38.942  32.592  33.331  1.00  0.00    -0.354 N 
ATOM     42  C   UNL A   1      39.571  29.888  30.012  1.00  0.00     0.074 A 
ATOM     43  C   UNL A   1      38.635  30.158  28.943  1.00  0.00     0.031 C 
ATOM     44  C   UNL A   1      37.905  34.210  34.473  1.00  0.00     0.029 A 
ATOM     45  C   UNL A   1      38.977  33.222  34.551  1.00  0.00     0.049 A 
ATOM     46  H   UNL A   1      39.571  31.880  33.075  1.00  0.00     0.167 HD
ATOM     47  C   UNL A   1      40.525  28.928  29.969  1.00  0.00     0.037 A 
ATOM     48  C   UNL A   1      39.779  33.017  35.612  1.00  0.00     0.037 A 
ATOM     49  C   UNL A   1      41.478  28.691  31.020  1.00  0.00     0.049 A 
ATOM     50  C   UNL A   1      40.833  31.944  35.542  1.00  0.00     0.074 A 
ATOM     51  C   UNL A   1      42.525  27.787  31.050  1.00  0.00     0.029 A 
ATOM     52  N   UNL A   1      41.500  29.370  32.230  1.00  0.00    -0.354 N 
ATOM     53  N   UNL A   1      41.111  31.122  34.560  1.00  0.00    -0.248 NA
ATOM     54  C   UNL A   1      41.684  31.774  36.729  1.00  0.00     0.031 C 
ATOM     55  C   UNL A   1      43.157  27.892  32.293  1.00  0.00     0.029 A 
ATOM     56  C   UNL A   1      42.532  28.894  33.021  1.00  0.00     0.049 A 
ATOM     57  H   UNL A   1      40.873  30.084  32.489  1.00  0.00     0.167 HD
ATOM     58  C   UNL A   1      42.190  30.363  34.993  1.00  0.00     0.074 A 
ATOM     59  C   UNL A   1      42.515  30.822  36.327  1.00  0.00     0.031 C 
ATOM     60  C   UNL A   1      42.854  29.377  34.340  1.00  0.00     0.037 A 
BRANCH  47  61
ATOM     61  C   UNL A   1      40.569  28.060  28.746  1.00  0.00     0.064 A 
ATOM     62  C   UNL A   1      39.863  26.849  28.674  1.00  0.00     0.173 A 
ATOM     63  C   UNL A   1      41.332  28.441  27.632  1.00  0.00     0.173 A 
ATOM     64  F   UNL A   1      39.131  26.432  29.719  1.00  0.00    -0.203 F 
ATOM     65  C   UNL A   1      39.952  26.032  27.550  1.00  0.00     0.198 A 
ATOM     66  C   UNL A   1      41.392  27.637  26.496  1.00  0.00     0.198 A 
ATOM     67  F   UNL A   1      42.022  29.590  27.646  1.00  0.00    -0.203 F 
ATOM     68  F   UNL A   1      39.322  24.849  27.532  1.00  0.00    -0.200 F 
ATOM     69  C   UNL A   1      40.713  26.429  26.461  1.00  0.00     0.200 A 
ATOM     70  F   UNL A   1      42.120  28.026  25.440  1.00  0.00    -0.200 F 
ATOM     71  F   UNL A   1      40.802  25.640  25.381  1.00  0.00    -0.200 F 
ENDBRANCH  47  61
BRANCH  48  72
ATOM     72  C   UNL A   1      39.641  33.874  36.817  1.00  0.00     0.064 A 
ATOM     73  C   UNL A   1      40.305  35.107  36.891  1.00  0.00     0.173 A 
ATOM     74  C   UNL A   1      38.837  33.497  37.901  1.00  0.00     0.173 A 
ATOM     75  F   UNL A   1      41.101  35.501  35.885  1.00  0.00    -0.203 F 
ATOM     76  C   UNL A   1      40.175  35.927  38.009  1.00  0.00     0.198 A 
ATOM     77  C   UNL A   1      38.691  34.328  39.009  1.00  0.00     0.198 A 
ATOM     78  F   UNL A   1      38.179  32.329  37.875  1.00  0.00    -0.203 F 
ATOM     79  F   UNL A   1      40.845  37.087  38.068  1.00  0.00    -0.200 F 
ATOM     80  C   UNL A   1      39.364  35.541  39.065  1.00  0.00     0.200 A 
ATOM     81  F   UNL A   1      37.896  33.958  40.022  1.00  0.00    -0.200 F 
ATOM     82  F   UNL A   1      39.232  36.333  40.137  1.00  0.00    -0.200 F 
ENDBRANCH  48  72
BRANCH  60  83
ATOM     83  C   UNL A   1      44.035  28.764  35.031  1.00  0.00     0.064 A 
ATOM     84  C   UNL A   1      43.908  27.620  35.833  1.00  0.00     0.173 A 
ATOM     85  C   UNL A   1      45.319  29.294  34.836  1.00  0.00     0.173 A 
ATOM     86  F   UNL A   1      42.699  27.086  36.060  1.00  0.00    -0.203 F 
ATOM     87  C   UNL A   1      45.025  27.039  36.427  1.00  0.00     0.198 A 
ATOM     88  C   UNL A   1      46.436  28.695  35.411  1.00  0.00     0.198 A 
ATOM     89  F   UNL A   1      45.491  30.384  34.074  1.00  0.00    -0.203 F 
ATOM     90  F   UNL A   1      44.879  25.967  37.218  1.00  0.00    -0.200 F 
ATOM     91  C   UNL A   1      46.288  27.571  36.209  1.00  0.00     0.200 A 
ATOM     92  F   UNL A   1      47.656  29.203  35.190  1.00  0.00    -0.200 F 
ATOM     93  F   UNL A   1      47.362  27.001  36.772  1.00  0.00    -0.200 F 
ENDBRANCH  60  83
ENDBRANCH  34  35
ENDBRANCH  26  29
ENDBRANCH  24  25
ENDBRANCH  23  24
ENDBRANCH  22  23
ENDBRANCH   1  22
TORSDOF 17
ENDMDL
MODEL 2
REMARK VINA RESULT:     -11.5      2.806      4.354
REMARK SMILES CCCN(CC(=O)NCCCCNC(=O)c1ccc(-c2c3nc(c(-c4c(F)c(F)c(F)c(F)c4F)c4ccc([nH]4)c(-c4c(F)c(F)c(F)c(F)c4F)c4nc(c(-c5c(F)c(F)c(F)c(F)c5F)c5ccc2[nH]5)C=C4)C=C3)cc1)C(=O)Cc1ccc(F)c(F)c1
REMARK SMILES IDX 9 1 8 2 6 3 7 4 5 6 4 7 3 8 2 9 1 10 79 11 80 12 81 13 82 14
REMARK SMILES IDX 83 15 89 16 84 17 87 18 85 19 88 20 86 21 10 22 11 23 12 24
REMARK SMILES IDX 13 25 14 26 15 28 16 29 17 30 78 31 18 32 77 33 19 34 20 35
REMARK SMILES IDX 21 36 71 37 22 38 76 39 70 40 72 41 23 42 75 43 69 44 68 45
REMARK SMILES IDX 24 47 56 48 36 49 55 50 37 51 40 52 54 53 73 54 38 55 39 56
REMARK SMILES IDX 53 58 74 59 41 60 25 61 26 62 34 63 27 64 28 65 32 66 35 67
REMARK SMILES IDX 29 68 30 69 33 70 31 71 57 72 58 73 66 74 59 75 60 76 64 77
REMARK SMILES IDX 67 78 61 79 62 80 65 81 63 82 42 83 43 84 51 85 44 86 45 87
REMARK SMILES IDX 49 88 52 89 46 90 47 91 50 92 48 93
REMARK H PARENT 8 5 13 27 72 46 40 57
REMARK Flexibility Score: inf
ROOT
ATOM      1  C   UNL A   1      32.220  29.548  26.903  1.00  0.00     0.116 C 
ENDROOT
BRANCH   1   2
ATOM      2  N   UNL A   1      31.413  28.355  27.022  1.00  0.00    -0.355 N 
ATOM      3  C   UNL A   1      31.394  27.253  26.219  1.00  0.00     0.239 C 
ATOM      4  O   UNL A   1      30.727  26.285  26.592  1.00  0.00    -0.273 OA
ATOM      5  H   UNL A   1      30.795  28.334  27.788  1.00  0.00     0.163 HD
BRANCH   3   6
ATOM      6  C   UNL A   1      32.226  27.198  24.926  1.00  0.00     0.219 C 
BRANCH   6   7
ATOM      7  N   UNL A   1      31.427  27.264  23.691  1.00  0.00    -0.333 N 
BRANCH   7   8
ATOM      8  C   UNL A   1      31.138  26.002  22.997  1.00  0.00     0.120 C 
BRANCH   8   9
ATOM      9  C   UNL A   1      32.214  25.571  21.995  1.00  0.00     0.018 C 
ATOM     10  C   UNL A   1      33.176  24.526  22.543  1.00  0.00     0.006 C 
ENDBRANCH   8   9
ENDBRANCH   7   8
BRANCH   7  11
ATOM     11  C   UNL A   1      30.866  28.435  23.186  1.00  0.00     0.227 C 
ATOM     12  O   UNL A   1      31.531  29.205  22.484  1.00  0.00    -0.275 OA
BRANCH  11  13
ATOM     13  C   UNL A   1      29.430  28.819  23.535  1.00  0.00     0.135 C 
BRANCH  13  14
ATOM     14  C   UNL A   1      28.904  30.057  22.844  1.00  0.00    -0.036 A 
ATOM     15  C   UNL A   1      28.309  29.946  21.575  1.00  0.00     0.007 A 
ATOM     16  C   UNL A   1      29.014  31.326  23.434  1.00  0.00     0.046 A 
ATOM     17  C   UNL A   1      27.900  31.084  20.878  1.00  0.00     0.043 A 
ATOM     18  C   UNL A   1      28.603  32.456  22.731  1.00  0.00     0.159 A 
ATOM     19  C   UNL A   1      28.061  32.337  21.457  1.00  0.00     0.158 A 
ATOM     20  F   UNL A   1      28.760  33.666  23.285  1.00  0.00    -0.204 F 
ATOM     21  F   UNL A   1      27.697  33.429  20.772  1.00  0.00    -0.204 F 
ENDBRANCH  13  14
ENDBRANCH  11  13
ENDBRANCH   7  11
ENDBRANCH   6   7
ENDBRANCH   3   6
ENDBRANCH   1   2
BRANCH   1  22
ATOM     22  C   UNL A   1      31.594  30.591  25.981  1.00  0.00     0.023 C 
BRANCH  22  23
ATOM     23  C   UNL A   1      31.354  31.958  26.618  1.00  0.00     0.023 C 
BRANCH  23  24
ATOM     24  C   UNL A   1      32.612  32.746  26.953  1.00  0.00     0.116 C 
BRANCH  24  25
ATOM     25  N   UNL A   1      32.343  34.036  27.569  1.00  0.00    -0.352 N 
ATOM     26  C   UNL A   1      33.032  34.649  28.588  1.00  0.00     0.251 C 
ATOM     27  H   UNL A   1      31.572  34.533  27.212  1.00  0.00     0.163 HD
ATOM     28  O   UNL A   1      32.635  35.703  29.071  1.00  0.00    -0.269 OA
BRANCH  26  29
ATOM     29  C   UNL A   1      34.242  33.994  29.125  1.00  0.00     0.039 A 
ATOM     30  C   UNL A   1      35.497  34.509  28.789  1.00  0.00     0.014 A 
ATOM     31  C   UNL A   1      34.128  32.910  29.998  1.00  0.00     0.014 A 
ATOM     32  C   UNL A   1      36.640  33.975  29.385  1.00  0.00     0.010 A 
ATOM     33  C   UNL A   1      35.259  32.428  30.644  1.00  0.00     0.010 A 
ATOM     34  C   UNL A   1      36.526  32.954  30.341  1.00  0.00    -0.014 A 
BRANCH  34  35
ATOM     35  C   UNL A   1      37.712  32.389  31.027  1.00  0.00     0.031 A 
ATOM     36  C   UNL A   1      38.508  31.308  30.355  1.00  0.00     0.074 A 
ATOM     37  C   UNL A   1      38.013  32.774  32.281  1.00  0.00     0.049 A 
ATOM     38  N   UNL A   1      39.481  30.575  30.830  1.00  0.00    -0.248 NA
ATOM     39  C   UNL A   1      38.129  30.983  28.971  1.00  0.00     0.031 C 
ATOM     40  C   UNL A   1      37.299  33.792  33.050  1.00  0.00     0.029 A 
ATOM     41  N   UNL A   1      38.993  32.337  33.136  1.00  0.00    -0.354 N 
ATOM     42  C   UNL A   1      39.808  29.683  29.817  1.00  0.00     0.074 A 
ATOM     43  C   UNL A   1      38.899  29.936  28.720  1.00  0.00     0.031 C 
ATOM     44  C   UNL A   1      37.874  33.914  34.257  1.00  0.00     0.029 A 
ATOM     45  C   UNL A   1      38.971  32.956  34.361  1.00  0.00     0.049 A 
ATOM     46  H   UNL A   1      39.650  31.644  32.895  1.00  0.00     0.167 HD
ATOM     47  C   UNL A   1      40.789  28.750  29.797  1.00  0.00     0.037 A 
ATOM     48  C   UNL A   1      39.743  32.763  35.447  1.00  0.00     0.037 A 
ATOM     49  C   UNL A   1      41.713  28.530  30.877  1.00  0.00     0.049 A 
ATOM     50  C   UNL A   1      40.829  31.721  35.403  1.00  0.00     0.074 A 
ATOM     51  C   UNL A   1      42.783  27.656  30.934  1.00  0.00     0.029 A 
ATOM     52  N   UNL A   1      41.676  29.198  32.093  1.00  0.00    -0.354 N 
ATOM     53  N   UNL A   1      41.162  30.916  34.423  1.00  0.00    -0.248 NA
ATOM     54  C   UNL A   1      41.644  31.563  36.615  1.00  0.00     0.031 C 
ATOM     55  C   UNL A   1      43.371  27.766  32.197  1.00  0.00     0.029 A 
ATOM     56  C   UNL A   1      42.695  28.743  32.913  1.00  0.00     0.049 A 
ATOM     57  H   UNL A   1      41.021  29.892  32.337  1.00  0.00     0.167 HD
ATOM     58  C   UNL A   1      42.246  30.184  34.885  1.00  0.00     0.074 A 
ATOM     59  C   UNL A   1      42.515  30.639  36.233  1.00  0.00     0.031 C 
ATOM     60  C   UNL A   1      42.959  29.223  34.245  1.00  0.00     0.037 A 
BRANCH  47  61
ATOM     61  C   UNL A   1      40.898  27.895  28.569  1.00  0.00     0.064 A 
ATOM     62  C   UNL A   1      40.219  26.671  28.459  1.00  0.00     0.173 A 
ATOM     63  C   UNL A   1      41.694  28.302  27.488  1.00  0.00     0.173 A 
ATOM     64  F   UNL A   1      39.457  26.229  29.471  1.00  0.00    -0.203 F 
ATOM     65  C   UNL A   1      40.368  25.867  27.331  1.00  0.00     0.198 A 
ATOM     66  C   UNL A   1      41.815  27.511  26.348  1.00  0.00     0.198 A 
ATOM     67  F   UNL A   1      42.360  29.466  27.539  1.00  0.00    -0.203 F 
ATOM     68  F   UNL A   1      39.765  24.672  27.279  1.00  0.00    -0.200 F 
ATOM     69  C   UNL A   1      41.163  26.290  26.276  1.00  0.00     0.200 A 
ATOM     70  F   UNL A   1      42.574  27.926  25.325  1.00  0.00    -0.200 F 
ATOM     71  F   UNL A   1      41.309  25.514  25.194  1.00  0.00    -0.200 F 
ENDBRANCH  47  61
BRANCH  48  72
ATOM     72  C   UNL A   1      39.541  33.605  36.653  1.00  0.00     0.064 A 
ATOM     73  C   UNL A   1      38.753  33.145  37.717  1.00  0.00     0.173 A 
ATOM     74  C   UNL A   1      40.141  34.865  36.780  1.00  0.00     0.173 A 
ATOM     75  F   UNL A   1      38.143  31.953  37.632  1.00  0.00    -0.203 F 
ATOM     76  C   UNL A   1      38.565  33.919  38.860  1.00  0.00     0.198 A 
ATOM     77  C   UNL A   1      39.971  35.628  37.933  1.00  0.00     0.198 A 
ATOM     78  F   UNL A   1      40.909  35.347  35.792  1.00  0.00    -0.203 F 
ATOM     79  F   UNL A   1      37.780  33.469  39.849  1.00  0.00    -0.200 F 
ATOM     80  C   UNL A   1      39.178  35.157  38.971  1.00  0.00     0.200 A 
ATOM     81  F   UNL A   1      40.576  36.819  38.043  1.00  0.00    -0.200 F 
ATOM     82  F   UNL A   1      39.005  35.897  40.073  1.00  0.00    -0.200 F 
ENDBRANCH  48  72
BRANCH  60  83
ATOM     83  C   UNL A   1      44.134  28.637  34.971  1.00  0.00     0.064 A 
ATOM     84  C   UNL A   1      45.407  29.221  34.907  1.00  0.00     0.173 A 
ATOM     85  C   UNL A   1      43.965  27.510  35.789  1.00  0.00     0.173 A 
ATOM     86  F   UNL A   1      45.621  30.291  34.126  1.00  0.00    -0.203 F 
ATOM     87  C   UNL A   1      46.473  28.688  35.626  1.00  0.00     0.198 A 
ATOM     88  C   UNL A   1      45.027  26.996  36.527  1.00  0.00     0.198 A 
ATOM     89  F   UNL A   1      42.765  26.919  35.887  1.00  0.00    -0.203 F 
ATOM     90  F   UNL A   1      47.690  29.240  35.525  1.00  0.00    -0.200 F 
ATOM     91  C   UNL A   1      46.281  27.582  36.442  1.00  0.00     0.200 A 
ATOM     92  F   UNL A   1      44.837  25.935  37.323  1.00  0.00    -0.200 F 
ATOM     93  F   UNL A   1      47.306  27.079  37.143  1.00  0.00    -0.200 F 
ENDBRANCH  60  83
ENDBRANCH  34  35
ENDBRANCH  26  29
ENDBRANCH  24  25
ENDBRANCH  23  24
ENDBRANCH  22  23
ENDBRANCH   1  22
TORSDOF 17
ENDMDL
MODEL 3
REMARK VINA RESULT:     -11.3      0.846      1.991
REMARK SMILES CCCN(CC(=O)NCCCCNC(=O)c1ccc(-c2c3nc(c(-c4c(F)c(F)c(F)c(F)c4F)c4ccc([nH]4)c(-c4c(F)c(F)c(F)c(F)c4F)c4nc(c(-c5c(F)c(F)c(F)c(F)c5F)c5ccc2[nH]5)C=C4)C=C3)cc1)C(=O)Cc1ccc(F)c(F)c1
REMARK SMILES IDX 9 1 8 2 6 3 7 4 5 6 4 7 3 8 2 9 1 10 79 11 80 12 81 13 82 14
REMARK SMILES IDX 83 15 89 16 84 17 87 18 85 19 88 20 86 21 10 22 11 23 12 24
REMARK SMILES IDX 13 25 14 26 15 28 16 29 17 30 78 31 18 32 77 33 19 34 20 35
REMARK SMILES IDX 21 36 71 37 22 38 76 39 70 40 72 41 23 42 75 43 69 44 68 45
REMARK SMILES IDX 24 47 56 48 36 49 55 50 37 51 40 52 54 53 73 54 38 55 39 56
REMARK SMILES IDX 53 58 74 59 41 60 25 61 26 62 34 63 27 64 28 65 32 66 35 67
REMARK SMILES IDX 29 68 30 69 33 70 31 71 57 72 58 73 66 74 59 75 60 76 64 77
REMARK SMILES IDX 67 78 61 79 62 80 65 81 63 82 42 83 43 84 51 85 44 86 45 87
REMARK SMILES IDX 49 88 52 89 46 90 47 91 50 92 48 93
REMARK H PARENT 8 5 13 27 72 46 40 57
REMARK Flexibility Score: inf
ROOT
ATOM      1  C   UNL A   1      32.725  29.693  25.650  1.00  0.00     0.116 C 
ENDROOT
BRANCH   1   2
ATOM      2  N   UNL A   1      31.956  29.725  24.427  1.00  0.00    -0.355 N 
ATOM      3  C   UNL A   1      31.977  28.850  23.381  1.00  0.00     0.239 C 
ATOM      4  O   UNL A   1      31.127  28.993  22.499  1.00  0.00    -0.273 OA
ATOM      5  H   UNL A   1      31.330  30.480  24.337  1.00  0.00     0.163 HD
BRANCH   3   6
ATOM      6  C   UNL A   1      32.985  27.688  23.339  1.00  0.00     0.219 C 
BRANCH   6   7
ATOM      7  N   UNL A   1      32.438  26.398  23.794  1.00  0.00    -0.333 N 
BRANCH   7   8
ATOM      8  C   UNL A   1      31.829  25.521  22.786  1.00  0.00     0.120 C 
BRANCH   8   9
ATOM      9  C   UNL A   1      32.826  24.902  21.802  1.00  0.00     0.018 C 
ATOM     10  C   UNL A   1      33.288  23.506  22.195  1.00  0.00     0.006 C 
ENDBRANCH   8   9
ENDBRANCH   7   8
BRANCH   7  11
ATOM     11  C   UNL A   1      32.532  25.930  25.103  1.00  0.00     0.227 C 
ATOM     12  O   UNL A   1      31.517  25.647  25.750  1.00  0.00    -0.275 OA
BRANCH  11  13
ATOM     13  C   UNL A   1      33.892  25.806  25.785  1.00  0.00     0.135 C 
BRANCH  13  14
ATOM     14  C   UNL A   1      34.497  24.420  25.777  1.00  0.00    -0.036 A 
ATOM     15  C   UNL A   1      35.585  24.141  24.930  1.00  0.00     0.007 A 
ATOM     16  C   UNL A   1      33.986  23.394  26.584  1.00  0.00     0.046 A 
ATOM     17  C   UNL A   1      36.102  22.848  24.837  1.00  0.00     0.043 A 
ATOM     18  C   UNL A   1      34.507  22.106  26.485  1.00  0.00     0.159 A 
ATOM     19  C   UNL A   1      35.550  21.833  25.608  1.00  0.00     0.158 A 
ATOM     20  F   UNL A   1      33.975  21.124  27.225  1.00  0.00    -0.204 F 
ATOM     21  F   UNL A   1      36.027  20.586  25.492  1.00  0.00    -0.204 F 
ENDBRANCH  13  14
ENDBRANCH  11  13
ENDBRANCH   7  11
ENDBRANCH   6   7
ENDBRANCH   3   6
ENDBRANCH   1   2
BRANCH   1  22
ATOM     22  C   UNL A   1      31.961  30.268  26.840  1.00  0.00     0.023 C 
BRANCH  22  23
ATOM     23  C   UNL A   1      31.703  31.773  26.778  1.00  0.00     0.023 C 
BRANCH  23  24
ATOM     24  C   UNL A   1      32.846  32.646  27.276  1.00  0.00     0.116 C 
BRANCH  24  25
ATOM     25  N   UNL A   1      32.440  34.005  27.601  1.00  0.00    -0.352 N 
ATOM     26  C   UNL A   1      32.978  34.847  28.545  1.00  0.00     0.251 C 
ATOM     27  H   UNL A   1      31.687  34.366  27.081  1.00  0.00     0.163 HD
ATOM     28  O   UNL A   1      32.472  35.940  28.773  1.00  0.00    -0.269 OA
BRANCH  26  29
ATOM     29  C   UNL A   1      34.154  34.397  29.314  1.00  0.00     0.039 A 
ATOM     30  C   UNL A   1      33.956  33.721  30.522  1.00  0.00     0.014 A 
ATOM     31  C   UNL A   1      35.442  34.597  28.815  1.00  0.00     0.014 A 
ATOM     32  C   UNL A   1      35.053  33.186  31.197  1.00  0.00     0.010 A 
ATOM     33  C   UNL A   1      36.525  34.003  29.450  1.00  0.00     0.010 A 
ATOM     34  C   UNL A   1      36.341  33.294  30.649  1.00  0.00    -0.014 A 
BRANCH  34  35
ATOM     35  C   UNL A   1      37.526  32.704  31.314  1.00  0.00     0.031 A 
ATOM     36  C   UNL A   1      38.270  31.586  30.640  1.00  0.00     0.074 A 
ATOM     37  C   UNL A   1      37.873  33.100  32.553  1.00  0.00     0.049 A 
ATOM     38  N   UNL A   1      39.232  30.831  31.103  1.00  0.00    -0.248 NA
ATOM     39  C   UNL A   1      37.844  31.250  29.273  1.00  0.00     0.031 C 
ATOM     40  C   UNL A   1      37.211  34.152  33.322  1.00  0.00     0.029 A 
ATOM     41  N   UNL A   1      38.861  32.646  33.389  1.00  0.00    -0.354 N 
ATOM     42  C   UNL A   1      39.503  29.912  30.098  1.00  0.00     0.074 A 
ATOM     43  C   UNL A   1      38.574  30.175  29.020  1.00  0.00     0.031 C 
ATOM     44  C   UNL A   1      37.822  34.277  34.511  1.00  0.00     0.029 A 
ATOM     45  C   UNL A   1      38.890  33.286  34.603  1.00  0.00     0.049 A 
ATOM     46  H   UNL A   1      39.489  31.929  33.143  1.00  0.00     0.167 HD
ATOM     47  C   UNL A   1      40.453  28.948  30.069  1.00  0.00     0.037 A 
ATOM     48  C   UNL A   1      39.685  33.088  35.671  1.00  0.00     0.037 A 
ATOM     49  C   UNL A   1      41.399  28.717  31.128  1.00  0.00     0.049 A 
ATOM     50  C   UNL A   1      40.736  32.011  35.618  1.00  0.00     0.074 A 
ATOM     51  C   UNL A   1      42.442  27.810  31.172  1.00  0.00     0.029 A 
ATOM     52  N   UNL A   1      41.415  29.406  32.332  1.00  0.00    -0.354 N 
ATOM     53  N   UNL A   1      41.017  31.179  34.645  1.00  0.00    -0.248 NA
ATOM     54  C   UNL A   1      41.578  31.848  36.811  1.00  0.00     0.031 C 
ATOM     55  C   UNL A   1      43.067  27.924  32.418  1.00  0.00     0.029 A 
ATOM     56  C   UNL A   1      42.441  28.934  33.134  1.00  0.00     0.049 A 
ATOM     57  H   UNL A   1      40.789  30.125  32.581  1.00  0.00     0.167 HD
ATOM     58  C   UNL A   1      42.090  30.421  35.091  1.00  0.00     0.074 A 
ATOM     59  C   UNL A   1      42.409  30.890  36.423  1.00  0.00     0.031 C 
ATOM     60  C   UNL A   1      42.756  29.428  34.450  1.00  0.00     0.037 A 
BRANCH  47  61
ATOM     61  C   UNL A   1      40.503  28.069  28.854  1.00  0.00     0.064 A 
ATOM     62  C   UNL A   1      41.265  28.412  27.726  1.00  0.00     0.173 A 
ATOM     63  C   UNL A   1      39.776  26.870  28.814  1.00  0.00     0.173 A 
ATOM     64  F   UNL A   1      41.967  29.556  27.707  1.00  0.00    -0.203 F 
ATOM     65  C   UNL A   1      41.264  27.609  26.588  1.00  0.00     0.198 A 
ATOM     66  C   UNL A   1      39.803  26.052  27.687  1.00  0.00     0.198 A 
ATOM     67  F   UNL A   1      39.035  26.493  29.866  1.00  0.00    -0.203 F 
ATOM     68  F   UNL A   1      41.945  27.991  25.500  1.00  0.00    -0.200 F 
ATOM     69  C   UNL A   1      40.536  26.429  26.571  1.00  0.00     0.200 A 
ATOM     70  F   UNL A   1      39.108  24.907  27.675  1.00  0.00    -0.200 F 
ATOM     71  F   UNL A   1      40.531  25.659  25.474  1.00  0.00    -0.200 F 
ENDBRANCH  47  61
BRANCH  48  72
ATOM     72  C   UNL A   1      39.542  33.956  36.868  1.00  0.00     0.064 A 
ATOM     73  C   UNL A   1      38.777  33.535  37.964  1.00  0.00     0.173 A 
ATOM     74  C   UNL A   1      40.175  35.204  36.952  1.00  0.00     0.173 A 
ATOM     75  F   UNL A   1      38.137  32.357  37.921  1.00  0.00    -0.203 F 
ATOM     76  C   UNL A   1      38.644  34.333  39.098  1.00  0.00     0.198 A 
ATOM     77  C   UNL A   1      40.060  35.992  38.095  1.00  0.00     0.198 A 
ATOM     78  F   UNL A   1      40.921  35.649  35.930  1.00  0.00    -0.203 F 
ATOM     79  F   UNL A   1      37.882  33.920  40.120  1.00  0.00    -0.200 F 
ATOM     80  C   UNL A   1      39.290  35.559  39.166  1.00  0.00     0.200 A 
ATOM     81  F   UNL A   1      40.696  37.168  38.162  1.00  0.00    -0.200 F 
ATOM     82  F   UNL A   1      39.169  36.323  40.259  1.00  0.00    -0.200 F 
ENDBRANCH  48  72
BRANCH  60  83
ATOM     83  C   UNL A   1      43.930  28.817  35.155  1.00  0.00     0.064 A 
ATOM     84  C   UNL A   1      43.790  27.696  35.987  1.00  0.00     0.173 A 
ATOM     85  C   UNL A   1      45.221  29.323  34.942  1.00  0.00     0.173 A 
ATOM     86  F   UNL A   1      42.574  27.185  36.232  1.00  0.00    -0.203 F 
ATOM     87  C   UNL A   1      44.900  27.115  36.594  1.00  0.00     0.198 A 
ATOM     88  C   UNL A   1      46.331  28.724  35.530  1.00  0.00     0.198 A 
ATOM     89  F   UNL A   1      45.406  30.390  34.151  1.00  0.00    -0.203 F 
ATOM     90  F   UNL A   1      44.742  26.067  37.413  1.00  0.00    -0.200 F 
ATOM     91  C   UNL A   1      46.170  27.624  36.358  1.00  0.00     0.200 A 
ATOM     92  F   UNL A   1      47.557  29.209  35.291  1.00  0.00    -0.200 F 
ATOM     93  F   UNL A   1      47.238  27.054  36.933  1.00  0.00    -0.200 F 
ENDBRANCH  60  83
ENDBRANCH  34  35
ENDBRANCH  26  29
ENDBRANCH  24  25
ENDBRANCH  23  24
ENDBRANCH  22  23
ENDBRANCH   1  22
TORSDOF 17
ENDMDL
