MODEL 1
REMARK VINA RESULT:     -12.6      0.000      0.000
REMARK SMILES C[C@H]1SCCC[C@]1(Nc1ccc(Cl)cc1)C(=O)NCCCCNC(=O)c1ccc(-c2c3nc(c(-c4c(F)c(F)c(F)c(F)c4F)c4ccc([nH]4)c(-c4c(F)c(F)c(F)c(F)c4F)c4nc(c(-c5c(F)c(F)c(F)c(F)c5F)c5ccc2[nH]5)C=C4)C=C3)cc1
REMARK SMILES IDX 20 1 19 2 18 3 16 4 17 5 7 7 1 8 2 9 3 10 4 11 6 12 5 13
REMARK SMILES IDX 8 14 9 16 10 17 15 18 11 19 14 20 12 21 13 22 21 23 22 24
REMARK SMILES IDX 23 25 24 26 25 28 26 29 27 30 88 31 28 32 87 33 29 34 30 35
REMARK SMILES IDX 31 36 81 37 32 38 86 39 80 40 82 41 33 42 85 43 79 44 78 45
REMARK SMILES IDX 34 47 66 48 46 49 65 50 47 51 50 52 64 53 83 54 48 55 49 56
REMARK SMILES IDX 63 58 84 59 51 60 35 61 36 62 44 63 37 64 38 65 42 66 45 67
REMARK SMILES IDX 39 68 40 69 43 70 41 71 67 72 68 73 76 74 69 75 70 76 74 77
REMARK SMILES IDX 77 78 71 79 72 80 75 81 73 82 52 83 53 84 61 85 54 86 55 87
REMARK SMILES IDX 59 88 62 89 56 90 57 91 60 92 58 93
REMARK H PARENT 18 6 8 15 23 27 82 46 50 57
REMARK Flexibility Score: inf
ROOT
ATOM      1  C   UNL A   1      31.782  30.569  26.721  1.00  0.00     0.023 C 
ENDROOT
BRANCH   1   2
ATOM      2  C   UNL A   1      31.556  30.046  25.305  1.00  0.00     0.116 C 
BRANCH   2   3
ATOM      3  N   UNL A   1      32.798  29.626  24.688  1.00  0.00    -0.354 N 
ATOM      4  C   UNL A   1      33.194  28.419  24.187  1.00  0.00     0.246 C 
ATOM      5  O   UNL A   1      34.314  28.423  23.655  1.00  0.00    -0.272 OA
ATOM      6  H   UNL A   1      33.476  30.336  24.618  1.00  0.00     0.163 HD
BRANCH   4   7
ATOM      7  C   UNL A   1      32.352  27.091  24.293  1.00  0.00     0.128 C 
ATOM      8  C   UNL A   1      30.657  27.824  22.377  1.00  0.00     0.022 C 
ATOM      9  C   UNL A   1      30.878  27.375  23.817  1.00  0.00     0.078 C 
ATOM     10  S   UNL A   1      29.781  25.905  24.008  1.00  0.00    -0.156 SA
ATOM     11  C   UNL A   1      29.921  25.739  25.798  1.00  0.00     0.070 C 
ATOM     12  C   UNL A   1      32.285  26.706  25.812  1.00  0.00     0.040 C 
ATOM     13  C   UNL A   1      31.374  25.532  26.186  1.00  0.00     0.014 C 
BRANCH   7  14
ATOM     14  N   UNL A   1      32.946  25.947  23.546  1.00  0.00    -0.370 N 
ATOM     15  H   UNL A   1      32.892  26.002  22.565  1.00  0.00     0.161 HD
BRANCH  14  16
ATOM     16  C   UNL A   1      33.563  24.820  24.054  1.00  0.00     0.035 A 
ATOM     17  C   UNL A   1      34.777  24.831  24.749  1.00  0.00     0.027 A 
ATOM     18  C   UNL A   1      33.037  23.565  23.699  1.00  0.00     0.027 A 
ATOM     19  C   UNL A   1      35.468  23.647  25.037  1.00  0.00     0.022 A 
ATOM     20  C   UNL A   1      33.731  22.377  23.960  1.00  0.00     0.022 A 
ATOM     21  C   UNL A   1      34.954  22.425  24.617  1.00  0.00     0.041 A 
ATOM     22  Cl  UNL A   1      35.851  20.981  24.876  1.00  0.00    -0.084 Cl
ENDBRANCH  14  16
ENDBRANCH   7  14
ENDBRANCH   4   7
ENDBRANCH   2   3
ENDBRANCH   1   2
BRANCH   1  23
ATOM     23  C   UNL A   1      31.550  32.065  26.877  1.00  0.00     0.023 C 
BRANCH  23  24
ATOM     24  C   UNL A   1      32.785  32.858  27.280  1.00  0.00     0.116 C 
BRANCH  24  25
ATOM     25  N   UNL A   1      32.494  34.243  27.626  1.00  0.00    -0.352 N 
ATOM     26  C   UNL A   1      33.071  35.023  28.599  1.00  0.00     0.251 C 
ATOM     27  H   UNL A   1      31.791  34.678  27.092  1.00  0.00     0.163 HD
ATOM     28  O   UNL A   1      32.639  36.141  28.856  1.00  0.00    -0.269 OA
BRANCH  26  29
ATOM     29  C   UNL A   1      34.205  34.469  29.361  1.00  0.00     0.039 A 
ATOM     30  C   UNL A   1      33.954  33.750  30.530  1.00  0.00     0.014 A 
ATOM     31  C   UNL A   1      35.502  34.581  28.853  1.00  0.00     0.014 A 
ATOM     32  C   UNL A   1      35.002  33.068  31.149  1.00  0.00     0.010 A 
ATOM     33  C   UNL A   1      36.519  33.824  29.412  1.00  0.00     0.010 A 
ATOM     34  C   UNL A   1      36.281  33.063  30.568  1.00  0.00    -0.014 A 
BRANCH  34  35
ATOM     35  C   UNL A   1      37.398  32.285  31.156  1.00  0.00     0.031 A 
ATOM     36  C   UNL A   1      37.875  32.607  32.542  1.00  0.00     0.074 A 
ATOM     37  C   UNL A   1      38.034  31.358  30.414  1.00  0.00     0.049 A 
ATOM     38  N   UNL A   1      38.892  32.117  33.205  1.00  0.00    -0.248 NA
ATOM     39  C   UNL A   1      37.136  33.654  33.267  1.00  0.00     0.031 C 
ATOM     40  C   UNL A   1      37.703  31.000  29.033  1.00  0.00     0.029 A 
ATOM     41  N   UNL A   1      39.102  30.551  30.718  1.00  0.00    -0.354 N 
ATOM     42  C   UNL A   1      38.932  32.819  34.401  1.00  0.00     0.074 A 
ATOM     43  C   UNL A   1      37.877  33.805  34.353  1.00  0.00     0.031 C 
ATOM     44  C   UNL A   1      38.526  30.022  28.624  1.00  0.00     0.029 A 
ATOM     45  C   UNL A   1      39.465  29.708  29.696  1.00  0.00     0.049 A 
ATOM     46  H   UNL A   1      39.564  30.574  31.587  1.00  0.00     0.167 HD
ATOM     47  C   UNL A   1      39.758  32.637  35.459  1.00  0.00     0.037 A 
ATOM     48  C   UNL A   1      40.443  28.785  29.638  1.00  0.00     0.037 A 
ATOM     49  C   UNL A   1      40.768  31.617  35.522  1.00  0.00     0.049 A 
ATOM     50  C   UNL A   1      41.328  28.581  30.837  1.00  0.00     0.074 A 
ATOM     51  C   UNL A   1      41.593  31.283  36.581  1.00  0.00     0.029 A 
ATOM     52  N   UNL A   1      41.088  30.760  34.478  1.00  0.00    -0.354 N 
ATOM     53  N   UNL A   1      41.306  29.193  31.996  1.00  0.00    -0.248 NA
ATOM     54  C   UNL A   1      42.373  27.554  30.720  1.00  0.00     0.031 C 
ATOM     55  C   UNL A   1      42.439  30.249  36.165  1.00  0.00     0.029 A 
ATOM     56  C   UNL A   1      42.112  29.911  34.861  1.00  0.00     0.049 A 
ATOM     57  H   UNL A   1      40.651  30.757  33.596  1.00  0.00     0.167 HD
ATOM     58  C   UNL A   1      42.309  28.607  32.756  1.00  0.00     0.074 A 
ATOM     59  C   UNL A   1      42.915  27.585  31.930  1.00  0.00     0.031 C 
ATOM     60  C   UNL A   1      42.693  28.892  34.025  1.00  0.00     0.037 A 
BRANCH  47  61
ATOM     61  C   UNL A   1      39.592  33.560  36.630  1.00  0.00     0.064 A 
ATOM     62  C   UNL A   1      38.779  33.226  37.724  1.00  0.00     0.173 A 
ATOM     63  C   UNL A   1      40.258  34.794  36.660  1.00  0.00     0.173 A 
ATOM     64  F   UNL A   1      38.107  32.065  37.737  1.00  0.00    -0.203 F 
ATOM     65  C   UNL A   1      38.608  34.110  38.787  1.00  0.00     0.198 A 
ATOM     66  C   UNL A   1      40.111  35.662  37.740  1.00  0.00     0.198 A 
ATOM     67  F   UNL A   1      41.051  35.161  35.642  1.00  0.00    -0.203 F 
ATOM     68  F   UNL A   1      37.777  33.795  39.790  1.00  0.00    -0.200 F 
ATOM     69  C   UNL A   1      39.278  35.324  38.796  1.00  0.00     0.200 A 
ATOM     70  F   UNL A   1      40.768  36.830  37.754  1.00  0.00    -0.200 F 
ATOM     71  F   UNL A   1      39.113  36.173  39.820  1.00  0.00    -0.200 F 
ENDBRANCH  47  61
BRANCH  48  72
ATOM     72  C   UNL A   1      40.602  27.948  28.421  1.00  0.00     0.064 A 
ATOM     73  C   UNL A   1      39.966  26.702  28.326  1.00  0.00     0.173 A 
ATOM     74  C   UNL A   1      41.379  28.370  27.333  1.00  0.00     0.173 A 
ATOM     75  F   UNL A   1      39.229  26.249  29.350  1.00  0.00    -0.203 F 
ATOM     76  C   UNL A   1      40.113  25.903  27.194  1.00  0.00     0.198 A 
ATOM     77  C   UNL A   1      41.506  27.580  26.192  1.00  0.00     0.198 A 
ATOM     78  F   UNL A   1      42.003  29.557  27.373  1.00  0.00    -0.203 F 
ATOM     79  F   UNL A   1      39.525  24.700  27.145  1.00  0.00    -0.200 F 
ATOM     80  C   UNL A   1      40.879  26.345  26.126  1.00  0.00     0.200 A 
ATOM     81  F   UNL A   1      42.236  28.015  25.156  1.00  0.00    -0.200 F 
ATOM     82  F   UNL A   1      41.016  25.578  25.035  1.00  0.00    -0.200 F 
ENDBRANCH  48  72
BRANCH  60  83
ATOM     83  C   UNL A   1      43.796  28.062  34.609  1.00  0.00     0.064 A 
ATOM     84  C   UNL A   1      45.133  28.482  34.568  1.00  0.00     0.173 A 
ATOM     85  C   UNL A   1      43.505  26.854  35.260  1.00  0.00     0.173 A 
ATOM     86  F   UNL A   1      45.463  29.622  33.943  1.00  0.00    -0.203 F 
ATOM     87  C   UNL A   1      46.141  27.712  35.140  1.00  0.00     0.198 A 
ATOM     88  C   UNL A   1      44.511  26.100  35.855  1.00  0.00     0.198 A 
ATOM     89  F   UNL A   1      42.239  26.411  35.331  1.00  0.00    -0.203 F 
ATOM     90  F   UNL A   1      47.418  28.111  35.053  1.00  0.00    -0.200 F 
ATOM     91  C   UNL A   1      45.830  26.526  35.789  1.00  0.00     0.200 A 
ATOM     92  F   UNL A   1      44.207  24.961  36.492  1.00  0.00    -0.200 F 
ATOM     93  F   UNL A   1      46.801  25.790  36.346  1.00  0.00    -0.200 F 
ENDBRANCH  60  83
ENDBRANCH  34  35
ENDBRANCH  26  29
ENDBRANCH  24  25
ENDBRANCH  23  24
ENDBRANCH   1  23
TORSDOF 13
ENDMDL
MODEL 2
REMARK VINA RESULT:     -12.4      0.405      1.653
REMARK SMILES C[C@H]1SCCC[C@]1(Nc1ccc(Cl)cc1)C(=O)NCCCCNC(=O)c1ccc(-c2c3nc(c(-c4c(F)c(F)c(F)c(F)c4F)c4ccc([nH]4)c(-c4c(F)c(F)c(F)c(F)c4F)c4nc(c(-c5c(F)c(F)c(F)c(F)c5F)c5ccc2[nH]5)C=C4)C=C3)cc1
REMARK SMILES IDX 20 1 19 2 18 3 16 4 17 5 7 7 1 8 2 9 3 10 4 11 6 12 5 13
REMARK SMILES IDX 8 14 9 16 10 17 15 18 11 19 14 20 12 21 13 22 21 23 22 24
REMARK SMILES IDX 23 25 24 26 25 28 26 29 27 30 88 31 28 32 87 33 29 34 30 35
REMARK SMILES IDX 31 36 81 37 32 38 86 39 80 40 82 41 33 42 85 43 79 44 78 45
REMARK SMILES IDX 34 47 66 48 46 49 65 50 47 51 50 52 64 53 83 54 48 55 49 56
REMARK SMILES IDX 63 58 84 59 51 60 35 61 36 62 44 63 37 64 38 65 42 66 45 67
REMARK SMILES IDX 39 68 40 69 43 70 41 71 67 72 68 73 76 74 69 75 70 76 74 77
REMARK SMILES IDX 77 78 71 79 72 80 75 81 73 82 52 83 53 84 61 85 54 86 55 87
REMARK SMILES IDX 59 88 62 89 56 90 57 91 60 92 58 93
REMARK H PARENT 18 6 8 15 23 27 82 46 50 57
REMARK Flexibility Score: inf
ROOT
ATOM      1  C   UNL A   1      31.522  30.953  25.886  1.00  0.00     0.023 C 
ENDROOT
BRANCH   1   2
ATOM      2  C   UNL A   1      32.293  29.685  26.245  1.00  0.00     0.116 C 
BRANCH   2   3
ATOM      3  N   UNL A   1      33.301  29.376  25.250  1.00  0.00    -0.354 N 
ATOM      4  C   UNL A   1      33.427  28.323  24.391  1.00  0.00     0.246 C 
ATOM      5  O   UNL A   1      34.384  28.406  23.609  1.00  0.00    -0.272 OA
ATOM      6  H   UNL A   1      34.020  30.044  25.182  1.00  0.00     0.163 HD
BRANCH   4   7
ATOM      7  C   UNL A   1      32.485  27.058  24.388  1.00  0.00     0.128 C 
ATOM      8  C   UNL A   1      30.926  28.027  22.461  1.00  0.00     0.022 C 
ATOM      9  C   UNL A   1      31.056  27.480  23.878  1.00  0.00     0.078 C 
ATOM     10  S   UNL A   1      29.847  26.089  23.942  1.00  0.00    -0.156 SA
ATOM     11  C   UNL A   1      29.904  25.810  25.723  1.00  0.00     0.070 C 
ATOM     12  C   UNL A   1      32.331  26.593  25.878  1.00  0.00     0.040 C 
ATOM     13  C   UNL A   1      31.322  25.472  26.148  1.00  0.00     0.014 C 
BRANCH   7  14
ATOM     14  N   UNL A   1      33.023  25.918  23.595  1.00  0.00    -0.370 N 
ATOM     15  H   UNL A   1      32.693  25.846  22.670  1.00  0.00     0.161 HD
BRANCH  14  16
ATOM     16  C   UNL A   1      33.924  24.948  23.991  1.00  0.00     0.035 A 
ATOM     17  C   UNL A   1      34.777  25.067  25.092  1.00  0.00     0.027 A 
ATOM     18  C   UNL A   1      34.127  23.849  23.136  1.00  0.00     0.027 A 
ATOM     19  C   UNL A   1      35.825  24.162  25.311  1.00  0.00     0.022 A 
ATOM     20  C   UNL A   1      35.185  22.953  23.331  1.00  0.00     0.022 A 
ATOM     21  C   UNL A   1      36.040  23.123  24.413  1.00  0.00     0.041 A 
ATOM     22  Cl  UNL A   1      37.387  22.075  24.620  1.00  0.00    -0.084 Cl
ENDBRANCH  14  16
ENDBRANCH   7  14
ENDBRANCH   4   7
ENDBRANCH   2   3
ENDBRANCH   1   2
BRANCH   1  23
ATOM     23  C   UNL A   1      31.405  31.955  27.026  1.00  0.00     0.023 C 
BRANCH  23  24
ATOM     24  C   UNL A   1      32.658  32.783  27.271  1.00  0.00     0.116 C 
BRANCH  24  25
ATOM     25  N   UNL A   1      32.376  34.175  27.598  1.00  0.00    -0.352 N 
ATOM     26  C   UNL A   1      32.955  34.964  28.563  1.00  0.00     0.251 C 
ATOM     27  H   UNL A   1      31.679  34.608  27.055  1.00  0.00     0.163 HD
ATOM     28  O   UNL A   1      32.529  36.088  28.803  1.00  0.00    -0.269 OA
BRANCH  26  29
ATOM     29  C   UNL A   1      34.081  34.412  29.337  1.00  0.00     0.039 A 
ATOM     30  C   UNL A   1      33.817  33.628  30.461  1.00  0.00     0.014 A 
ATOM     31  C   UNL A   1      35.389  34.592  28.880  1.00  0.00     0.014 A 
ATOM     32  C   UNL A   1      34.867  32.953  31.083  1.00  0.00     0.010 A 
ATOM     33  C   UNL A   1      36.413  33.843  29.439  1.00  0.00     0.010 A 
ATOM     34  C   UNL A   1      36.164  33.019  30.548  1.00  0.00    -0.014 A 
BRANCH  34  35
ATOM     35  C   UNL A   1      37.288  32.251  31.137  1.00  0.00     0.031 A 
ATOM     36  C   UNL A   1      37.771  32.589  32.518  1.00  0.00     0.074 A 
ATOM     37  C   UNL A   1      37.924  31.320  30.401  1.00  0.00     0.049 A 
ATOM     38  N   UNL A   1      38.793  32.110  33.180  1.00  0.00    -0.248 NA
ATOM     39  C   UNL A   1      37.030  33.639  33.237  1.00  0.00     0.031 C 
ATOM     40  C   UNL A   1      37.587  30.948  29.025  1.00  0.00     0.029 A 
ATOM     41  N   UNL A   1      38.997  30.521  30.707  1.00  0.00    -0.354 N 
ATOM     42  C   UNL A   1      38.836  32.822  34.369  1.00  0.00     0.074 A 
ATOM     43  C   UNL A   1      37.776  33.804  34.317  1.00  0.00     0.031 C 
ATOM     44  C   UNL A   1      38.412  29.970  28.620  1.00  0.00     0.029 A 
ATOM     45  C   UNL A   1      39.358  29.670  29.691  1.00  0.00     0.049 A 
ATOM     46  H   UNL A   1      39.463  30.555  31.573  1.00  0.00     0.167 HD
ATOM     47  C   UNL A   1      39.668  32.655  35.424  1.00  0.00     0.037 A 
ATOM     48  C   UNL A   1      40.340  28.751  29.636  1.00  0.00     0.037 A 
ATOM     49  C   UNL A   1      40.683  31.639  35.492  1.00  0.00     0.049 A 
ATOM     50  C   UNL A   1      41.232  28.562  30.832  1.00  0.00     0.074 A 
ATOM     51  C   UNL A   1      41.515  31.318  36.549  1.00  0.00     0.029 A 
ATOM     52  N   UNL A   1      41.001  30.774  34.454  1.00  0.00    -0.354 N 
ATOM     53  N   UNL A   1      41.213  29.185  31.986  1.00  0.00    -0.248 NA
ATOM     54  C   UNL A   1      42.281  27.538  30.720  1.00  0.00     0.031 C 
ATOM     55  C   UNL A   1      42.363  30.285  36.139  1.00  0.00     0.029 A 
ATOM     56  C   UNL A   1      42.031  29.933  34.840  1.00  0.00     0.049 A 
ATOM     57  H   UNL A   1      40.559  30.761  33.575  1.00  0.00     0.167 HD
ATOM     58  C   UNL A   1      42.223  28.611  32.746  1.00  0.00     0.074 A 
ATOM     59  C   UNL A   1      42.829  27.583  31.926  1.00  0.00     0.031 C 
ATOM     60  C   UNL A   1      42.612  28.909  34.010  1.00  0.00     0.037 A 
BRANCH  47  61
ATOM     61  C   UNL A   1      39.504  33.588  36.588  1.00  0.00     0.064 A 
ATOM     62  C   UNL A   1      40.148  34.834  36.633  1.00  0.00     0.173 A 
ATOM     63  C   UNL A   1      38.688  33.231  37.672  1.00  0.00     0.173 A 
ATOM     64  F   UNL A   1      40.951  35.215  35.628  1.00  0.00    -0.203 F 
ATOM     65  C   UNL A   1      40.012  35.671  37.737  1.00  0.00     0.198 A 
ATOM     66  C   UNL A   1      38.529  34.086  38.761  1.00  0.00     0.198 A 
ATOM     67  F   UNL A   1      38.047  32.053  37.679  1.00  0.00    -0.203 F 
ATOM     68  F   UNL A   1      40.686  36.828  37.783  1.00  0.00    -0.200 F 
ATOM     69  C   UNL A   1      39.200  35.299  38.796  1.00  0.00     0.200 A 
ATOM     70  F   UNL A   1      37.734  33.731  39.779  1.00  0.00    -0.200 F 
ATOM     71  F   UNL A   1      39.070  36.107  39.858  1.00  0.00    -0.200 F 
ENDBRANCH  47  61
BRANCH  48  72
ATOM     72  C   UNL A   1      40.497  27.904  28.426  1.00  0.00     0.064 A 
ATOM     73  C   UNL A   1      41.286  28.338  27.352  1.00  0.00     0.173 A 
ATOM     74  C   UNL A   1      39.876  26.651  28.317  1.00  0.00     0.173 A 
ATOM     75  F   UNL A   1      41.883  29.537  27.403  1.00  0.00    -0.203 F 
ATOM     76  C   UNL A   1      41.436  27.558  26.207  1.00  0.00     0.198 A 
ATOM     77  C   UNL A   1      40.046  25.862  27.181  1.00  0.00     0.198 A 
ATOM     78  F   UNL A   1      39.115  26.189  29.320  1.00  0.00    -0.203 F 
ATOM     79  F   UNL A   1      42.166  28.014  25.179  1.00  0.00    -0.200 F 
ATOM     80  C   UNL A   1      40.821  26.318  26.125  1.00  0.00     0.200 A 
ATOM     81  F   UNL A   1      39.461  24.659  27.109  1.00  0.00    -0.200 F 
ATOM     82  F   UNL A   1      40.969  25.566  25.025  1.00  0.00    -0.200 F 
ENDBRANCH  48  72
BRANCH  60  83
ATOM     83  C   UNL A   1      43.722  28.089  34.597  1.00  0.00     0.064 A 
ATOM     84  C   UNL A   1      45.059  28.504  34.526  1.00  0.00     0.173 A 
ATOM     85  C   UNL A   1      43.437  26.896  35.278  1.00  0.00     0.173 A 
ATOM     86  F   UNL A   1      45.383  29.630  33.871  1.00  0.00    -0.203 F 
ATOM     87  C   UNL A   1      46.074  27.745  35.101  1.00  0.00     0.198 A 
ATOM     88  C   UNL A   1      44.451  26.153  35.874  1.00  0.00     0.198 A 
ATOM     89  F   UNL A   1      42.172  26.459  35.378  1.00  0.00    -0.203 F 
ATOM     90  F   UNL A   1      47.350  28.139  34.985  1.00  0.00    -0.200 F 
ATOM     91  C   UNL A   1      45.769  26.575  35.780  1.00  0.00     0.200 A 
ATOM     92  F   UNL A   1      44.154  25.030  36.542  1.00  0.00    -0.200 F 
ATOM     93  F   UNL A   1      46.747  25.849  36.339  1.00  0.00    -0.200 F 
ENDBRANCH  60  83
ENDBRANCH  34  35
ENDBRANCH  26  29
ENDBRANCH  24  25
ENDBRANCH  23  24
ENDBRANCH   1  23
TORSDOF 13
ENDMDL
MODEL 3
REMARK VINA RESULT:     -12.4      1.739      2.954
REMARK SMILES C[C@H]1SCCC[C@]1(Nc1ccc(Cl)cc1)C(=O)NCCCCNC(=O)c1ccc(-c2c3nc(c(-c4c(F)c(F)c(F)c(F)c4F)c4ccc([nH]4)c(-c4c(F)c(F)c(F)c(F)c4F)c4nc(c(-c5c(F)c(F)c(F)c(F)c5F)c5ccc2[nH]5)C=C4)C=C3)cc1
REMARK SMILES IDX 20 1 19 2 18 3 16 4 17 5 7 7 1 8 2 9 3 10 4 11 6 12 5 13
REMARK SMILES IDX 8 14 9 16 10 17 15 18 11 19 14 20 12 21 13 22 21 23 22 24
REMARK SMILES IDX 23 25 24 26 25 28 26 29 27 30 88 31 28 32 87 33 29 34 30 35
REMARK SMILES IDX 31 36 81 37 32 38 86 39 80 40 82 41 33 42 85 43 79 44 78 45
REMARK SMILES IDX 34 47 66 48 46 49 65 50 47 51 50 52 64 53 83 54 48 55 49 56
REMARK SMILES IDX 63 58 84 59 51 60 35 61 36 62 44 63 37 64 38 65 42 66 45 67
REMARK SMILES IDX 39 68 40 69 43 70 41 71 67 72 68 73 76 74 69 75 70 76 74 77
REMARK SMILES IDX 77 78 71 79 72 80 75 81 73 82 52 83 53 84 61 85 54 86 55 87
REMARK SMILES IDX 59 88 62 89 56 90 57 91 60 92 58 93
REMARK H PARENT 18 6 8 15 23 27 82 46 50 57
REMARK Flexibility Score: inf
ROOT
ATOM      1  C   UNL A   1      31.767  30.444  25.669  1.00  0.00     0.023 C 
ENDROOT
BRANCH   1   2
ATOM      2  C   UNL A   1      32.789  29.321  25.825  1.00  0.00     0.116 C 
BRANCH   2   3
ATOM      3  N   UNL A   1      33.729  29.300  24.722  1.00  0.00    -0.354 N 
ATOM      4  C   UNL A   1      33.868  28.439  23.671  1.00  0.00     0.246 C 
ATOM      5  O   UNL A   1      34.744  28.758  22.854  1.00  0.00    -0.272 OA
ATOM      6  H   UNL A   1      34.381  30.037  24.731  1.00  0.00     0.163 HD
BRANCH   4   7
ATOM      7  C   UNL A   1      33.040  27.109  23.494  1.00  0.00     0.128 C 
ATOM      8  C   UNL A   1      33.703  26.189  25.901  1.00  0.00     0.022 C 
ATOM      9  C   UNL A   1      33.676  25.982  24.391  1.00  0.00     0.078 C 
ATOM     10  S   UNL A   1      32.844  24.352  24.169  1.00  0.00    -0.156 SA
ATOM     11  C   UNL A   1      33.204  24.141  22.415  1.00  0.00     0.070 C 
ATOM     12  C   UNL A   1      33.200  26.661  22.000  1.00  0.00     0.040 C 
ATOM     13  C   UNL A   1      32.615  25.295  21.624  1.00  0.00     0.014 C 
BRANCH   7  14
ATOM     14  N   UNL A   1      31.588  27.269  23.782  1.00  0.00    -0.370 N 
ATOM     15  H   UNL A   1      31.244  26.755  24.549  1.00  0.00     0.161 HD
BRANCH  14  16
ATOM     16  C   UNL A   1      30.661  28.044  23.112  1.00  0.00     0.035 A 
ATOM     17  C   UNL A   1      30.982  29.165  22.340  1.00  0.00     0.027 A 
ATOM     18  C   UNL A   1      29.298  27.804  23.362  1.00  0.00     0.027 A 
ATOM     19  C   UNL A   1      29.994  30.044  21.876  1.00  0.00     0.022 A 
ATOM     20  C   UNL A   1      28.304  28.689  22.924  1.00  0.00     0.022 A 
ATOM     21  C   UNL A   1      28.660  29.815  22.194  1.00  0.00     0.041 A 
ATOM     22  Cl  UNL A   1      27.458  30.948  21.716  1.00  0.00    -0.084 Cl
ENDBRANCH  14  16
ENDBRANCH   7  14
ENDBRANCH   4   7
ENDBRANCH   2   3
ENDBRANCH   1   2
BRANCH   1  23
ATOM     23  C   UNL A   1      31.659  31.362  26.879  1.00  0.00     0.023 C 
BRANCH  23  24
ATOM     24  C   UNL A   1      32.878  32.241  27.115  1.00  0.00     0.116 C 
BRANCH  24  25
ATOM     25  N   UNL A   1      32.541  33.627  27.415  1.00  0.00    -0.352 N 
ATOM     26  C   UNL A   1      33.082  34.454  28.370  1.00  0.00     0.251 C 
ATOM     27  H   UNL A   1      31.831  34.023  26.861  1.00  0.00     0.163 HD
ATOM     28  O   UNL A   1      32.612  35.565  28.588  1.00  0.00    -0.269 OA
BRANCH  26  29
ATOM     29  C   UNL A   1      34.223  33.959  29.160  1.00  0.00     0.039 A 
ATOM     30  C   UNL A   1      33.987  33.102  30.236  1.00  0.00     0.014 A 
ATOM     31  C   UNL A   1      35.527  34.268  28.764  1.00  0.00     0.014 A 
ATOM     32  C   UNL A   1      35.068  32.485  30.867  1.00  0.00     0.010 A 
ATOM     33  C   UNL A   1      36.590  33.579  29.325  1.00  0.00     0.010 A 
ATOM     34  C   UNL A   1      36.373  32.684  30.385  1.00  0.00    -0.014 A 
BRANCH  34  35
ATOM     35  C   UNL A   1      37.536  31.983  30.981  1.00  0.00     0.031 A 
ATOM     36  C   UNL A   1      37.993  32.351  32.363  1.00  0.00     0.074 A 
ATOM     37  C   UNL A   1      38.227  31.088  30.250  1.00  0.00     0.049 A 
ATOM     38  N   UNL A   1      39.038  31.932  33.031  1.00  0.00    -0.248 NA
ATOM     39  C   UNL A   1      37.191  33.358  33.077  1.00  0.00     0.031 C 
ATOM     40  C   UNL A   1      37.918  30.694  28.874  1.00  0.00     0.029 A 
ATOM     41  N   UNL A   1      39.343  30.352  30.562  1.00  0.00    -0.354 N 
ATOM     42  C   UNL A   1      39.035  32.649  34.218  1.00  0.00     0.074 A 
ATOM     43  C   UNL A   1      37.921  33.568  34.159  1.00  0.00     0.031 C 
ATOM     44  C   UNL A   1      38.800  29.763  28.475  1.00  0.00     0.029 A 
ATOM     45  C   UNL A   1      39.757  29.521  29.550  1.00  0.00     0.049 A 
ATOM     46  H   UNL A   1      39.803  30.414  31.430  1.00  0.00     0.167 HD
ATOM     47  C   UNL A   1      39.871  32.531  35.277  1.00  0.00     0.037 A 
ATOM     48  C   UNL A   1      40.789  28.659  29.502  1.00  0.00     0.037 A 
ATOM     49  C   UNL A   1      40.942  31.576  35.352  1.00  0.00     0.049 A 
ATOM     50  C   UNL A   1      41.686  28.524  30.702  1.00  0.00     0.074 A 
ATOM     51  C   UNL A   1      41.786  31.305  36.413  1.00  0.00     0.029 A 
ATOM     52  N   UNL A   1      41.313  30.728  34.318  1.00  0.00    -0.354 N 
ATOM     53  N   UNL A   1      41.626  29.148  31.854  1.00  0.00    -0.248 NA
ATOM     54  C   UNL A   1      42.792  27.561  30.597  1.00  0.00     0.031 C 
ATOM     55  C   UNL A   1      42.694  30.321  36.009  1.00  0.00     0.029 A 
ATOM     56  C   UNL A   1      42.388  29.947  34.710  1.00  0.00     0.049 A 
ATOM     57  H   UNL A   1      40.877  30.688  33.436  1.00  0.00     0.167 HD
ATOM     58  C   UNL A   1      42.664  28.634  32.620  1.00  0.00     0.074 A 
ATOM     59  C   UNL A   1      43.332  27.640  31.806  1.00  0.00     0.031 C 
ATOM     60  C   UNL A   1      43.030  28.956  33.885  1.00  0.00     0.037 A 
BRANCH  47  61
ATOM     61  C   UNL A   1      39.648  33.456  36.438  1.00  0.00     0.064 A 
ATOM     62  C   UNL A   1      38.828  33.100  37.519  1.00  0.00     0.173 A 
ATOM     63  C   UNL A   1      40.268  34.715  36.470  1.00  0.00     0.173 A 
ATOM     64  F   UNL A   1      38.201  31.914  37.529  1.00  0.00    -0.203 F 
ATOM     65  C   UNL A   1      38.605  33.985  38.571  1.00  0.00     0.198 A 
ATOM     66  C   UNL A   1      40.068  35.584  37.539  1.00  0.00     0.198 A 
ATOM     67  F   UNL A   1      41.064  35.104  35.463  1.00  0.00    -0.203 F 
ATOM     68  F   UNL A   1      37.769  33.647  39.562  1.00  0.00    -0.200 F 
ATOM     69  C   UNL A   1      39.229  35.223  38.583  1.00  0.00     0.200 A 
ATOM     70  F   UNL A   1      40.681  36.777  37.555  1.00  0.00    -0.200 F 
ATOM     71  F   UNL A   1      39.013  36.073  39.596  1.00  0.00    -0.200 F 
ENDBRANCH  47  61
BRANCH  48  72
ATOM     72  C   UNL A   1      41.000  27.819  28.295  1.00  0.00     0.064 A 
ATOM     73  C   UNL A   1      40.402  26.555  28.195  1.00  0.00     0.173 A 
ATOM     74  C   UNL A   1      41.788  28.256  27.221  1.00  0.00     0.173 A 
ATOM     75  F   UNL A   1      39.655  26.087  29.206  1.00  0.00    -0.203 F 
ATOM     76  C   UNL A   1      40.597  25.753  27.072  1.00  0.00     0.198 A 
ATOM     77  C   UNL A   1      41.963  27.463  26.089  1.00  0.00     0.198 A 
ATOM     78  F   UNL A   1      42.377  29.460  27.266  1.00  0.00    -0.203 F 
ATOM     79  F   UNL A   1      40.044  24.533  27.019  1.00  0.00    -0.200 F 
ATOM     80  C   UNL A   1      41.372  26.210  26.018  1.00  0.00     0.200 A 
ATOM     81  F   UNL A   1      42.703  27.911  25.066  1.00  0.00    -0.200 F 
ATOM     82  F   UNL A   1      41.556  25.440  24.936  1.00  0.00    -0.200 F 
ENDBRANCH  48  72
BRANCH  60  83
ATOM     83  C   UNL A   1      44.183  28.203  34.478  1.00  0.00     0.064 A 
ATOM     84  C   UNL A   1      44.000  26.979  35.137  1.00  0.00     0.173 A 
ATOM     85  C   UNL A   1      45.491  28.690  34.343  1.00  0.00     0.173 A 
ATOM     86  F   UNL A   1      42.765  26.481  35.305  1.00  0.00    -0.203 F 
ATOM     87  C   UNL A   1      45.084  26.279  35.657  1.00  0.00     0.198 A 
ATOM     88  C   UNL A   1      46.576  27.974  34.840  1.00  0.00     0.198 A 
ATOM     89  F   UNL A   1      45.719  29.854  33.715  1.00  0.00    -0.203 F 
ATOM     90  F   UNL A   1      44.883  25.132  36.320  1.00  0.00    -0.200 F 
ATOM     91  C   UNL A   1      46.371  26.772  35.502  1.00  0.00     0.200 A 
ATOM     92  F   UNL A   1      47.820  28.446  34.678  1.00  0.00    -0.200 F 
ATOM     93  F   UNL A   1      47.415  26.093  35.996  1.00  0.00    -0.200 F 
ENDBRANCH  60  83
ENDBRANCH  34  35
ENDBRANCH  26  29
ENDBRANCH  24  25
ENDBRANCH  23  24
ENDBRANCH   1  23
TORSDOF 13
ENDMDL
