MODEL 1
REMARK VINA RESULT:     -11.1      0.000      0.000
REMARK SMILES CC[C@H](C(=O)NCCCCNC(=O)c1ccc(-c2c3nc(c(-c4c(F)c(F)c(F)c(F)c4F)c4ccc([nH]4)c(-c4c(F)c(F)c(F)c(F)c4F)c4nc(c(-c5c(F)c(F)c(F)c(F)c5F)c5ccc2[nH]5)C=C4)C=C3)cc1)[N@@H+](C)Cc1cncn1C(C)C
REMARK SMILES IDX 7 1 6 2 4 3 5 4 3 6 2 7 1 8 77 9 78 10 79 12 80 13 81 14
REMARK SMILES IDX 84 15 82 16 83 17 85 18 86 19 87 20 8 21 9 22 10 23 11 24
REMARK SMILES IDX 12 25 13 27 14 28 15 29 76 30 16 31 75 32 17 33 18 34 19 35
REMARK SMILES IDX 69 36 20 37 74 38 68 39 70 40 21 41 73 42 67 43 66 44 22 46
REMARK SMILES IDX 54 47 34 48 53 49 35 50 38 51 52 52 71 53 36 54 37 55 51 57
REMARK SMILES IDX 72 58 39 59 23 60 24 61 32 62 25 63 26 64 30 65 33 66 27 67
REMARK SMILES IDX 28 68 31 69 29 70 55 71 56 72 64 73 57 74 58 75 62 76 65 77
REMARK SMILES IDX 59 78 60 79 63 80 61 81 40 82 41 83 49 84 42 85 43 86 47 87
REMARK SMILES IDX 50 88 44 89 45 90 48 91 46 92
REMARK H PARENT 6 5 77 11 11 26 70 45 38 56
REMARK Flexibility Score: inf
ROOT
ATOM      1  C   UNL A   1      32.859  29.806  25.909  1.00  0.00     0.116 C 
ENDROOT
BRANCH   1   2
ATOM      2  N   UNL A   1      33.330  29.505  24.583  1.00  0.00    -0.351 N 
ATOM      3  C   UNL A   1      32.861  28.788  23.541  1.00  0.00     0.278 C 
ATOM      4  O   UNL A   1      33.643  28.880  22.578  1.00  0.00    -0.268 OA
ATOM      5  H   UNL A   1      34.200  29.922  24.390  1.00  0.00     0.163 HD
BRANCH   3   6
ATOM      6  C   UNL A   1      31.610  27.808  23.502  1.00  0.00     0.273 C 
BRANCH   6   7
ATOM      7  C   UNL A   1      30.157  28.022  22.954  1.00  0.00     0.072 C 
ATOM      8  C   UNL A   1      29.537  29.310  22.433  1.00  0.00     0.011 C 
ENDBRANCH   6   7
BRANCH   6   9
ATOM      9  N   UNL A   1      32.114  26.422  23.300  1.00  0.00    -0.322 N 
ATOM     10  C   UNL A   1      32.143  25.928  21.935  1.00  0.00     0.333 C 
ATOM     11  H   UNL A   1      31.286  26.006  23.729  1.00  0.00     0.348 HD
BRANCH   9  12
ATOM     12  C   UNL A   1      33.055  25.800  24.225  1.00  0.00     0.319 C 
BRANCH  12  13
ATOM     13  C   UNL A   1      32.472  24.855  25.215  1.00  0.00     0.093 A 
ATOM     14  C   UNL A   1      31.735  25.166  26.343  1.00  0.00     0.140 A 
ATOM     15  N   UNL A   1      32.657  23.483  25.291  1.00  0.00    -0.327 N 
ATOM     16  N   UNL A   1      31.403  24.047  27.050  1.00  0.00    -0.245 NA
ATOM     17  C   UNL A   1      31.949  23.056  26.390  1.00  0.00     0.200 A 
BRANCH  15  18
ATOM     18  C   UNL A   1      33.433  22.598  24.423  1.00  0.00     0.082 C 
ATOM     19  C   UNL A   1      34.087  21.434  25.168  1.00  0.00     0.031 C 
ATOM     20  C   UNL A   1      32.607  21.977  23.300  1.00  0.00     0.031 C 
ENDBRANCH  15  18
ENDBRANCH  12  13
ENDBRANCH   9  12
ENDBRANCH   6   9
ENDBRANCH   3   6
ENDBRANCH   1   2
BRANCH   1  21
ATOM     21  C   UNL A   1      31.485  30.496  25.872  1.00  0.00     0.023 C 
BRANCH  21  22
ATOM     22  C   UNL A   1      31.342  31.858  26.580  1.00  0.00     0.023 C 
BRANCH  22  23
ATOM     23  C   UNL A   1      32.621  32.564  27.022  1.00  0.00     0.116 C 
BRANCH  23  24
ATOM     24  N   UNL A   1      32.401  33.910  27.524  1.00  0.00    -0.352 N 
ATOM     25  C   UNL A   1      33.057  34.635  28.486  1.00  0.00     0.251 C 
ATOM     26  H   UNL A   1      31.650  34.383  27.100  1.00  0.00     0.163 HD
ATOM     27  O   UNL A   1      32.607  35.738  28.810  1.00  0.00    -0.269 OA
BRANCH  25  28
ATOM     28  C   UNL A   1      34.263  34.120  29.169  1.00  0.00     0.039 A 
ATOM     29  C   UNL A   1      34.093  33.236  30.238  1.00  0.00     0.014 A 
ATOM     30  C   UNL A   1      35.552  34.516  28.803  1.00  0.00     0.014 A 
ATOM     31  C   UNL A   1      35.207  32.695  30.886  1.00  0.00     0.010 A 
ATOM     32  C   UNL A   1      36.665  33.912  29.395  1.00  0.00     0.010 A 
ATOM     33  C   UNL A   1      36.507  32.992  30.443  1.00  0.00    -0.014 A 
BRANCH  33  34
ATOM     34  C   UNL A   1      37.685  32.320  31.059  1.00  0.00     0.031 A 
ATOM     35  C   UNL A   1      38.169  32.700  32.433  1.00  0.00     0.074 A 
ATOM     36  C   UNL A   1      38.343  31.372  30.362  1.00  0.00     0.049 A 
ATOM     37  N   UNL A   1      39.150  32.187  33.137  1.00  0.00    -0.248 NA
ATOM     38  C   UNL A   1      37.479  33.815  33.097  1.00  0.00     0.031 C 
ATOM     39  C   UNL A   1      38.024  30.956  28.994  1.00  0.00     0.029 A 
ATOM     40  N   UNL A   1      39.411  30.578  30.705  1.00  0.00    -0.354 N 
ATOM     41  C   UNL A   1      39.194  32.918  34.318  1.00  0.00     0.074 A 
ATOM     42  C   UNL A   1      38.186  33.952  34.208  1.00  0.00     0.031 C 
ATOM     43  C   UNL A   1      38.843  29.956  28.634  1.00  0.00     0.029 A 
ATOM     44  C   UNL A   1      39.770  29.681  29.728  1.00  0.00     0.049 A 
ATOM     45  H   UNL A   1      39.875  30.645  31.572  1.00  0.00     0.167 HD
ATOM     46  C   UNL A   1      39.979  32.729  35.406  1.00  0.00     0.037 A 
ATOM     47  C   UNL A   1      40.731  28.738  29.713  1.00  0.00     0.037 A 
ATOM     48  C   UNL A   1      40.976  31.693  35.518  1.00  0.00     0.049 A 
ATOM     49  C   UNL A   1      41.588  28.545  30.936  1.00  0.00     0.074 A 
ATOM     50  C   UNL A   1      41.787  31.387  36.597  1.00  0.00     0.029 A 
ATOM     51  N   UNL A   1      41.305  30.799  34.509  1.00  0.00    -0.354 N 
ATOM     52  N   UNL A   1      41.560  29.186  32.080  1.00  0.00    -0.248 NA
ATOM     53  C   UNL A   1      42.599  27.482  30.872  1.00  0.00     0.031 C 
ATOM     54  C   UNL A   1      42.646  30.348  36.222  1.00  0.00     0.029 A 
ATOM     55  C   UNL A   1      42.322  29.957  34.933  1.00  0.00     0.049 A 
ATOM     56  H   UNL A   1      40.878  30.767  33.622  1.00  0.00     0.167 HD
ATOM     57  C   UNL A   1      42.522  28.583  32.880  1.00  0.00     0.074 A 
ATOM     58  C   UNL A   1      43.100  27.512  32.097  1.00  0.00     0.031 C 
ATOM     59  C   UNL A   1      42.890  28.890  34.148  1.00  0.00     0.037 A 
BRANCH  46  60
ATOM     60  C   UNL A   1      39.792  33.662  36.572  1.00  0.00     0.064 A 
ATOM     61  C   UNL A   1      38.953  33.336  37.650  1.00  0.00     0.173 A 
ATOM     62  C   UNL A   1      40.487  34.879  36.631  1.00  0.00     0.173 A 
ATOM     63  F   UNL A   1      38.257  32.188  37.642  1.00  0.00    -0.203 F 
ATOM     64  C   UNL A   1      38.790  34.208  38.723  1.00  0.00     0.198 A 
ATOM     65  C   UNL A   1      40.350  35.732  37.724  1.00  0.00     0.198 A 
ATOM     66  F   UNL A   1      41.309  35.240  35.634  1.00  0.00    -0.203 F 
ATOM     67  F   UNL A   1      37.940  33.899  39.712  1.00  0.00    -0.200 F 
ATOM     68  C   UNL A   1      39.495  35.401  38.764  1.00  0.00     0.200 A 
ATOM     69  F   UNL A   1      41.044  36.878  37.768  1.00  0.00    -0.200 F 
ATOM     70  F   UNL A   1      39.344  36.236  39.801  1.00  0.00    -0.200 F 
ENDBRANCH  46  60
BRANCH  47  71
ATOM     71  C   UNL A   1      40.911  27.875  28.516  1.00  0.00     0.064 A 
ATOM     72  C   UNL A   1      41.726  28.278  27.448  1.00  0.00     0.173 A 
ATOM     73  C   UNL A   1      40.265  26.634  28.407  1.00  0.00     0.173 A 
ATOM     74  F   UNL A   1      42.351  29.464  27.494  1.00  0.00    -0.203 F 
ATOM     75  C   UNL A   1      41.864  27.490  26.307  1.00  0.00     0.198 A 
ATOM     76  C   UNL A   1      40.431  25.831  27.281  1.00  0.00     0.198 A 
ATOM     77  F   UNL A   1      39.481  26.197  29.402  1.00  0.00    -0.203 F 
ATOM     78  F   UNL A   1      42.604  27.927  25.280  1.00  0.00    -0.200 F 
ATOM     79  C   UNL A   1      41.221  26.264  26.227  1.00  0.00     0.200 A 
ATOM     80  F   UNL A   1      39.824  24.639  27.216  1.00  0.00    -0.200 F 
ATOM     81  F   UNL A   1      41.358  25.504  25.132  1.00  0.00    -0.200 F 
ENDBRANCH  47  71
BRANCH  59  82
ATOM     82  C   UNL A   1      43.938  28.020  34.788  1.00  0.00     0.064 A 
ATOM     83  C   UNL A   1      45.302  28.351  34.754  1.00  0.00     0.173 A 
ATOM     84  C   UNL A   1      43.570  26.838  35.447  1.00  0.00     0.173 A 
ATOM     85  F   UNL A   1      45.712  29.465  34.127  1.00  0.00    -0.203 F 
ATOM     86  C   UNL A   1      46.259  27.507  35.312  1.00  0.00     0.198 A 
ATOM     87  C   UNL A   1      44.525  26.016  36.039  1.00  0.00     0.198 A 
ATOM     88  F   UNL A   1      42.280  26.477  35.520  1.00  0.00    -0.203 F 
ATOM     89  F   UNL A   1      47.560  27.808  35.203  1.00  0.00    -0.200 F 
ATOM     90  C   UNL A   1      45.870  26.344  35.959  1.00  0.00     0.200 A 
ATOM     91  F   UNL A   1      44.146  24.902  36.679  1.00  0.00    -0.200 F 
ATOM     92  F   UNL A   1      46.792  25.533  36.494  1.00  0.00    -0.200 F 
ENDBRANCH  59  82
ENDBRANCH  33  34
ENDBRANCH  25  28
ENDBRANCH  23  24
ENDBRANCH  22  23
ENDBRANCH  21  22
ENDBRANCH   1  21
TORSDOF 16
ENDMDL
MODEL 2
REMARK VINA RESULT:     -11.0      0.603      2.107
REMARK SMILES CC[C@H](C(=O)NCCCCNC(=O)c1ccc(-c2c3nc(c(-c4c(F)c(F)c(F)c(F)c4F)c4ccc([nH]4)c(-c4c(F)c(F)c(F)c(F)c4F)c4nc(c(-c5c(F)c(F)c(F)c(F)c5F)c5ccc2[nH]5)C=C4)C=C3)cc1)[N@@H+](C)Cc1cncn1C(C)C
REMARK SMILES IDX 7 1 6 2 4 3 5 4 3 6 2 7 1 8 77 9 78 10 79 12 80 13 81 14
REMARK SMILES IDX 84 15 82 16 83 17 85 18 86 19 87 20 8 21 9 22 10 23 11 24
REMARK SMILES IDX 12 25 13 27 14 28 15 29 76 30 16 31 75 32 17 33 18 34 19 35
REMARK SMILES IDX 69 36 20 37 74 38 68 39 70 40 21 41 73 42 67 43 66 44 22 46
REMARK SMILES IDX 54 47 34 48 53 49 35 50 38 51 52 52 71 53 36 54 37 55 51 57
REMARK SMILES IDX 72 58 39 59 23 60 24 61 32 62 25 63 26 64 30 65 33 66 27 67
REMARK SMILES IDX 28 68 31 69 29 70 55 71 56 72 64 73 57 74 58 75 62 76 65 77
REMARK SMILES IDX 59 78 60 79 63 80 61 81 40 82 41 83 49 84 42 85 43 86 47 87
REMARK SMILES IDX 50 88 44 89 45 90 48 91 46 92
REMARK H PARENT 6 5 77 11 11 26 70 45 38 56
REMARK Flexibility Score: inf
ROOT
ATOM      1  C   UNL A   1      32.793  30.025  25.993  1.00  0.00     0.116 C 
ENDROOT
BRANCH   1   2
ATOM      2  N   UNL A   1      33.245  29.701  24.666  1.00  0.00    -0.351 N 
ATOM      3  C   UNL A   1      32.917  28.772  23.744  1.00  0.00     0.278 C 
ATOM      4  O   UNL A   1      33.589  28.946  22.711  1.00  0.00    -0.268 OA
ATOM      5  H   UNL A   1      33.963  30.298  24.357  1.00  0.00     0.163 HD
BRANCH   3   6
ATOM      6  C   UNL A   1      31.965  27.511  23.910  1.00  0.00     0.273 C 
BRANCH   6   7
ATOM      7  C   UNL A   1      30.651  27.111  23.154  1.00  0.00     0.072 C 
ATOM      8  C   UNL A   1      29.228  27.118  23.691  1.00  0.00     0.011 C 
ENDBRANCH   6   7
BRANCH   6   9
ATOM      9  N   UNL A   1      32.807  26.340  24.280  1.00  0.00    -0.322 N 
ATOM     10  C   UNL A   1      33.786  26.544  25.332  1.00  0.00     0.333 C 
ATOM     11  H   UNL A   1      33.328  26.376  23.404  1.00  0.00     0.348 HD
BRANCH   9  12
ATOM     12  C   UNL A   1      32.348  24.968  24.092  1.00  0.00     0.319 C 
BRANCH  12  13
ATOM     13  C   UNL A   1      32.023  24.212  25.331  1.00  0.00     0.093 A 
ATOM     14  C   UNL A   1      30.964  24.425  26.195  1.00  0.00     0.140 A 
ATOM     15  N   UNL A   1      32.781  23.230  25.951  1.00  0.00    -0.327 N 
ATOM     16  N   UNL A   1      31.004  23.572  27.258  1.00  0.00    -0.245 NA
ATOM     17  C   UNL A   1      32.087  22.857  27.078  1.00  0.00     0.200 A 
BRANCH  15  18
ATOM     18  C   UNL A   1      34.065  22.655  25.554  1.00  0.00     0.082 C 
ATOM     19  C   UNL A   1      35.259  23.262  26.290  1.00  0.00     0.031 C 
ATOM     20  C   UNL A   1      34.147  21.147  25.776  1.00  0.00     0.031 C 
ENDBRANCH  15  18
ENDBRANCH  12  13
ENDBRANCH   9  12
ENDBRANCH   6   9
ENDBRANCH   3   6
ENDBRANCH   1   2
BRANCH   1  21
ATOM     21  C   UNL A   1      31.409  30.697  25.964  1.00  0.00     0.023 C 
BRANCH  21  22
ATOM     22  C   UNL A   1      31.299  32.144  26.484  1.00  0.00     0.023 C 
BRANCH  22  23
ATOM     23  C   UNL A   1      32.554  32.781  27.076  1.00  0.00     0.116 C 
BRANCH  23  24
ATOM     24  N   UNL A   1      32.333  34.109  27.622  1.00  0.00    -0.352 N 
ATOM     25  C   UNL A   1      32.996  34.810  28.596  1.00  0.00     0.251 C 
ATOM     26  H   UNL A   1      31.572  34.590  27.223  1.00  0.00     0.163 HD
ATOM     27  O   UNL A   1      32.544  35.900  28.961  1.00  0.00    -0.269 OA
BRANCH  25  28
ATOM     28  C   UNL A   1      34.216  34.283  29.247  1.00  0.00     0.039 A 
ATOM     29  C   UNL A   1      34.066  33.405  30.324  1.00  0.00     0.014 A 
ATOM     30  C   UNL A   1      35.498  34.662  28.843  1.00  0.00     0.014 A 
ATOM     31  C   UNL A   1      35.192  32.853  30.942  1.00  0.00     0.010 A 
ATOM     32  C   UNL A   1      36.620  34.047  29.405  1.00  0.00     0.010 A 
ATOM     33  C   UNL A   1      36.482  33.133  30.460  1.00  0.00    -0.014 A 
BRANCH  33  34
ATOM     34  C   UNL A   1      37.670  32.449  31.045  1.00  0.00     0.031 A 
ATOM     35  C   UNL A   1      38.191  32.822  32.407  1.00  0.00     0.074 A 
ATOM     36  C   UNL A   1      38.301  31.496  30.329  1.00  0.00     0.049 A 
ATOM     37  N   UNL A   1      39.185  32.299  33.084  1.00  0.00    -0.248 NA
ATOM     38  C   UNL A   1      37.529  33.942  33.090  1.00  0.00     0.031 C 
ATOM     39  C   UNL A   1      37.943  31.086  28.970  1.00  0.00     0.029 A 
ATOM     40  N   UNL A   1      39.369  30.692  30.644  1.00  0.00    -0.354 N 
ATOM     41  C   UNL A   1      39.266  33.027  34.265  1.00  0.00     0.074 A 
ATOM     42  C   UNL A   1      38.266  34.070  34.183  1.00  0.00     0.031 C 
ATOM     43  C   UNL A   1      38.743  30.079  28.587  1.00  0.00     0.029 A 
ATOM     44  C   UNL A   1      39.695  29.794  29.657  1.00  0.00     0.049 A 
ATOM     45  H   UNL A   1      39.856  30.753  31.499  1.00  0.00     0.167 HD
ATOM     46  C   UNL A   1      40.077  32.828  35.333  1.00  0.00     0.037 A 
ATOM     47  C   UNL A   1      40.647  28.842  29.616  1.00  0.00     0.037 A 
ATOM     48  C   UNL A   1      41.067  31.784  35.417  1.00  0.00     0.049 A 
ATOM     49  C   UNL A   1      41.533  28.638  30.816  1.00  0.00     0.074 A 
ATOM     50  C   UNL A   1      41.903  31.468  36.475  1.00  0.00     0.029 A 
ATOM     51  N   UNL A   1      41.362  30.888  34.399  1.00  0.00    -0.354 N 
ATOM     52  N   UNL A   1      41.540  29.278  31.961  1.00  0.00    -0.248 NA
ATOM     53  C   UNL A   1      42.533  27.566  30.724  1.00  0.00     0.031 C 
ATOM     54  C   UNL A   1      42.742  30.423  36.076  1.00  0.00     0.029 A 
ATOM     55  C   UNL A   1      42.382  30.037  34.795  1.00  0.00     0.049 A 
ATOM     56  H   UNL A   1      40.912  30.862  33.523  1.00  0.00     0.167 HD
ATOM     57  C   UNL A   1      42.516  28.665  32.736  1.00  0.00     0.074 A 
ATOM     58  C   UNL A   1      43.065  27.590  31.937  1.00  0.00     0.031 C 
ATOM     59  C   UNL A   1      42.920  28.965  33.994  1.00  0.00     0.037 A 
BRANCH  46  60
ATOM     60  C   UNL A   1      39.928  33.761  36.504  1.00  0.00     0.064 A 
ATOM     61  C   UNL A   1      40.634  34.972  36.577  1.00  0.00     0.173 A 
ATOM     62  C   UNL A   1      39.039  33.459  37.548  1.00  0.00     0.173 A 
ATOM     63  F   UNL A   1      41.505  35.306  35.612  1.00  0.00    -0.203 F 
ATOM     64  C   UNL A   1      40.485  35.827  37.666  1.00  0.00     0.198 A 
ATOM     65  C   UNL A   1      38.864  34.335  38.617  1.00  0.00     0.198 A 
ATOM     66  F   UNL A   1      38.331  32.321  37.527  1.00  0.00    -0.203 F 
ATOM     67  F   UNL A   1      41.214  36.949  37.740  1.00  0.00    -0.200 F 
ATOM     68  C   UNL A   1      39.594  35.512  38.681  1.00  0.00     0.200 A 
ATOM     69  F   UNL A   1      37.991  34.036  39.590  1.00  0.00    -0.200 F 
ATOM     70  F   UNL A   1      39.444  36.340  39.725  1.00  0.00    -0.200 F 
ENDBRANCH  46  60
BRANCH  47  71
ATOM     71  C   UNL A   1      40.788  27.979  28.413  1.00  0.00     0.064 A 
ATOM     72  C   UNL A   1      40.133  26.742  28.329  1.00  0.00     0.173 A 
ATOM     73  C   UNL A   1      41.589  28.365  27.328  1.00  0.00     0.173 A 
ATOM     74  F   UNL A   1      39.370  26.318  29.347  1.00  0.00    -0.203 F 
ATOM     75  C   UNL A   1      40.295  25.913  27.220  1.00  0.00     0.198 A 
ATOM     76  C   UNL A   1      41.724  27.551  26.206  1.00  0.00     0.198 A 
ATOM     77  F   UNL A   1      42.232  29.541  27.353  1.00  0.00    -0.203 F 
ATOM     78  F   UNL A   1      39.702  24.712  27.192  1.00  0.00    -0.200 F 
ATOM     79  C   UNL A   1      41.086  26.321  26.157  1.00  0.00     0.200 A 
ATOM     80  F   UNL A   1      42.474  27.957  25.172  1.00  0.00    -0.200 F 
ATOM     81  F   UNL A   1      41.239  25.525  25.090  1.00  0.00    -0.200 F 
ENDBRANCH  47  71
BRANCH  59  82
ATOM     82  C   UNL A   1      43.976  28.086  34.605  1.00  0.00     0.064 A 
ATOM     83  C   UNL A   1      43.653  26.926  35.328  1.00  0.00     0.173 A 
ATOM     84  C   UNL A   1      45.335  28.408  34.463  1.00  0.00     0.173 A 
ATOM     85  F   UNL A   1      42.370  26.577  35.506  1.00  0.00    -0.203 F 
ATOM     86  C   UNL A   1      44.646  26.153  35.924  1.00  0.00     0.198 A 
ATOM     87  C   UNL A   1      46.327  27.610  35.026  1.00  0.00     0.198 A 
ATOM     88  F   UNL A   1      45.703  29.499  33.773  1.00  0.00    -0.203 F 
ATOM     89  F   UNL A   1      44.308  25.092  36.670  1.00  0.00    -0.200 F 
ATOM     90  C   UNL A   1      45.981  26.491  35.768  1.00  0.00     0.200 A 
ATOM     91  F   UNL A   1      47.617  27.930  34.859  1.00  0.00    -0.200 F 
ATOM     92  F   UNL A   1      46.934  25.747  36.344  1.00  0.00    -0.200 F 
ENDBRANCH  59  82
ENDBRANCH  33  34
ENDBRANCH  25  28
ENDBRANCH  23  24
ENDBRANCH  22  23
ENDBRANCH  21  22
ENDBRANCH   1  21
TORSDOF 16
ENDMDL
MODEL 3
REMARK VINA RESULT:     -10.9      5.394     11.105
REMARK SMILES CC[C@H](C(=O)NCCCCNC(=O)c1ccc(-c2c3nc(c(-c4c(F)c(F)c(F)c(F)c4F)c4ccc([nH]4)c(-c4c(F)c(F)c(F)c(F)c4F)c4nc(c(-c5c(F)c(F)c(F)c(F)c5F)c5ccc2[nH]5)C=C4)C=C3)cc1)[N@@H+](C)Cc1cncn1C(C)C
REMARK SMILES IDX 7 1 6 2 4 3 5 4 3 6 2 7 1 8 77 9 78 10 79 12 80 13 81 14
REMARK SMILES IDX 84 15 82 16 83 17 85 18 86 19 87 20 8 21 9 22 10 23 11 24
REMARK SMILES IDX 12 25 13 27 14 28 15 29 76 30 16 31 75 32 17 33 18 34 19 35
REMARK SMILES IDX 69 36 20 37 74 38 68 39 70 40 21 41 73 42 67 43 66 44 22 46
REMARK SMILES IDX 54 47 34 48 53 49 35 50 38 51 52 52 71 53 36 54 37 55 51 57
REMARK SMILES IDX 72 58 39 59 23 60 24 61 32 62 25 63 26 64 30 65 33 66 27 67
REMARK SMILES IDX 28 68 31 69 29 70 55 71 56 72 64 73 57 74 58 75 62 76 65 77
REMARK SMILES IDX 59 78 60 79 63 80 61 81 40 82 41 83 49 84 42 85 43 86 47 87
REMARK SMILES IDX 50 88 44 89 45 90 48 91 46 92
REMARK H PARENT 6 5 77 11 11 26 70 45 38 56
REMARK Flexibility Score: inf
ROOT
ATOM      1  C   UNL A   1      36.894  22.178  25.420  1.00  0.00     0.116 C 
ENDROOT
BRANCH   1   2
ATOM      2  N   UNL A   1      35.845  22.056  26.398  1.00  0.00    -0.351 N 
ATOM      3  C   UNL A   1      34.520  21.808  26.352  1.00  0.00     0.278 C 
ATOM      4  O   UNL A   1      34.059  21.760  27.507  1.00  0.00    -0.268 OA
ATOM      5  H   UNL A   1      36.171  22.183  27.317  1.00  0.00     0.163 HD
BRANCH   3   6
ATOM      6  C   UNL A   1      33.572  21.742  25.078  1.00  0.00     0.273 C 
BRANCH   6   7
ATOM      7  C   UNL A   1      32.942  20.517  24.330  1.00  0.00     0.072 C 
ATOM      8  C   UNL A   1      32.986  19.052  24.739  1.00  0.00     0.011 C 
ENDBRANCH   6   7
BRANCH   6   9
ATOM      9  N   UNL A   1      32.680  22.935  25.102  1.00  0.00    -0.322 N 
ATOM     10  C   UNL A   1      31.326  22.730  25.583  1.00  0.00     0.333 C 
ATOM     11  H   UNL A   1      32.613  22.966  24.085  1.00  0.00     0.348 HD
BRANCH   9  12
ATOM     12  C   UNL A   1      33.205  24.289  25.232  1.00  0.00     0.319 C 
BRANCH  12  13
ATOM     13  C   UNL A   1      33.271  25.087  23.978  1.00  0.00     0.093 A 
ATOM     14  C   UNL A   1      33.662  24.656  22.724  1.00  0.00     0.140 A 
ATOM     15  N   UNL A   1      33.089  26.454  23.830  1.00  0.00    -0.327 N 
ATOM     16  N   UNL A   1      33.648  25.673  21.815  1.00  0.00    -0.245 NA
ATOM     17  C   UNL A   1      33.284  26.731  22.498  1.00  0.00     0.200 A 
BRANCH  15  18
ATOM     18  C   UNL A   1      32.757  27.464  24.835  1.00  0.00     0.082 C 
ATOM     19  C   UNL A   1      31.392  27.248  25.489  1.00  0.00     0.031 C 
ATOM     20  C   UNL A   1      33.770  27.539  25.974  1.00  0.00     0.031 C 
ENDBRANCH  15  18
ENDBRANCH  12  13
ENDBRANCH   9  12
ENDBRANCH   6   9
ENDBRANCH   3   6
ENDBRANCH   1   2
BRANCH   1  21
ATOM     21  C   UNL A   1      36.961  20.937  24.513  1.00  0.00     0.023 C 
BRANCH  21  22
ATOM     22  C   UNL A   1      37.902  19.789  24.929  1.00  0.00     0.023 C 
BRANCH  22  23
ATOM     23  C   UNL A   1      38.995  20.103  25.947  1.00  0.00     0.116 C 
BRANCH  23  24
ATOM     24  N   UNL A   1      40.121  19.186  25.897  1.00  0.00    -0.352 N 
ATOM     25  C   UNL A   1      41.467  19.396  26.051  1.00  0.00     0.251 C 
ATOM     26  H   UNL A   1      39.873  18.249  25.722  1.00  0.00     0.163 HD
ATOM     27  O   UNL A   1      42.243  18.455  25.857  1.00  0.00    -0.269 OA
BRANCH  25  28
ATOM     28  C   UNL A   1      42.018  20.722  26.405  1.00  0.00     0.039 A 
ATOM     29  C   UNL A   1      42.263  21.635  25.375  1.00  0.00     0.014 A 
ATOM     30  C   UNL A   1      42.329  21.071  27.721  1.00  0.00     0.014 A 
ATOM     31  C   UNL A   1      42.746  22.913  25.670  1.00  0.00     0.010 A 
ATOM     32  C   UNL A   1      42.732  22.375  28.024  1.00  0.00     0.010 A 
ATOM     33  C   UNL A   1      42.943  23.313  27.003  1.00  0.00    -0.014 A 
BRANCH  33  34
ATOM     34  C   UNL A   1      43.343  24.714  27.318  1.00  0.00     0.031 A 
ATOM     35  C   UNL A   1      44.736  25.209  27.035  1.00  0.00     0.074 A 
ATOM     36  C   UNL A   1      42.446  25.544  27.888  1.00  0.00     0.049 A 
ATOM     37  N   UNL A   1      45.239  26.408  27.206  1.00  0.00    -0.248 NA
ATOM     38  C   UNL A   1      45.699  24.227  26.517  1.00  0.00     0.031 C 
ATOM     39  C   UNL A   1      41.084  25.174  28.278  1.00  0.00     0.029 A 
ATOM     40  N   UNL A   1      42.536  26.871  28.231  1.00  0.00    -0.354 N 
ATOM     41  C   UNL A   1      46.571  26.321  26.819  1.00  0.00     0.074 A 
ATOM     42  C   UNL A   1      46.816  24.938  26.469  1.00  0.00     0.031 C 
ATOM     43  C   UNL A   1      40.453  26.255  28.762  1.00  0.00     0.029 A 
ATOM     44  C   UNL A   1      41.374  27.388  28.751  1.00  0.00     0.049 A 
ATOM     45  H   UNL A   1      43.358  27.403  28.115  1.00  0.00     0.167 HD
ATOM     46  C   UNL A   1      47.498  27.307  26.734  1.00  0.00     0.037 A 
ATOM     47  C   UNL A   1      41.078  28.634  29.167  1.00  0.00     0.037 A 
ATOM     48  C   UNL A   1      47.250  28.686  27.074  1.00  0.00     0.049 A 
ATOM     49  C   UNL A   1      42.123  29.712  29.058  1.00  0.00     0.074 A 
ATOM     50  C   UNL A   1      48.108  29.768  26.974  1.00  0.00     0.029 A 
ATOM     51  N   UNL A   1      46.057  29.172  27.589  1.00  0.00    -0.354 N 
ATOM     52  N   UNL A   1      43.352  29.634  28.608  1.00  0.00    -0.248 NA
ATOM     53  C   UNL A   1      41.732  31.058  29.499  1.00  0.00     0.031 C 
ATOM     54  C   UNL A   1      47.454  30.896  27.483  1.00  0.00     0.029 A 
ATOM     55  C   UNL A   1      46.164  30.533  27.834  1.00  0.00     0.049 A 
ATOM     56  H   UNL A   1      45.252  28.630  27.757  1.00  0.00     0.167 HD
ATOM     57  C   UNL A   1      43.867  30.922  28.679  1.00  0.00     0.074 A 
ATOM     58  C   UNL A   1      42.810  31.764  29.196  1.00  0.00     0.031 C 
ATOM     59  C   UNL A   1      45.104  31.366  28.345  1.00  0.00     0.037 A 
BRANCH  46  60
ATOM     60  C   UNL A   1      48.871  26.931  26.249  1.00  0.00     0.064 A 
ATOM     61  C   UNL A   1      49.234  27.047  24.898  1.00  0.00     0.173 A 
ATOM     62  C   UNL A   1      49.850  26.487  27.152  1.00  0.00     0.173 A 
ATOM     63  F   UNL A   1      48.336  27.458  23.990  1.00  0.00    -0.203 F 
ATOM     64  C   UNL A   1      50.511  26.697  24.463  1.00  0.00     0.198 A 
ATOM     65  C   UNL A   1      51.137  26.174  26.719  1.00  0.00     0.198 A 
ATOM     66  F   UNL A   1      49.564  26.365  28.457  1.00  0.00    -0.203 F 
ATOM     67  F   UNL A   1      50.813  26.762  23.159  1.00  0.00    -0.200 F 
ATOM     68  C   UNL A   1      51.463  26.269  25.375  1.00  0.00     0.200 A 
ATOM     69  F   UNL A   1      52.061  25.774  27.605  1.00  0.00    -0.200 F 
ATOM     70  F   UNL A   1      52.693  25.941  24.957  1.00  0.00    -0.200 F 
ENDBRANCH  46  60
BRANCH  47  71
ATOM     71  C   UNL A   1      39.719  28.943  29.687  1.00  0.00     0.064 A 
ATOM     72  C   UNL A   1      39.394  28.733  31.035  1.00  0.00     0.173 A 
ATOM     73  C   UNL A   1      38.713  29.445  28.847  1.00  0.00     0.173 A 
ATOM     74  F   UNL A   1      40.315  28.237  31.875  1.00  0.00    -0.203 F 
ATOM     75  C   UNL A   1      38.111  28.984  31.516  1.00  0.00     0.198 A 
ATOM     76  C   UNL A   1      37.440  29.728  29.336  1.00  0.00     0.198 A 
ATOM     77  F   UNL A   1      38.972  29.672  27.551  1.00  0.00    -0.203 F 
ATOM     78  F   UNL A   1      37.814  28.720  32.795  1.00  0.00    -0.200 F 
ATOM     79  C   UNL A   1      37.136  29.486  30.668  1.00  0.00     0.200 A 
ATOM     80  F   UNL A   1      36.507  30.231  28.518  1.00  0.00    -0.200 F 
ATOM     81  F   UNL A   1      35.903  29.731  31.132  1.00  0.00    -0.200 F 
ENDBRANCH  47  71
BRANCH  59  82
ATOM     82  C   UNL A   1      45.365  32.841  28.482  1.00  0.00     0.064 A 
ATOM     83  C   UNL A   1      45.946  33.390  29.635  1.00  0.00     0.173 A 
ATOM     84  C   UNL A   1      45.029  33.718  27.439  1.00  0.00     0.173 A 
ATOM     85  F   UNL A   1      46.276  32.600  30.668  1.00  0.00    -0.203 F 
ATOM     86  C   UNL A   1      46.135  34.765  29.758  1.00  0.00     0.198 A 
ATOM     87  C   UNL A   1      45.256  35.087  27.549  1.00  0.00     0.198 A 
ATOM     88  F   UNL A   1      44.481  33.247  26.309  1.00  0.00    -0.203 F 
ATOM     89  F   UNL A   1      46.624  35.272  30.899  1.00  0.00    -0.200 F 
ATOM     90  C   UNL A   1      45.796  35.611  28.714  1.00  0.00     0.200 A 
ATOM     91  F   UNL A   1      44.944  35.901  26.532  1.00  0.00    -0.200 F 
ATOM     92  F   UNL A   1      45.976  36.933  28.835  1.00  0.00    -0.200 F 
ENDBRANCH  59  82
ENDBRANCH  33  34
ENDBRANCH  25  28
ENDBRANCH  23  24
ENDBRANCH  22  23
ENDBRANCH  21  22
ENDBRANCH   1  21
TORSDOF 16
ENDMDL
