MODEL 1
REMARK VINA RESULT:     -13.4      0.000      0.000
REMARK SMILES O=C(NCCCCNC(=O)C1(NC(=O)c2c[nH]c(=O)c(Cl)c2)CCCCC1)c1ccc(-c2c3nc(c(-c4c(F)c(F)c(F)c(F)c4F)c4ccc([nH]4)c(-c4c(F)c(F)c(F)c(F)c4F)c4nc(c(-c5c(F)c(F)c(F)c(F)c5F)c5ccc2[nH]5)C=C4)C=C3)cc1
REMARK SMILES IDX 5 1 4 2 3 3 1 4 2 5 28 7 29 8 90 9 30 10 89 11 31 12 32 13
REMARK SMILES IDX 33 14 83 15 34 16 88 17 82 18 84 19 35 20 87 21 81 22 80 23
REMARK SMILES IDX 36 25 68 26 48 27 67 28 49 29 52 30 66 31 85 32 50 33 51 34
REMARK SMILES IDX 65 36 86 37 53 38 37 39 38 40 46 41 39 42 40 43 44 44 47 45
REMARK SMILES IDX 41 46 42 47 45 48 43 49 69 50 70 51 78 52 71 53 72 54 76 55
REMARK SMILES IDX 79 56 73 57 74 58 77 59 75 60 54 61 55 62 63 63 56 64 57 65
REMARK SMILES IDX 61 66 64 67 58 68 59 69 62 70 60 71 6 72 7 73 8 74 9 75
REMARK SMILES IDX 10 77 11 78 23 79 27 80 24 81 26 82 25 83 12 84 13 85 14 87
REMARK SMILES IDX 15 88 16 89 22 90 17 91 20 92 18 93 21 95 19 96
REMARK H PARENT 3 6 84 24 52 35 8 76 12 86 17 94
REMARK Flexibility Score: inf
ROOT
ATOM      1  C   UNL A   1      31.780  31.631  26.667  1.00  0.00     0.023 C 
ENDROOT
BRANCH   1   2
ATOM      2  C   UNL A   1      32.930  32.369  27.322  1.00  0.00     0.116 C 
BRANCH   2   3
ATOM      3  N   UNL A   1      32.611  33.763  27.572  1.00  0.00    -0.352 N 
ATOM      4  O   UNL A   1      32.510  35.684  28.733  1.00  0.00    -0.269 OA
ATOM      5  C   UNL A   1      33.080  34.611  28.548  1.00  0.00     0.251 C 
ATOM      6  H   UNL A   1      31.960  34.162  26.948  1.00  0.00     0.163 HD
BRANCH   5   7
ATOM      7  C   UNL A   1      34.274  34.267  29.366  1.00  0.00     0.039 A 
ATOM      8  C   UNL A   1      34.150  33.633  30.604  1.00  0.00     0.014 A 
ATOM      9  C   UNL A   1      35.553  34.477  28.832  1.00  0.00     0.014 A 
ATOM     10  C   UNL A   1      35.278  33.291  31.341  1.00  0.00     0.010 A 
ATOM     11  C   UNL A   1      36.688  34.027  29.520  1.00  0.00     0.010 A 
ATOM     12  C   UNL A   1      36.554  33.409  30.772  1.00  0.00    -0.014 A 
BRANCH  12  13
ATOM     13  C   UNL A   1      37.685  32.686  31.409  1.00  0.00     0.031 A 
ATOM     14  C   UNL A   1      38.360  31.524  30.745  1.00  0.00     0.074 A 
ATOM     15  C   UNL A   1      38.084  33.105  32.629  1.00  0.00     0.049 A 
ATOM     16  N   UNL A   1      39.330  30.772  31.202  1.00  0.00    -0.248 NA
ATOM     17  C   UNL A   1      37.886  31.146  29.406  1.00  0.00     0.031 C 
ATOM     18  C   UNL A   1      37.478  34.211  33.377  1.00  0.00     0.029 A 
ATOM     19  N   UNL A   1      39.089  32.668  33.455  1.00  0.00    -0.354 N 
ATOM     20  C   UNL A   1      39.569  29.820  30.220  1.00  0.00     0.074 A 
ATOM     21  C   UNL A   1      38.635  30.082  29.146  1.00  0.00     0.031 C 
ATOM     22  C   UNL A   1      38.143  34.391  34.525  1.00  0.00     0.029 A 
ATOM     23  C   UNL A   1      39.163  33.360  34.641  1.00  0.00     0.049 A 
ATOM     24  H   UNL A   1      39.698  31.930  33.221  1.00  0.00     0.167 HD
ATOM     25  C   UNL A   1      40.487  28.825  30.229  1.00  0.00     0.037 A 
ATOM     26  C   UNL A   1      39.933  33.161  35.726  1.00  0.00     0.037 A 
ATOM     27  C   UNL A   1      41.427  28.597  31.299  1.00  0.00     0.049 A 
ATOM     28  C   UNL A   1      40.915  32.025  35.708  1.00  0.00     0.074 A 
ATOM     29  C   UNL A   1      42.445  27.660  31.365  1.00  0.00     0.029 A 
ATOM     30  N   UNL A   1      41.457  29.301  32.493  1.00  0.00    -0.354 N 
ATOM     31  N   UNL A   1      41.177  31.175  34.746  1.00  0.00    -0.248 NA
ATOM     32  C   UNL A   1      41.700  31.811  36.930  1.00  0.00     0.031 C 
ATOM     33  C   UNL A   1      43.044  27.751  32.625  1.00  0.00     0.029 A 
ATOM     34  C   UNL A   1      42.443  28.787  33.322  1.00  0.00     0.049 A 
ATOM     35  H   UNL A   1      40.865  30.056  32.720  1.00  0.00     0.167 HD
ATOM     36  C   UNL A   1      42.160  30.334  35.240  1.00  0.00     0.074 A 
ATOM     37  C   UNL A   1      42.476  30.799  36.574  1.00  0.00     0.031 C 
ATOM     38  C   UNL A   1      42.740  29.261  34.649  1.00  0.00     0.037 A 
BRANCH  25  39
ATOM     39  C   UNL A   1      40.525  27.877  29.064  1.00  0.00     0.064 A 
ATOM     40  C   UNL A   1      39.716  26.733  29.013  1.00  0.00     0.173 A 
ATOM     41  C   UNL A   1      41.302  28.184  27.935  1.00  0.00     0.173 A 
ATOM     42  F   UNL A   1      38.956  26.395  30.064  1.00  0.00    -0.203 F 
ATOM     43  C   UNL A   1      39.688  25.928  27.875  1.00  0.00     0.198 A 
ATOM     44  C   UNL A   1      41.250  27.392  26.791  1.00  0.00     0.198 A 
ATOM     45  F   UNL A   1      42.084  29.273  27.927  1.00  0.00    -0.203 F 
ATOM     46  F   UNL A   1      38.920  24.829  27.852  1.00  0.00    -0.200 F 
ATOM     47  C   UNL A   1      40.446  26.264  26.762  1.00  0.00     0.200 A 
ATOM     48  F   UNL A   1      41.967  27.731  25.710  1.00  0.00    -0.200 F 
ATOM     49  F   UNL A   1      40.394  25.504  25.660  1.00  0.00    -0.200 F 
ENDBRANCH  25  39
BRANCH  26  50
ATOM     50  C   UNL A   1      39.764  34.013  36.934  1.00  0.00     0.064 A 
ATOM     51  C   UNL A   1      38.945  33.613  37.998  1.00  0.00     0.173 A 
ATOM     52  C   UNL A   1      40.396  35.263  37.035  1.00  0.00     0.173 A 
ATOM     53  F   UNL A   1      38.304  32.435  37.944  1.00  0.00    -0.203 F 
ATOM     54  C   UNL A   1      38.736  34.444  39.097  1.00  0.00     0.198 A 
ATOM     55  C   UNL A   1      40.221  36.073  38.153  1.00  0.00     0.198 A 
ATOM     56  F   UNL A   1      41.198  35.694  36.050  1.00  0.00    -0.203 F 
ATOM     57  F   UNL A   1      37.894  34.065  40.068  1.00  0.00    -0.200 F 
ATOM     58  C   UNL A   1      39.378  35.670  39.177  1.00  0.00     0.200 A 
ATOM     59  F   UNL A   1      40.861  37.247  38.235  1.00  0.00    -0.200 F 
ATOM     60  F   UNL A   1      39.175  36.468  40.233  1.00  0.00    -0.200 F 
ENDBRANCH  26  50
BRANCH  38  61
ATOM     61  C   UNL A   1      43.784  28.530  35.441  1.00  0.00     0.064 A 
ATOM     62  C   UNL A   1      45.147  28.835  35.310  1.00  0.00     0.173 A 
ATOM     63  C   UNL A   1      43.417  27.536  36.360  1.00  0.00     0.173 A 
ATOM     64  F   UNL A   1      45.551  29.763  34.428  1.00  0.00    -0.203 F 
ATOM     65  C   UNL A   1      46.106  28.153  36.053  1.00  0.00     0.198 A 
ATOM     66  C   UNL A   1      44.376  26.881  37.126  1.00  0.00     0.198 A 
ATOM     67  F   UNL A   1      42.127  27.210  36.524  1.00  0.00    -0.203 F 
ATOM     68  F   UNL A   1      47.406  28.422  35.871  1.00  0.00    -0.200 F 
ATOM     69  C   UNL A   1      45.719  27.183  36.966  1.00  0.00     0.200 A 
ATOM     70  F   UNL A   1      43.999  25.955  38.018  1.00  0.00    -0.200 F 
ATOM     71  F   UNL A   1      46.644  26.534  37.686  1.00  0.00    -0.200 F 
ENDBRANCH  38  61
ENDBRANCH  12  13
ENDBRANCH   5   7
ENDBRANCH   2   3
ENDBRANCH   1   2
BRANCH   1  72
ATOM     72  C   UNL A   1      31.763  30.120  26.851  1.00  0.00     0.023 C 
BRANCH  72  73
ATOM     73  C   UNL A   1      33.099  29.348  26.852  1.00  0.00     0.116 C 
BRANCH  73  74
ATOM     74  N   UNL A   1      33.900  29.181  25.627  1.00  0.00    -0.354 N 
ATOM     75  C   UNL A   1      33.847  28.299  24.556  1.00  0.00     0.245 C 
ATOM     76  H   UNL A   1      34.631  29.836  25.552  1.00  0.00     0.163 HD
ATOM     77  O   UNL A   1      34.400  28.645  23.507  1.00  0.00    -0.272 OA
BRANCH  75  78
ATOM     78  C   UNL A   1      33.031  26.996  24.629  1.00  0.00     0.119 C 
ATOM     79  C   UNL A   1      34.080  26.113  25.398  1.00  0.00     0.038 C 
ATOM     80  C   UNL A   1      31.707  26.940  25.431  1.00  0.00     0.038 C 
ATOM     81  C   UNL A   1      33.672  24.780  26.006  1.00  0.00     0.003 C 
ATOM     82  C   UNL A   1      31.302  25.474  25.729  1.00  0.00     0.003 C 
ATOM     83  C   UNL A   1      32.307  24.822  26.664  1.00  0.00     0.000 C 
BRANCH  78  84
ATOM     84  N   UNL A   1      32.667  26.665  23.241  1.00  0.00    -0.338 N 
ATOM     85  C   UNL A   1      31.555  26.977  22.486  1.00  0.00     0.253 C 
ATOM     86  H   UNL A   1      33.339  26.123  22.766  1.00  0.00     0.164 HD
ATOM     87  O   UNL A   1      31.301  26.134  21.612  1.00  0.00    -0.269 OA
BRANCH  85  88
ATOM     88  C   UNL A   1      30.683  28.265  22.485  1.00  0.00     0.057 A 
ATOM     89  C   UNL A   1      30.930  29.486  21.965  1.00  0.00     0.099 A 
ATOM     90  C   UNL A   1      29.291  28.097  22.969  1.00  0.00     0.041 A 
ATOM     91  N   UNL A   1      29.960  30.445  21.770  1.00  0.00    -0.327 N 
ATOM     92  C   UNL A   1      28.326  29.016  22.792  1.00  0.00     0.106 A 
ATOM     93  C   UNL A   1      28.635  30.297  22.094  1.00  0.00     0.266 A 
ATOM     94  H   UNL A   1      30.238  31.299  21.366  1.00  0.00     0.169 HD
ATOM     95  Cl  UNL A   1      26.716  28.771  23.339  1.00  0.00    -0.078 Cl
ATOM     96  O   UNL A   1      27.811  31.150  21.814  1.00  0.00    -0.268 OA
ENDBRANCH  85  88
ENDBRANCH  78  84
ENDBRANCH  75  78
ENDBRANCH  73  74
ENDBRANCH  72  73
ENDBRANCH   1  72
TORSDOF 13
ENDMDL
MODEL 2
REMARK VINA RESULT:     -13.2      2.905      4.772
REMARK SMILES O=C(NCCCCNC(=O)C1(NC(=O)c2c[nH]c(=O)c(Cl)c2)CCCCC1)c1ccc(-c2c3nc(c(-c4c(F)c(F)c(F)c(F)c4F)c4ccc([nH]4)c(-c4c(F)c(F)c(F)c(F)c4F)c4nc(c(-c5c(F)c(F)c(F)c(F)c5F)c5ccc2[nH]5)C=C4)C=C3)cc1
REMARK SMILES IDX 5 1 4 2 3 3 1 4 2 5 28 7 29 8 90 9 30 10 89 11 31 12 32 13
REMARK SMILES IDX 33 14 83 15 34 16 88 17 82 18 84 19 35 20 87 21 81 22 80 23
REMARK SMILES IDX 36 25 68 26 48 27 67 28 49 29 52 30 66 31 85 32 50 33 51 34
REMARK SMILES IDX 65 36 86 37 53 38 37 39 38 40 46 41 39 42 40 43 44 44 47 45
REMARK SMILES IDX 41 46 42 47 45 48 43 49 69 50 70 51 78 52 71 53 72 54 76 55
REMARK SMILES IDX 79 56 73 57 74 58 77 59 75 60 54 61 55 62 63 63 56 64 57 65
REMARK SMILES IDX 61 66 64 67 58 68 59 69 62 70 60 71 6 72 7 73 8 74 9 75
REMARK SMILES IDX 10 77 11 78 23 79 27 80 24 81 26 82 25 83 12 84 13 85 14 87
REMARK SMILES IDX 15 88 16 89 22 90 17 91 20 92 18 93 21 95 19 96
REMARK H PARENT 3 6 84 24 52 35 8 76 12 86 17 94
REMARK Flexibility Score: inf
ROOT
ATOM      1  C   UNL A   1      31.806  29.727  25.396  1.00  0.00     0.023 C 
ENDROOT
BRANCH   1   2
ATOM      2  C   UNL A   1      32.152  30.190  26.797  1.00  0.00     0.116 C 
BRANCH   2   3
ATOM      3  N   UNL A   1      32.253  31.635  26.884  1.00  0.00    -0.352 N 
ATOM      4  O   UNL A   1      33.020  33.612  27.626  1.00  0.00    -0.269 OA
ATOM      5  C   UNL A   1      33.235  32.415  27.448  1.00  0.00     0.251 C 
ATOM      6  H   UNL A   1      31.505  32.132  26.477  1.00  0.00     0.163 HD
BRANCH   5   7
ATOM      7  C   UNL A   1      34.556  31.847  27.826  1.00  0.00     0.039 A 
ATOM      8  C   UNL A   1      35.655  32.667  28.084  1.00  0.00     0.014 A 
ATOM      9  C   UNL A   1      34.670  30.465  28.043  1.00  0.00     0.014 A 
ATOM     10  C   UNL A   1      36.875  32.120  28.467  1.00  0.00     0.010 A 
ATOM     11  C   UNL A   1      35.863  29.925  28.541  1.00  0.00     0.010 A 
ATOM     12  C   UNL A   1      36.968  30.755  28.777  1.00  0.00    -0.014 A 
BRANCH  12  13
ATOM     13  C   UNL A   1      38.149  30.281  29.546  1.00  0.00     0.031 A 
ATOM     14  C   UNL A   1      39.124  29.297  28.977  1.00  0.00     0.074 A 
ATOM     15  C   UNL A   1      38.311  30.763  30.797  1.00  0.00     0.049 A 
ATOM     16  N   UNL A   1      40.174  28.763  29.549  1.00  0.00    -0.248 NA
ATOM     17  C   UNL A   1      38.893  28.841  27.599  1.00  0.00     0.031 C 
ATOM     18  C   UNL A   1      37.404  31.708  31.459  1.00  0.00     0.029 A 
ATOM     19  N   UNL A   1      39.288  30.541  31.735  1.00  0.00    -0.354 N 
ATOM     20  C   UNL A   1      40.717  27.894  28.612  1.00  0.00     0.074 A 
ATOM     21  C   UNL A   1      39.875  27.962  27.437  1.00  0.00     0.031 C 
ATOM     22  C   UNL A   1      37.884  32.013  32.670  1.00  0.00     0.029 A 
ATOM     23  C   UNL A   1      39.081  31.221  32.912  1.00  0.00     0.049 A 
ATOM     24  H   UNL A   1      40.061  29.952  31.580  1.00  0.00     0.167 HD
ATOM     25  C   UNL A   1      41.820  27.116  28.736  1.00  0.00     0.037 A 
ATOM     26  C   UNL A   1      39.750  31.178  34.078  1.00  0.00     0.037 A 
ATOM     27  C   UNL A   1      42.662  27.082  29.907  1.00  0.00     0.049 A 
ATOM     28  C   UNL A   1      40.946  30.277  34.185  1.00  0.00     0.074 A 
ATOM     29  C   UNL A   1      43.841  26.382  30.098  1.00  0.00     0.029 A 
ATOM     30  N   UNL A   1      42.408  27.764  31.087  1.00  0.00    -0.354 N 
ATOM     31  N   UNL A   1      41.488  29.512  33.269  1.00  0.00    -0.248 NA
ATOM     32  C   UNL A   1      41.618  30.221  35.490  1.00  0.00     0.031 C 
ATOM     33  C   UNL A   1      44.263  26.585  31.415  1.00  0.00     0.029 A 
ATOM     34  C   UNL A   1      43.382  27.462  32.027  1.00  0.00     0.049 A 
ATOM     35  H   UNL A   1      41.648  28.373  31.237  1.00  0.00     0.167 HD
ATOM     36  C   UNL A   1      42.566  28.894  33.881  1.00  0.00     0.074 A 
ATOM     37  C   UNL A   1      42.626  29.401  35.236  1.00  0.00     0.031 C 
ATOM     38  C   UNL A   1      43.423  27.975  33.372  1.00  0.00     0.037 A 
BRANCH  25  39
ATOM     39  C   UNL A   1      42.187  26.210  27.596  1.00  0.00     0.064 A 
ATOM     40  C   UNL A   1      43.179  26.553  26.665  1.00  0.00     0.173 A 
ATOM     41  C   UNL A   1      41.615  24.931  27.504  1.00  0.00     0.173 A 
ATOM     42  F   UNL A   1      43.758  27.762  26.710  1.00  0.00    -0.203 F 
ATOM     43  C   UNL A   1      43.579  25.650  25.682  1.00  0.00     0.198 A 
ATOM     44  C   UNL A   1      42.036  24.023  26.536  1.00  0.00     0.198 A 
ATOM     45  F   UNL A   1      40.670  24.548  28.376  1.00  0.00    -0.203 F 
ATOM     46  F   UNL A   1      44.518  26.004  24.792  1.00  0.00    -0.200 F 
ATOM     47  C   UNL A   1      43.017  24.383  25.625  1.00  0.00     0.200 A 
ATOM     48  F   UNL A   1      41.506  22.793  26.497  1.00  0.00    -0.200 F 
ATOM     49  F   UNL A   1      43.424  23.508  24.696  1.00  0.00    -0.200 F 
ENDBRANCH  25  39
BRANCH  26  50
ATOM     50  C   UNL A   1      39.271  31.962  35.249  1.00  0.00     0.064 A 
ATOM     51  C   UNL A   1      39.611  33.312  35.410  1.00  0.00     0.173 A 
ATOM     52  C   UNL A   1      38.488  31.365  36.251  1.00  0.00     0.173 A 
ATOM     53  F   UNL A   1      40.372  33.925  34.490  1.00  0.00    -0.203 F 
ATOM     54  C   UNL A   1      39.217  34.024  36.541  1.00  0.00     0.198 A 
ATOM     55  C   UNL A   1      38.059  32.089  37.360  1.00  0.00     0.198 A 
ATOM     56  F   UNL A   1      38.127  30.078  36.146  1.00  0.00    -0.203 F 
ATOM     57  F   UNL A   1      39.613  35.293  36.701  1.00  0.00    -0.200 F 
ATOM     58  C   UNL A   1      38.437  33.413  37.512  1.00  0.00     0.200 A 
ATOM     59  F   UNL A   1      37.288  31.501  38.284  1.00  0.00    -0.200 F 
ATOM     60  F   UNL A   1      38.061  34.099  38.601  1.00  0.00    -0.200 F 
ENDBRANCH  26  50
BRANCH  38  61
ATOM     61  C   UNL A   1      44.503  27.474  34.285  1.00  0.00     0.064 A 
ATOM     62  C   UNL A   1      44.331  26.311  35.051  1.00  0.00     0.173 A 
ATOM     63  C   UNL A   1      45.732  28.145  34.373  1.00  0.00     0.173 A 
ATOM     64  F   UNL A   1      43.167  25.646  35.019  1.00  0.00    -0.203 F 
ATOM     65  C   UNL A   1      45.342  25.854  35.892  1.00  0.00     0.198 A 
ATOM     66  C   UNL A   1      46.752  27.666  35.187  1.00  0.00     0.198 A 
ATOM     67  F   UNL A   1      45.946  29.260  33.658  1.00  0.00    -0.203 F 
ATOM     68  F   UNL A   1      45.137  24.774  36.656  1.00  0.00    -0.200 F 
ATOM     69  C   UNL A   1      46.554  26.526  35.952  1.00  0.00     0.200 A 
ATOM     70  F   UNL A   1      47.927  28.308  35.234  1.00  0.00    -0.200 F 
ATOM     71  F   UNL A   1      47.529  26.079  36.756  1.00  0.00    -0.200 F 
ENDBRANCH  38  61
ENDBRANCH  12  13
ENDBRANCH   5   7
ENDBRANCH   2   3
ENDBRANCH   1   2
BRANCH   1  72
ATOM     72  C   UNL A   1      32.871  28.910  24.678  1.00  0.00     0.023 C 
BRANCH  72  73
ATOM     73  C   UNL A   1      32.614  27.414  24.405  1.00  0.00     0.116 C 
BRANCH  73  74
ATOM     74  N   UNL A   1      33.165  26.735  23.220  1.00  0.00    -0.354 N 
ATOM     75  C   UNL A   1      33.612  25.443  22.972  1.00  0.00     0.245 C 
ATOM     76  H   UNL A   1      33.233  27.323  22.434  1.00  0.00     0.163 HD
ATOM     77  O   UNL A   1      33.653  25.073  21.794  1.00  0.00    -0.272 OA
BRANCH  75  78
ATOM     78  C   UNL A   1      33.929  24.470  24.121  1.00  0.00     0.119 C 
ATOM     79  C   UNL A   1      34.769  23.420  23.305  1.00  0.00     0.038 C 
ATOM     80  C   UNL A   1      34.799  24.923  25.320  1.00  0.00     0.038 C 
ATOM     81  C   UNL A   1      35.597  22.366  24.023  1.00  0.00     0.003 C 
ATOM     82  C   UNL A   1      35.341  23.701  26.104  1.00  0.00     0.003 C 
ATOM     83  C   UNL A   1      36.312  22.905  25.247  1.00  0.00     0.000 C 
BRANCH  78  84
ATOM     84  N   UNL A   1      32.630  24.084  24.698  1.00  0.00    -0.338 N 
ATOM     85  C   UNL A   1      31.983  22.867  24.766  1.00  0.00     0.253 C 
ATOM     86  H   UNL A   1      32.135  24.828  25.112  1.00  0.00     0.164 HD
ATOM     87  O   UNL A   1      30.747  22.968  24.798  1.00  0.00    -0.269 OA
BRANCH  85  88
ATOM     88  C   UNL A   1      32.570  21.437  24.940  1.00  0.00     0.057 A 
ATOM     89  C   UNL A   1      33.070  20.826  26.035  1.00  0.00     0.099 A 
ATOM     90  C   UNL A   1      32.399  20.528  23.780  1.00  0.00     0.041 A 
ATOM     91  N   UNL A   1      33.277  19.467  26.126  1.00  0.00    -0.327 N 
ATOM     92  C   UNL A   1      32.594  19.200  23.841  1.00  0.00     0.106 A 
ATOM     93  C   UNL A   1      33.026  18.567  25.120  1.00  0.00     0.266 A 
ATOM     94  H   UNL A   1      33.629  19.115  26.975  1.00  0.00     0.169 HD
ATOM     95  Cl  UNL A   1      32.354  18.175  22.483  1.00  0.00    -0.078 Cl
ATOM     96  O   UNL A   1      33.147  17.367  25.294  1.00  0.00    -0.268 OA
ENDBRANCH  85  88
ENDBRANCH  78  84
ENDBRANCH  75  78
ENDBRANCH  73  74
ENDBRANCH  72  73
ENDBRANCH   1  72
TORSDOF 13
ENDMDL
MODEL 3
REMARK VINA RESULT:     -13.2      1.770      2.982
REMARK SMILES O=C(NCCCCNC(=O)C1(NC(=O)c2c[nH]c(=O)c(Cl)c2)CCCCC1)c1ccc(-c2c3nc(c(-c4c(F)c(F)c(F)c(F)c4F)c4ccc([nH]4)c(-c4c(F)c(F)c(F)c(F)c4F)c4nc(c(-c5c(F)c(F)c(F)c(F)c5F)c5ccc2[nH]5)C=C4)C=C3)cc1
REMARK SMILES IDX 5 1 4 2 3 3 1 4 2 5 28 7 29 8 90 9 30 10 89 11 31 12 32 13
REMARK SMILES IDX 33 14 83 15 34 16 88 17 82 18 84 19 35 20 87 21 81 22 80 23
REMARK SMILES IDX 36 25 68 26 48 27 67 28 49 29 52 30 66 31 85 32 50 33 51 34
REMARK SMILES IDX 65 36 86 37 53 38 37 39 38 40 46 41 39 42 40 43 44 44 47 45
REMARK SMILES IDX 41 46 42 47 45 48 43 49 69 50 70 51 78 52 71 53 72 54 76 55
REMARK SMILES IDX 79 56 73 57 74 58 77 59 75 60 54 61 55 62 63 63 56 64 57 65
REMARK SMILES IDX 61 66 64 67 58 68 59 69 62 70 60 71 6 72 7 73 8 74 9 75
REMARK SMILES IDX 10 77 11 78 23 79 27 80 24 81 26 82 25 83 12 84 13 85 14 87
REMARK SMILES IDX 15 88 16 89 22 90 17 91 20 92 18 93 21 95 19 96
REMARK H PARENT 3 6 84 24 52 35 8 76 12 86 17 94
REMARK Flexibility Score: inf
ROOT
ATOM      1  C   UNL A   1      31.577  32.007  26.501  1.00  0.00     0.023 C 
ENDROOT
BRANCH   1   2
ATOM      2  C   UNL A   1      32.641  32.621  27.388  1.00  0.00     0.116 C 
BRANCH   2   3
ATOM      3  N   UNL A   1      32.406  34.035  27.622  1.00  0.00    -0.352 N 
ATOM      4  O   UNL A   1      32.445  35.976  28.751  1.00  0.00    -0.269 OA
ATOM      5  C   UNL A   1      32.950  34.871  28.568  1.00  0.00     0.251 C 
ATOM      6  H   UNL A   1      31.758  34.458  27.012  1.00  0.00     0.163 HD
BRANCH   5   7
ATOM      7  C   UNL A   1      34.149  34.476  29.356  1.00  0.00     0.039 A 
ATOM      8  C   UNL A   1      34.030  33.851  30.598  1.00  0.00     0.014 A 
ATOM      9  C   UNL A   1      35.422  34.627  28.787  1.00  0.00     0.014 A 
ATOM     10  C   UNL A   1      35.160  33.461  31.306  1.00  0.00     0.010 A 
ATOM     11  C   UNL A   1      36.553  34.128  29.446  1.00  0.00     0.010 A 
ATOM     12  C   UNL A   1      36.425  33.521  30.703  1.00  0.00    -0.014 A 
BRANCH  12  13
ATOM     13  C   UNL A   1      37.539  32.748  31.312  1.00  0.00     0.031 A 
ATOM     14  C   UNL A   1      38.188  31.597  30.606  1.00  0.00     0.074 A 
ATOM     15  C   UNL A   1      37.947  33.113  32.547  1.00  0.00     0.049 A 
ATOM     16  N   UNL A   1      39.141  30.807  31.035  1.00  0.00    -0.248 NA
ATOM     17  C   UNL A   1      37.707  31.281  29.254  1.00  0.00     0.031 C 
ATOM     18  C   UNL A   1      37.364  34.204  33.337  1.00  0.00     0.029 A 
ATOM     19  N   UNL A   1      38.941  32.623  33.356  1.00  0.00    -0.354 N 
ATOM     20  C   UNL A   1      39.359  29.888  30.018  1.00  0.00     0.074 A 
ATOM     21  C   UNL A   1      38.432  30.210  28.954  1.00  0.00     0.031 C 
ATOM     22  C   UNL A   1      38.033  34.326  34.490  1.00  0.00     0.029 A 
ATOM     23  C   UNL A   1      39.029  33.269  34.567  1.00  0.00     0.049 A 
ATOM     24  H   UNL A   1      39.533  31.881  33.095  1.00  0.00     0.167 HD
ATOM     25  C   UNL A   1      40.255  28.872  29.989  1.00  0.00     0.037 A 
ATOM     26  C   UNL A   1      39.794  33.012  35.644  1.00  0.00     0.037 A 
ATOM     27  C   UNL A   1      41.189  28.584  31.050  1.00  0.00     0.049 A 
ATOM     28  C   UNL A   1      40.750  31.856  35.584  1.00  0.00     0.074 A 
ATOM     29  C   UNL A   1      42.185  27.623  31.081  1.00  0.00     0.029 A 
ATOM     30  N   UNL A   1      41.233  29.242  32.270  1.00  0.00    -0.354 N 
ATOM     31  N   UNL A   1      40.994  31.037  34.591  1.00  0.00    -0.248 NA
ATOM     32  C   UNL A   1      41.530  31.578  36.797  1.00  0.00     0.031 C 
ATOM     33  C   UNL A   1      42.785  27.653  32.343  1.00  0.00     0.029 A 
ATOM     34  C   UNL A   1      42.207  28.676  33.078  1.00  0.00     0.049 A 
ATOM     35  H   UNL A   1      40.659  30.001  32.525  1.00  0.00     0.167 HD
ATOM     36  C   UNL A   1      41.958  30.156  35.053  1.00  0.00     0.074 A 
ATOM     37  C   UNL A   1      42.284  30.563  36.404  1.00  0.00     0.031 C 
ATOM     38  C   UNL A   1      42.514  29.093  34.422  1.00  0.00     0.037 A 
BRANCH  25  39
ATOM     39  C   UNL A   1      40.273  27.968  28.790  1.00  0.00     0.064 A 
ATOM     40  C   UNL A   1      41.020  28.271  27.643  1.00  0.00     0.173 A 
ATOM     41  C   UNL A   1      39.621  26.725  28.840  1.00  0.00     0.173 A 
ATOM     42  F   UNL A   1      41.662  29.445  27.545  1.00  0.00    -0.203 F 
ATOM     43  C   UNL A   1      41.108  27.365  26.587  1.00  0.00     0.198 A 
ATOM     44  C   UNL A   1      39.733  25.812  27.794  1.00  0.00     0.198 A 
ATOM     45  F   UNL A   1      38.903  26.380  29.919  1.00  0.00    -0.203 F 
ATOM     46  F   UNL A   1      41.815  27.682  25.492  1.00  0.00    -0.200 F 
ATOM     47  C   UNL A   1      40.475  26.133  26.668  1.00  0.00     0.200 A 
ATOM     48  F   UNL A   1      39.138  24.615  27.885  1.00  0.00    -0.200 F 
ATOM     49  F   UNL A   1      40.585  25.254  25.664  1.00  0.00    -0.200 F 
ENDBRANCH  25  39
BRANCH  26  50
ATOM     50  C   UNL A   1      39.644  33.821  36.883  1.00  0.00     0.064 A 
ATOM     51  C   UNL A   1      38.801  33.409  37.925  1.00  0.00     0.173 A 
ATOM     52  C   UNL A   1      40.317  35.044  37.038  1.00  0.00     0.173 A 
ATOM     53  F   UNL A   1      38.121  32.257  37.820  1.00  0.00    -0.203 F 
ATOM     54  C   UNL A   1      38.612  34.203  39.054  1.00  0.00     0.198 A 
ATOM     55  C   UNL A   1      40.159  35.816  38.185  1.00  0.00     0.198 A 
ATOM     56  F   UNL A   1      41.141  35.485  36.076  1.00  0.00    -0.203 F 
ATOM     57  F   UNL A   1      37.748  33.816  40.003  1.00  0.00    -0.200 F 
ATOM     58  C   UNL A   1      39.294  35.403  39.186  1.00  0.00     0.200 A 
ATOM     59  F   UNL A   1      40.838  36.963  38.317  1.00  0.00    -0.200 F 
ATOM     60  F   UNL A   1      39.109  36.166  40.271  1.00  0.00    -0.200 F 
ENDBRANCH  26  50
BRANCH  38  61
ATOM     61  C   UNL A   1      43.541  28.310  35.186  1.00  0.00     0.064 A 
ATOM     62  C   UNL A   1      44.900  28.656  35.149  1.00  0.00     0.173 A 
ATOM     63  C   UNL A   1      43.160  27.222  35.985  1.00  0.00     0.173 A 
ATOM     64  F   UNL A   1      45.318  29.675  34.383  1.00  0.00    -0.203 F 
ATOM     65  C   UNL A   1      45.843  27.925  35.865  1.00  0.00     0.198 A 
ATOM     66  C   UNL A   1      44.100  26.515  36.727  1.00  0.00     0.198 A 
ATOM     67  F   UNL A   1      41.872  26.853  36.056  1.00  0.00    -0.203 F 
ATOM     68  F   UNL A   1      47.142  28.238  35.772  1.00  0.00    -0.200 F 
ATOM     69  C   UNL A   1      45.442  26.861  36.659  1.00  0.00     0.200 A 
ATOM     70  F   UNL A   1      43.710  25.496  37.505  1.00  0.00    -0.200 F 
ATOM     71  F   UNL A   1      46.350  26.163  37.355  1.00  0.00    -0.200 F 
ENDBRANCH  38  61
ENDBRANCH  12  13
ENDBRANCH   5   7
ENDBRANCH   2   3
ENDBRANCH   1   2
BRANCH   1  72
ATOM     72  C   UNL A   1      31.619  30.492  26.356  1.00  0.00     0.023 C 
BRANCH  72  73
ATOM     73  C   UNL A   1      32.986  29.787  26.231  1.00  0.00     0.116 C 
BRANCH  73  74
ATOM     74  N   UNL A   1      33.636  29.579  24.926  1.00  0.00    -0.354 N 
ATOM     75  C   UNL A   1      33.374  28.752  23.842  1.00  0.00     0.245 C 
ATOM     76  H   UNL A   1      34.427  30.149  24.793  1.00  0.00     0.163 HD
ATOM     77  O   UNL A   1      33.857  29.074  22.751  1.00  0.00    -0.272 OA
BRANCH  75  78
ATOM     78  C   UNL A   1      32.424  27.547  23.963  1.00  0.00     0.119 C 
ATOM     79  C   UNL A   1      33.092  26.853  25.205  1.00  0.00     0.038 C 
ATOM     80  C   UNL A   1      30.927  27.756  24.304  1.00  0.00     0.038 C 
ATOM     81  C   UNL A   1      32.370  25.743  25.953  1.00  0.00     0.003 C 
ATOM     82  C   UNL A   1      30.282  26.437  24.798  1.00  0.00     0.003 C 
ATOM     83  C   UNL A   1      30.888  26.011  26.124  1.00  0.00     0.000 C 
BRANCH  78  84
ATOM     84  N   UNL A   1      32.441  26.880  22.650  1.00  0.00    -0.338 N 
ATOM     85  C   UNL A   1      32.915  25.646  22.255  1.00  0.00     0.253 C 
ATOM     86  H   UNL A   1      32.041  27.411  21.923  1.00  0.00     0.164 HD
ATOM     87  O   UNL A   1      33.278  25.615  21.069  1.00  0.00    -0.269 OA
BRANCH  85  88
ATOM     88  C   UNL A   1      32.931  24.295  23.024  1.00  0.00     0.057 A 
ATOM     89  C   UNL A   1      31.940  23.407  23.251  1.00  0.00     0.099 A 
ATOM     90  C   UNL A   1      34.272  23.801  23.425  1.00  0.00     0.041 A 
ATOM     91  N   UNL A   1      32.152  22.116  23.682  1.00  0.00    -0.327 N 
ATOM     92  C   UNL A   1      34.507  22.548  23.849  1.00  0.00     0.106 A 
ATOM     93  C   UNL A   1      33.383  21.574  23.958  1.00  0.00     0.266 A 
ATOM     94  H   UNL A   1      31.363  21.539  23.801  1.00  0.00     0.169 HD
ATOM     95  Cl  UNL A   1      36.080  22.004  24.274  1.00  0.00    -0.078 Cl
ATOM     96  O   UNL A   1      33.509  20.398  24.251  1.00  0.00    -0.268 OA
ENDBRANCH  85  88
ENDBRANCH  78  84
ENDBRANCH  75  78
ENDBRANCH  73  74
ENDBRANCH  72  73
ENDBRANCH   1  72
TORSDOF 13
ENDMDL
