MODEL 1
REMARK VINA RESULT:     -12.6      0.000      0.000
REMARK SMILES Cn1cc([C@@H]2CC(NCCCCNC(=O)c3ccc(-c4c5nc(c(-c6c(F)c(F)c(F)c(F)c6F)c6ccc([nH]6)c(-c6c(F)c(F)c(F)c(F)c6F)c6nc(c(-c7c(F)c(F)c(F)c(F)c7F)c7ccc4[nH]7)C=C6)C=C5)cc3)=[NH+]c3c2sc(C(=O)[O-])c3-c2ccc(Cl)cc2)cn1
REMARK SMILES IDX 11 1 10 2 9 3 8 4 5 5 6 6 81 7 7 8 80 9 82 10 79 11 87 12
REMARK SMILES IDX 83 13 4 16 1 17 2 18 3 19 96 20 95 21 88 22 89 23 94 24
REMARK SMILES IDX 90 25 93 26 91 27 92 28 84 29 85 30 86 31 12 32 13 33 14 34
REMARK SMILES IDX 15 36 16 37 17 38 78 39 18 40 77 41 19 42 20 43 21 44 71 45
REMARK SMILES IDX 22 46 76 47 70 48 72 49 23 50 75 51 69 52 68 53 24 55 56 56
REMARK SMILES IDX 36 57 55 58 37 59 40 60 54 61 73 62 38 63 39 64 53 66 74 67
REMARK SMILES IDX 41 68 25 69 26 70 34 71 27 72 28 73 32 74 35 75 29 76 30 77
REMARK SMILES IDX 33 78 31 79 57 80 58 81 66 82 59 83 60 84 64 85 67 86 61 87
REMARK SMILES IDX 62 88 65 89 63 90 42 91 43 92 51 93 44 94 45 95 49 96 52 97
REMARK SMILES IDX 46 98 47 99 50 100 48 101
REMARK H PARENT 8 14 79 15 13 35 72 54 40 65
REMARK Flexibility Score: inf
ROOT
ATOM      1  C   UNL A   1      35.521  31.435  27.686  1.00  0.00     0.025 C 
ENDROOT
BRANCH   1   2
ATOM      2  C   UNL A   1      36.297  30.123  27.507  1.00  0.00     0.048 C 
BRANCH   2   3
ATOM      3  C   UNL A   1      35.538  28.969  26.845  1.00  0.00     0.233 C 
BRANCH   3   4
ATOM      4  N   UNL A   1      34.181  29.354  26.491  1.00  0.00    -0.278 N 
ATOM      5  C   UNL A   1      30.831  28.171  25.001  1.00  0.00     0.079 C 
ATOM      6  C   UNL A   1      31.857  29.076  25.701  1.00  0.00     0.142 C 
ATOM      7  C   UNL A   1      31.378  26.798  24.818  1.00  0.00     0.061 A 
ATOM      8  C   UNL A   1      33.257  28.490  25.931  1.00  0.00     0.248 C 
ATOM      9  C   UNL A   1      32.647  26.413  25.131  1.00  0.00     0.147 A 
ATOM     10  S   UNL A   1      30.476  25.503  24.189  1.00  0.00    -0.133 S 
ATOM     11  N   UNL A   1      33.607  27.264  25.672  1.00  0.00    -0.243 N 
ATOM     12  C   UNL A   1      32.924  25.038  24.849  1.00  0.00     0.049 A 
ATOM     13  C   UNL A   1      31.813  24.409  24.293  1.00  0.00     0.062 A 
ATOM     14  H   UNL A   1      33.904  30.283  26.660  1.00  0.00     0.304 HD
ATOM     15  H   UNL A   1      34.522  26.948  25.852  1.00  0.00     0.312 HD
BRANCH   5  16
ATOM     16  C   UNL A   1      30.345  28.751  23.701  1.00  0.00    -0.001 A 
ATOM     17  C   UNL A   1      28.142  30.417  21.384  1.00  0.00     0.173 C 
ATOM     18  N   UNL A   1      29.176  29.730  22.118  1.00  0.00    -0.276 N 
ATOM     19  C   UNL A   1      29.079  29.196  23.369  1.00  0.00     0.112 A 
ATOM     20  N   UNL A   1      30.399  29.602  21.576  1.00  0.00    -0.182 NA
ATOM     21  C   UNL A   1      31.115  29.033  22.547  1.00  0.00     0.139 A 
ENDBRANCH   5  16
BRANCH  12  22
ATOM     22  C   UNL A   1      34.188  24.368  25.142  1.00  0.00    -0.012 A 
ATOM     23  C   UNL A   1      35.254  24.390  24.233  1.00  0.00     0.010 A 
ATOM     24  C   UNL A   1      34.346  23.712  26.372  1.00  0.00     0.010 A 
ATOM     25  C   UNL A   1      36.442  23.715  24.529  1.00  0.00     0.021 A 
ATOM     26  C   UNL A   1      35.537  23.050  26.673  1.00  0.00     0.021 A 
ATOM     27  C   UNL A   1      36.575  23.043  25.744  1.00  0.00     0.041 A 
ATOM     28  Cl  UNL A   1      38.030  22.196  26.098  1.00  0.00    -0.084 Cl
ENDBRANCH  12  22
BRANCH  13  29
ATOM     29  C   UNL A   1      31.564  23.056  23.821  1.00  0.00     0.082 C 
ATOM     30  O   UNL A   1      31.445  22.666  22.677  1.00  0.00    -0.544 OA
ATOM     31  O   UNL A   1      31.456  22.159  24.827  1.00  0.00    -0.544 OA
ENDBRANCH  13  29
ENDBRANCH   3   4
ENDBRANCH   2   3
ENDBRANCH   1   2
BRANCH   1  32
ATOM     32  C   UNL A   1      36.248  32.507  28.488  1.00  0.00     0.116 C 
BRANCH  32  33
ATOM     33  N   UNL A   1      35.622  32.801  29.776  1.00  0.00    -0.352 N 
ATOM     34  C   UNL A   1      35.736  32.080  30.952  1.00  0.00     0.251 C 
ATOM     35  H   UNL A   1      35.054  33.605  29.811  1.00  0.00     0.163 HD
ATOM     36  O   UNL A   1      34.892  32.161  31.835  1.00  0.00    -0.269 OA
BRANCH  34  37
ATOM     37  C   UNL A   1      36.906  31.201  31.123  1.00  0.00     0.039 A 
ATOM     38  C   UNL A   1      36.804  29.813  31.005  1.00  0.00     0.014 A 
ATOM     39  C   UNL A   1      38.135  31.809  31.354  1.00  0.00     0.014 A 
ATOM     40  C   UNL A   1      37.971  29.051  31.026  1.00  0.00     0.010 A 
ATOM     41  C   UNL A   1      39.288  31.080  31.212  1.00  0.00     0.010 A 
ATOM     42  C   UNL A   1      39.218  29.696  31.101  1.00  0.00    -0.014 A 
BRANCH  42  43
ATOM     43  C   UNL A   1      40.460  28.945  30.923  1.00  0.00     0.031 A 
ATOM     44  C   UNL A   1      41.217  28.706  32.184  1.00  0.00     0.074 A 
ATOM     45  C   UNL A   1      40.788  28.324  29.767  1.00  0.00     0.049 A 
ATOM     46  N   UNL A   1      42.389  29.146  32.497  1.00  0.00    -0.248 NA
ATOM     47  C   UNL A   1      40.539  27.995  33.283  1.00  0.00     0.031 C 
ATOM     48  C   UNL A   1      39.978  28.216  28.545  1.00  0.00     0.029 A 
ATOM     49  N   UNL A   1      41.874  27.553  29.470  1.00  0.00    -0.354 N 
ATOM     50  C   UNL A   1      42.685  28.601  33.746  1.00  0.00     0.074 A 
ATOM     51  C   UNL A   1      41.454  28.056  34.253  1.00  0.00     0.031 C 
ATOM     52  C   UNL A   1      40.475  27.245  27.751  1.00  0.00     0.029 A 
ATOM     53  C   UNL A   1      41.737  26.799  28.310  1.00  0.00     0.049 A 
ATOM     54  H   UNL A   1      42.684  27.532  30.030  1.00  0.00     0.167 HD
ATOM     55  C   UNL A   1      43.978  28.399  34.123  1.00  0.00     0.037 A 
ATOM     56  C   UNL A   1      42.596  25.868  27.829  1.00  0.00     0.037 A 
ATOM     57  C   UNL A   1      44.875  29.144  33.277  1.00  0.00     0.049 A 
ATOM     58  C   UNL A   1      43.911  26.125  28.451  1.00  0.00     0.074 A 
ATOM     59  C   UNL A   1      45.150  30.474  33.046  1.00  0.00     0.029 A 
ATOM     60  N   UNL A   1      45.375  28.442  32.213  1.00  0.00    -0.354 N 
ATOM     61  N   UNL A   1      44.632  27.182  28.208  1.00  0.00    -0.248 NA
ATOM     62  C   UNL A   1      44.280  25.376  29.643  1.00  0.00     0.031 C 
ATOM     63  C   UNL A   1      45.526  30.554  31.670  1.00  0.00     0.029 A 
ATOM     64  C   UNL A   1      45.521  29.266  31.132  1.00  0.00     0.049 A 
ATOM     65  H   UNL A   1      45.597  27.483  32.224  1.00  0.00     0.167 HD
ATOM     66  C   UNL A   1      45.229  27.477  29.419  1.00  0.00     0.074 A 
ATOM     67  C   UNL A   1      45.124  26.249  30.200  1.00  0.00     0.031 C 
ATOM     68  C   UNL A   1      45.466  28.774  29.772  1.00  0.00     0.037 A 
BRANCH  55  69
ATOM     69  C   UNL A   1      44.466  27.186  34.893  1.00  0.00     0.064 A 
ATOM     70  C   UNL A   1      44.195  25.898  34.380  1.00  0.00     0.173 A 
ATOM     71  C   UNL A   1      44.873  27.221  36.245  1.00  0.00     0.173 A 
ATOM     72  F   UNL A   1      43.775  25.740  33.116  1.00  0.00    -0.203 F 
ATOM     73  C   UNL A   1      44.249  24.752  35.183  1.00  0.00     0.198 A 
ATOM     74  C   UNL A   1      44.975  26.070  37.027  1.00  0.00     0.198 A 
ATOM     75  F   UNL A   1      45.070  28.369  36.903  1.00  0.00    -0.203 F 
ATOM     76  F   UNL A   1      43.854  23.572  34.687  1.00  0.00    -0.200 F 
ATOM     77  C   UNL A   1      44.633  24.841  36.507  1.00  0.00     0.200 A 
ATOM     78  F   UNL A   1      45.323  26.183  38.317  1.00  0.00    -0.200 F 
ATOM     79  F   UNL A   1      44.623  23.759  37.295  1.00  0.00    -0.200 F 
ENDBRANCH  55  69
BRANCH  56  80
ATOM     80  C   UNL A   1      42.312  24.646  27.046  1.00  0.00     0.064 A 
ATOM     81  C   UNL A   1      43.013  24.355  25.864  1.00  0.00     0.173 A 
ATOM     82  C   UNL A   1      41.551  23.598  27.599  1.00  0.00     0.173 A 
ATOM     83  F   UNL A   1      43.792  25.286  25.297  1.00  0.00    -0.203 F 
ATOM     84  C   UNL A   1      42.980  23.081  25.289  1.00  0.00     0.198 A 
ATOM     85  C   UNL A   1      41.517  22.328  27.023  1.00  0.00     0.198 A 
ATOM     86  F   UNL A   1      40.908  23.763  28.765  1.00  0.00    -0.203 F 
ATOM     87  F   UNL A   1      43.715  22.821  24.197  1.00  0.00    -0.200 F 
ATOM     88  C   UNL A   1      42.243  22.065  25.875  1.00  0.00     0.200 A 
ATOM     89  F   UNL A   1      40.834  21.344  27.623  1.00  0.00    -0.200 F 
ATOM     90  F   UNL A   1      42.268  20.826  25.363  1.00  0.00    -0.200 F 
ENDBRANCH  56  80
BRANCH  68  91
ATOM     91  C   UNL A   1      45.496  29.792  28.668  1.00  0.00     0.064 A 
ATOM     92  C   UNL A   1      44.374  30.491  28.190  1.00  0.00     0.173 A 
ATOM     93  C   UNL A   1      46.744  30.133  28.132  1.00  0.00     0.173 A 
ATOM     94  F   UNL A   1      43.158  30.286  28.710  1.00  0.00    -0.203 F 
ATOM     95  C   UNL A   1      44.497  31.453  27.188  1.00  0.00     0.198 A 
ATOM     96  C   UNL A   1      46.870  31.122  27.162  1.00  0.00     0.198 A 
ATOM     97  F   UNL A   1      47.856  29.530  28.582  1.00  0.00    -0.203 F 
ATOM     98  F   UNL A   1      43.409  32.090  26.731  1.00  0.00    -0.200 F 
ATOM     99  C   UNL A   1      45.746  31.772  26.680  1.00  0.00     0.200 A 
ATOM    100  F   UNL A   1      48.085  31.458  26.708  1.00  0.00    -0.200 F 
ATOM    101  F   UNL A   1      45.869  32.722  25.743  1.00  0.00    -0.200 F 
ENDBRANCH  68  91
ENDBRANCH  42  43
ENDBRANCH  34  37
ENDBRANCH  32  33
ENDBRANCH   1  32
TORSDOF 13
ENDMDL
MODEL 2
REMARK VINA RESULT:     -12.5      0.884      1.559
REMARK SMILES Cn1cc([C@@H]2CC(NCCCCNC(=O)c3ccc(-c4c5nc(c(-c6c(F)c(F)c(F)c(F)c6F)c6ccc([nH]6)c(-c6c(F)c(F)c(F)c(F)c6F)c6nc(c(-c7c(F)c(F)c(F)c(F)c7F)c7ccc4[nH]7)C=C6)C=C5)cc3)=[NH+]c3c2sc(C(=O)[O-])c3-c2ccc(Cl)cc2)cn1
REMARK SMILES IDX 11 1 10 2 9 3 8 4 5 5 6 6 81 7 7 8 80 9 82 10 79 11 87 12
REMARK SMILES IDX 83 13 4 16 1 17 2 18 3 19 96 20 95 21 88 22 89 23 94 24
REMARK SMILES IDX 90 25 93 26 91 27 92 28 84 29 85 30 86 31 12 32 13 33 14 34
REMARK SMILES IDX 15 36 16 37 17 38 78 39 18 40 77 41 19 42 20 43 21 44 71 45
REMARK SMILES IDX 22 46 76 47 70 48 72 49 23 50 75 51 69 52 68 53 24 55 56 56
REMARK SMILES IDX 36 57 55 58 37 59 40 60 54 61 73 62 38 63 39 64 53 66 74 67
REMARK SMILES IDX 41 68 25 69 26 70 34 71 27 72 28 73 32 74 35 75 29 76 30 77
REMARK SMILES IDX 33 78 31 79 57 80 58 81 66 82 59 83 60 84 64 85 67 86 61 87
REMARK SMILES IDX 62 88 65 89 63 90 42 91 43 92 51 93 44 94 45 95 49 96 52 97
REMARK SMILES IDX 46 98 47 99 50 100 48 101
REMARK H PARENT 8 14 79 15 13 35 72 54 40 65
REMARK Flexibility Score: inf
ROOT
ATOM      1  C   UNL A   1      34.845  31.170  27.893  1.00  0.00     0.025 C 
ENDROOT
BRANCH   1   2
ATOM      2  C   UNL A   1      35.675  29.922  27.557  1.00  0.00     0.048 C 
BRANCH   2   3
ATOM      3  C   UNL A   1      34.893  28.622  27.348  1.00  0.00     0.233 C 
BRANCH   3   4
ATOM      4  N   UNL A   1      33.540  28.879  26.880  1.00  0.00    -0.278 N 
ATOM      5  C   UNL A   1      30.601  27.547  24.776  1.00  0.00     0.079 C 
ATOM      6  C   UNL A   1      31.390  28.439  25.748  1.00  0.00     0.142 C 
ATOM      7  C   UNL A   1      31.372  26.316  24.448  1.00  0.00     0.061 A 
ATOM      8  C   UNL A   1      32.830  28.014  26.067  1.00  0.00     0.248 C 
ATOM      9  C   UNL A   1      32.643  26.054  24.862  1.00  0.00     0.147 A 
ATOM     10  S   UNL A   1      30.758  25.047  23.499  1.00  0.00    -0.133 S 
ATOM     11  N   UNL A   1      33.394  26.914  25.660  1.00  0.00    -0.243 N 
ATOM     12  C   UNL A   1      33.161  24.803  24.400  1.00  0.00     0.049 A 
ATOM     13  C   UNL A   1      32.229  24.142  23.603  1.00  0.00     0.062 A 
ATOM     14  H   UNL A   1      33.104  29.716  27.160  1.00  0.00     0.304 HD
ATOM     15  H   UNL A   1      34.321  26.697  25.909  1.00  0.00     0.312 HD
BRANCH   5  16
ATOM     16  C   UNL A   1      30.176  28.283  23.535  1.00  0.00    -0.001 A 
ATOM     17  C   UNL A   1      28.028  30.089  21.272  1.00  0.00     0.173 C 
ATOM     18  N   UNL A   1      29.059  29.392  22.001  1.00  0.00    -0.276 N 
ATOM     19  C   UNL A   1      28.906  28.654  23.138  1.00  0.00     0.112 A 
ATOM     20  N   UNL A   1      30.334  29.470  21.584  1.00  0.00    -0.182 NA
ATOM     21  C   UNL A   1      31.015  28.821  22.529  1.00  0.00     0.139 A 
ENDBRANCH   5  16
BRANCH  12  22
ATOM     22  C   UNL A   1      34.474  24.267  24.748  1.00  0.00    -0.012 A 
ATOM     23  C   UNL A   1      35.469  24.086  23.779  1.00  0.00     0.010 A 
ATOM     24  C   UNL A   1      34.752  23.955  26.087  1.00  0.00     0.010 A 
ATOM     25  C   UNL A   1      36.706  23.544  24.138  1.00  0.00     0.021 A 
ATOM     26  C   UNL A   1      35.992  23.427  26.447  1.00  0.00     0.021 A 
ATOM     27  C   UNL A   1      36.960  23.211  25.469  1.00  0.00     0.041 A 
ATOM     28  Cl  UNL A   1      38.476  22.525  25.905  1.00  0.00    -0.084 Cl
ENDBRANCH  12  22
BRANCH  13  29
ATOM     29  C   UNL A   1      32.248  22.877  22.887  1.00  0.00     0.082 C 
ATOM     30  O   UNL A   1      31.765  21.814  23.220  1.00  0.00    -0.544 OA
ATOM     31  O   UNL A   1      32.905  22.949  21.706  1.00  0.00    -0.544 OA
ENDBRANCH  13  29
ENDBRANCH   3   4
ENDBRANCH   2   3
ENDBRANCH   1   2
BRANCH   1  32
ATOM     32  C   UNL A   1      35.646  32.350  28.425  1.00  0.00     0.116 C 
BRANCH  32  33
ATOM     33  N   UNL A   1      35.501  32.555  29.866  1.00  0.00    -0.352 N 
ATOM     34  C   UNL A   1      36.039  31.787  30.883  1.00  0.00     0.251 C 
ATOM     35  H   UNL A   1      34.958  33.328  30.144  1.00  0.00     0.163 HD
ATOM     36  O   UNL A   1      35.555  31.788  32.008  1.00  0.00    -0.269 OA
BRANCH  34  37
ATOM     37  C   UNL A   1      37.220  30.958  30.585  1.00  0.00     0.039 A 
ATOM     38  C   UNL A   1      38.470  31.527  30.332  1.00  0.00     0.014 A 
ATOM     39  C   UNL A   1      37.058  29.578  30.617  1.00  0.00     0.014 A 
ATOM     40  C   UNL A   1      39.576  30.687  30.207  1.00  0.00     0.010 A 
ATOM     41  C   UNL A   1      38.163  28.766  30.656  1.00  0.00     0.010 A 
ATOM     42  C   UNL A   1      39.420  29.304  30.401  1.00  0.00    -0.014 A 
BRANCH  42  43
ATOM     43  C   UNL A   1      40.586  28.424  30.476  1.00  0.00     0.031 A 
ATOM     44  C   UNL A   1      41.091  28.195  31.859  1.00  0.00     0.074 A 
ATOM     45  C   UNL A   1      41.032  27.699  29.426  1.00  0.00     0.049 A 
ATOM     46  N   UNL A   1      42.235  28.537  32.349  1.00  0.00    -0.248 NA
ATOM     47  C   UNL A   1      40.166  27.628  32.858  1.00  0.00     0.031 C 
ATOM     48  C   UNL A   1      40.431  27.592  28.089  1.00  0.00     0.029 A 
ATOM     49  N   UNL A   1      42.062  26.807  29.359  1.00  0.00    -0.354 N 
ATOM     50  C   UNL A   1      42.257  28.049  33.655  1.00  0.00     0.074 A 
ATOM     51  C   UNL A   1      40.908  27.663  33.967  1.00  0.00     0.031 C 
ATOM     52  C   UNL A   1      40.946  26.525  27.440  1.00  0.00     0.029 A 
ATOM     53  C   UNL A   1      42.040  25.995  28.229  1.00  0.00     0.049 A 
ATOM     54  H   UNL A   1      42.761  26.743  30.050  1.00  0.00     0.167 HD
ATOM     55  C   UNL A   1      43.440  27.746  34.259  1.00  0.00     0.037 A 
ATOM     56  C   UNL A   1      42.861  24.954  27.950  1.00  0.00     0.037 A 
ATOM     57  C   UNL A   1      44.541  28.342  33.546  1.00  0.00     0.049 A 
ATOM     58  C   UNL A   1      44.074  25.121  28.776  1.00  0.00     0.074 A 
ATOM     59  C   UNL A   1      44.993  29.619  33.302  1.00  0.00     0.029 A 
ATOM     60  N   UNL A   1      45.132  27.524  32.619  1.00  0.00    -0.354 N 
ATOM     61  N   UNL A   1      44.936  26.083  28.611  1.00  0.00    -0.248 NA
ATOM     62  C   UNL A   1      44.155  24.419  30.049  1.00  0.00     0.031 C 
ATOM     63  C   UNL A   1      45.600  29.571  32.010  1.00  0.00     0.029 A 
ATOM     64  C   UNL A   1      45.545  28.258  31.541  1.00  0.00     0.049 A 
ATOM     65  H   UNL A   1      45.244  26.552  32.715  1.00  0.00     0.167 HD
ATOM     66  C   UNL A   1      45.351  26.397  29.892  1.00  0.00     0.074 A 
ATOM     67  C   UNL A   1      44.984  25.240  30.701  1.00  0.00     0.031 C 
ATOM     68  C   UNL A   1      45.665  27.684  30.218  1.00  0.00     0.037 A 
BRANCH  55  69
ATOM     69  C   UNL A   1      43.658  26.544  35.159  1.00  0.00     0.064 A 
ATOM     70  C   UNL A   1      44.154  26.751  36.466  1.00  0.00     0.173 A 
ATOM     71  C   UNL A   1      43.729  25.212  34.695  1.00  0.00     0.173 A 
ATOM     72  F   UNL A   1      44.164  27.979  37.006  1.00  0.00    -0.203 F 
ATOM     73  C   UNL A   1      44.746  25.722  37.208  1.00  0.00     0.198 A 
ATOM     74  C   UNL A   1      44.273  24.179  35.458  1.00  0.00     0.198 A 
ATOM     75  F   UNL A   1      43.393  24.872  33.445  1.00  0.00    -0.203 F 
ATOM     76  F   UNL A   1      45.321  25.996  38.386  1.00  0.00    -0.200 F 
ATOM     77  C   UNL A   1      44.810  24.439  36.700  1.00  0.00     0.200 A 
ATOM     78  F   UNL A   1      44.350  22.947  34.935  1.00  0.00    -0.200 F 
ATOM     79  F   UNL A   1      45.433  23.467  37.378  1.00  0.00    -0.200 F 
ENDBRANCH  55  69
BRANCH  56  80
ATOM     80  C   UNL A   1      42.581  23.717  27.190  1.00  0.00     0.064 A 
ATOM     81  C   UNL A   1      43.398  23.315  26.120  1.00  0.00     0.173 A 
ATOM     82  C   UNL A   1      41.677  22.758  27.685  1.00  0.00     0.173 A 
ATOM     83  F   UNL A   1      44.313  24.156  25.618  1.00  0.00    -0.203 F 
ATOM     84  C   UNL A   1      43.337  22.018  25.599  1.00  0.00     0.198 A 
ATOM     85  C   UNL A   1      41.615  21.466  27.162  1.00  0.00     0.198 A 
ATOM     86  F   UNL A   1      40.909  23.029  28.751  1.00  0.00    -0.203 F 
ATOM     87  F   UNL A   1      44.179  21.650  24.622  1.00  0.00    -0.200 F 
ATOM     88  C   UNL A   1      42.455  21.091  26.129  1.00  0.00     0.200 A 
ATOM     89  F   UNL A   1      40.787  20.566  27.712  1.00  0.00    -0.200 F 
ATOM     90  F   UNL A   1      42.444  19.829  25.677  1.00  0.00    -0.200 F 
ENDBRANCH  56  80
BRANCH  68  91
ATOM     91  C   UNL A   1      45.988  28.619  29.088  1.00  0.00     0.064 A 
ATOM     92  C   UNL A   1      45.055  29.441  28.433  1.00  0.00     0.173 A 
ATOM     93  C   UNL A   1      47.333  28.747  28.715  1.00  0.00     0.173 A 
ATOM     94  F   UNL A   1      43.765  29.442  28.788  1.00  0.00    -0.203 F 
ATOM     95  C   UNL A   1      45.449  30.313  27.418  1.00  0.00     0.198 A 
ATOM     96  C   UNL A   1      47.729  29.648  27.732  1.00  0.00     0.198 A 
ATOM     97  F   UNL A   1      48.275  28.021  29.337  1.00  0.00    -0.203 F 
ATOM     98  F   UNL A   1      44.536  31.069  26.791  1.00  0.00    -0.200 F 
ATOM     99  C   UNL A   1      46.786  30.421  27.074  1.00  0.00     0.200 A 
ATOM    100  F   UNL A   1      49.029  29.780  27.436  1.00  0.00    -0.200 F 
ATOM    101  F   UNL A   1      47.169  31.286  26.125  1.00  0.00    -0.200 F 
ENDBRANCH  68  91
ENDBRANCH  42  43
ENDBRANCH  34  37
ENDBRANCH  32  33
ENDBRANCH   1  32
TORSDOF 13
ENDMDL
MODEL 3
REMARK VINA RESULT:     -12.2      4.910      8.678
REMARK SMILES Cn1cc([C@@H]2CC(NCCCCNC(=O)c3ccc(-c4c5nc(c(-c6c(F)c(F)c(F)c(F)c6F)c6ccc([nH]6)c(-c6c(F)c(F)c(F)c(F)c6F)c6nc(c(-c7c(F)c(F)c(F)c(F)c7F)c7ccc4[nH]7)C=C6)C=C5)cc3)=[NH+]c3c2sc(C(=O)[O-])c3-c2ccc(Cl)cc2)cn1
REMARK SMILES IDX 11 1 10 2 9 3 8 4 5 5 6 6 81 7 7 8 80 9 82 10 79 11 87 12
REMARK SMILES IDX 83 13 4 16 1 17 2 18 3 19 96 20 95 21 88 22 89 23 94 24
REMARK SMILES IDX 90 25 93 26 91 27 92 28 84 29 85 30 86 31 12 32 13 33 14 34
REMARK SMILES IDX 15 36 16 37 17 38 78 39 18 40 77 41 19 42 20 43 21 44 71 45
REMARK SMILES IDX 22 46 76 47 70 48 72 49 23 50 75 51 69 52 68 53 24 55 56 56
REMARK SMILES IDX 36 57 55 58 37 59 40 60 54 61 73 62 38 63 39 64 53 66 74 67
REMARK SMILES IDX 41 68 25 69 26 70 34 71 27 72 28 73 32 74 35 75 29 76 30 77
REMARK SMILES IDX 33 78 31 79 57 80 58 81 66 82 59 83 60 84 64 85 67 86 61 87
REMARK SMILES IDX 62 88 65 89 63 90 42 91 43 92 51 93 44 94 45 95 49 96 52 97
REMARK SMILES IDX 46 98 47 99 50 100 48 101
REMARK H PARENT 8 14 79 15 13 35 72 54 40 65
REMARK Flexibility Score: inf
ROOT
ATOM      1  C   UNL A   1      35.614  32.034  32.591  1.00  0.00     0.025 C 
ENDROOT
BRANCH   1   2
ATOM      2  C   UNL A   1      36.862  31.146  32.704  1.00  0.00     0.048 C 
BRANCH   2   3
ATOM      3  C   UNL A   1      38.168  31.854  33.077  1.00  0.00     0.233 C 
BRANCH   3   4
ATOM      4  N   UNL A   1      39.067  31.956  31.938  1.00  0.00    -0.278 N 
ATOM      5  C   UNL A   1      42.271  33.590  30.559  1.00  0.00     0.079 C 
ATOM      6  C   UNL A   1      41.053  32.658  30.648  1.00  0.00     0.142 C 
ATOM      7  C   UNL A   1      42.476  34.314  31.844  1.00  0.00     0.061 A 
ATOM      8  C   UNL A   1      40.200  32.749  31.921  1.00  0.00     0.248 C 
ATOM      9  C   UNL A   1      41.645  34.245  32.922  1.00  0.00     0.147 A 
ATOM     10  S   UNL A   1      43.798  35.337  32.147  1.00  0.00    -0.133 S 
ATOM     11  N   UNL A   1      40.485  33.477  32.962  1.00  0.00    -0.243 N 
ATOM     12  C   UNL A   1      42.064  35.045  34.032  1.00  0.00     0.049 A 
ATOM     13  C   UNL A   1      43.237  35.735  33.735  1.00  0.00     0.062 A 
ATOM     14  H   UNL A   1      38.857  31.429  31.133  1.00  0.00     0.304 HD
ATOM     15  H   UNL A   1      39.898  33.483  33.752  1.00  0.00     0.312 HD
BRANCH   5  16
ATOM     16  C   UNL A   1      42.185  34.540  29.396  1.00  0.00    -0.001 A 
ATOM     17  C   UNL A   1      43.030  36.075  26.245  1.00  0.00     0.173 C 
ATOM     18  N   UNL A   1      42.510  35.629  27.515  1.00  0.00    -0.276 N 
ATOM     19  C   UNL A   1      43.098  34.755  28.381  1.00  0.00     0.112 A 
ATOM     20  N   UNL A   1      41.306  36.060  27.926  1.00  0.00    -0.182 NA
ATOM     21  C   UNL A   1      41.096  35.378  29.053  1.00  0.00     0.139 A 
ENDBRANCH   5  16
BRANCH  12  22
ATOM     22  C   UNL A   1      41.378  35.104  35.320  1.00  0.00    -0.012 A 
ATOM     23  C   UNL A   1      41.741  34.262  36.379  1.00  0.00     0.010 A 
ATOM     24  C   UNL A   1      40.353  36.043  35.507  1.00  0.00     0.010 A 
ATOM     25  C   UNL A   1      41.047  34.322  37.591  1.00  0.00     0.021 A 
ATOM     26  C   UNL A   1      39.670  36.112  36.721  1.00  0.00     0.021 A 
ATOM     27  C   UNL A   1      40.011  35.241  37.754  1.00  0.00     0.041 A 
ATOM     28  Cl  UNL A   1      39.145  35.299  39.239  1.00  0.00    -0.084 Cl
ENDBRANCH  12  22
BRANCH  13  29
ATOM     29  C   UNL A   1      44.060  36.672  34.482  1.00  0.00     0.082 C 
ATOM     30  O   UNL A   1      43.713  37.476  35.324  1.00  0.00    -0.544 OA
ATOM     31  O   UNL A   1      45.370  36.598  34.157  1.00  0.00    -0.544 OA
ENDBRANCH  13  29
ENDBRANCH   3   4
ENDBRANCH   2   3
ENDBRANCH   1   2
BRANCH   1  32
ATOM     32  C   UNL A   1      35.524  32.857  31.314  1.00  0.00     0.116 C 
BRANCH  32  33
ATOM     33  N   UNL A   1      34.564  32.331  30.344  1.00  0.00    -0.352 N 
ATOM     34  C   UNL A   1      34.840  31.656  29.168  1.00  0.00     0.251 C 
ATOM     35  H   UNL A   1      33.612  32.473  30.552  1.00  0.00     0.163 HD
ATOM     36  O   UNL A   1      34.028  31.612  28.252  1.00  0.00    -0.269 OA
BRANCH  34  37
ATOM     37  C   UNL A   1      36.144  30.985  29.036  1.00  0.00     0.039 A 
ATOM     38  C   UNL A   1      37.306  31.694  28.722  1.00  0.00     0.014 A 
ATOM     39  C   UNL A   1      36.190  29.618  29.289  1.00  0.00     0.014 A 
ATOM     40  C   UNL A   1      38.529  31.028  28.762  1.00  0.00     0.010 A 
ATOM     41  C   UNL A   1      37.401  29.006  29.486  1.00  0.00     0.010 A 
ATOM     42  C   UNL A   1      38.574  29.685  29.175  1.00  0.00    -0.014 A 
BRANCH  42  43
ATOM     43  C   UNL A   1      39.853  29.020  29.421  1.00  0.00     0.031 A 
ATOM     44  C   UNL A   1      40.191  28.857  30.863  1.00  0.00     0.074 A 
ATOM     45  C   UNL A   1      40.563  28.404  28.449  1.00  0.00     0.049 A 
ATOM     46  N   UNL A   1      41.178  29.385  31.507  1.00  0.00    -0.248 NA
ATOM     47  C   UNL A   1      39.249  28.120  31.724  1.00  0.00     0.031 C 
ATOM     48  C   UNL A   1      40.184  28.218  27.041  1.00  0.00     0.029 A 
ATOM     49  N   UNL A   1      41.732  27.706  28.534  1.00  0.00    -0.354 N 
ATOM     50  C   UNL A   1      41.102  28.884  32.806  1.00  0.00     0.074 A 
ATOM     51  C   UNL A   1      39.811  28.263  32.927  1.00  0.00     0.031 C 
ATOM     52  C   UNL A   1      40.962  27.270  26.478  1.00  0.00     0.029 A 
ATOM     53  C   UNL A   1      42.012  26.924  27.418  1.00  0.00     0.049 A 
ATOM     54  H   UNL A   1      42.327  27.752  29.317  1.00  0.00     0.167 HD
ATOM     55  C   UNL A   1      42.222  28.780  33.573  1.00  0.00     0.037 A 
ATOM     56  C   UNL A   1      43.032  26.047  27.264  1.00  0.00     0.037 A 
ATOM     57  C   UNL A   1      43.291  29.572  33.019  1.00  0.00     0.049 A 
ATOM     58  C   UNL A   1      44.069  26.407  28.253  1.00  0.00     0.074 A 
ATOM     59  C   UNL A   1      43.543  30.913  32.833  1.00  0.00     0.029 A 
ATOM     60  N   UNL A   1      44.141  28.887  32.191  1.00  0.00    -0.354 N 
ATOM     61  N   UNL A   1      44.764  27.508  28.205  1.00  0.00    -0.248 NA
ATOM     62  C   UNL A   1      44.093  25.707  29.528  1.00  0.00     0.031 C 
ATOM     63  C   UNL A   1      44.324  30.995  31.640  1.00  0.00     0.029 A 
ATOM     64  C   UNL A   1      44.566  29.701  31.177  1.00  0.00     0.049 A 
ATOM     65  H   UNL A   1      44.407  27.947  32.307  1.00  0.00     0.167 HD
ATOM     66  C   UNL A   1      44.933  27.866  29.529  1.00  0.00     0.074 A 
ATOM     67  C   UNL A   1      44.666  26.647  30.285  1.00  0.00     0.031 C 
ATOM     68  C   UNL A   1      44.969  29.182  29.888  1.00  0.00     0.037 A 
BRANCH  55  69
ATOM     69  C   UNL A   1      42.519  27.618  34.503  1.00  0.00     0.064 A 
ATOM     70  C   UNL A   1      43.016  26.414  33.954  1.00  0.00     0.173 A 
ATOM     71  C   UNL A   1      42.028  27.518  35.823  1.00  0.00     0.173 A 
ATOM     72  F   UNL A   1      43.484  26.379  32.698  1.00  0.00    -0.203 F 
ATOM     73  C   UNL A   1      42.946  25.199  34.645  1.00  0.00     0.198 A 
ATOM     74  C   UNL A   1      42.008  26.314  36.528  1.00  0.00     0.198 A 
ATOM     75  F   UNL A   1      41.435  28.544  36.445  1.00  0.00    -0.203 F 
ATOM     76  F   UNL A   1      43.306  24.063  34.033  1.00  0.00    -0.200 F 
ATOM     77  C   UNL A   1      42.437  25.150  35.929  1.00  0.00     0.200 A 
ATOM     78  F   UNL A   1      41.485  26.284  37.761  1.00  0.00    -0.200 F 
ATOM     79  F   UNL A   1      42.308  23.981  36.568  1.00  0.00    -0.200 F 
ENDBRANCH  55  69
BRANCH  56  80
ATOM     80  C   UNL A   1      43.083  24.795  26.480  1.00  0.00     0.064 A 
ATOM     81  C   UNL A   1      43.923  24.665  25.361  1.00  0.00     0.173 A 
ATOM     82  C   UNL A   1      42.524  23.606  26.987  1.00  0.00     0.173 A 
ATOM     83  F   UNL A   1      44.526  25.744  24.844  1.00  0.00    -0.203 F 
ATOM     84  C   UNL A   1      44.212  23.415  24.804  1.00  0.00     0.198 A 
ATOM     85  C   UNL A   1      42.812  22.360  26.429  1.00  0.00     0.198 A 
ATOM     86  F   UNL A   1      41.769  23.625  28.096  1.00  0.00    -0.203 F 
ATOM     87  F   UNL A   1      45.071  23.323  23.778  1.00  0.00    -0.200 F 
ATOM     88  C   UNL A   1      43.667  22.263  25.346  1.00  0.00     0.200 A 
ATOM     89  F   UNL A   1      42.311  21.250  26.988  1.00  0.00    -0.200 F 
ATOM     90  F   UNL A   1      43.999  21.060  24.856  1.00  0.00    -0.200 F 
ENDBRANCH  56  80
BRANCH  68  91
ATOM     91  C   UNL A   1      45.279  30.180  28.809  1.00  0.00     0.064 A 
ATOM     92  C   UNL A   1      44.318  30.827  28.013  1.00  0.00     0.173 A 
ATOM     93  C   UNL A   1      46.617  30.558  28.639  1.00  0.00     0.173 A 
ATOM     94  F   UNL A   1      43.011  30.585  28.172  1.00  0.00    -0.203 F 
ATOM     95  C   UNL A   1      44.691  31.774  27.060  1.00  0.00     0.198 A 
ATOM     96  C   UNL A   1      46.982  31.533  27.717  1.00  0.00     0.198 A 
ATOM     97  F   UNL A   1      47.574  30.006  29.403  1.00  0.00    -0.203 F 
ATOM     98  F   UNL A   1      43.758  32.361  26.296  1.00  0.00    -0.200 F 
ATOM     99  C   UNL A   1      46.021  32.131  26.918  1.00  0.00     0.200 A 
ATOM    100  F   UNL A   1      48.265  31.906  27.617  1.00  0.00    -0.200 F 
ATOM    101  F   UNL A   1      46.376  33.067  26.027  1.00  0.00    -0.200 F 
ENDBRANCH  68  91
ENDBRANCH  42  43
ENDBRANCH  34  37
ENDBRANCH  32  33
ENDBRANCH   1  32
TORSDOF 13
ENDMDL
