MODEL 1
REMARK VINA RESULT:     -12.2      0.000      0.000
REMARK SMILES CC(C)(C)C(=O)C[N@H+]1CCCC[C@H]1C(=O)NCCCCNC(=O)c1ccc(-c2c3nc(c(-c4c(F)c(F)c(F)c(F)c4F)c4ccc([nH]4)c(-c4c(F)c(F)c(F)c(F)c4F)c4nc(c(-c5c(F)c(F)c(F)c(F)c5F)c5ccc2[nH]5)C=C4)C=C3)cc1
REMARK SMILES IDX 18 1 17 2 16 3 14 4 15 5 13 7 8 8 9 9 10 11 12 12 11 13 7 14
REMARK SMILES IDX 5 15 6 16 2 17 1 18 3 19 4 20 19 21 20 22 21 23 22 24 23 26
REMARK SMILES IDX 24 27 25 28 86 29 26 30 85 31 27 32 28 33 29 34 79 35 30 36
REMARK SMILES IDX 84 37 78 38 80 39 31 40 83 41 77 42 76 43 32 45 64 46 44 47
REMARK SMILES IDX 63 48 45 49 48 50 62 51 81 52 46 53 47 54 61 56 82 57 49 58
REMARK SMILES IDX 33 59 34 60 42 61 35 62 36 63 40 64 43 65 37 66 38 67 41 68
REMARK SMILES IDX 39 69 65 70 66 71 74 72 67 73 68 74 72 75 75 76 69 77 70 78
REMARK SMILES IDX 73 79 71 80 50 81 51 82 59 83 52 84 53 85 57 86 60 87 54 88
REMARK SMILES IDX 55 89 58 90 56 91
REMARK H PARENT 16 6 8 10 21 25 80 44 48 55
REMARK Flexibility Score: inf
ROOT
ATOM      1  C   UNL A   1      31.993  30.461  26.918  1.00  0.00     0.023 C 
ENDROOT
BRANCH   1   2
ATOM      2  C   UNL A   1      33.408  29.959  26.636  1.00  0.00     0.116 C 
BRANCH   2   3
ATOM      3  N   UNL A   1      33.640  29.666  25.241  1.00  0.00    -0.351 N 
ATOM      4  C   UNL A   1      32.908  29.152  24.225  1.00  0.00     0.278 C 
ATOM      5  O   UNL A   1      33.479  29.247  23.124  1.00  0.00    -0.268 OA
ATOM      6  H   UNL A   1      34.556  29.897  24.960  1.00  0.00     0.163 HD
BRANCH   4   7
ATOM      7  C   UNL A   1      31.534  28.420  24.282  1.00  0.00     0.274 C 
ATOM      8  N   UNL A   1      30.812  28.096  23.042  1.00  0.00    -0.319 N 
ATOM      9  C   UNL A   1      31.305  26.963  22.269  1.00  0.00     0.263 C 
ATOM     10  H   UNL A   1      29.953  27.664  23.382  1.00  0.00     0.349 HD
ATOM     11  C   UNL A   1      31.430  25.705  23.126  1.00  0.00     0.062 C 
ATOM     12  C   UNL A   1      31.661  27.147  25.149  1.00  0.00     0.076 C 
ATOM     13  C   UNL A   1      32.261  25.979  24.371  1.00  0.00     0.012 C 
BRANCH   8  14
ATOM     14  C   UNL A   1      30.264  29.239  22.322  1.00  0.00     0.340 C 
BRANCH  14  15
ATOM     15  C   UNL A   1      28.894  29.640  22.859  1.00  0.00     0.192 C 
ATOM     16  O   UNL A   1      28.032  28.772  23.037  1.00  0.00    -0.293 OA
BRANCH  15  17
ATOM     17  C   UNL A   1      28.597  31.129  23.134  1.00  0.00     0.026 C 
ATOM     18  C   UNL A   1      29.605  31.649  24.177  1.00  0.00     0.019 C 
ATOM     19  C   UNL A   1      27.181  31.257  23.697  1.00  0.00     0.019 C 
ATOM     20  C   UNL A   1      28.752  31.984  21.867  1.00  0.00     0.019 C 
ENDBRANCH  15  17
ENDBRANCH  14  15
ENDBRANCH   8  14
ENDBRANCH   4   7
ENDBRANCH   2   3
ENDBRANCH   1   2
BRANCH   1  21
ATOM     21  C   UNL A   1      31.799  31.967  26.783  1.00  0.00     0.023 C 
BRANCH  21  22
ATOM     22  C   UNL A   1      32.836  32.827  27.493  1.00  0.00     0.116 C 
BRANCH  22  23
ATOM     23  N   UNL A   1      32.425  34.202  27.744  1.00  0.00    -0.352 N 
ATOM     24  C   UNL A   1      33.012  35.097  28.616  1.00  0.00     0.251 C 
ATOM     25  H   UNL A   1      31.647  34.528  27.237  1.00  0.00     0.163 HD
ATOM     26  O   UNL A   1      32.566  36.219  28.780  1.00  0.00    -0.269 OA
BRANCH  24  27
ATOM     27  C   UNL A   1      34.174  34.620  29.393  1.00  0.00     0.039 A 
ATOM     28  C   UNL A   1      33.951  33.985  30.615  1.00  0.00     0.014 A 
ATOM     29  C   UNL A   1      35.449  34.666  28.825  1.00  0.00     0.014 A 
ATOM     30  C   UNL A   1      35.005  33.312  31.234  1.00  0.00     0.010 A 
ATOM     31  C   UNL A   1      36.473  33.927  29.400  1.00  0.00     0.010 A 
ATOM     32  C   UNL A   1      36.260  33.239  30.606  1.00  0.00    -0.014 A 
BRANCH  32  33
ATOM     33  C   UNL A   1      37.375  32.459  31.194  1.00  0.00     0.031 A 
ATOM     34  C   UNL A   1      37.859  32.792  32.577  1.00  0.00     0.074 A 
ATOM     35  C   UNL A   1      38.003  31.520  30.461  1.00  0.00     0.049 A 
ATOM     36  N   UNL A   1      38.882  32.312  33.236  1.00  0.00    -0.248 NA
ATOM     37  C   UNL A   1      37.115  33.837  33.299  1.00  0.00     0.031 C 
ATOM     38  C   UNL A   1      37.667  31.151  29.085  1.00  0.00     0.029 A 
ATOM     39  N   UNL A   1      39.069  30.711  30.771  1.00  0.00    -0.354 N 
ATOM     40  C   UNL A   1      38.921  33.017  34.431  1.00  0.00     0.074 A 
ATOM     41  C   UNL A   1      37.855  33.994  34.385  1.00  0.00     0.031 C 
ATOM     42  C   UNL A   1      38.492  30.171  28.679  1.00  0.00     0.029 A 
ATOM     43  C   UNL A   1      39.431  29.863  29.753  1.00  0.00     0.049 A 
ATOM     44  H   UNL A   1      39.529  30.737  31.640  1.00  0.00     0.167 HD
ATOM     45  C   UNL A   1      39.753  32.847  35.486  1.00  0.00     0.037 A 
ATOM     46  C   UNL A   1      40.410  28.941  29.700  1.00  0.00     0.037 A 
ATOM     47  C   UNL A   1      40.778  31.842  35.547  1.00  0.00     0.049 A 
ATOM     48  C   UNL A   1      41.287  28.733  30.905  1.00  0.00     0.074 A 
ATOM     49  C   UNL A   1      41.637  31.547  36.590  1.00  0.00     0.029 A 
ATOM     50  N   UNL A   1      41.072  30.957  34.521  1.00  0.00    -0.354 N 
ATOM     51  N   UNL A   1      41.277  29.365  32.053  1.00  0.00    -0.248 NA
ATOM     52  C   UNL A   1      42.304  27.676  30.810  1.00  0.00     0.031 C 
ATOM     53  C   UNL A   1      42.467  30.494  36.186  1.00  0.00     0.029 A 
ATOM     54  C   UNL A   1      42.099  30.112  34.906  1.00  0.00     0.049 A 
ATOM     55  H   UNL A   1      40.618  30.932  33.648  1.00  0.00     0.167 HD
ATOM     56  C   UNL A   1      42.257  28.762  32.828  1.00  0.00     0.074 A 
ATOM     57  C   UNL A   1      42.840  27.709  32.023  1.00  0.00     0.031 C 
ATOM     58  C   UNL A   1      42.643  29.054  34.095  1.00  0.00     0.037 A 
BRANCH  45  59
ATOM     59  C   UNL A   1      39.570  33.764  36.658  1.00  0.00     0.064 A 
ATOM     60  C   UNL A   1      40.185  35.024  36.705  1.00  0.00     0.173 A 
ATOM     61  C   UNL A   1      38.768  33.383  37.744  1.00  0.00     0.173 A 
ATOM     62  F   UNL A   1      40.976  35.427  35.700  1.00  0.00    -0.203 F 
ATOM     63  C   UNL A   1      40.034  35.854  37.814  1.00  0.00     0.198 A 
ATOM     64  C   UNL A   1      38.594  34.228  38.837  1.00  0.00     0.198 A 
ATOM     65  F   UNL A   1      38.156  32.190  37.747  1.00  0.00    -0.203 F 
ATOM     66  F   UNL A   1      40.680  37.027  37.862  1.00  0.00    -0.200 F 
ATOM     67  C   UNL A   1      39.235  35.458  38.875  1.00  0.00     0.200 A 
ATOM     68  F   UNL A   1      37.815  33.848  39.859  1.00  0.00    -0.200 F 
ATOM     69  F   UNL A   1      39.091  36.256  39.941  1.00  0.00    -0.200 F 
ENDBRANCH  45  59
BRANCH  46  70
ATOM     70  C   UNL A   1      40.579  28.103  28.484  1.00  0.00     0.064 A 
ATOM     71  C   UNL A   1      39.934  26.863  28.377  1.00  0.00     0.173 A 
ATOM     72  C   UNL A   1      41.386  28.516  27.415  1.00  0.00     0.173 A 
ATOM     73  F   UNL A   1      39.167  26.419  29.383  1.00  0.00    -0.203 F 
ATOM     74  C   UNL A   1      40.107  26.056  27.254  1.00  0.00     0.198 A 
ATOM     75  C   UNL A   1      41.540  27.717  26.282  1.00  0.00     0.198 A 
ATOM     76  F   UNL A   1      42.019  29.696  27.467  1.00  0.00    -0.203 F 
ATOM     77  F   UNL A   1      39.513  24.856  27.196  1.00  0.00    -0.200 F 
ATOM     78  C   UNL A   1      40.906  26.485  26.206  1.00  0.00     0.200 A 
ATOM     79  F   UNL A   1      42.304  28.140  25.266  1.00  0.00    -0.200 F 
ATOM     80  F   UNL A   1      41.072  25.710  25.127  1.00  0.00    -0.200 F 
ENDBRANCH  46  70
BRANCH  58  81
ATOM     81  C   UNL A   1      43.705  28.190  34.707  1.00  0.00     0.064 A 
ATOM     82  C   UNL A   1      43.389  27.000  35.375  1.00  0.00     0.173 A 
ATOM     83  C   UNL A   1      45.057  28.538  34.578  1.00  0.00     0.173 A 
ATOM     84  F   UNL A   1      42.108  26.634  35.536  1.00  0.00    -0.203 F 
ATOM     85  C   UNL A   1      44.392  26.197  35.913  1.00  0.00     0.198 A 
ATOM     86  C   UNL A   1      46.058  27.721  35.094  1.00  0.00     0.198 A 
ATOM     87  F   UNL A   1      45.408  29.666  33.941  1.00  0.00    -0.203 F 
ATOM     88  F   UNL A   1      44.067  25.083  36.583  1.00  0.00    -0.200 F 
ATOM     89  C   UNL A   1      45.724  26.555  35.766  1.00  0.00     0.200 A 
ATOM     90  F   UNL A   1      47.345  28.062  34.942  1.00  0.00    -0.200 F 
ATOM     91  F   UNL A   1      46.688  25.776  36.278  1.00  0.00    -0.200 F 
ENDBRANCH  58  81
ENDBRANCH  32  33
ENDBRANCH  24  27
ENDBRANCH  22  23
ENDBRANCH  21  22
ENDBRANCH   1  21
TORSDOF 14
ENDMDL
MODEL 2
REMARK VINA RESULT:     -12.1      0.490      2.098
REMARK SMILES CC(C)(C)C(=O)C[N@H+]1CCCC[C@H]1C(=O)NCCCCNC(=O)c1ccc(-c2c3nc(c(-c4c(F)c(F)c(F)c(F)c4F)c4ccc([nH]4)c(-c4c(F)c(F)c(F)c(F)c4F)c4nc(c(-c5c(F)c(F)c(F)c(F)c5F)c5ccc2[nH]5)C=C4)C=C3)cc1
REMARK SMILES IDX 18 1 17 2 16 3 14 4 15 5 13 7 8 8 9 9 10 11 12 12 11 13 7 14
REMARK SMILES IDX 5 15 6 16 2 17 1 18 3 19 4 20 19 21 20 22 21 23 22 24 23 26
REMARK SMILES IDX 24 27 25 28 86 29 26 30 85 31 27 32 28 33 29 34 79 35 30 36
REMARK SMILES IDX 84 37 78 38 80 39 31 40 83 41 77 42 76 43 32 45 64 46 44 47
REMARK SMILES IDX 63 48 45 49 48 50 62 51 81 52 46 53 47 54 61 56 82 57 49 58
REMARK SMILES IDX 33 59 34 60 42 61 35 62 36 63 40 64 43 65 37 66 38 67 41 68
REMARK SMILES IDX 39 69 65 70 66 71 74 72 67 73 68 74 72 75 75 76 69 77 70 78
REMARK SMILES IDX 73 79 71 80 50 81 51 82 59 83 52 84 53 85 57 86 60 87 54 88
REMARK SMILES IDX 55 89 58 90 56 91
REMARK H PARENT 16 6 8 10 21 25 80 44 48 55
REMARK Flexibility Score: inf
ROOT
ATOM      1  C   UNL A   1      32.198  30.197  27.028  1.00  0.00     0.023 C 
ENDROOT
BRANCH   1   2
ATOM      2  C   UNL A   1      33.646  29.782  26.777  1.00  0.00     0.116 C 
BRANCH   2   3
ATOM      3  N   UNL A   1      33.898  29.395  25.408  1.00  0.00    -0.351 N 
ATOM      4  C   UNL A   1      33.150  28.924  24.382  1.00  0.00     0.278 C 
ATOM      5  O   UNL A   1      33.774  28.895  23.307  1.00  0.00    -0.268 OA
ATOM      6  H   UNL A   1      34.846  29.498  25.161  1.00  0.00     0.163 HD
BRANCH   4   7
ATOM      7  C   UNL A   1      31.695  28.368  24.407  1.00  0.00     0.274 C 
ATOM      8  N   UNL A   1      30.949  28.180  23.154  1.00  0.00    -0.319 N 
ATOM      9  C   UNL A   1      31.303  27.022  22.343  1.00  0.00     0.263 C 
ATOM     10  H   UNL A   1      30.040  27.847  23.475  1.00  0.00     0.349 HD
ATOM     11  C   UNL A   1      31.263  25.729  23.154  1.00  0.00     0.062 C 
ATOM     12  C   UNL A   1      31.655  27.059  25.228  1.00  0.00     0.076 C 
ATOM     13  C   UNL A   1      32.112  25.853  24.412  1.00  0.00     0.012 C 
BRANCH   8  14
ATOM     14  C   UNL A   1      30.554  29.408  22.474  1.00  0.00     0.340 C 
BRANCH  14  15
ATOM     15  C   UNL A   1      29.524  30.193  23.279  1.00  0.00     0.192 C 
ATOM     16  O   UNL A   1      29.876  30.779  24.310  1.00  0.00    -0.293 OA
BRANCH  15  17
ATOM     17  C   UNL A   1      28.054  30.207  22.814  1.00  0.00     0.026 C 
ATOM     18  C   UNL A   1      28.019  30.486  21.299  1.00  0.00     0.019 C 
ATOM     19  C   UNL A   1      27.311  31.326  23.547  1.00  0.00     0.019 C 
ATOM     20  C   UNL A   1      27.366  28.856  23.057  1.00  0.00     0.019 C 
ENDBRANCH  15  17
ENDBRANCH  14  15
ENDBRANCH   8  14
ENDBRANCH   4   7
ENDBRANCH   2   3
ENDBRANCH   1   2
BRANCH   1  21
ATOM     21  C   UNL A   1      31.906  31.682  26.847  1.00  0.00     0.023 C 
BRANCH  21  22
ATOM     22  C   UNL A   1      32.977  32.628  27.372  1.00  0.00     0.116 C 
BRANCH  22  23
ATOM     23  N   UNL A   1      32.516  33.981  27.655  1.00  0.00    -0.352 N 
ATOM     24  C   UNL A   1      33.039  34.858  28.584  1.00  0.00     0.251 C 
ATOM     25  H   UNL A   1      31.750  34.305  27.128  1.00  0.00     0.163 HD
ATOM     26  O   UNL A   1      32.554  35.960  28.769  1.00  0.00    -0.269 OA
BRANCH  24  27
ATOM     27  C   UNL A   1      34.181  34.385  29.392  1.00  0.00     0.039 A 
ATOM     28  C   UNL A   1      33.929  33.586  30.508  1.00  0.00     0.014 A 
ATOM     29  C   UNL A   1      35.483  34.607  28.942  1.00  0.00     0.014 A 
ATOM     30  C   UNL A   1      34.993  32.929  31.127  1.00  0.00     0.010 A 
ATOM     31  C   UNL A   1      36.527  33.888  29.508  1.00  0.00     0.010 A 
ATOM     32  C   UNL A   1      36.291  33.039  30.601  1.00  0.00    -0.014 A 
BRANCH  32  33
ATOM     33  C   UNL A   1      37.428  32.286  31.184  1.00  0.00     0.031 A 
ATOM     34  C   UNL A   1      37.915  32.635  32.562  1.00  0.00     0.074 A 
ATOM     35  C   UNL A   1      38.071  31.359  30.449  1.00  0.00     0.049 A 
ATOM     36  N   UNL A   1      38.953  32.179  33.215  1.00  0.00    -0.248 NA
ATOM     37  C   UNL A   1      37.153  33.665  33.286  1.00  0.00     0.031 C 
ATOM     38  C   UNL A   1      37.733  30.978  29.077  1.00  0.00     0.029 A 
ATOM     39  N   UNL A   1      39.157  30.575  30.753  1.00  0.00    -0.354 N 
ATOM     40  C   UNL A   1      38.986  32.889  34.407  1.00  0.00     0.074 A 
ATOM     41  C   UNL A   1      37.898  33.842  34.366  1.00  0.00     0.031 C 
ATOM     42  C   UNL A   1      38.576  30.015  28.667  1.00  0.00     0.029 A 
ATOM     43  C   UNL A   1      39.530  29.732  29.735  1.00  0.00     0.049 A 
ATOM     44  H   UNL A   1      39.623  30.614  31.618  1.00  0.00     0.167 HD
ATOM     45  C   UNL A   1      39.829  32.741  35.456  1.00  0.00     0.037 A 
ATOM     46  C   UNL A   1      40.529  28.831  29.677  1.00  0.00     0.037 A 
ATOM     47  C   UNL A   1      40.877  31.759  35.512  1.00  0.00     0.049 A 
ATOM     48  C   UNL A   1      41.420  28.647  30.876  1.00  0.00     0.074 A 
ATOM     49  C   UNL A   1      41.750  31.486  36.550  1.00  0.00     0.029 A 
ATOM     50  N   UNL A   1      41.182  30.877  34.486  1.00  0.00    -0.354 N 
ATOM     51  N   UNL A   1      41.404  29.282  32.022  1.00  0.00    -0.248 NA
ATOM     52  C   UNL A   1      42.459  27.613  30.776  1.00  0.00     0.031 C 
ATOM     53  C   UNL A   1      42.600  30.450  36.142  1.00  0.00     0.029 A 
ATOM     54  C   UNL A   1      42.231  30.057  34.866  1.00  0.00     0.049 A 
ATOM     55  H   UNL A   1      40.722  30.839  33.617  1.00  0.00     0.167 HD
ATOM     56  C   UNL A   1      42.403  28.703  32.792  1.00  0.00     0.074 A 
ATOM     57  C   UNL A   1      43.003  27.661  31.985  1.00  0.00     0.031 C 
ATOM     58  C   UNL A   1      42.792  29.008  34.055  1.00  0.00     0.037 A 
BRANCH  45  59
ATOM     59  C   UNL A   1      39.634  33.656  36.627  1.00  0.00     0.064 A 
ATOM     60  C   UNL A   1      38.832  33.289  37.718  1.00  0.00     0.173 A 
ATOM     61  C   UNL A   1      40.259  34.911  36.663  1.00  0.00     0.173 A 
ATOM     62  F   UNL A   1      38.198  32.107  37.722  1.00  0.00    -0.203 F 
ATOM     63  C   UNL A   1      38.632  34.161  38.786  1.00  0.00     0.198 A 
ATOM     64  C   UNL A   1      40.082  35.767  37.747  1.00  0.00     0.198 A 
ATOM     65  F   UNL A   1      41.038  35.309  35.647  1.00  0.00    -0.203 F 
ATOM     66  F   UNL A   1      37.813  33.812  39.788  1.00  0.00    -0.200 F 
ATOM     67  C   UNL A   1      39.261  35.396  38.802  1.00  0.00     0.200 A 
ATOM     68  F   UNL A   1      40.697  36.958  37.767  1.00  0.00    -0.200 F 
ATOM     69  F   UNL A   1      39.068  36.233  39.830  1.00  0.00    -0.200 F 
ENDBRANCH  45  59
BRANCH  46  70
ATOM     70  C   UNL A   1      40.707  27.994  28.463  1.00  0.00     0.064 A 
ATOM     71  C   UNL A   1      41.495  28.445  27.394  1.00  0.00     0.173 A 
ATOM     72  C   UNL A   1      40.096  26.739  28.340  1.00  0.00     0.173 A 
ATOM     73  F   UNL A   1      42.085  29.648  27.459  1.00  0.00    -0.203 F 
ATOM     74  C   UNL A   1      41.646  27.682  26.238  1.00  0.00     0.198 A 
ATOM     75  C   UNL A   1      40.267  25.966  27.192  1.00  0.00     0.198 A 
ATOM     76  F   UNL A   1      39.337  26.261  29.336  1.00  0.00    -0.203 F 
ATOM     77  F   UNL A   1      42.370  28.156  25.215  1.00  0.00    -0.200 F 
ATOM     78  C   UNL A   1      41.036  26.441  26.140  1.00  0.00     0.200 A 
ATOM     79  F   UNL A   1      39.685  24.762  27.105  1.00  0.00    -0.200 F 
ATOM     80  F   UNL A   1      41.183  25.707  25.029  1.00  0.00    -0.200 F 
ENDBRANCH  46  70
BRANCH  58  81
ATOM     81  C   UNL A   1      43.877  28.170  34.661  1.00  0.00     0.064 A 
ATOM     82  C   UNL A   1      45.224  28.550  34.593  1.00  0.00     0.173 A 
ATOM     83  C   UNL A   1      43.555  26.997  35.358  1.00  0.00     0.173 A 
ATOM     84  F   UNL A   1      45.581  29.656  33.923  1.00  0.00    -0.203 F 
ATOM     85  C   UNL A   1      46.215  27.771  35.185  1.00  0.00     0.198 A 
ATOM     86  C   UNL A   1      44.546  26.235  35.971  1.00  0.00     0.198 A 
ATOM     87  F   UNL A   1      42.278  26.596  35.455  1.00  0.00    -0.203 F 
ATOM     88  F   UNL A   1      47.501  28.131  35.075  1.00  0.00    -0.200 F 
ATOM     89  C   UNL A   1      45.875  26.620  35.878  1.00  0.00     0.200 A 
ATOM     90  F   UNL A   1      44.214  25.128  36.650  1.00  0.00    -0.200 F 
ATOM     91  F   UNL A   1      46.829  25.876  36.455  1.00  0.00    -0.200 F 
ENDBRANCH  58  81
ENDBRANCH  32  33
ENDBRANCH  24  27
ENDBRANCH  22  23
ENDBRANCH  21  22
ENDBRANCH   1  21
TORSDOF 14
ENDMDL
MODEL 3
REMARK VINA RESULT:     -12.1      6.441     11.908
REMARK SMILES CC(C)(C)C(=O)C[N@H+]1CCCC[C@H]1C(=O)NCCCCNC(=O)c1ccc(-c2c3nc(c(-c4c(F)c(F)c(F)c(F)c4F)c4ccc([nH]4)c(-c4c(F)c(F)c(F)c(F)c4F)c4nc(c(-c5c(F)c(F)c(F)c(F)c5F)c5ccc2[nH]5)C=C4)C=C3)cc1
REMARK SMILES IDX 18 1 17 2 16 3 14 4 15 5 13 7 8 8 9 9 10 11 12 12 11 13 7 14
REMARK SMILES IDX 5 15 6 16 2 17 1 18 3 19 4 20 19 21 20 22 21 23 22 24 23 26
REMARK SMILES IDX 24 27 25 28 86 29 26 30 85 31 27 32 28 33 29 34 79 35 30 36
REMARK SMILES IDX 84 37 78 38 80 39 31 40 83 41 77 42 76 43 32 45 64 46 44 47
REMARK SMILES IDX 63 48 45 49 48 50 62 51 81 52 46 53 47 54 61 56 82 57 49 58
REMARK SMILES IDX 33 59 34 60 42 61 35 62 36 63 40 64 43 65 37 66 38 67 41 68
REMARK SMILES IDX 39 69 65 70 66 71 74 72 67 73 68 74 72 75 75 76 69 77 70 78
REMARK SMILES IDX 73 79 71 80 50 81 51 82 59 83 52 84 53 85 57 86 60 87 54 88
REMARK SMILES IDX 55 89 58 90 56 91
REMARK H PARENT 16 6 8 10 21 25 80 44 48 55
REMARK Flexibility Score: inf
ROOT
ATOM      1  C   UNL A   1      37.513  21.148  24.633  1.00  0.00     0.023 C 
ENDROOT
BRANCH   1   2
ATOM      2  C   UNL A   1      37.254  22.300  25.601  1.00  0.00     0.116 C 
BRANCH   2   3
ATOM      3  N   UNL A   1      36.122  22.072  26.468  1.00  0.00    -0.351 N 
ATOM      4  C   UNL A   1      34.841  21.667  26.301  1.00  0.00     0.278 C 
ATOM      5  O   UNL A   1      34.263  21.442  27.379  1.00  0.00    -0.268 OA
ATOM      6  H   UNL A   1      36.334  22.256  27.413  1.00  0.00     0.163 HD
BRANCH   4   7
ATOM      7  C   UNL A   1      34.021  21.535  24.983  1.00  0.00     0.274 C 
ATOM      8  N   UNL A   1      32.656  20.987  25.008  1.00  0.00    -0.319 N 
ATOM      9  C   UNL A   1      31.601  21.867  25.494  1.00  0.00     0.263 C 
ATOM     10  H   UNL A   1      32.390  20.988  24.024  1.00  0.00     0.349 HD
ATOM     11  C   UNL A   1      31.596  23.204  24.757  1.00  0.00     0.062 C 
ATOM     12  C   UNL A   1      34.016  22.889  24.238  1.00  0.00     0.076 C 
ATOM     13  C   UNL A   1      32.973  23.851  24.800  1.00  0.00     0.012 C 
BRANCH   8  14
ATOM     14  C   UNL A   1      32.562  19.563  25.305  1.00  0.00     0.340 C 
BRANCH  14  15
ATOM     15  C   UNL A   1      32.880  18.709  24.082  1.00  0.00     0.192 C 
ATOM     16  O   UNL A   1      32.332  18.963  23.003  1.00  0.00    -0.293 OA
BRANCH  15  17
ATOM     17  C   UNL A   1      33.850  17.518  24.225  1.00  0.00     0.026 C 
ATOM     18  C   UNL A   1      33.941  16.791  22.869  1.00  0.00     0.019 C 
ATOM     19  C   UNL A   1      33.300  16.552  25.276  1.00  0.00     0.019 C 
ATOM     20  C   UNL A   1      35.265  17.978  24.605  1.00  0.00     0.019 C 
ENDBRANCH  15  17
ENDBRANCH  14  15
ENDBRANCH   8  14
ENDBRANCH   4   7
ENDBRANCH   2   3
ENDBRANCH   1   2
BRANCH   1  21
ATOM     21  C   UNL A   1      38.206  19.933  25.239  1.00  0.00     0.023 C 
BRANCH  21  22
ATOM     22  C   UNL A   1      39.590  20.189  25.817  1.00  0.00     0.116 C 
BRANCH  22  23
ATOM     23  N   UNL A   1      40.475  19.032  25.830  1.00  0.00    -0.352 N 
ATOM     24  C   UNL A   1      41.829  19.025  26.098  1.00  0.00     0.251 C 
ATOM     25  H   UNL A   1      40.063  18.161  25.626  1.00  0.00     0.163 HD
ATOM     26  O   UNL A   1      42.487  18.002  26.047  1.00  0.00    -0.269 OA
BRANCH  24  27
ATOM     27  C   UNL A   1      42.465  20.325  26.394  1.00  0.00     0.039 A 
ATOM     28  C   UNL A   1      43.014  21.059  25.343  1.00  0.00     0.014 A 
ATOM     29  C   UNL A   1      42.365  20.865  27.677  1.00  0.00     0.014 A 
ATOM     30  C   UNL A   1      43.388  22.385  25.563  1.00  0.00     0.010 A 
ATOM     31  C   UNL A   1      42.660  22.207  27.872  1.00  0.00     0.010 A 
ATOM     32  C   UNL A   1      43.169  22.981  26.816  1.00  0.00    -0.014 A 
BRANCH  32  33
ATOM     33  C   UNL A   1      43.475  24.411  27.057  1.00  0.00     0.031 A 
ATOM     34  C   UNL A   1      44.860  24.925  26.786  1.00  0.00     0.074 A 
ATOM     35  C   UNL A   1      42.543  25.220  27.597  1.00  0.00     0.049 A 
ATOM     36  N   UNL A   1      45.369  26.106  27.026  1.00  0.00    -0.248 NA
ATOM     37  C   UNL A   1      45.813  23.967  26.203  1.00  0.00     0.031 C 
ATOM     38  C   UNL A   1      41.183  24.822  27.964  1.00  0.00     0.029 A 
ATOM     39  N   UNL A   1      42.605  26.547  27.943  1.00  0.00    -0.354 N 
ATOM     40  C   UNL A   1      46.704  26.021  26.654  1.00  0.00     0.074 A 
ATOM     41  C   UNL A   1      46.941  24.660  26.225  1.00  0.00     0.031 C 
ATOM     42  C   UNL A   1      40.531  25.888  28.458  1.00  0.00     0.029 A 
ATOM     43  C   UNL A   1      41.434  27.035  28.470  1.00  0.00     0.049 A 
ATOM     44  H   UNL A   1      43.412  27.096  27.824  1.00  0.00     0.167 HD
ATOM     45  C   UNL A   1      47.642  26.997  26.645  1.00  0.00     0.037 A 
ATOM     46  C   UNL A   1      41.128  28.271  28.908  1.00  0.00     0.037 A 
ATOM     47  C   UNL A   1      47.389  28.359  27.025  1.00  0.00     0.049 A 
ATOM     48  C   UNL A   1      42.172  29.352  28.837  1.00  0.00     0.074 A 
ATOM     49  C   UNL A   1      48.253  29.439  26.998  1.00  0.00     0.029 A 
ATOM     50  N   UNL A   1      46.171  28.831  27.492  1.00  0.00    -0.354 N 
ATOM     51  N   UNL A   1      43.415  29.275  28.427  1.00  0.00    -0.248 NA
ATOM     52  C   UNL A   1      41.768  30.694  29.278  1.00  0.00     0.031 C 
ATOM     53  C   UNL A   1      47.562  30.562  27.469  1.00  0.00     0.029 A 
ATOM     54  C   UNL A   1      46.259  30.187  27.755  1.00  0.00     0.049 A 
ATOM     55  H   UNL A   1      45.363  28.283  27.618  1.00  0.00     0.167 HD
ATOM     56  C   UNL A   1      43.930  30.560  28.527  1.00  0.00     0.074 A 
ATOM     57  C   UNL A   1      42.863  31.400  29.031  1.00  0.00     0.031 C 
ATOM     58  C   UNL A   1      45.175  31.006  28.230  1.00  0.00     0.037 A 
BRANCH  45  59
ATOM     59  C   UNL A   1      49.021  26.618  26.193  1.00  0.00     0.064 A 
ATOM     60  C   UNL A   1      49.939  26.018  27.068  1.00  0.00     0.173 A 
ATOM     61  C   UNL A   1      49.429  26.853  24.872  1.00  0.00     0.173 A 
ATOM     62  F   UNL A   1      49.602  25.789  28.346  1.00  0.00    -0.203 F 
ATOM     63  C   UNL A   1      51.227  25.700  26.647  1.00  0.00     0.198 A 
ATOM     64  C   UNL A   1      50.708  26.505  24.446  1.00  0.00     0.198 A 
ATOM     65  F   UNL A   1      48.589  27.422  23.995  1.00  0.00    -0.203 F 
ATOM     66  F   UNL A   1      52.106  25.182  27.517  1.00  0.00    -0.200 F 
ATOM     67  C   UNL A   1      51.609  25.938  25.335  1.00  0.00     0.200 A 
ATOM     68  F   UNL A   1      51.074  26.728  23.176  1.00  0.00    -0.200 F 
ATOM     69  F   UNL A   1      52.849  25.632  24.931  1.00  0.00    -0.200 F 
ENDBRANCH  45  59
BRANCH  46  70
ATOM     70  C   UNL A   1      39.759  28.568  29.401  1.00  0.00     0.064 A 
ATOM     71  C   UNL A   1      39.420  28.347  30.743  1.00  0.00     0.173 A 
ATOM     72  C   UNL A   1      38.766  29.070  28.550  1.00  0.00     0.173 A 
ATOM     73  F   UNL A   1      40.333  27.850  31.591  1.00  0.00    -0.203 F 
ATOM     74  C   UNL A   1      38.131  28.595  31.211  1.00  0.00     0.198 A 
ATOM     75  C   UNL A   1      37.482  29.340  29.024  1.00  0.00     0.198 A 
ATOM     76  F   UNL A   1      39.042  29.304  27.259  1.00  0.00    -0.203 F 
ATOM     77  F   UNL A   1      37.822  28.334  32.489  1.00  0.00    -0.200 F 
ATOM     78  C   UNL A   1      37.165  29.095  30.353  1.00  0.00     0.200 A 
ATOM     79  F   UNL A   1      36.554  29.835  28.194  1.00  0.00    -0.200 F 
ATOM     80  F   UNL A   1      35.926  29.335  30.802  1.00  0.00    -0.200 F 
ENDBRANCH  46  70
BRANCH  58  81
ATOM     81  C   UNL A   1      45.435  32.475  28.388  1.00  0.00     0.064 A 
ATOM     82  C   UNL A   1      45.960  33.005  29.574  1.00  0.00     0.173 A 
ATOM     83  C   UNL A   1      45.197  33.351  27.320  1.00  0.00     0.173 A 
ATOM     84  F   UNL A   1      46.189  32.206  30.628  1.00  0.00    -0.203 F 
ATOM     85  C   UNL A   1      46.220  34.368  29.692  1.00  0.00     0.198 A 
ATOM     86  C   UNL A   1      45.482  34.709  27.432  1.00  0.00     0.198 A 
ATOM     87  F   UNL A   1      44.700  32.888  26.163  1.00  0.00    -0.203 F 
ATOM     88  F   UNL A   1      46.685  34.861  30.848  1.00  0.00    -0.200 F 
ATOM     89  C   UNL A   1      45.987  35.216  28.620  1.00  0.00     0.200 A 
ATOM     90  F   UNL A   1      45.267  35.526  26.392  1.00  0.00    -0.200 F 
ATOM     91  F   UNL A   1      46.245  36.527  28.733  1.00  0.00    -0.200 F 
ENDBRANCH  58  81
ENDBRANCH  32  33
ENDBRANCH  24  27
ENDBRANCH  22  23
ENDBRANCH  21  22
ENDBRANCH   1  21
TORSDOF 14
ENDMDL
