MODEL 1
REMARK VINA RESULT:     -14.3      0.000      0.000
REMARK SMILES O=C(NCCCCNC(=O)c1ccc(-c2c3nc(c(-c4c(F)c(F)c(F)c(F)c4F)c4ccc([nH]4)c(-c4c(F)c(F)c(F)c(F)c4F)c4nc(c(-c5c(F)c(F)c(F)c(F)c5F)c5ccc2[nH]5)C=C4)C=C3)cc1)C1=Cc2c(ccc(Cl)c2Oc2ccccc2)O[C@H]1C(F)(F)F
REMARK SMILES IDX 5 1 4 2 3 3 1 4 2 5 74 7 75 8 91 9 76 10 90 11 77 12 82 13
REMARK SMILES IDX 78 14 80 15 79 16 81 17 92 18 93 19 94 20 95 21 83 22 84 23
REMARK SMILES IDX 85 24 89 25 86 26 88 27 87 28 6 29 7 30 8 31 9 32 10 34
REMARK SMILES IDX 11 35 12 36 73 37 13 38 72 39 14 40 15 41 16 42 66 43 17 44
REMARK SMILES IDX 71 45 65 46 67 47 18 48 70 49 64 50 63 51 19 53 51 54 31 55
REMARK SMILES IDX 50 56 32 57 35 58 49 59 68 60 33 61 34 62 48 64 69 65 36 66
REMARK SMILES IDX 20 67 21 68 29 69 22 70 23 71 27 72 30 73 24 74 25 75 28 76
REMARK SMILES IDX 26 77 52 78 53 79 61 80 54 81 55 82 59 83 62 84 56 85 57 86
REMARK SMILES IDX 60 87 58 88 37 89 38 90 46 91 39 92 40 93 44 94 47 95 41 96
REMARK SMILES IDX 42 97 45 98 43 99
REMARK H PARENT 3 6 8 33 67 52 35 63
REMARK Flexibility Score: inf
ROOT
ATOM      1  C   UNL A   1      32.367  27.686  26.819  1.00  0.00     0.023 C 
ENDROOT
BRANCH   1   2
ATOM      2  C   UNL A   1      31.486  26.610  26.188  1.00  0.00     0.116 C 
BRANCH   2   3
ATOM      3  N   UNL A   1      31.413  25.388  26.969  1.00  0.00    -0.352 N 
ATOM      4  O   UNL A   1      31.340  23.182  27.393  1.00  0.00    -0.270 OA
ATOM      5  C   UNL A   1      31.511  24.084  26.577  1.00  0.00     0.251 C 
ATOM      6  H   UNL A   1      31.272  25.521  27.934  1.00  0.00     0.163 HD
BRANCH   5   7
ATOM      7  C   UNL A   1      31.777  23.737  25.169  1.00  0.00     0.067 C 
ATOM      8  C   UNL A   1      32.130  22.494  24.821  1.00  0.00     0.029 C 
ATOM      9  C   UNL A   1      31.960  24.843  24.185  1.00  0.00     0.314 C 
ATOM     10  C   UNL A   1      33.539  22.458  24.355  1.00  0.00     0.061 A 
ATOM     11  O   UNL A   1      33.270  24.770  23.537  1.00  0.00    -0.475 OA
ATOM     12  C   UNL A   1      34.036  23.643  23.756  1.00  0.00     0.131 A 
ATOM     13  C   UNL A   1      34.418  21.395  24.679  1.00  0.00     0.156 A 
ATOM     14  C   UNL A   1      35.394  23.775  23.484  1.00  0.00     0.049 A 
ATOM     15  C   UNL A   1      35.792  21.580  24.438  1.00  0.00     0.084 A 
ATOM     16  C   UNL A   1      36.273  22.755  23.846  1.00  0.00     0.028 A 
ATOM     17  Cl  UNL A   1      36.959  20.405  24.944  1.00  0.00    -0.080 Cl
BRANCH   9  18
ATOM     18  C   UNL A   1      30.835  24.864  23.135  1.00  0.00     0.429 C 
ATOM     19  F   UNL A   1      30.366  23.628  22.847  1.00  0.00    -0.167 F 
ATOM     20  F   UNL A   1      29.780  25.596  23.565  1.00  0.00    -0.167 F 
ATOM     21  F   UNL A   1      31.251  25.407  21.963  1.00  0.00    -0.167 F 
ENDBRANCH   9  18
BRANCH  13  22
ATOM     22  O   UNL A   1      34.086  20.217  25.344  1.00  0.00    -0.455 OA
BRANCH  22  23
ATOM     23  C   UNL A   1      33.803  19.093  24.608  1.00  0.00     0.127 A 
ATOM     24  C   UNL A   1      32.680  19.112  23.776  1.00  0.00     0.047 A 
ATOM     25  C   UNL A   1      34.652  17.986  24.639  1.00  0.00     0.047 A 
ATOM     26  C   UNL A   1      32.482  18.071  22.870  1.00  0.00     0.004 A 
ATOM     27  C   UNL A   1      34.442  16.941  23.737  1.00  0.00     0.004 A 
ATOM     28  C   UNL A   1      33.374  16.997  22.838  1.00  0.00     0.000 A 
ENDBRANCH  22  23
ENDBRANCH  13  22
ENDBRANCH   5   7
ENDBRANCH   2   3
ENDBRANCH   1   2
BRANCH   1  29
ATOM     29  C   UNL A   1      31.762  29.086  26.807  1.00  0.00     0.023 C 
BRANCH  29  30
ATOM     30  C   UNL A   1      32.602  30.184  26.154  1.00  0.00     0.116 C 
BRANCH  30  31
ATOM     31  N   UNL A   1      32.364  31.523  26.671  1.00  0.00    -0.352 N 
ATOM     32  C   UNL A   1      33.208  32.331  27.412  1.00  0.00     0.251 C 
ATOM     33  H   UNL A   1      31.480  31.906  26.466  1.00  0.00     0.163 HD
ATOM     34  O   UNL A   1      32.839  33.424  27.801  1.00  0.00    -0.269 OA
BRANCH  32  35
ATOM     35  C   UNL A   1      34.547  31.816  27.789  1.00  0.00     0.039 A 
ATOM     36  C   UNL A   1      35.603  32.723  27.910  1.00  0.00     0.014 A 
ATOM     37  C   UNL A   1      34.735  30.471  28.112  1.00  0.00     0.014 A 
ATOM     38  C   UNL A   1      36.810  32.308  28.479  1.00  0.00     0.010 A 
ATOM     39  C   UNL A   1      35.912  30.075  28.744  1.00  0.00     0.010 A 
ATOM     40  C   UNL A   1      36.949  30.996  28.963  1.00  0.00    -0.014 A 
BRANCH  40  41
ATOM     41  C   UNL A   1      38.135  30.590  29.763  1.00  0.00     0.031 A 
ATOM     42  C   UNL A   1      39.126  29.603  29.213  1.00  0.00     0.074 A 
ATOM     43  C   UNL A   1      38.262  31.031  31.032  1.00  0.00     0.049 A 
ATOM     44  N   UNL A   1      40.159  29.053  29.800  1.00  0.00    -0.248 NA
ATOM     45  C   UNL A   1      38.910  29.153  27.830  1.00  0.00     0.031 C 
ATOM     46  C   UNL A   1      37.336  31.941  31.709  1.00  0.00     0.029 A 
ATOM     47  N   UNL A   1      39.211  30.757  31.987  1.00  0.00    -0.354 N 
ATOM     48  C   UNL A   1      40.698  28.175  28.871  1.00  0.00     0.074 A 
ATOM     49  C   UNL A   1      39.862  28.239  27.691  1.00  0.00     0.031 C 
ATOM     50  C   UNL A   1      37.769  32.162  32.961  1.00  0.00     0.029 A 
ATOM     51  C   UNL A   1      38.982  31.382  33.190  1.00  0.00     0.049 A 
ATOM     52  H   UNL A   1      39.984  30.169  31.825  1.00  0.00     0.167 HD
ATOM     53  C   UNL A   1      41.802  27.399  28.985  1.00  0.00     0.037 A 
ATOM     54  C   UNL A   1      39.665  31.325  34.350  1.00  0.00     0.037 A 
ATOM     55  C   UNL A   1      42.662  27.368  30.138  1.00  0.00     0.049 A 
ATOM     56  C   UNL A   1      40.900  30.473  34.438  1.00  0.00     0.074 A 
ATOM     57  C   UNL A   1      43.855  26.688  30.307  1.00  0.00     0.029 A 
ATOM     58  N   UNL A   1      42.419  28.049  31.322  1.00  0.00    -0.354 N 
ATOM     59  N   UNL A   1      41.452  29.719  33.519  1.00  0.00    -0.248 NA
ATOM     60  C   UNL A   1      41.613  30.466  35.725  1.00  0.00     0.031 C 
ATOM     61  C   UNL A   1      44.315  26.924  31.606  1.00  0.00     0.029 A 
ATOM     62  C   UNL A   1      43.429  27.785  32.233  1.00  0.00     0.049 A 
ATOM     63  H   UNL A   1      41.645  28.633  31.490  1.00  0.00     0.167 HD
ATOM     64  C   UNL A   1      42.587  29.174  34.103  1.00  0.00     0.074 A 
ATOM     65  C   UNL A   1      42.654  29.691  35.454  1.00  0.00     0.031 C 
ATOM     66  C   UNL A   1      43.492  28.321  33.568  1.00  0.00     0.037 A 
BRANCH  53  67
ATOM     67  C   UNL A   1      42.154  26.514  27.826  1.00  0.00     0.064 A 
ATOM     68  C   UNL A   1      43.077  26.915  26.850  1.00  0.00     0.173 A 
ATOM     69  C   UNL A   1      41.604  25.227  27.724  1.00  0.00     0.173 A 
ATOM     70  F   UNL A   1      43.624  28.138  26.900  1.00  0.00    -0.203 F 
ATOM     71  C   UNL A   1      43.421  26.067  25.800  1.00  0.00     0.198 A 
ATOM     72  C   UNL A   1      41.969  24.373  26.687  1.00  0.00     0.198 A 
ATOM     73  F   UNL A   1      40.721  24.794  28.637  1.00  0.00    -0.203 F 
ATOM     74  F   UNL A   1      44.277  26.485  24.858  1.00  0.00    -0.200 F 
ATOM     75  C   UNL A   1      42.873  24.796  25.724  1.00  0.00     0.200 A 
ATOM     76  F   UNL A   1      41.448  23.140  26.621  1.00  0.00    -0.200 F 
ATOM     77  F   UNL A   1      43.213  23.978  24.718  1.00  0.00    -0.200 F 
ENDBRANCH  53  67
BRANCH  54  78
ATOM     78  C   UNL A   1      39.210  32.114  35.525  1.00  0.00     0.064 A 
ATOM     79  C   UNL A   1      39.626  33.441  35.703  1.00  0.00     0.173 A 
ATOM     80  C   UNL A   1      38.377  31.554  36.504  1.00  0.00     0.173 A 
ATOM     81  F   UNL A   1      40.442  34.011  34.805  1.00  0.00    -0.203 F 
ATOM     82  C   UNL A   1      39.247  34.170  36.828  1.00  0.00     0.198 A 
ATOM     83  C   UNL A   1      37.977  32.293  37.616  1.00  0.00     0.198 A 
ATOM     84  F   UNL A   1      37.947  30.290  36.379  1.00  0.00    -0.203 F 
ATOM     85  F   UNL A   1      39.702  35.418  36.999  1.00  0.00    -0.200 F 
ATOM     86  C   UNL A   1      38.421  33.596  37.782  1.00  0.00     0.200 A 
ATOM     87  F   UNL A   1      37.168  31.740  38.530  1.00  0.00    -0.200 F 
ATOM     88  F   UNL A   1      38.059  34.296  38.866  1.00  0.00    -0.200 F 
ENDBRANCH  54  78
BRANCH  66  89
ATOM     89  C   UNL A   1      44.657  27.923  34.426  1.00  0.00     0.064 A 
ATOM     90  C   UNL A   1      44.619  26.774  35.227  1.00  0.00     0.173 A 
ATOM     91  C   UNL A   1      45.839  28.678  34.408  1.00  0.00     0.173 A 
ATOM     92  F   UNL A   1      43.504  26.030  35.288  1.00  0.00    -0.203 F 
ATOM     93  C   UNL A   1      45.719  26.403  35.995  1.00  0.00     0.198 A 
ATOM     94  C   UNL A   1      46.946  28.291  35.158  1.00  0.00     0.198 A 
ATOM     95  F   UNL A   1      45.925  29.784  33.654  1.00  0.00    -0.203 F 
ATOM     96  F   UNL A   1      45.650  25.322  36.784  1.00  0.00    -0.200 F 
ATOM     97  C   UNL A   1      46.884  27.157  35.954  1.00  0.00     0.200 A 
ATOM     98  F   UNL A   1      48.073  29.013  35.110  1.00  0.00    -0.200 F 
ATOM     99  F   UNL A   1      47.945  26.793  36.688  1.00  0.00    -0.200 F 
ENDBRANCH  66  89
ENDBRANCH  40  41
ENDBRANCH  32  35
ENDBRANCH  30  31
ENDBRANCH  29  30
ENDBRANCH   1  29
TORSDOF 14
ENDMDL
MODEL 2
REMARK VINA RESULT:     -14.2      0.502      7.161
REMARK SMILES O=C(NCCCCNC(=O)c1ccc(-c2c3nc(c(-c4c(F)c(F)c(F)c(F)c4F)c4ccc([nH]4)c(-c4c(F)c(F)c(F)c(F)c4F)c4nc(c(-c5c(F)c(F)c(F)c(F)c5F)c5ccc2[nH]5)C=C4)C=C3)cc1)C1=Cc2c(ccc(Cl)c2Oc2ccccc2)O[C@H]1C(F)(F)F
REMARK SMILES IDX 5 1 4 2 3 3 1 4 2 5 74 7 75 8 91 9 76 10 90 11 77 12 82 13
REMARK SMILES IDX 78 14 80 15 79 16 81 17 92 18 93 19 94 20 95 21 83 22 84 23
REMARK SMILES IDX 85 24 89 25 86 26 88 27 87 28 6 29 7 30 8 31 9 32 10 34
REMARK SMILES IDX 11 35 12 36 73 37 13 38 72 39 14 40 15 41 16 42 66 43 17 44
REMARK SMILES IDX 71 45 65 46 67 47 18 48 70 49 64 50 63 51 19 53 51 54 31 55
REMARK SMILES IDX 50 56 32 57 35 58 49 59 68 60 33 61 34 62 48 64 69 65 36 66
REMARK SMILES IDX 20 67 21 68 29 69 22 70 23 71 27 72 30 73 24 74 25 75 28 76
REMARK SMILES IDX 26 77 52 78 53 79 61 80 54 81 55 82 59 83 62 84 56 85 57 86
REMARK SMILES IDX 60 87 58 88 37 89 38 90 46 91 39 92 40 93 44 94 47 95 41 96
REMARK SMILES IDX 42 97 45 98 43 99
REMARK H PARENT 3 6 8 33 67 52 35 63
REMARK Flexibility Score: inf
ROOT
ATOM      1  C   UNL A   1      32.316  27.782  26.810  1.00  0.00     0.023 C 
ENDROOT
BRANCH   1   2
ATOM      2  C   UNL A   1      31.499  26.690  26.124  1.00  0.00     0.116 C 
BRANCH   2   3
ATOM      3  N   UNL A   1      31.405  25.464  26.897  1.00  0.00    -0.352 N 
ATOM      4  O   UNL A   1      31.324  23.256  27.309  1.00  0.00    -0.270 OA
ATOM      5  C   UNL A   1      31.517  24.162  26.502  1.00  0.00     0.251 C 
ATOM      6  H   UNL A   1      31.235  25.592  27.858  1.00  0.00     0.163 HD
BRANCH   5   7
ATOM      7  C   UNL A   1      31.825  23.822  25.101  1.00  0.00     0.067 C 
ATOM      8  C   UNL A   1      32.147  22.571  24.751  1.00  0.00     0.029 C 
ATOM      9  C   UNL A   1      32.087  24.932  24.140  1.00  0.00     0.314 C 
ATOM     10  C   UNL A   1      33.571  22.489  24.339  1.00  0.00     0.061 A 
ATOM     11  O   UNL A   1      33.418  24.819  23.542  1.00  0.00    -0.475 OA
ATOM     12  C   UNL A   1      34.133  23.662  23.776  1.00  0.00     0.131 A 
ATOM     13  C   UNL A   1      34.397  21.391  24.683  1.00  0.00     0.156 A 
ATOM     14  C   UNL A   1      35.504  23.748  23.559  1.00  0.00     0.049 A 
ATOM     15  C   UNL A   1      35.786  21.528  24.499  1.00  0.00     0.084 A 
ATOM     16  C   UNL A   1      36.331  22.692  23.941  1.00  0.00     0.028 A 
ATOM     17  Cl  UNL A   1      36.888  20.306  25.034  1.00  0.00    -0.080 Cl
BRANCH   9  18
ATOM     18  C   UNL A   1      31.005  25.007  23.047  1.00  0.00     0.429 C 
ATOM     19  F   UNL A   1      30.131  23.976  23.106  1.00  0.00    -0.167 F 
ATOM     20  F   UNL A   1      30.280  26.146  23.156  1.00  0.00    -0.167 F 
ATOM     21  F   UNL A   1      31.545  24.990  21.803  1.00  0.00    -0.167 F 
ENDBRANCH   9  18
BRANCH  13  22
ATOM     22  O   UNL A   1      33.997  20.218  25.319  1.00  0.00    -0.455 OA
BRANCH  22  23
ATOM     23  C   UNL A   1      33.741  19.103  24.561  1.00  0.00     0.127 A 
ATOM     24  C   UNL A   1      32.662  19.139  23.674  1.00  0.00     0.047 A 
ATOM     25  C   UNL A   1      34.577  17.987  24.626  1.00  0.00     0.047 A 
ATOM     26  C   UNL A   1      32.500  18.106  22.750  1.00  0.00     0.004 A 
ATOM     27  C   UNL A   1      34.403  16.951  23.706  1.00  0.00     0.004 A 
ATOM     28  C   UNL A   1      33.382  17.024  22.755  1.00  0.00     0.000 A 
ENDBRANCH  22  23
ENDBRANCH  13  22
ENDBRANCH   5   7
ENDBRANCH   2   3
ENDBRANCH   1   2
BRANCH   1  29
ATOM     29  C   UNL A   1      31.746  29.189  26.656  1.00  0.00     0.023 C 
BRANCH  29  30
ATOM     30  C   UNL A   1      32.700  30.254  26.114  1.00  0.00     0.116 C 
BRANCH  30  31
ATOM     31  N   UNL A   1      32.556  31.568  26.723  1.00  0.00    -0.352 N 
ATOM     32  C   UNL A   1      33.440  32.247  27.542  1.00  0.00     0.251 C 
ATOM     33  H   UNL A   1      31.714  32.037  26.524  1.00  0.00     0.163 HD
ATOM     34  O   UNL A   1      33.150  33.336  28.000  1.00  0.00    -0.269 OA
BRANCH  32  35
ATOM     35  C   UNL A   1      34.721  31.595  27.913  1.00  0.00     0.039 A 
ATOM     36  C   UNL A   1      35.855  32.395  28.074  1.00  0.00     0.014 A 
ATOM     37  C   UNL A   1      34.776  30.229  28.193  1.00  0.00     0.014 A 
ATOM     38  C   UNL A   1      37.011  31.848  28.639  1.00  0.00     0.010 A 
ATOM     39  C   UNL A   1      35.904  29.703  28.821  1.00  0.00     0.010 A 
ATOM     40  C   UNL A   1      37.020  30.514  29.080  1.00  0.00    -0.014 A 
BRANCH  40  41
ATOM     41  C   UNL A   1      38.153  29.972  29.877  1.00  0.00     0.031 A 
ATOM     42  C   UNL A   1      38.376  30.423  31.292  1.00  0.00     0.074 A 
ATOM     43  C   UNL A   1      39.045  29.150  29.286  1.00  0.00     0.049 A 
ATOM     44  N   UNL A   1      39.363  30.142  32.105  1.00  0.00    -0.248 NA
ATOM     45  C   UNL A   1      37.371  31.334  31.861  1.00  0.00     0.031 C 
ATOM     46  C   UNL A   1      38.981  28.686  27.899  1.00  0.00     0.029 A 
ATOM     47  N   UNL A   1      40.194  28.574  29.772  1.00  0.00    -0.354 N 
ATOM     48  C   UNL A   1      39.114  30.860  33.266  1.00  0.00     0.074 A 
ATOM     49  C   UNL A   1      37.900  31.616  33.044  1.00  0.00     0.031 C 
ATOM     50  C   UNL A   1      40.032  27.887  27.651  1.00  0.00     0.029 A 
ATOM     51  C   UNL A   1      40.865  27.811  28.847  1.00  0.00     0.049 A 
ATOM     52  H   UNL A   1      40.508  28.697  30.698  1.00  0.00     0.167 HD
ATOM     53  C   UNL A   1      39.825  30.873  34.418  1.00  0.00     0.037 A 
ATOM     54  C   UNL A   1      42.026  27.133  28.947  1.00  0.00     0.037 A 
ATOM     55  C   UNL A   1      41.006  30.087  34.658  1.00  0.00     0.049 A 
ATOM     56  C   UNL A   1      42.779  27.148  30.248  1.00  0.00     0.074 A 
ATOM     57  C   UNL A   1      41.736  29.961  35.827  1.00  0.00     0.029 A 
ATOM     58  N   UNL A   1      41.630  29.292  33.709  1.00  0.00    -0.354 N 
ATOM     59  N   UNL A   1      42.482  27.758  31.369  1.00  0.00    -0.248 NA
ATOM     60  C   UNL A   1      44.030  26.376  30.300  1.00  0.00     0.031 C 
ATOM     61  C   UNL A   1      42.825  29.121  35.575  1.00  0.00     0.029 A 
ATOM     62  C   UNL A   1      42.751  28.691  34.261  1.00  0.00     0.049 A 
ATOM     63  H   UNL A   1      41.324  29.172  32.781  1.00  0.00     0.167 HD
ATOM     64  C   UNL A   1      43.486  27.421  32.265  1.00  0.00     0.074 A 
ATOM     65  C   UNL A   1      44.399  26.544  31.562  1.00  0.00     0.031 C 
ATOM     66  C   UNL A   1      43.639  27.805  33.555  1.00  0.00     0.037 A 
BRANCH  53  67
ATOM     67  C   UNL A   1      39.344  31.767  35.523  1.00  0.00     0.064 A 
ATOM     68  C   UNL A   1      38.434  31.315  36.489  1.00  0.00     0.173 A 
ATOM     69  C   UNL A   1      39.843  33.072  35.647  1.00  0.00     0.173 A 
ATOM     70  F   UNL A   1      37.922  30.078  36.408  1.00  0.00    -0.203 F 
ATOM     71  C   UNL A   1      38.024  32.145  37.530  1.00  0.00     0.198 A 
ATOM     72  C   UNL A   1      39.451  33.891  36.703  1.00  0.00     0.198 A 
ATOM     73  F   UNL A   1      40.721  33.549  34.752  1.00  0.00    -0.203 F 
ATOM     74  F   UNL A   1      37.126  31.705  38.421  1.00  0.00    -0.200 F 
ATOM     75  C   UNL A   1      38.539  33.428  37.640  1.00  0.00     0.200 A 
ATOM     76  F   UNL A   1      39.957  35.126  36.815  1.00  0.00    -0.200 F 
ATOM     77  F   UNL A   1      38.151  34.222  38.647  1.00  0.00    -0.200 F 
ENDBRANCH  53  67
BRANCH  54  78
ATOM     78  C   UNL A   1      42.545  26.365  27.785  1.00  0.00     0.064 A 
ATOM     79  C   UNL A   1      42.125  25.048  27.552  1.00  0.00     0.173 A 
ATOM     80  C   UNL A   1      43.486  26.916  26.905  1.00  0.00     0.173 A 
ATOM     81  F   UNL A   1      41.244  24.469  28.382  1.00  0.00    -0.203 F 
ATOM     82  C   UNL A   1      42.647  24.301  26.497  1.00  0.00     0.198 A 
ATOM     83  C   UNL A   1      43.987  26.177  25.834  1.00  0.00     0.198 A 
ATOM     84  F   UNL A   1      43.917  28.173  27.082  1.00  0.00    -0.203 F 
ATOM     85  F   UNL A   1      42.267  23.028  26.329  1.00  0.00    -0.200 F 
ATOM     86  C   UNL A   1      43.575  24.868  25.638  1.00  0.00     0.200 A 
ATOM     87  F   UNL A   1      44.876  26.732  24.998  1.00  0.00    -0.200 F 
ATOM     88  F   UNL A   1      44.079  24.150  24.625  1.00  0.00    -0.200 F 
ENDBRANCH  54  78
BRANCH  66  89
ATOM     89  C   UNL A   1      44.812  27.249  34.306  1.00  0.00     0.064 A 
ATOM     90  C   UNL A   1      44.738  26.021  34.977  1.00  0.00     0.173 A 
ATOM     91  C   UNL A   1      46.037  27.932  34.313  1.00  0.00     0.173 A 
ATOM     92  F   UNL A   1      43.583  25.339  35.011  1.00  0.00    -0.203 F 
ATOM     93  C   UNL A   1      45.845  25.504  35.645  1.00  0.00     0.198 A 
ATOM     94  C   UNL A   1      47.149  27.401  34.960  1.00  0.00     0.198 A 
ATOM     95  F   UNL A   1      46.159  29.109  33.681  1.00  0.00    -0.203 F 
ATOM     96  F   UNL A   1      45.742  24.347  36.313  1.00  0.00    -0.200 F 
ATOM     97  C   UNL A   1      47.051  26.190  35.630  1.00  0.00     0.200 A 
ATOM     98  F   UNL A   1      48.316  28.059  34.935  1.00  0.00    -0.200 F 
ATOM     99  F   UNL A   1      48.118  25.686  36.265  1.00  0.00    -0.200 F 
ENDBRANCH  66  89
ENDBRANCH  40  41
ENDBRANCH  32  35
ENDBRANCH  30  31
ENDBRANCH  29  30
ENDBRANCH   1  29
TORSDOF 14
ENDMDL
MODEL 3
REMARK VINA RESULT:     -14.1      4.354      7.358
REMARK SMILES O=C(NCCCCNC(=O)c1ccc(-c2c3nc(c(-c4c(F)c(F)c(F)c(F)c4F)c4ccc([nH]4)c(-c4c(F)c(F)c(F)c(F)c4F)c4nc(c(-c5c(F)c(F)c(F)c(F)c5F)c5ccc2[nH]5)C=C4)C=C3)cc1)C1=Cc2c(ccc(Cl)c2Oc2ccccc2)O[C@H]1C(F)(F)F
REMARK SMILES IDX 5 1 4 2 3 3 1 4 2 5 74 7 75 8 91 9 76 10 90 11 77 12 82 13
REMARK SMILES IDX 78 14 80 15 79 16 81 17 92 18 93 19 94 20 95 21 83 22 84 23
REMARK SMILES IDX 85 24 89 25 86 26 88 27 87 28 6 29 7 30 8 31 9 32 10 34
REMARK SMILES IDX 11 35 12 36 73 37 13 38 72 39 14 40 15 41 16 42 66 43 17 44
REMARK SMILES IDX 71 45 65 46 67 47 18 48 70 49 64 50 63 51 19 53 51 54 31 55
REMARK SMILES IDX 50 56 32 57 35 58 49 59 68 60 33 61 34 62 48 64 69 65 36 66
REMARK SMILES IDX 20 67 21 68 29 69 22 70 23 71 27 72 30 73 24 74 25 75 28 76
REMARK SMILES IDX 26 77 52 78 53 79 61 80 54 81 55 82 59 83 62 84 56 85 57 86
REMARK SMILES IDX 60 87 58 88 37 89 38 90 46 91 39 92 40 93 44 94 47 95 41 96
REMARK SMILES IDX 42 97 45 98 43 99
REMARK H PARENT 3 6 8 33 67 52 35 63
REMARK Flexibility Score: inf
ROOT
ATOM      1  C   UNL A   1      36.068  23.059  23.538  1.00  0.00     0.023 C 
ENDROOT
BRANCH   1   2
ATOM      2  C   UNL A   1      34.749  23.748  23.193  1.00  0.00     0.116 C 
BRANCH   2   3
ATOM      3  N   UNL A   1      33.713  22.830  22.752  1.00  0.00    -0.352 N 
ATOM      4  O   UNL A   1      31.736  21.761  22.742  1.00  0.00    -0.270 OA
ATOM      5  C   UNL A   1      32.436  22.658  23.204  1.00  0.00     0.251 C 
ATOM      6  H   UNL A   1      33.973  22.240  22.008  1.00  0.00     0.163 HD
BRANCH   5   7
ATOM      7  C   UNL A   1      31.894  23.512  24.278  1.00  0.00     0.067 C 
ATOM      8  C   UNL A   1      31.281  24.666  23.995  1.00  0.00     0.029 C 
ATOM      9  C   UNL A   1      32.313  23.240  25.683  1.00  0.00     0.314 C 
ATOM     10  C   UNL A   1      32.091  25.821  24.459  1.00  0.00     0.061 A 
ATOM     11  O   UNL A   1      32.963  24.406  26.282  1.00  0.00    -0.475 OA
ATOM     12  C   UNL A   1      32.924  25.595  25.583  1.00  0.00     0.131 A 
ATOM     13  C   UNL A   1      32.210  27.015  23.706  1.00  0.00     0.156 A 
ATOM     14  C   UNL A   1      33.870  26.545  25.957  1.00  0.00     0.049 A 
ATOM     15  C   UNL A   1      33.211  27.932  24.078  1.00  0.00     0.084 A 
ATOM     16  C   UNL A   1      34.029  27.699  25.192  1.00  0.00     0.028 A 
ATOM     17  Cl  UNL A   1      33.537  29.341  23.127  1.00  0.00    -0.080 Cl
BRANCH   9  18
ATOM     18  C   UNL A   1      31.130  22.772  26.550  1.00  0.00     0.429 C 
ATOM     19  F   UNL A   1      30.366  21.842  25.932  1.00  0.00    -0.167 F 
ATOM     20  F   UNL A   1      31.563  22.220  27.709  1.00  0.00    -0.167 F 
ATOM     21  F   UNL A   1      30.308  23.800  26.876  1.00  0.00    -0.167 F 
ENDBRANCH   9  18
BRANCH  13  22
ATOM     22  O   UNL A   1      31.523  27.330  22.536  1.00  0.00    -0.455 OA
BRANCH  22  23
ATOM     23  C   UNL A   1      30.388  28.097  22.615  1.00  0.00     0.127 A 
ATOM     24  C   UNL A   1      30.393  29.352  22.001  1.00  0.00     0.047 A 
ATOM     25  C   UNL A   1      29.236  27.608  23.233  1.00  0.00     0.047 A 
ATOM     26  C   UNL A   1      29.199  30.065  21.888  1.00  0.00     0.004 A 
ATOM     27  C   UNL A   1      28.046  28.331  23.126  1.00  0.00     0.004 A 
ATOM     28  C   UNL A   1      28.025  29.544  22.433  1.00  0.00     0.000 A 
ENDBRANCH  22  23
ENDBRANCH  13  22
ENDBRANCH   5   7
ENDBRANCH   2   3
ENDBRANCH   1   2
BRANCH   1  29
ATOM     29  C   UNL A   1      35.921  21.796  24.380  1.00  0.00     0.023 C 
BRANCH  29  30
ATOM     30  C   UNL A   1      36.724  21.750  25.680  1.00  0.00     0.116 C 
BRANCH  30  31
ATOM     31  N   UNL A   1      37.889  20.878  25.646  1.00  0.00    -0.352 N 
ATOM     32  C   UNL A   1      39.177  21.131  26.084  1.00  0.00     0.251 C 
ATOM     33  H   UNL A   1      37.739  19.986  25.258  1.00  0.00     0.163 HD
ATOM     34  O   UNL A   1      40.054  20.298  25.949  1.00  0.00    -0.269 OA
BRANCH  32  35
ATOM     35  C   UNL A   1      39.492  22.465  26.654  1.00  0.00     0.039 A 
ATOM     36  C   UNL A   1      40.492  22.556  27.626  1.00  0.00     0.014 A 
ATOM     37  C   UNL A   1      38.877  23.618  26.166  1.00  0.00     0.014 A 
ATOM     38  C   UNL A   1      40.965  23.812  28.014  1.00  0.00     0.010 A 
ATOM     39  C   UNL A   1      39.398  24.867  26.500  1.00  0.00     0.010 A 
ATOM     40  C   UNL A   1      40.468  24.976  27.402  1.00  0.00    -0.014 A 
BRANCH  40  41
ATOM     41  C   UNL A   1      41.101  26.301  27.635  1.00  0.00     0.031 A 
ATOM     42  C   UNL A   1      42.506  26.568  27.177  1.00  0.00     0.074 A 
ATOM     43  C   UNL A   1      40.443  27.232  28.357  1.00  0.00     0.049 A 
ATOM     44  N   UNL A   1      43.258  27.620  27.380  1.00  0.00    -0.248 NA
ATOM     45  C   UNL A   1      43.165  25.498  26.413  1.00  0.00     0.031 C 
ATOM     46  C   UNL A   1      39.098  27.077  28.915  1.00  0.00     0.029 A 
ATOM     47  N   UNL A   1      40.823  28.489  28.762  1.00  0.00    -0.354 N 
ATOM     48  C   UNL A   1      44.482  27.330  26.796  1.00  0.00     0.074 A 
ATOM     49  C   UNL A   1      44.387  25.990  26.257  1.00  0.00     0.031 C 
ATOM     50  C   UNL A   1      38.761  28.197  29.575  1.00  0.00     0.029 A 
ATOM     51  C   UNL A   1      39.877  29.136  29.520  1.00  0.00     0.049 A 
ATOM     52  H   UNL A   1      41.694  28.888  28.530  1.00  0.00     0.167 HD
ATOM     53  C   UNL A   1      45.581  28.117  26.703  1.00  0.00     0.037 A 
ATOM     54  C   UNL A   1      39.909  30.346  30.113  1.00  0.00     0.037 A 
ATOM     55  C   UNL A   1      45.662  29.466  27.196  1.00  0.00     0.049 A 
ATOM     56  C   UNL A   1      41.134  31.206  29.971  1.00  0.00     0.074 A 
ATOM     57  C   UNL A   1      46.698  30.373  27.061  1.00  0.00     0.029 A 
ATOM     58  N   UNL A   1      44.666  30.102  27.922  1.00  0.00    -0.354 N 
ATOM     59  N   UNL A   1      42.252  30.954  29.335  1.00  0.00    -0.248 NA
ATOM     60  C   UNL A   1      41.101  32.523  30.626  1.00  0.00     0.031 C 
ATOM     61  C   UNL A   1      46.347  31.545  27.738  1.00  0.00     0.029 A 
ATOM     62  C   UNL A   1      45.074  31.382  28.261  1.00  0.00     0.049 A 
ATOM     63  H   UNL A   1      43.798  29.704  28.161  1.00  0.00     0.167 HD
ATOM     64  C   UNL A   1      43.040  32.087  29.486  1.00  0.00     0.074 A 
ATOM     65  C   UNL A   1      42.270  33.033  30.266  1.00  0.00     0.031 C 
ATOM     66  C   UNL A   1      44.290  32.320  29.021  1.00  0.00     0.037 A 
BRANCH  53  67
ATOM     67  C   UNL A   1      46.794  27.542  26.034  1.00  0.00     0.064 A 
ATOM     68  C   UNL A   1      46.985  27.640  24.648  1.00  0.00     0.173 A 
ATOM     69  C   UNL A   1      47.804  26.937  26.797  1.00  0.00     0.173 A 
ATOM     70  F   UNL A   1      46.044  28.203  23.876  1.00  0.00    -0.203 F 
ATOM     71  C   UNL A   1      48.134  27.135  24.047  1.00  0.00     0.198 A 
ATOM     72  C   UNL A   1      48.963  26.455  26.195  1.00  0.00     0.198 A 
ATOM     73  F   UNL A   1      47.673  26.824  28.127  1.00  0.00    -0.203 F 
ATOM     74  F   UNL A   1      48.278  27.206  22.717  1.00  0.00    -0.200 F 
ATOM     75  C   UNL A   1      49.125  26.550  24.821  1.00  0.00     0.200 A 
ATOM     76  F   UNL A   1      49.925  25.900  26.945  1.00  0.00    -0.200 F 
ATOM     77  F   UNL A   1      50.235  26.072  24.241  1.00  0.00    -0.200 F 
ENDBRANCH  53  67
BRANCH  54  78
ATOM     78  C   UNL A   1      38.735  30.830  30.885  1.00  0.00     0.064 A 
ATOM     79  C   UNL A   1      37.671  31.478  30.241  1.00  0.00     0.173 A 
ATOM     80  C   UNL A   1      38.662  30.683  32.277  1.00  0.00     0.173 A 
ATOM     81  F   UNL A   1      37.706  31.664  28.914  1.00  0.00    -0.203 F 
ATOM     82  C   UNL A   1      36.592  31.983  30.964  1.00  0.00     0.198 A 
ATOM     83  C   UNL A   1      37.570  31.165  32.996  1.00  0.00     0.198 A 
ATOM     84  F   UNL A   1      39.652  30.067  32.941  1.00  0.00    -0.203 F 
ATOM     85  F   UNL A   1      35.614  32.644  30.329  1.00  0.00    -0.200 F 
ATOM     86  C   UNL A   1      36.541  31.823  32.340  1.00  0.00     0.200 A 
ATOM     87  F   UNL A   1      37.517  30.998  34.325  1.00  0.00    -0.200 F 
ATOM     88  F   UNL A   1      35.504  32.311  33.035  1.00  0.00    -0.200 F 
ENDBRANCH  54  78
BRANCH  66  89
ATOM     89  C   UNL A   1      44.892  33.665  29.305  1.00  0.00     0.064 A 
ATOM     90  C   UNL A   1      45.684  33.890  30.438  1.00  0.00     0.173 A 
ATOM     91  C   UNL A   1      44.708  34.726  28.406  1.00  0.00     0.173 A 
ATOM     92  F   UNL A   1      45.874  32.910  31.335  1.00  0.00    -0.203 F 
ATOM     93  C   UNL A   1      46.259  35.136  30.672  1.00  0.00     0.198 A 
ATOM     94  C   UNL A   1      45.306  35.963  28.628  1.00  0.00     0.198 A 
ATOM     95  F   UNL A   1      43.962  34.558  27.304  1.00  0.00    -0.203 F 
ATOM     96  F   UNL A   1      46.982  35.342  31.781  1.00  0.00    -0.200 F 
ATOM     97  C   UNL A   1      46.076  36.169  29.764  1.00  0.00     0.200 A 
ATOM     98  F   UNL A   1      45.137  36.957  27.746  1.00  0.00    -0.200 F 
ATOM     99  F   UNL A   1      46.637  37.365  29.985  1.00  0.00    -0.200 F 
ENDBRANCH  66  89
ENDBRANCH  40  41
ENDBRANCH  32  35
ENDBRANCH  30  31
ENDBRANCH  29  30
ENDBRANCH   1  29
TORSDOF 14
ENDMDL
