MODEL 1
REMARK VINA RESULT:     -13.5      0.000      0.000
REMARK SMILES Cc1cc(O[C@@H](C)C(=O)NCCC(=O)NCCCCNC(=O)c2ccc(-c3c4nc(c(-c5c(F)c(F)c(F)c(F)c5F)c5ccc([nH]5)c(-c5c(F)c(F)c(F)c(F)c5F)c5nc(c(-c6c(F)c(F)c(F)c(F)c6F)c6ccc3[nH]6)C=C5)C=C4)cc2)c2c3c(c(=O)oc2c1)CCCC3
REMARK SMILES IDX 16 1 15 2 13 3 14 4 12 6 11 7 10 8 8 9 9 10 6 12 7 13 5 14
REMARK SMILES IDX 4 15 1 16 2 17 3 18 93 19 92 20 86 21 91 22 87 23 89 24
REMARK SMILES IDX 88 25 97 26 90 27 94 28 96 29 95 30 17 31 18 32 19 33 20 34
REMARK SMILES IDX 21 35 22 37 23 38 24 39 85 40 25 41 84 42 26 43 27 44 28 45
REMARK SMILES IDX 78 46 29 47 83 48 77 49 79 50 30 51 82 52 76 53 75 54 31 56
REMARK SMILES IDX 63 57 43 58 62 59 44 60 47 61 61 62 80 63 45 64 46 65 60 67
REMARK SMILES IDX 81 68 48 69 32 70 33 71 41 72 34 73 35 74 39 75 42 76 36 77
REMARK SMILES IDX 37 78 40 79 38 80 64 81 65 82 73 83 66 84 67 85 71 86 74 87
REMARK SMILES IDX 68 88 69 89 72 90 70 91 49 92 50 93 58 94 51 95 52 96 56 97
REMARK SMILES IDX 59 98 53 99 54 100 57 101 55 102
REMARK H PARENT 15 5 10 11 20 36 79 55 47 66
REMARK Flexibility Score: inf
ROOT
ATOM      1  C   UNL A   1      33.327  26.925  24.911  1.00  0.00     0.116 C 
ENDROOT
BRANCH   1   2
ATOM      2  N   UNL A   1      33.924  25.980  23.996  1.00  0.00    -0.356 N 
ATOM      3  C   UNL A   1      33.293  25.098  23.173  1.00  0.00     0.221 C 
ATOM      4  O   UNL A   1      33.968  24.251  22.587  1.00  0.00    -0.275 OA
ATOM      5  H   UNL A   1      34.908  25.972  23.963  1.00  0.00     0.163 HD
BRANCH   3   6
ATOM      6  C   UNL A   1      31.794  25.179  22.979  1.00  0.00     0.121 C 
BRANCH   6   7
ATOM      7  C   UNL A   1      31.014  24.071  23.688  1.00  0.00     0.126 C 
BRANCH   7   8
ATOM      8  N   UNL A   1      30.902  24.305  25.121  1.00  0.00    -0.352 N 
ATOM      9  C   UNL A   1      31.163  23.547  26.212  1.00  0.00     0.260 C 
ATOM     10  O   UNL A   1      30.476  23.815  27.207  1.00  0.00    -0.271 OA
ATOM     11  H   UNL A   1      30.566  25.202  25.342  1.00  0.00     0.163 HD
BRANCH   9  12
ATOM     12  C   UNL A   1      32.330  22.537  26.316  1.00  0.00     0.258 C 
ATOM     13  C   UNL A   1      32.924  22.525  27.724  1.00  0.00     0.064 C 
BRANCH  12  14
ATOM     14  O   UNL A   1      33.237  22.211  25.279  1.00  0.00    -0.480 OA
BRANCH  14  15
ATOM     15  C   UNL A   1      33.669  20.955  24.996  1.00  0.00     0.132 A 
ATOM     16  C   UNL A   1      32.191  17.607  23.938  1.00  0.00     0.044 C 
ATOM     17  C   UNL A   1      33.200  18.669  24.260  1.00  0.00    -0.044 A 
ATOM     18  C   UNL A   1      32.788  19.985  24.499  1.00  0.00     0.050 A 
ATOM     19  C   UNL A   1      34.540  18.354  24.438  1.00  0.00     0.051 A 
ATOM     20  C   UNL A   1      35.439  19.356  24.807  1.00  0.00     0.142 A 
ATOM     21  C   UNL A   1      35.053  20.674  25.086  1.00  0.00     0.063 A 
ATOM     22  O   UNL A   1      36.779  18.939  24.865  1.00  0.00    -0.422 OA
ATOM     23  C   UNL A   1      36.137  21.641  25.417  1.00  0.00    -0.023 A 
ATOM     24  C   UNL A   1      37.807  19.834  25.073  1.00  0.00     0.339 A 
ATOM     25  C   UNL A   1      37.423  21.229  25.390  1.00  0.00     0.042 A 
ATOM     26  C   UNL A   1      35.805  23.087  25.730  1.00  0.00     0.037 C 
ATOM     27  O   UNL A   1      38.980  19.478  25.013  1.00  0.00    -0.246 OA
ATOM     28  C   UNL A   1      38.598  22.134  25.674  1.00  0.00     0.043 C 
ATOM     29  C   UNL A   1      36.997  24.048  25.718  1.00  0.00     0.005 C 
ATOM     30  C   UNL A   1      38.217  23.432  26.375  1.00  0.00     0.005 C 
ENDBRANCH  14  15
ENDBRANCH  12  14
ENDBRANCH   9  12
ENDBRANCH   7   8
ENDBRANCH   6   7
ENDBRANCH   3   6
ENDBRANCH   1   2
BRANCH   1  31
ATOM     31  C   UNL A   1      33.400  28.340  24.337  1.00  0.00     0.023 C 
BRANCH  31  32
ATOM     32  C   UNL A   1      32.429  29.340  24.934  1.00  0.00     0.023 C 
BRANCH  32  33
ATOM     33  C   UNL A   1      32.648  29.618  26.404  1.00  0.00     0.116 C 
BRANCH  33  34
ATOM     34  N   UNL A   1      32.337  30.982  26.815  1.00  0.00    -0.352 N 
ATOM     35  C   UNL A   1      33.205  31.888  27.390  1.00  0.00     0.251 C 
ATOM     36  H   UNL A   1      31.413  31.288  26.666  1.00  0.00     0.163 HD
ATOM     37  O   UNL A   1      32.852  33.005  27.726  1.00  0.00    -0.269 OA
BRANCH  35  38
ATOM     38  C   UNL A   1      34.575  31.408  27.641  1.00  0.00     0.039 A 
ATOM     39  C   UNL A   1      34.766  30.058  27.934  1.00  0.00     0.014 A 
ATOM     40  C   UNL A   1      35.580  32.351  27.861  1.00  0.00     0.014 A 
ATOM     41  C   UNL A   1      35.891  29.687  28.652  1.00  0.00     0.010 A 
ATOM     42  C   UNL A   1      36.760  31.948  28.481  1.00  0.00     0.010 A 
ATOM     43  C   UNL A   1      36.897  30.628  28.939  1.00  0.00    -0.014 A 
BRANCH  43  44
ATOM     44  C   UNL A   1      38.079  30.212  29.732  1.00  0.00     0.031 A 
ATOM     45  C   UNL A   1      39.148  29.336  29.134  1.00  0.00     0.074 A 
ATOM     46  C   UNL A   1      38.206  30.675  30.989  1.00  0.00     0.049 A 
ATOM     47  N   UNL A   1      40.191  28.798  29.715  1.00  0.00    -0.248 NA
ATOM     48  C   UNL A   1      39.034  29.019  27.701  1.00  0.00     0.031 C 
ATOM     49  C   UNL A   1      37.255  31.565  31.656  1.00  0.00     0.029 A 
ATOM     50  N   UNL A   1      39.196  30.489  31.917  1.00  0.00    -0.354 N 
ATOM     51  C   UNL A   1      40.829  28.047  28.736  1.00  0.00     0.074 A 
ATOM     52  C   UNL A   1      40.059  28.198  27.520  1.00  0.00     0.031 C 
ATOM     53  C   UNL A   1      37.737  31.903  32.859  1.00  0.00     0.029 A 
ATOM     54  C   UNL A   1      38.979  31.174  33.086  1.00  0.00     0.049 A 
ATOM     55  H   UNL A   1      39.984  29.920  31.761  1.00  0.00     0.167 HD
ATOM     56  C   UNL A   1      41.954  27.301  28.850  1.00  0.00     0.037 A 
ATOM     57  C   UNL A   1      39.683  31.188  34.231  1.00  0.00     0.037 A 
ATOM     58  C   UNL A   1      42.732  27.192  30.058  1.00  0.00     0.049 A 
ATOM     59  C   UNL A   1      40.901  30.324  34.342  1.00  0.00     0.074 A 
ATOM     60  C   UNL A   1      43.886  26.459  30.281  1.00  0.00     0.029 A 
ATOM     61  N   UNL A   1      42.443  27.851  31.245  1.00  0.00    -0.354 N 
ATOM     62  N   UNL A   1      41.452  29.557  33.433  1.00  0.00    -0.248 NA
ATOM     63  C   UNL A   1      41.576  30.304  35.644  1.00  0.00     0.031 C 
ATOM     64  C   UNL A   1      44.278  26.651  31.610  1.00  0.00     0.029 A 
ATOM     65  C   UNL A   1      43.391  27.534  32.205  1.00  0.00     0.049 A 
ATOM     66  H   UNL A   1      41.679  28.454  31.384  1.00  0.00     0.167 HD
ATOM     67  C   UNL A   1      42.535  28.955  34.053  1.00  0.00     0.074 A 
ATOM     68  C   UNL A   1      42.581  29.470  35.407  1.00  0.00     0.031 C 
ATOM     69  C   UNL A   1      43.406  28.048  33.550  1.00  0.00     0.037 A 
BRANCH  56  70
ATOM     70  C   UNL A   1      42.409  26.520  27.653  1.00  0.00     0.064 A 
ATOM     71  C   UNL A   1      43.394  27.010  26.783  1.00  0.00     0.173 A 
ATOM     72  C   UNL A   1      41.904  25.232  27.414  1.00  0.00     0.173 A 
ATOM     73  F   UNL A   1      43.899  28.240  26.959  1.00  0.00    -0.203 F 
ATOM     74  C   UNL A   1      43.852  26.240  25.715  1.00  0.00     0.198 A 
ATOM     75  C   UNL A   1      42.379  24.458  26.359  1.00  0.00     0.198 A 
ATOM     76  F   UNL A   1      40.963  24.716  28.219  1.00  0.00    -0.203 F 
ATOM     77  F   UNL A   1      44.776  26.738  24.880  1.00  0.00    -0.200 F 
ATOM     78  C   UNL A   1      43.351  24.963  25.509  1.00  0.00     0.200 A 
ATOM     79  F   UNL A   1      41.901  23.221  26.167  1.00  0.00    -0.200 F 
ATOM     80  F   UNL A   1      43.803  24.221  24.488  1.00  0.00    -0.200 F 
ENDBRANCH  56  70
BRANCH  57  81
ATOM     81  C   UNL A   1      39.215  32.029  35.359  1.00  0.00     0.064 A 
ATOM     82  C   UNL A   1      38.445  31.478  36.390  1.00  0.00     0.173 A 
ATOM     83  C   UNL A   1      39.583  33.379  35.463  1.00  0.00     0.173 A 
ATOM     84  F   UNL A   1      38.055  30.197  36.324  1.00  0.00    -0.203 F 
ATOM     85  C   UNL A   1      38.064  32.247  37.488  1.00  0.00     0.198 A 
ATOM     86  C   UNL A   1      39.226  34.138  36.573  1.00  0.00     0.198 A 
ATOM     87  F   UNL A   1      40.328  33.948  34.503  1.00  0.00    -0.203 F 
ATOM     88  F   UNL A   1      37.311  31.702  38.454  1.00  0.00    -0.200 F 
ATOM     89  C   UNL A   1      38.464  33.572  37.584  1.00  0.00     0.200 A 
ATOM     90  F   UNL A   1      39.634  35.410  36.672  1.00  0.00    -0.200 F 
ATOM     91  F   UNL A   1      38.118  34.302  38.652  1.00  0.00    -0.200 F 
ENDBRANCH  57  81
BRANCH  69  92
ATOM     92  C   UNL A   1      44.477  27.557  34.473  1.00  0.00     0.064 A 
ATOM     93  C   UNL A   1      44.301  26.392  35.235  1.00  0.00     0.173 A 
ATOM     94  C   UNL A   1      45.698  28.237  34.577  1.00  0.00     0.173 A 
ATOM     95  F   UNL A   1      43.142  25.718  35.180  1.00  0.00    -0.203 F 
ATOM     96  C   UNL A   1      45.306  25.936  36.083  1.00  0.00     0.198 A 
ATOM     97  C   UNL A   1      46.709  27.766  35.409  1.00  0.00     0.198 A 
ATOM     98  F   UNL A   1      45.911  29.354  33.864  1.00  0.00    -0.203 F 
ATOM     99  F   UNL A   1      45.103  24.843  36.831  1.00  0.00    -0.200 F 
ATOM    100  C   UNL A   1      46.510  26.620  36.166  1.00  0.00     0.200 A 
ATOM    101  F   UNL A   1      47.875  28.423  35.483  1.00  0.00    -0.200 F 
ATOM    102  F   UNL A   1      47.477  26.179  36.980  1.00  0.00    -0.200 F 
ENDBRANCH  69  92
ENDBRANCH  43  44
ENDBRANCH  35  38
ENDBRANCH  33  34
ENDBRANCH  32  33
ENDBRANCH  31  32
ENDBRANCH   1  31
TORSDOF 16
ENDMDL
MODEL 2
REMARK VINA RESULT:     -13.0      2.909      7.629
REMARK SMILES Cc1cc(O[C@@H](C)C(=O)NCCC(=O)NCCCCNC(=O)c2ccc(-c3c4nc(c(-c5c(F)c(F)c(F)c(F)c5F)c5ccc([nH]5)c(-c5c(F)c(F)c(F)c(F)c5F)c5nc(c(-c6c(F)c(F)c(F)c(F)c6F)c6ccc3[nH]6)C=C5)C=C4)cc2)c2c3c(c(=O)oc2c1)CCCC3
REMARK SMILES IDX 16 1 15 2 13 3 14 4 12 6 11 7 10 8 8 9 9 10 6 12 7 13 5 14
REMARK SMILES IDX 4 15 1 16 2 17 3 18 93 19 92 20 86 21 91 22 87 23 89 24
REMARK SMILES IDX 88 25 97 26 90 27 94 28 96 29 95 30 17 31 18 32 19 33 20 34
REMARK SMILES IDX 21 35 22 37 23 38 24 39 85 40 25 41 84 42 26 43 27 44 28 45
REMARK SMILES IDX 78 46 29 47 83 48 77 49 79 50 30 51 82 52 76 53 75 54 31 56
REMARK SMILES IDX 63 57 43 58 62 59 44 60 47 61 61 62 80 63 45 64 46 65 60 67
REMARK SMILES IDX 81 68 48 69 32 70 33 71 41 72 34 73 35 74 39 75 42 76 36 77
REMARK SMILES IDX 37 78 40 79 38 80 64 81 65 82 73 83 66 84 67 85 71 86 74 87
REMARK SMILES IDX 68 88 69 89 72 90 70 91 49 92 50 93 58 94 51 95 52 96 56 97
REMARK SMILES IDX 59 98 53 99 54 100 57 101 55 102
REMARK H PARENT 15 5 10 11 20 36 79 55 47 66
REMARK Flexibility Score: inf
ROOT
ATOM      1  C   UNL A   1      31.422  27.086  25.636  1.00  0.00     0.116 C 
ENDROOT
BRANCH   1   2
ATOM      2  N   UNL A   1      32.408  26.956  24.589  1.00  0.00    -0.356 N 
ATOM      3  C   UNL A   1      32.338  26.194  23.463  1.00  0.00     0.221 C 
ATOM      4  O   UNL A   1      33.346  26.077  22.765  1.00  0.00    -0.275 OA
ATOM      5  H   UNL A   1      33.233  27.482  24.703  1.00  0.00     0.163 HD
BRANCH   3   6
ATOM      6  C   UNL A   1      31.035  25.526  23.078  1.00  0.00     0.121 C 
BRANCH   6   7
ATOM      7  C   UNL A   1      31.051  24.004  23.221  1.00  0.00     0.126 C 
BRANCH   7   8
ATOM      8  N   UNL A   1      30.550  23.566  24.515  1.00  0.00    -0.352 N 
ATOM      9  C   UNL A   1      31.053  22.771  25.489  1.00  0.00     0.260 C 
ATOM     10  O   UNL A   1      30.203  22.181  26.170  1.00  0.00    -0.271 OA
ATOM     11  H   UNL A   1      29.658  23.922  24.727  1.00  0.00     0.163 HD
BRANCH   9  12
ATOM     12  C   UNL A   1      32.549  22.705  25.877  1.00  0.00     0.258 C 
ATOM     13  C   UNL A   1      32.907  23.807  26.874  1.00  0.00     0.064 C 
BRANCH  12  14
ATOM     14  O   UNL A   1      33.607  22.295  25.031  1.00  0.00    -0.480 OA
BRANCH  14  15
ATOM     15  C   UNL A   1      33.976  21.005  24.825  1.00  0.00     0.132 A 
ATOM     16  C   UNL A   1      32.359  17.706  23.816  1.00  0.00     0.044 C 
ATOM     17  C   UNL A   1      33.412  18.720  24.155  1.00  0.00    -0.044 A 
ATOM     18  C   UNL A   1      33.068  20.068  24.316  1.00  0.00     0.050 A 
ATOM     19  C   UNL A   1      34.717  18.335  24.426  1.00  0.00     0.051 A 
ATOM     20  C   UNL A   1      35.653  19.298  24.808  1.00  0.00     0.142 A 
ATOM     21  C   UNL A   1      35.333  20.647  25.009  1.00  0.00     0.063 A 
ATOM     22  O   UNL A   1      36.960  18.806  24.963  1.00  0.00    -0.422 OA
ATOM     23  C   UNL A   1      36.454  21.563  25.366  1.00  0.00    -0.023 A 
ATOM     24  C   UNL A   1      38.027  19.647  25.196  1.00  0.00     0.339 A 
ATOM     25  C   UNL A   1      37.711  21.075  25.433  1.00  0.00     0.042 A 
ATOM     26  C   UNL A   1      36.193  23.038  25.599  1.00  0.00     0.037 C 
ATOM     27  O   UNL A   1      39.177  19.221  25.222  1.00  0.00    -0.246 OA
ATOM     28  C   UNL A   1      38.921  21.921  25.751  1.00  0.00     0.043 C 
ATOM     29  C   UNL A   1      37.440  23.926  25.621  1.00  0.00     0.005 C 
ATOM     30  C   UNL A   1      38.580  23.269  26.374  1.00  0.00     0.005 C 
ENDBRANCH  14  15
ENDBRANCH  12  14
ENDBRANCH   9  12
ENDBRANCH   7   8
ENDBRANCH   6   7
ENDBRANCH   3   6
ENDBRANCH   1   2
BRANCH   1  31
ATOM     31  C   UNL A   1      31.638  28.386  26.412  1.00  0.00     0.023 C 
BRANCH  31  32
ATOM     32  C   UNL A   1      32.769  28.368  27.420  1.00  0.00     0.023 C 
BRANCH  32  33
ATOM     33  C   UNL A   1      33.919  29.289  27.082  1.00  0.00     0.116 C 
BRANCH  33  34
ATOM     34  N   UNL A   1      33.962  30.518  27.867  1.00  0.00    -0.352 N 
ATOM     35  C   UNL A   1      35.024  30.980  28.617  1.00  0.00     0.251 C 
ATOM     36  H   UNL A   1      33.150  31.074  27.859  1.00  0.00     0.163 HD
ATOM     37  O   UNL A   1      34.965  32.011  29.264  1.00  0.00    -0.269 OA
BRANCH  35  38
ATOM     38  C   UNL A   1      36.221  30.122  28.649  1.00  0.00     0.039 A 
ATOM     39  C   UNL A   1      36.494  29.401  29.811  1.00  0.00     0.014 A 
ATOM     40  C   UNL A   1      37.179  30.280  27.646  1.00  0.00     0.014 A 
ATOM     41  C   UNL A   1      37.802  29.021  30.065  1.00  0.00     0.010 A 
ATOM     42  C   UNL A   1      38.466  29.792  27.860  1.00  0.00     0.010 A 
ATOM     43  C   UNL A   1      38.803  29.218  29.096  1.00  0.00    -0.014 A 
BRANCH  43  44
ATOM     44  C   UNL A   1      40.201  28.827  29.403  1.00  0.00     0.031 A 
ATOM     45  C   UNL A   1      41.055  29.653  30.326  1.00  0.00     0.074 A 
ATOM     46  C   UNL A   1      40.680  27.684  28.877  1.00  0.00     0.049 A 
ATOM     47  N   UNL A   1      42.323  29.513  30.621  1.00  0.00    -0.248 NA
ATOM     48  C   UNL A   1      40.407  30.787  31.007  1.00  0.00     0.031 C 
ATOM     49  C   UNL A   1      39.927  26.781  28.004  1.00  0.00     0.029 A 
ATOM     50  N   UNL A   1      41.896  27.072  29.021  1.00  0.00    -0.354 N 
ATOM     51  C   UNL A   1      42.635  30.558  31.480  1.00  0.00     0.074 A 
ATOM     52  C   UNL A   1      41.423  31.329  31.665  1.00  0.00     0.031 C 
ATOM     53  C   UNL A   1      40.671  25.699  27.745  1.00  0.00     0.029 A 
ATOM     54  C   UNL A   1      41.986  25.879  28.348  1.00  0.00     0.049 A 
ATOM     55  H   UNL A   1      42.633  27.450  29.553  1.00  0.00     0.167 HD
ATOM     56  C   UNL A   1      43.827  30.844  32.057  1.00  0.00     0.037 A 
ATOM     57  C   UNL A   1      43.024  25.038  28.200  1.00  0.00     0.037 A 
ATOM     58  C   UNL A   1      45.015  30.045  31.895  1.00  0.00     0.049 A 
ATOM     59  C   UNL A   1      44.340  25.398  28.818  1.00  0.00     0.074 A 
ATOM     60  C   UNL A   1      46.275  30.249  32.433  1.00  0.00     0.029 A 
ATOM     61  N   UNL A   1      45.085  28.876  31.150  1.00  0.00    -0.354 N 
ATOM     62  N   UNL A   1      44.643  26.431  29.565  1.00  0.00    -0.248 NA
ATOM     63  C   UNL A   1      45.463  24.494  28.547  1.00  0.00     0.031 C 
ATOM     64  C   UNL A   1      47.113  29.220  31.990  1.00  0.00     0.029 A 
ATOM     65  C   UNL A   1      46.367  28.354  31.207  1.00  0.00     0.049 A 
ATOM     66  H   UNL A   1      44.334  28.476  30.656  1.00  0.00     0.167 HD
ATOM     67  C   UNL A   1      45.994  26.308  29.849  1.00  0.00     0.074 A 
ATOM     68  C   UNL A   1      46.443  25.083  29.218  1.00  0.00     0.031 C 
ATOM     69  C   UNL A   1      46.793  27.141  30.558  1.00  0.00     0.037 A 
BRANCH  56  70
ATOM     70  C   UNL A   1      43.926  32.081  32.901  1.00  0.00     0.064 A 
ATOM     71  C   UNL A   1      43.745  32.043  34.290  1.00  0.00     0.173 A 
ATOM     72  C   UNL A   1      44.278  33.308  32.318  1.00  0.00     0.173 A 
ATOM     73  F   UNL A   1      43.394  30.898  34.895  1.00  0.00    -0.203 F 
ATOM     74  C   UNL A   1      43.908  33.190  35.065  1.00  0.00     0.198 A 
ATOM     75  C   UNL A   1      44.461  34.448  33.097  1.00  0.00     0.198 A 
ATOM     76  F   UNL A   1      44.467  33.397  30.992  1.00  0.00    -0.203 F 
ATOM     77  F   UNL A   1      43.705  33.137  36.389  1.00  0.00    -0.200 F 
ATOM     78  C   UNL A   1      44.274  34.388  34.470  1.00  0.00     0.200 A 
ATOM     79  F   UNL A   1      44.825  35.602  32.521  1.00  0.00    -0.200 F 
ATOM     80  F   UNL A   1      44.442  35.487  35.218  1.00  0.00    -0.200 F 
ENDBRANCH  56  70
BRANCH  57  81
ATOM     81  C   UNL A   1      42.846  23.800  27.406  1.00  0.00     0.064 A 
ATOM     82  C   UNL A   1      43.239  23.749  26.063  1.00  0.00     0.173 A 
ATOM     83  C   UNL A   1      42.343  22.626  27.988  1.00  0.00     0.173 A 
ATOM     84  F   UNL A   1      43.709  24.851  25.461  1.00  0.00    -0.203 F 
ATOM     85  C   UNL A   1      43.140  22.566  25.332  1.00  0.00     0.198 A 
ATOM     86  C   UNL A   1      42.271  21.439  27.266  1.00  0.00     0.198 A 
ATOM     87  F   UNL A   1      41.962  22.625  29.274  1.00  0.00    -0.203 F 
ATOM     88  F   UNL A   1      43.506  22.547  24.044  1.00  0.00    -0.200 F 
ATOM     89  C   UNL A   1      42.668  21.411  25.937  1.00  0.00     0.200 A 
ATOM     90  F   UNL A   1      41.835  20.320  27.860  1.00  0.00    -0.200 F 
ATOM     91  F   UNL A   1      42.597  20.269  25.240  1.00  0.00    -0.200 F 
ENDBRANCH  57  81
BRANCH  69  92
ATOM     92  C   UNL A   1      48.233  26.752  30.683  1.00  0.00     0.064 A 
ATOM     93  C   UNL A   1      49.195  27.231  29.781  1.00  0.00     0.173 A 
ATOM     94  C   UNL A   1      48.660  25.918  31.726  1.00  0.00     0.173 A 
ATOM     95  F   UNL A   1      48.828  28.017  28.758  1.00  0.00    -0.203 F 
ATOM     96  C   UNL A   1      50.533  26.872  29.910  1.00  0.00     0.198 A 
ATOM     97  C   UNL A   1      50.002  25.580  31.865  1.00  0.00     0.198 A 
ATOM     98  F   UNL A   1      47.775  25.440  32.613  1.00  0.00    -0.203 F 
ATOM     99  F   UNL A   1      51.431  27.308  29.015  1.00  0.00    -0.200 F 
ATOM    100  C   UNL A   1      50.937  26.052  30.954  1.00  0.00     0.200 A 
ATOM    101  F   UNL A   1      50.393  24.793  32.877  1.00  0.00    -0.200 F 
ATOM    102  F   UNL A   1      52.226  25.710  31.077  1.00  0.00    -0.200 F 
ENDBRANCH  69  92
ENDBRANCH  43  44
ENDBRANCH  35  38
ENDBRANCH  33  34
ENDBRANCH  32  33
ENDBRANCH  31  32
ENDBRANCH   1  31
TORSDOF 16
ENDMDL
MODEL 3
REMARK VINA RESULT:     -12.4      1.641      2.658
REMARK SMILES Cc1cc(O[C@@H](C)C(=O)NCCC(=O)NCCCCNC(=O)c2ccc(-c3c4nc(c(-c5c(F)c(F)c(F)c(F)c5F)c5ccc([nH]5)c(-c5c(F)c(F)c(F)c(F)c5F)c5nc(c(-c6c(F)c(F)c(F)c(F)c6F)c6ccc3[nH]6)C=C5)C=C4)cc2)c2c3c(c(=O)oc2c1)CCCC3
REMARK SMILES IDX 16 1 15 2 13 3 14 4 12 6 11 7 10 8 8 9 9 10 6 12 7 13 5 14
REMARK SMILES IDX 4 15 1 16 2 17 3 18 93 19 92 20 86 21 91 22 87 23 89 24
REMARK SMILES IDX 88 25 97 26 90 27 94 28 96 29 95 30 17 31 18 32 19 33 20 34
REMARK SMILES IDX 21 35 22 37 23 38 24 39 85 40 25 41 84 42 26 43 27 44 28 45
REMARK SMILES IDX 78 46 29 47 83 48 77 49 79 50 30 51 82 52 76 53 75 54 31 56
REMARK SMILES IDX 63 57 43 58 62 59 44 60 47 61 61 62 80 63 45 64 46 65 60 67
REMARK SMILES IDX 81 68 48 69 32 70 33 71 41 72 34 73 35 74 39 75 42 76 36 77
REMARK SMILES IDX 37 78 40 79 38 80 64 81 65 82 73 83 66 84 67 85 71 86 74 87
REMARK SMILES IDX 68 88 69 89 72 90 70 91 49 92 50 93 58 94 51 95 52 96 56 97
REMARK SMILES IDX 59 98 53 99 54 100 57 101 55 102
REMARK H PARENT 15 5 10 11 20 36 79 55 47 66
REMARK Flexibility Score: inf
ROOT
ATOM      1  C   UNL A   1      31.474  29.573  25.559  1.00  0.00     0.116 C 
ENDROOT
BRANCH   1   2
ATOM      2  N   UNL A   1      32.443  29.036  24.631  1.00  0.00    -0.356 N 
ATOM      3  C   UNL A   1      33.248  27.951  24.794  1.00  0.00     0.221 C 
ATOM      4  O   UNL A   1      34.133  27.741  23.965  1.00  0.00    -0.275 OA
ATOM      5  H   UNL A   1      32.533  29.515  23.775  1.00  0.00     0.163 HD
BRANCH   3   6
ATOM      6  C   UNL A   1      33.035  27.017  25.968  1.00  0.00     0.121 C 
BRANCH   6   7
ATOM      7  C   UNL A   1      32.642  25.595  25.567  1.00  0.00     0.126 C 
BRANCH   7   8
ATOM      8  N   UNL A   1      31.792  24.956  26.561  1.00  0.00    -0.352 N 
ATOM      9  C   UNL A   1      31.451  23.669  26.807  1.00  0.00     0.260 C 
ATOM     10  O   UNL A   1      30.341  23.517  27.336  1.00  0.00    -0.271 OA
ATOM     11  H   UNL A   1      31.379  25.594  27.186  1.00  0.00     0.163 HD
BRANCH   9  12
ATOM     12  C   UNL A   1      32.402  22.463  26.625  1.00  0.00     0.258 C 
ATOM     13  C   UNL A   1      33.151  22.153  27.921  1.00  0.00     0.064 C 
BRANCH  12  14
ATOM     14  O   UNL A   1      33.094  22.126  25.438  1.00  0.00    -0.480 OA
BRANCH  14  15
ATOM     15  C   UNL A   1      33.535  20.880  25.127  1.00  0.00     0.132 A 
ATOM     16  C   UNL A   1      32.070  17.504  24.141  1.00  0.00     0.044 C 
ATOM     17  C   UNL A   1      33.074  18.586  24.410  1.00  0.00    -0.044 A 
ATOM     18  C   UNL A   1      32.649  19.893  24.676  1.00  0.00     0.050 A 
ATOM     19  C   UNL A   1      34.427  18.299  24.513  1.00  0.00     0.051 A 
ATOM     20  C   UNL A   1      35.325  19.319  24.835  1.00  0.00     0.142 A 
ATOM     21  C   UNL A   1      34.927  20.628  25.139  1.00  0.00     0.063 A 
ATOM     22  O   UNL A   1      36.674  18.930  24.818  1.00  0.00    -0.422 OA
ATOM     23  C   UNL A   1      36.008  21.616  25.413  1.00  0.00    -0.023 A 
ATOM     24  C   UNL A   1      37.694  19.845  24.972  1.00  0.00     0.339 A 
ATOM     25  C   UNL A   1      37.298  21.232  25.315  1.00  0.00     0.042 A 
ATOM     26  C   UNL A   1      35.664  23.054  25.749  1.00  0.00     0.037 C 
ATOM     27  O   UNL A   1      38.868  19.514  24.847  1.00  0.00    -0.246 OA
ATOM     28  C   UNL A   1      38.469  22.160  25.536  1.00  0.00     0.043 C 
ATOM     29  C   UNL A   1      36.833  24.041  25.674  1.00  0.00     0.005 C 
ATOM     30  C   UNL A   1      38.100  23.449  26.261  1.00  0.00     0.005 C 
ENDBRANCH  14  15
ENDBRANCH  12  14
ENDBRANCH   9  12
ENDBRANCH   7   8
ENDBRANCH   6   7
ENDBRANCH   3   6
ENDBRANCH   1   2
BRANCH   1  31
ATOM     31  C   UNL A   1      32.018  30.837  26.224  1.00  0.00     0.023 C 
BRANCH  31  32
ATOM     32  C   UNL A   1      32.997  30.610  27.360  1.00  0.00     0.023 C 
BRANCH  32  33
ATOM     33  C   UNL A   1      33.815  31.827  27.728  1.00  0.00     0.116 C 
BRANCH  33  34
ATOM     34  N   UNL A   1      33.077  33.084  27.699  1.00  0.00    -0.352 N 
ATOM     35  C   UNL A   1      33.297  34.189  28.497  1.00  0.00     0.251 C 
ATOM     36  H   UNL A   1      32.347  33.152  27.041  1.00  0.00     0.163 HD
ATOM     37  O   UNL A   1      32.614  35.195  28.421  1.00  0.00    -0.269 OA
BRANCH  35  38
ATOM     38  C   UNL A   1      34.369  34.063  29.501  1.00  0.00     0.039 A 
ATOM     39  C   UNL A   1      35.660  34.456  29.150  1.00  0.00     0.014 A 
ATOM     40  C   UNL A   1      34.122  33.302  30.644  1.00  0.00     0.014 A 
ATOM     41  C   UNL A   1      36.731  33.899  29.831  1.00  0.00     0.010 A 
ATOM     42  C   UNL A   1      35.202  32.839  31.392  1.00  0.00     0.010 A 
ATOM     43  C   UNL A   1      36.515  33.080  30.954  1.00  0.00    -0.014 A 
BRANCH  43  44
ATOM     44  C   UNL A   1      37.676  32.475  31.649  1.00  0.00     0.031 A 
ATOM     45  C   UNL A   1      38.526  31.430  30.977  1.00  0.00     0.074 A 
ATOM     46  C   UNL A   1      37.991  32.915  32.881  1.00  0.00     0.049 A 
ATOM     47  N   UNL A   1      39.512  30.725  31.475  1.00  0.00    -0.248 NA
ATOM     48  C   UNL A   1      38.234  31.130  29.566  1.00  0.00     0.031 C 
ATOM     49  C   UNL A   1      37.265  33.955  33.612  1.00  0.00     0.029 A 
ATOM     50  N   UNL A   1      39.014  32.569  33.723  1.00  0.00    -0.354 N 
ATOM     51  C   UNL A   1      39.926  29.875  30.459  1.00  0.00     0.074 A 
ATOM     52  C   UNL A   1      39.087  30.147  29.311  1.00  0.00     0.031 C 
ATOM     53  C   UNL A   1      37.902  34.212  34.761  1.00  0.00     0.029 A 
ATOM     54  C   UNL A   1      39.020  33.286  34.893  1.00  0.00     0.049 A 
ATOM     55  H   UNL A   1      39.679  31.875  33.510  1.00  0.00     0.167 HD
ATOM     56  C   UNL A   1      40.916  28.950  30.489  1.00  0.00     0.037 A 
ATOM     57  C   UNL A   1      39.815  33.185  35.972  1.00  0.00     0.037 A 
ATOM     58  C   UNL A   1      41.769  28.716  31.626  1.00  0.00     0.049 A 
ATOM     59  C   UNL A   1      40.876  32.129  35.993  1.00  0.00     0.074 A 
ATOM     60  C   UNL A   1      42.799  27.801  31.762  1.00  0.00     0.029 A 
ATOM     61  N   UNL A   1      41.702  29.419  32.821  1.00  0.00    -0.354 N 
ATOM     62  N   UNL A   1      41.208  31.277  35.054  1.00  0.00    -0.248 NA
ATOM     63  C   UNL A   1      41.652  32.001  37.232  1.00  0.00     0.031 C 
ATOM     64  C   UNL A   1      43.335  27.929  33.047  1.00  0.00     0.029 A 
ATOM     65  C   UNL A   1      42.664  28.951  33.701  1.00  0.00     0.049 A 
ATOM     66  H   UNL A   1      41.064  30.143  33.014  1.00  0.00     0.167 HD
ATOM     67  C   UNL A   1      42.226  30.503  35.589  1.00  0.00     0.074 A 
ATOM     68  C   UNL A   1      42.478  31.009  36.924  1.00  0.00     0.031 C 
ATOM     69  C   UNL A   1      42.884  29.461  35.030  1.00  0.00     0.037 A 
BRANCH  56  70
ATOM     70  C   UNL A   1      41.126  28.099  29.271  1.00  0.00     0.064 A 
ATOM     71  C   UNL A   1      42.098  28.412  28.310  1.00  0.00     0.173 A 
ATOM     72  C   UNL A   1      40.393  26.914  29.101  1.00  0.00     0.173 A 
ATOM     73  F   UNL A   1      42.816  29.540  28.418  1.00  0.00    -0.203 F 
ATOM     74  C   UNL A   1      42.324  27.572  27.221  1.00  0.00     0.198 A 
ATOM     75  C   UNL A   1      40.636  26.066  28.023  1.00  0.00     0.198 A 
ATOM     76  F   UNL A   1      39.454  26.566  29.995  1.00  0.00    -0.203 F 
ATOM     77  F   UNL A   1      43.241  27.903  26.300  1.00  0.00    -0.200 F 
ATOM     78  C   UNL A   1      41.600  26.397  27.083  1.00  0.00     0.200 A 
ATOM     79  F   UNL A   1      39.942  24.927  27.897  1.00  0.00    -0.200 F 
ATOM     80  F   UNL A   1      41.828  25.585  26.041  1.00  0.00    -0.200 F 
ENDBRANCH  56  70
BRANCH  57  81
ATOM     81  C   UNL A   1      39.596  34.098  37.120  1.00  0.00     0.064 A 
ATOM     82  C   UNL A   1      38.803  33.704  38.205  1.00  0.00     0.173 A 
ATOM     83  C   UNL A   1      40.228  35.349  37.188  1.00  0.00     0.173 A 
ATOM     84  F   UNL A   1      38.167  32.524  38.177  1.00  0.00    -0.203 F 
ATOM     85  C   UNL A   1      38.654  34.529  39.318  1.00  0.00     0.198 A 
ATOM     86  C   UNL A   1      40.100  36.159  38.311  1.00  0.00     0.198 A 
ATOM     87  F   UNL A   1      41.004  35.764  36.175  1.00  0.00    -0.203 F 
ATOM     88  F   UNL A   1      37.875  34.139  40.337  1.00  0.00    -0.200 F 
ATOM     89  C   UNL A   1      39.311  35.749  39.375  1.00  0.00     0.200 A 
ATOM     90  F   UNL A   1      40.755  37.327  38.371  1.00  0.00    -0.200 F 
ATOM     91  F   UNL A   1      39.186  36.529  40.457  1.00  0.00    -0.200 F 
ENDBRANCH  57  81
BRANCH  69  92
ATOM     92  C   UNL A   1      43.937  28.800  35.865  1.00  0.00     0.064 A 
ATOM     93  C   UNL A   1      45.265  29.250  35.847  1.00  0.00     0.173 A 
ATOM     94  C   UNL A   1      43.611  27.729  36.708  1.00  0.00     0.173 A 
ATOM     95  F   UNL A   1      45.625  30.261  35.041  1.00  0.00    -0.203 F 
ATOM     96  C   UNL A   1      46.236  28.638  36.634  1.00  0.00     0.198 A 
ATOM     97  C   UNL A   1      44.580  27.134  37.511  1.00  0.00     0.198 A 
ATOM     98  F   UNL A   1      42.353  27.268  36.760  1.00  0.00    -0.203 F 
ATOM     99  F   UNL A   1      47.507  29.057  36.573  1.00  0.00    -0.200 F 
ATOM    100  C   UNL A   1      45.892  27.584  37.468  1.00  0.00     0.200 A 
ATOM    101  F   UNL A   1      44.246  26.120  38.322  1.00  0.00    -0.200 F 
ATOM    102  F   UNL A   1      46.827  26.997  38.226  1.00  0.00    -0.200 F 
ENDBRANCH  69  92
ENDBRANCH  43  44
ENDBRANCH  35  38
ENDBRANCH  33  34
ENDBRANCH  32  33
ENDBRANCH  31  32
ENDBRANCH   1  31
TORSDOF 16
ENDMDL
