MODEL 1
REMARK VINA RESULT:     -11.8      0.000      0.000
REMARK SMILES CCS(=O)(=O)N1CCC[C@@H](C(=O)NCCCCNC(=O)c2ccc(-c3c4nc(c(-c5c(F)c(F)c(F)c(F)c5F)c5ccc([nH]5)c(-c5c(F)c(F)c(F)c(F)c5F)c5nc(c(-c6c(F)c(F)c(F)c(F)c6F)c6ccc3[nH]6)C=C5)C=C4)cc2)C1
REMARK SMILES IDX 15 1 14 2 13 3 11 4 12 5 10 7 6 8 7 9 84 10 8 11 9 12 3 13
REMARK SMILES IDX 4 14 5 15 2 16 1 17 16 18 17 19 18 20 19 21 20 23 21 24
REMARK SMILES IDX 22 25 83 26 23 27 82 28 24 29 25 30 26 31 76 32 27 33 81 34
REMARK SMILES IDX 75 35 77 36 28 37 80 38 74 39 73 40 29 42 61 43 41 44 60 45
REMARK SMILES IDX 42 46 45 47 59 48 78 49 43 50 44 51 58 53 79 54 46 55 30 56
REMARK SMILES IDX 31 57 39 58 32 59 33 60 37 61 40 62 34 63 35 64 38 65 36 66
REMARK SMILES IDX 62 67 63 68 71 69 64 70 65 71 69 72 72 73 66 74 67 75 70 76
REMARK SMILES IDX 68 77 47 78 48 79 56 80 49 81 50 82 54 83 57 84 51 85 52 86
REMARK SMILES IDX 55 87 53 88
REMARK H PARENT 13 6 18 22 77 41 45 52
REMARK Flexibility Score: inf
ROOT
ATOM      1  C   UNL A   1      31.670  30.791  26.213  1.00  0.00     0.023 C 
ENDROOT
BRANCH   1   2
ATOM      2  C   UNL A   1      31.923  29.683  27.230  1.00  0.00     0.116 C 
BRANCH   2   3
ATOM      3  N   UNL A   1      33.332  29.574  27.579  1.00  0.00    -0.356 N 
ATOM      4  C   UNL A   1      34.319  28.776  27.081  1.00  0.00     0.224 C 
ATOM      5  O   UNL A   1      35.449  28.905  27.553  1.00  0.00    -0.275 OA
ATOM      6  H   UNL A   1      33.623  30.179  28.299  1.00  0.00     0.163 HD
BRANCH   4   7
ATOM      7  C   UNL A   1      34.052  27.771  25.969  1.00  0.00     0.093 C 
ATOM      8  N   UNL A   1      32.339  26.032  25.238  1.00  0.00    -0.201 NA
ATOM      9  C   UNL A   1      32.022  26.917  24.087  1.00  0.00     0.102 C 
ATOM     10  C   UNL A   1      32.936  26.807  26.385  1.00  0.00     0.115 C 
ATOM     11  C   UNL A   1      33.301  27.559  23.572  1.00  0.00     0.018 C 
ATOM     12  C   UNL A   1      33.885  28.482  24.624  1.00  0.00     0.016 C 
BRANCH   8  13
ATOM     13  S   UNL A   1      31.027  25.066  25.786  1.00  0.00     0.213 S 
ATOM     14  O   UNL A   1      29.815  25.819  25.550  1.00  0.00    -0.212 OA
ATOM     15  O   UNL A   1      31.364  24.633  27.130  1.00  0.00    -0.212 OA
BRANCH  13  16
ATOM     16  C   UNL A   1      31.053  23.601  24.754  1.00  0.00     0.151 C 
ATOM     17  C   UNL A   1      30.566  23.790  23.333  1.00  0.00     0.022 C 
ENDBRANCH  13  16
ENDBRANCH   8  13
ENDBRANCH   4   7
ENDBRANCH   2   3
ENDBRANCH   1   2
BRANCH   1  18
ATOM     18  C   UNL A   1      31.396  32.164  26.825  1.00  0.00     0.023 C 
BRANCH  18  19
ATOM     19  C   UNL A   1      32.630  32.906  27.324  1.00  0.00     0.116 C 
BRANCH  19  20
ATOM     20  N   UNL A   1      32.365  34.303  27.637  1.00  0.00    -0.352 N 
ATOM     21  C   UNL A   1      32.965  35.110  28.572  1.00  0.00     0.251 C 
ATOM     22  H   UNL A   1      31.655  34.728  27.103  1.00  0.00     0.163 HD
ATOM     23  O   UNL A   1      32.520  36.230  28.803  1.00  0.00    -0.269 OA
BRANCH  21  24
ATOM     24  C   UNL A   1      34.134  34.611  29.326  1.00  0.00     0.039 A 
ATOM     25  C   UNL A   1      33.941  34.109  30.615  1.00  0.00     0.014 A 
ATOM     26  C   UNL A   1      35.409  34.612  28.754  1.00  0.00     0.014 A 
ATOM     27  C   UNL A   1      35.016  33.543  31.303  1.00  0.00     0.010 A 
ATOM     28  C   UNL A   1      36.459  33.972  29.405  1.00  0.00     0.010 A 
ATOM     29  C   UNL A   1      36.274  33.432  30.688  1.00  0.00    -0.014 A 
BRANCH  29  30
ATOM     30  C   UNL A   1      37.405  32.749  31.368  1.00  0.00     0.031 A 
ATOM     31  C   UNL A   1      38.095  31.587  30.707  1.00  0.00     0.074 A 
ATOM     32  C   UNL A   1      37.770  33.134  32.606  1.00  0.00     0.049 A 
ATOM     33  N   UNL A   1      39.060  30.828  31.163  1.00  0.00    -0.248 NA
ATOM     34  C   UNL A   1      37.621  31.212  29.366  1.00  0.00     0.031 C 
ATOM     35  C   UNL A   1      37.149  34.215  33.373  1.00  0.00     0.029 A 
ATOM     36  N   UNL A   1      38.749  32.656  33.441  1.00  0.00    -0.354 N 
ATOM     37  C   UNL A   1      39.298  29.885  30.172  1.00  0.00     0.074 A 
ATOM     38  C   UNL A   1      38.336  30.125  29.119  1.00  0.00     0.031 C 
ATOM     39  C   UNL A   1      37.777  34.336  34.552  1.00  0.00     0.029 A 
ATOM     40  C   UNL A   1      38.816  33.314  34.646  1.00  0.00     0.049 A 
ATOM     41  H   UNL A   1      39.347  31.912  33.201  1.00  0.00     0.167 HD
ATOM     42  C   UNL A   1      40.250  28.922  30.133  1.00  0.00     0.037 A 
ATOM     43  C   UNL A   1      39.618  33.111  35.708  1.00  0.00     0.037 A 
ATOM     44  C   UNL A   1      41.214  28.695  31.177  1.00  0.00     0.049 A 
ATOM     45  C   UNL A   1      40.649  32.016  35.650  1.00  0.00     0.074 A 
ATOM     46  C   UNL A   1      42.252  27.780  31.209  1.00  0.00     0.029 A 
ATOM     47  N   UNL A   1      41.253  29.385  32.381  1.00  0.00    -0.354 N 
ATOM     48  N   UNL A   1      40.915  31.178  34.677  1.00  0.00    -0.248 NA
ATOM     49  C   UNL A   1      41.500  31.844  36.836  1.00  0.00     0.031 C 
ATOM     50  C   UNL A   1      42.880  27.875  32.455  1.00  0.00     0.029 A 
ATOM     51  C   UNL A   1      42.280  28.895  33.174  1.00  0.00     0.049 A 
ATOM     52  H   UNL A   1      40.642  30.115  32.635  1.00  0.00     0.167 HD
ATOM     53  C   UNL A   1      41.980  30.403  35.119  1.00  0.00     0.074 A 
ATOM     54  C   UNL A   1      42.322  30.883  36.442  1.00  0.00     0.031 C 
ATOM     55  C   UNL A   1      42.616  29.387  34.486  1.00  0.00     0.037 A 
BRANCH  42  56
ATOM     56  C   UNL A   1      40.294  28.037  28.919  1.00  0.00     0.064 A 
ATOM     57  C   UNL A   1      41.038  28.382  27.780  1.00  0.00     0.173 A 
ATOM     58  C   UNL A   1      39.611  26.811  28.905  1.00  0.00     0.173 A 
ATOM     59  F   UNL A   1      41.702  29.547  27.735  1.00  0.00    -0.203 F 
ATOM     60  C   UNL A   1      41.070  27.551  26.663  1.00  0.00     0.198 A 
ATOM     61  C   UNL A   1      39.674  25.965  27.801  1.00  0.00     0.198 A 
ATOM     62  F   UNL A   1      38.889  26.427  29.969  1.00  0.00    -0.203 F 
ATOM     63  F   UNL A   1      41.741  27.930  25.566  1.00  0.00    -0.200 F 
ATOM     64  C   UNL A   1      40.395  26.341  26.677  1.00  0.00     0.200 A 
ATOM     65  F   UNL A   1      39.034  24.789  27.823  1.00  0.00    -0.200 F 
ATOM     66  F   UNL A   1      40.432  25.538  25.605  1.00  0.00    -0.200 F 
ENDBRANCH  42  56
BRANCH  43  67
ATOM     67  C   UNL A   1      39.491  33.974  36.914  1.00  0.00     0.064 A 
ATOM     68  C   UNL A   1      38.696  33.581  38.000  1.00  0.00     0.173 A 
ATOM     69  C   UNL A   1      40.146  35.210  37.001  1.00  0.00     0.173 A 
ATOM     70  F   UNL A   1      38.032  32.417  37.957  1.00  0.00    -0.203 F 
ATOM     71  C   UNL A   1      38.542  34.402  39.116  1.00  0.00     0.198 A 
ATOM     72  C   UNL A   1      40.019  36.016  38.131  1.00  0.00     0.198 A 
ATOM     73  F   UNL A   1      40.923  35.632  35.991  1.00  0.00    -0.203 F 
ATOM     74  F   UNL A   1      37.735  34.026  40.115  1.00  0.00    -0.200 F 
ATOM     75  C   UNL A   1      39.209  35.616  39.182  1.00  0.00     0.200 A 
ATOM     76  F   UNL A   1      40.677  37.181  38.198  1.00  0.00    -0.200 F 
ATOM     77  F   UNL A   1      39.063  36.405  40.256  1.00  0.00    -0.200 F 
ENDBRANCH  43  67
BRANCH  55  78
ATOM     78  C   UNL A   1      43.779  28.752  35.195  1.00  0.00     0.064 A 
ATOM     79  C   UNL A   1      45.091  29.223  35.038  1.00  0.00     0.173 A 
ATOM     80  C   UNL A   1      43.570  27.677  36.075  1.00  0.00     0.173 A 
ATOM     81  F   UNL A   1      45.348  30.238  34.198  1.00  0.00    -0.203 F 
ATOM     82  C   UNL A   1      46.153  28.623  35.710  1.00  0.00     0.198 A 
ATOM     83  C   UNL A   1      44.629  27.105  36.774  1.00  0.00     0.198 A 
ATOM     84  F   UNL A   1      42.334  27.192  36.269  1.00  0.00    -0.203 F 
ATOM     85  F   UNL A   1      47.404  29.054  35.501  1.00  0.00    -0.200 F 
ATOM     86  C   UNL A   1      45.920  27.571  36.583  1.00  0.00     0.200 A 
ATOM     87  F   UNL A   1      44.398  26.100  37.630  1.00  0.00    -0.200 F 
ATOM     88  F   UNL A   1      46.942  27.001  37.237  1.00  0.00    -0.200 F 
ENDBRANCH  55  78
ENDBRANCH  29  30
ENDBRANCH  21  24
ENDBRANCH  19  20
ENDBRANCH  18  19
ENDBRANCH   1  18
TORSDOF 13
ENDMDL
MODEL 2
REMARK VINA RESULT:     -11.8      5.877     11.291
REMARK SMILES CCS(=O)(=O)N1CCC[C@@H](C(=O)NCCCCNC(=O)c2ccc(-c3c4nc(c(-c5c(F)c(F)c(F)c(F)c5F)c5ccc([nH]5)c(-c5c(F)c(F)c(F)c(F)c5F)c5nc(c(-c6c(F)c(F)c(F)c(F)c6F)c6ccc3[nH]6)C=C5)C=C4)cc2)C1
REMARK SMILES IDX 15 1 14 2 13 3 11 4 12 5 10 7 6 8 7 9 84 10 8 11 9 12 3 13
REMARK SMILES IDX 4 14 5 15 2 16 1 17 16 18 17 19 18 20 19 21 20 23 21 24
REMARK SMILES IDX 22 25 83 26 23 27 82 28 24 29 25 30 26 31 76 32 27 33 81 34
REMARK SMILES IDX 75 35 77 36 28 37 80 38 74 39 73 40 29 42 61 43 41 44 60 45
REMARK SMILES IDX 42 46 45 47 59 48 78 49 43 50 44 51 58 53 79 54 46 55 30 56
REMARK SMILES IDX 31 57 39 58 32 59 33 60 37 61 40 62 34 63 35 64 38 65 36 66
REMARK SMILES IDX 62 67 63 68 71 69 64 70 65 71 69 72 72 73 66 74 67 75 70 76
REMARK SMILES IDX 68 77 47 78 48 79 56 80 49 81 50 82 54 83 57 84 51 85 52 86
REMARK SMILES IDX 55 87 53 88
REMARK H PARENT 13 6 18 22 77 41 45 52
REMARK Flexibility Score: inf
ROOT
ATOM      1  C   UNL A   1      36.749  21.092  24.840  1.00  0.00     0.023 C 
ENDROOT
BRANCH   1   2
ATOM      2  C   UNL A   1      35.306  20.638  25.037  1.00  0.00     0.116 C 
BRANCH   2   3
ATOM      3  N   UNL A   1      34.793  21.002  26.349  1.00  0.00    -0.356 N 
ATOM      4  C   UNL A   1      34.117  22.107  26.772  1.00  0.00     0.224 C 
ATOM      5  O   UNL A   1      33.777  22.151  27.955  1.00  0.00    -0.275 OA
ATOM      6  H   UNL A   1      34.965  20.336  27.054  1.00  0.00     0.163 HD
BRANCH   4   7
ATOM      7  C   UNL A   1      33.770  23.246  25.822  1.00  0.00     0.093 C 
ATOM      8  N   UNL A   1      32.145  25.191  25.568  1.00  0.00    -0.201 NA
ATOM      9  C   UNL A   1      33.306  26.104  25.738  1.00  0.00     0.102 C 
ATOM     10  C   UNL A   1      32.406  23.841  26.186  1.00  0.00     0.115 C 
ATOM     11  C   UNL A   1      34.519  25.519  25.031  1.00  0.00     0.018 C 
ATOM     12  C   UNL A   1      34.941  24.224  25.697  1.00  0.00     0.016 C 
BRANCH   8  13
ATOM     13  S   UNL A   1      30.646  25.823  26.124  1.00  0.00     0.213 S 
ATOM     14  O   UNL A   1      30.946  26.979  26.940  1.00  0.00    -0.212 OA
ATOM     15  O   UNL A   1      29.908  24.708  26.686  1.00  0.00    -0.212 OA
BRANCH  13  16
ATOM     16  C   UNL A   1      29.766  26.326  24.645  1.00  0.00     0.151 C 
ATOM     17  C   UNL A   1      30.461  26.027  23.333  1.00  0.00     0.022 C 
ENDBRANCH  13  16
ENDBRANCH   8  13
ENDBRANCH   4   7
ENDBRANCH   2   3
ENDBRANCH   1   2
BRANCH   1  18
ATOM     18  C   UNL A   1      37.789  19.982  24.987  1.00  0.00     0.023 C 
BRANCH  18  19
ATOM     19  C   UNL A   1      39.046  20.374  25.754  1.00  0.00     0.116 C 
BRANCH  19  20
ATOM     20  N   UNL A   1      39.990  19.275  25.896  1.00  0.00    -0.352 N 
ATOM     21  C   UNL A   1      41.344  19.320  26.126  1.00  0.00     0.251 C 
ATOM     22  H   UNL A   1      39.604  18.372  25.816  1.00  0.00     0.163 HD
ATOM     23  O   UNL A   1      42.016  18.295  26.077  1.00  0.00    -0.269 OA
BRANCH  21  24
ATOM     24  C   UNL A   1      41.996  20.617  26.401  1.00  0.00     0.039 A 
ATOM     25  C   UNL A   1      42.324  21.448  25.327  1.00  0.00     0.014 A 
ATOM     26  C   UNL A   1      42.257  21.024  27.712  1.00  0.00     0.014 A 
ATOM     27  C   UNL A   1      42.849  22.718  25.574  1.00  0.00     0.010 A 
ATOM     28  C   UNL A   1      42.699  22.320  27.958  1.00  0.00     0.010 A 
ATOM     29  C   UNL A   1      43.002  23.180  26.891  1.00  0.00    -0.014 A 
BRANCH  29  30
ATOM     30  C   UNL A   1      43.471  24.562  27.172  1.00  0.00     0.031 A 
ATOM     31  C   UNL A   1      42.518  25.588  27.720  1.00  0.00     0.074 A 
ATOM     32  C   UNL A   1      44.738  24.910  26.875  1.00  0.00     0.049 A 
ATOM     33  N   UNL A   1      42.722  26.857  27.975  1.00  0.00    -0.248 NA
ATOM     34  C   UNL A   1      41.145  25.136  27.993  1.00  0.00     0.031 C 
ATOM     35  C   UNL A   1      45.746  24.020  26.296  1.00  0.00     0.029 A 
ATOM     36  N   UNL A   1      45.395  26.108  27.015  1.00  0.00    -0.354 N 
ATOM     37  C   UNL A   1      41.506  27.351  28.427  1.00  0.00     0.074 A 
ATOM     38  C   UNL A   1      40.553  26.266  28.351  1.00  0.00     0.031 C 
ATOM     39  C   UNL A   1      46.899  24.693  26.155  1.00  0.00     0.029 A 
ATOM     40  C   UNL A   1      46.702  26.072  26.590  1.00  0.00     0.049 A 
ATOM     41  H   UNL A   1      44.971  26.916  27.383  1.00  0.00     0.167 HD
ATOM     42  C   UNL A   1      41.217  28.592  28.888  1.00  0.00     0.037 A 
ATOM     43  C   UNL A   1      47.633  27.045  26.549  1.00  0.00     0.037 A 
ATOM     44  C   UNL A   1      42.171  29.666  28.974  1.00  0.00     0.049 A 
ATOM     45  C   UNL A   1      47.277  28.422  27.042  1.00  0.00     0.074 A 
ATOM     46  C   UNL A   1      41.991  30.942  29.477  1.00  0.00     0.029 A 
ATOM     47  N   UNL A   1      43.488  29.591  28.539  1.00  0.00    -0.354 N 
ATOM     48  N   UNL A   1      46.145  28.859  27.537  1.00  0.00    -0.248 NA
ATOM     49  C   UNL A   1      48.335  29.441  26.978  1.00  0.00     0.031 C 
ATOM     50  C   UNL A   1      43.177  31.658  29.289  1.00  0.00     0.029 A 
ATOM     51  C   UNL A   1      44.120  30.809  28.735  1.00  0.00     0.049 A 
ATOM     52  H   UNL A   1      43.909  28.791  28.149  1.00  0.00     0.167 HD
ATOM     53  C   UNL A   1      46.361  30.189  27.872  1.00  0.00     0.074 A 
ATOM     54  C   UNL A   1      47.739  30.483  27.540  1.00  0.00     0.031 C 
ATOM     55  C   UNL A   1      45.496  31.085  28.407  1.00  0.00     0.037 A 
BRANCH  42  56
ATOM     56  C   UNL A   1      39.806  28.856  29.333  1.00  0.00     0.064 A 
ATOM     57  C   UNL A   1      38.832  29.344  28.447  1.00  0.00     0.173 A 
ATOM     58  C   UNL A   1      39.411  28.588  30.652  1.00  0.00     0.173 A 
ATOM     59  F   UNL A   1      39.157  29.628  27.176  1.00  0.00    -0.203 F 
ATOM     60  C   UNL A   1      37.528  29.584  28.873  1.00  0.00     0.198 A 
ATOM     61  C   UNL A   1      38.097  28.794  31.066  1.00  0.00     0.198 A 
ATOM     62  F   UNL A   1      40.298  28.115  31.540  1.00  0.00    -0.203 F 
ATOM     63  F   UNL A   1      36.631  30.104  28.022  1.00  0.00    -0.200 F 
ATOM     64  C   UNL A   1      37.160  29.301  30.179  1.00  0.00     0.200 A 
ATOM     65  F   UNL A   1      37.740  28.506  32.324  1.00  0.00    -0.200 F 
ATOM     66  F   UNL A   1      35.903  29.525  30.586  1.00  0.00    -0.200 F 
ENDBRANCH  42  56
BRANCH  43  67
ATOM     67  C   UNL A   1      48.998  26.748  26.038  1.00  0.00     0.064 A 
ATOM     68  C   UNL A   1      49.986  26.225  26.885  1.00  0.00     0.173 A 
ATOM     69  C   UNL A   1      49.349  26.992  24.703  1.00  0.00     0.173 A 
ATOM     70  F   UNL A   1      49.707  25.994  28.176  1.00  0.00    -0.203 F 
ATOM     71  C   UNL A   1      51.278  25.982  26.422  1.00  0.00     0.198 A 
ATOM     72  C   UNL A   1      50.631  26.716  24.231  1.00  0.00     0.198 A 
ATOM     73  F   UNL A   1      48.440  27.486  23.849  1.00  0.00    -0.203 F 
ATOM     74  F   UNL A   1      52.216  25.533  27.266  1.00  0.00    -0.200 F 
ATOM     75  C   UNL A   1      51.597  26.221  25.094  1.00  0.00     0.200 A 
ATOM     76  F   UNL A   1      50.931  26.934  22.944  1.00  0.00    -0.200 F 
ATOM     77  F   UNL A   1      52.839  25.984  24.648  1.00  0.00    -0.200 F 
ENDBRANCH  43  67
BRANCH  55  78
ATOM     78  C   UNL A   1      46.024  32.459  28.710  1.00  0.00     0.064 A 
ATOM     79  C   UNL A   1      46.635  32.766  29.937  1.00  0.00     0.173 A 
ATOM     80  C   UNL A   1      45.952  33.475  27.744  1.00  0.00     0.173 A 
ATOM     81  F   UNL A   1      46.718  31.836  30.900  1.00  0.00    -0.203 F 
ATOM     82  C   UNL A   1      47.124  34.044  30.193  1.00  0.00     0.198 A 
ATOM     83  C   UNL A   1      46.475  34.741  27.990  1.00  0.00     0.198 A 
ATOM     84  F   UNL A   1      45.385  33.235  26.551  1.00  0.00    -0.203 F 
ATOM     85  F   UNL A   1      47.652  34.328  31.391  1.00  0.00    -0.200 F 
ATOM     86  C   UNL A   1      47.052  35.027  29.218  1.00  0.00     0.200 A 
ATOM     87  F   UNL A   1      46.420  35.684  27.039  1.00  0.00    -0.200 F 
ATOM     88  F   UNL A   1      47.531  36.254  29.464  1.00  0.00    -0.200 F 
ENDBRANCH  55  78
ENDBRANCH  29  30
ENDBRANCH  21  24
ENDBRANCH  19  20
ENDBRANCH  18  19
ENDBRANCH   1  18
TORSDOF 13
ENDMDL
MODEL 3
REMARK VINA RESULT:     -11.8      1.247      7.749
REMARK SMILES CCS(=O)(=O)N1CCC[C@@H](C(=O)NCCCCNC(=O)c2ccc(-c3c4nc(c(-c5c(F)c(F)c(F)c(F)c5F)c5ccc([nH]5)c(-c5c(F)c(F)c(F)c(F)c5F)c5nc(c(-c6c(F)c(F)c(F)c(F)c6F)c6ccc3[nH]6)C=C5)C=C4)cc2)C1
REMARK SMILES IDX 15 1 14 2 13 3 11 4 12 5 10 7 6 8 7 9 84 10 8 11 9 12 3 13
REMARK SMILES IDX 4 14 5 15 2 16 1 17 16 18 17 19 18 20 19 21 20 23 21 24
REMARK SMILES IDX 22 25 83 26 23 27 82 28 24 29 25 30 26 31 76 32 27 33 81 34
REMARK SMILES IDX 75 35 77 36 28 37 80 38 74 39 73 40 29 42 61 43 41 44 60 45
REMARK SMILES IDX 42 46 45 47 59 48 78 49 43 50 44 51 58 53 79 54 46 55 30 56
REMARK SMILES IDX 31 57 39 58 32 59 33 60 37 61 40 62 34 63 35 64 38 65 36 66
REMARK SMILES IDX 62 67 63 68 71 69 64 70 65 71 69 72 72 73 66 74 67 75 70 76
REMARK SMILES IDX 68 77 47 78 48 79 56 80 49 81 50 82 54 83 57 84 51 85 52 86
REMARK SMILES IDX 55 87 53 88
REMARK H PARENT 13 6 18 22 77 41 45 52
REMARK Flexibility Score: inf
ROOT
ATOM      1  C   UNL A   1      31.475  30.630  26.565  1.00  0.00     0.023 C 
ENDROOT
BRANCH   1   2
ATOM      2  C   UNL A   1      32.051  30.072  25.267  1.00  0.00     0.116 C 
BRANCH   2   3
ATOM      3  N   UNL A   1      31.141  29.136  24.624  1.00  0.00    -0.356 N 
ATOM      4  C   UNL A   1      31.073  27.776  24.673  1.00  0.00     0.224 C 
ATOM      5  O   UNL A   1      30.173  27.226  24.035  1.00  0.00    -0.275 OA
ATOM      6  H   UNL A   1      30.458  29.558  24.054  1.00  0.00     0.163 HD
BRANCH   4   7
ATOM      7  C   UNL A   1      32.054  26.954  25.497  1.00  0.00     0.093 C 
ATOM      8  N   UNL A   1      32.345  24.627  26.494  1.00  0.00    -0.201 NA
ATOM      9  C   UNL A   1      33.463  24.423  25.536  1.00  0.00     0.102 C 
ATOM     10  C   UNL A   1      31.379  25.675  26.003  1.00  0.00     0.115 C 
ATOM     11  C   UNL A   1      34.248  25.717  25.388  1.00  0.00     0.018 C 
ATOM     12  C   UNL A   1      33.382  26.787  24.753  1.00  0.00     0.016 C 
BRANCH   8  13
ATOM     13  S   UNL A   1      31.502  23.194  26.932  1.00  0.00     0.213 S 
ATOM     14  O   UNL A   1      30.157  23.584  27.293  1.00  0.00    -0.212 OA
ATOM     15  O   UNL A   1      32.339  22.497  27.890  1.00  0.00    -0.212 OA
BRANCH  13  16
ATOM     16  C   UNL A   1      31.474  22.188  25.449  1.00  0.00     0.151 C 
ATOM     17  C   UNL A   1      32.437  21.019  25.430  1.00  0.00     0.022 C 
ENDBRANCH  13  16
ENDBRANCH   8  13
ENDBRANCH   4   7
ENDBRANCH   2   3
ENDBRANCH   1   2
BRANCH   1  18
ATOM     18  C   UNL A   1      31.404  32.155  26.624  1.00  0.00     0.023 C 
BRANCH  18  19
ATOM     19  C   UNL A   1      32.641  32.837  27.196  1.00  0.00     0.116 C 
BRANCH  19  20
ATOM     20  N   UNL A   1      32.392  34.211  27.609  1.00  0.00    -0.352 N 
ATOM     21  C   UNL A   1      33.002  34.941  28.600  1.00  0.00     0.251 C 
ATOM     22  H   UNL A   1      31.689  34.682  27.106  1.00  0.00     0.163 HD
ATOM     23  O   UNL A   1      32.570  36.047  28.910  1.00  0.00    -0.269 OA
BRANCH  21  24
ATOM     24  C   UNL A   1      34.163  34.374  29.317  1.00  0.00     0.039 A 
ATOM     25  C   UNL A   1      33.939  33.603  30.459  1.00  0.00     0.014 A 
ATOM     26  C   UNL A   1      35.463  34.581  28.849  1.00  0.00     0.014 A 
ATOM     27  C   UNL A   1      35.016  32.979  31.091  1.00  0.00     0.010 A 
ATOM     28  C   UNL A   1      36.523  33.890  29.428  1.00  0.00     0.010 A 
ATOM     29  C   UNL A   1      36.311  33.083  30.557  1.00  0.00    -0.014 A 
BRANCH  29  30
ATOM     30  C   UNL A   1      37.454  32.350  31.162  1.00  0.00     0.031 A 
ATOM     31  C   UNL A   1      37.959  32.730  32.526  1.00  0.00     0.074 A 
ATOM     32  C   UNL A   1      38.075  31.385  30.457  1.00  0.00     0.049 A 
ATOM     33  N   UNL A   1      38.977  32.249  33.196  1.00  0.00    -0.248 NA
ATOM     34  C   UNL A   1      37.243  33.811  33.220  1.00  0.00     0.031 C 
ATOM     35  C   UNL A   1      37.710  30.956  29.106  1.00  0.00     0.029 A 
ATOM     36  N   UNL A   1      39.150  30.592  30.777  1.00  0.00    -0.354 N 
ATOM     37  C   UNL A   1      39.027  32.974  34.379  1.00  0.00     0.074 A 
ATOM     38  C   UNL A   1      37.979  33.969  34.310  1.00  0.00     0.031 C 
ATOM     39  C   UNL A   1      38.527  29.963  28.723  1.00  0.00     0.029 A 
ATOM     40  C   UNL A   1      39.501  29.712  29.782  1.00  0.00     0.049 A 
ATOM     41  H   UNL A   1      39.624  30.648  31.638  1.00  0.00     0.167 HD
ATOM     42  C   UNL A   1      39.854  32.808  35.439  1.00  0.00     0.037 A 
ATOM     43  C   UNL A   1      40.501  28.812  29.726  1.00  0.00     0.037 A 
ATOM     44  C   UNL A   1      40.887  31.808  35.509  1.00  0.00     0.049 A 
ATOM     45  C   UNL A   1      41.424  28.667  30.906  1.00  0.00     0.074 A 
ATOM     46  C   UNL A   1      41.743  31.524  36.559  1.00  0.00     0.029 A 
ATOM     47  N   UNL A   1      41.211  30.932  34.482  1.00  0.00    -0.354 N 
ATOM     48  N   UNL A   1      41.415  29.307  32.050  1.00  0.00    -0.248 NA
ATOM     49  C   UNL A   1      42.494  27.665  30.790  1.00  0.00     0.031 C 
ATOM     50  C   UNL A   1      42.623  30.519  36.146  1.00  0.00     0.029 A 
ATOM     51  C   UNL A   1      42.273  30.127  34.865  1.00  0.00     0.049 A 
ATOM     52  H   UNL A   1      40.753  30.888  33.611  1.00  0.00     0.167 HD
ATOM     53  C   UNL A   1      42.452  28.766  32.800  1.00  0.00     0.074 A 
ATOM     54  C   UNL A   1      43.058  27.733  31.987  1.00  0.00     0.031 C 
ATOM     55  C   UNL A   1      42.862  29.096  34.049  1.00  0.00     0.037 A 
BRANCH  42  56
ATOM     56  C   UNL A   1      39.678  33.734  36.610  1.00  0.00     0.064 A 
ATOM     57  C   UNL A   1      38.867  33.393  37.705  1.00  0.00     0.173 A 
ATOM     58  C   UNL A   1      40.355  34.962  36.657  1.00  0.00     0.173 A 
ATOM     59  F   UNL A   1      38.189  32.235  37.708  1.00  0.00    -0.203 F 
ATOM     60  C   UNL A   1      38.714  34.260  38.783  1.00  0.00     0.198 A 
ATOM     61  C   UNL A   1      40.228  35.811  37.753  1.00  0.00     0.198 A 
ATOM     62  F   UNL A   1      41.148  35.336  35.642  1.00  0.00    -0.203 F 
ATOM     63  F   UNL A   1      37.889  33.937  39.790  1.00  0.00    -0.200 F 
ATOM     64  C   UNL A   1      39.401  35.464  38.810  1.00  0.00     0.200 A 
ATOM     65  F   UNL A   1      40.905  36.967  37.785  1.00  0.00    -0.200 F 
ATOM     66  F   UNL A   1      39.259  36.295  39.852  1.00  0.00    -0.200 F 
ENDBRANCH  42  56
BRANCH  43  67
ATOM     67  C   UNL A   1      40.674  27.964  28.515  1.00  0.00     0.064 A 
ATOM     68  C   UNL A   1      41.452  28.403  27.433  1.00  0.00     0.173 A 
ATOM     69  C   UNL A   1      40.057  26.710  28.407  1.00  0.00     0.173 A 
ATOM     70  F   UNL A   1      42.045  29.604  27.480  1.00  0.00    -0.203 F 
ATOM     71  C   UNL A   1      41.585  27.630  26.281  1.00  0.00     0.198 A 
ATOM     72  C   UNL A   1      40.219  25.923  27.268  1.00  0.00     0.198 A 
ATOM     73  F   UNL A   1      39.306  26.241  29.415  1.00  0.00    -0.203 F 
ATOM     74  F   UNL A   1      42.290  28.097  25.243  1.00  0.00    -0.200 F 
ATOM     75  C   UNL A   1      40.973  26.388  26.202  1.00  0.00     0.200 A 
ATOM     76  F   UNL A   1      39.639  24.717  27.202  1.00  0.00    -0.200 F 
ATOM     77  F   UNL A   1      41.104  25.644  25.095  1.00  0.00    -0.200 F 
ENDBRANCH  43  67
BRANCH  55  78
ATOM     78  C   UNL A   1      43.996  28.302  34.635  1.00  0.00     0.064 A 
ATOM     79  C   UNL A   1      45.328  28.736  34.548  1.00  0.00     0.173 A 
ATOM     80  C   UNL A   1      43.741  27.108  35.328  1.00  0.00     0.173 A 
ATOM     81  F   UNL A   1      45.629  29.864  33.886  1.00  0.00    -0.203 F 
ATOM     82  C   UNL A   1      46.363  27.988  35.105  1.00  0.00     0.198 A 
ATOM     83  C   UNL A   1      44.773  26.383  35.915  1.00  0.00     0.198 A 
ATOM     84  F   UNL A   1      42.485  26.651  35.448  1.00  0.00    -0.203 F 
ATOM     85  F   UNL A   1      47.632  28.394  34.961  1.00  0.00    -0.200 F 
ATOM     86  C   UNL A   1      46.084  26.818  35.795  1.00  0.00     0.200 A 
ATOM     87  F   UNL A   1      44.499  25.262  36.596  1.00  0.00    -0.200 F 
ATOM     88  F   UNL A   1      47.080  26.105  36.338  1.00  0.00    -0.200 F 
ENDBRANCH  55  78
ENDBRANCH  29  30
ENDBRANCH  21  24
ENDBRANCH  19  20
ENDBRANCH  18  19
ENDBRANCH   1  18
TORSDOF 13
ENDMDL
