MODEL 1
REMARK VINA RESULT:     -13.3      0.000      0.000
REMARK SMILES Cc1c(Cl)cccc1NC(=O)NCc1cn([C@@H]2C[NH2+][C@H](C(=O)NCCCCNC(=O)c3ccc(-c4c5nc(c(-c6c(F)c(F)c(F)c(F)c6F)c6ccc([nH]6)c(-c6c(F)c(F)c(F)c(F)c6F)c6nc(c(-c7c(F)c(F)c(F)c(F)c7F)c7ccc4[nH]7)C=C6)C=C5)cc3)C2)nn1
REMARK SMILES IDX 24 1 23 2 21 3 22 4 20 6 17 7 18 8 94 9 19 10 16 13 14 14
REMARK SMILES IDX 15 15 96 16 95 17 13 18 12 19 9 20 10 21 11 23 8 25 1 26
REMARK SMILES IDX 2 27 3 28 4 29 5 30 7 31 6 32 25 33 26 34 27 35 28 36 29 37
REMARK SMILES IDX 30 39 31 40 32 41 93 42 33 43 92 44 34 45 35 46 36 47 86 48
REMARK SMILES IDX 37 49 91 50 85 51 87 52 38 53 90 54 84 55 83 56 39 58 71 59
REMARK SMILES IDX 51 60 70 61 52 62 55 63 69 64 88 65 53 66 54 67 68 69 89 70
REMARK SMILES IDX 56 71 40 72 41 73 49 74 42 75 43 76 47 77 50 78 44 79 45 80
REMARK SMILES IDX 48 81 46 82 72 83 73 84 81 85 74 86 75 87 79 88 82 89 76 90
REMARK SMILES IDX 77 91 80 92 78 93 57 94 58 95 66 96 59 97 60 98 64 99 67 100
REMARK SMILES IDX 61 101 62 102 65 103 63 104
REMARK H PARENT 23 5 19 11 19 12 9 22 12 24 28 38 87 57 55 68
REMARK Flexibility Score: inf
ROOT
ATOM      1  C   UNL A   1      34.466  28.865  26.930  1.00  0.00     0.116 C 
ENDROOT
BRANCH   1   2
ATOM      2  N   UNL A   1      33.205  28.506  27.547  1.00  0.00    -0.351 N 
ATOM      3  C   UNL A   1      31.924  28.464  27.097  1.00  0.00     0.278 C 
ATOM      4  O   UNL A   1      31.083  28.099  27.933  1.00  0.00    -0.268 OA
ATOM      5  H   UNL A   1      33.294  28.236  28.489  1.00  0.00     0.163 HD
BRANCH   3   6
ATOM      6  C   UNL A   1      31.445  28.743  25.655  1.00  0.00     0.274 C 
ATOM      7  C   UNL A   1      31.813  27.661  23.505  1.00  0.00     0.170 C 
ATOM      8  C   UNL A   1      32.868  28.729  23.763  1.00  0.00     0.288 C 
ATOM      9  C   UNL A   1      31.229  27.431  24.898  1.00  0.00     0.109 C 
ATOM     10  N   UNL A   1      32.319  29.597  24.822  1.00  0.00    -0.334 N 
ATOM     11  H   UNL A   1      31.779  30.358  24.409  1.00  0.00     0.347 HD
ATOM     12  H   UNL A   1      33.064  30.015  25.378  1.00  0.00     0.347 HD
BRANCH   7  13
ATOM     13  N   UNL A   1      32.361  26.476  22.886  1.00  0.00    -0.243 N 
ATOM     14  C   UNL A   1      33.012  24.443  22.546  1.00  0.00     0.102 A 
ATOM     15  C   UNL A   1      32.026  25.190  23.155  1.00  0.00     0.137 A 
ATOM     16  N   UNL A   1      33.853  25.277  21.871  1.00  0.00    -0.134 NA
ATOM     17  N   UNL A   1      33.434  26.528  22.075  1.00  0.00    -0.067 NA
BRANCH  14  18
ATOM     18  C   UNL A   1      33.249  23.035  22.904  1.00  0.00     0.178 C 
BRANCH  18  19
ATOM     19  N   UNL A   1      32.296  22.313  23.674  1.00  0.00    -0.332 N 
ATOM     20  N   UNL A   1      33.551  21.441  25.544  1.00  0.00    -0.308 N 
ATOM     21  C   UNL A   1      32.406  21.747  24.888  1.00  0.00     0.319 C 
ATOM     22  H   UNL A   1      33.351  20.971  26.386  1.00  0.00     0.171 HD
ATOM     23  O   UNL A   1      31.354  21.387  25.428  1.00  0.00    -0.248 OA
ATOM     24  H   UNL A   1      31.413  22.211  23.251  1.00  0.00     0.165 HD
BRANCH  20  25
ATOM     25  C   UNL A   1      34.949  21.593  25.379  1.00  0.00     0.047 A 
ATOM     26  C   UNL A   1      34.810  24.075  26.034  1.00  0.00     0.048 C 
ATOM     27  C   UNL A   1      35.578  22.814  25.725  1.00  0.00    -0.009 A 
ATOM     28  C   UNL A   1      36.994  22.868  25.743  1.00  0.00     0.046 A 
ATOM     29  Cl  UNL A   1      37.856  24.308  26.168  1.00  0.00    -0.084 Cl
ATOM     30  C   UNL A   1      37.767  21.753  25.424  1.00  0.00     0.021 A 
ATOM     31  C   UNL A   1      35.750  20.581  24.850  1.00  0.00     0.026 A 
ATOM     32  C   UNL A   1      37.140  20.610  24.960  1.00  0.00     0.004 A 
ENDBRANCH  20  25
ENDBRANCH  18  19
ENDBRANCH  14  18
ENDBRANCH   7  13
ENDBRANCH   3   6
ENDBRANCH   1   2
BRANCH   1  33
ATOM     33  C   UNL A   1      34.959  30.256  27.338  1.00  0.00     0.023 C 
BRANCH  33  34
ATOM     34  C   UNL A   1      33.878  31.277  27.731  1.00  0.00     0.023 C 
BRANCH  34  35
ATOM     35  C   UNL A   1      34.391  32.633  28.203  1.00  0.00     0.116 C 
BRANCH  35  36
ATOM     36  N   UNL A   1      34.228  32.861  29.643  1.00  0.00    -0.352 N 
ATOM     37  C   UNL A   1      34.941  32.286  30.678  1.00  0.00     0.251 C 
ATOM     38  H   UNL A   1      33.528  33.501  29.904  1.00  0.00     0.163 HD
ATOM     39  O   UNL A   1      34.487  32.249  31.828  1.00  0.00    -0.269 OA
BRANCH  37  40
ATOM     40  C   UNL A   1      36.273  31.738  30.399  1.00  0.00     0.039 A 
ATOM     41  C   UNL A   1      37.382  32.540  30.109  1.00  0.00     0.014 A 
ATOM     42  C   UNL A   1      36.399  30.358  30.490  1.00  0.00     0.014 A 
ATOM     43  C   UNL A   1      38.635  31.939  30.004  1.00  0.00     0.010 A 
ATOM     44  C   UNL A   1      37.641  29.799  30.582  1.00  0.00     0.010 A 
ATOM     45  C   UNL A   1      38.755  30.567  30.261  1.00  0.00    -0.014 A 
BRANCH  45  46
ATOM     46  C   UNL A   1      40.041  29.887  30.278  1.00  0.00     0.031 A 
ATOM     47  C   UNL A   1      40.624  29.639  31.619  1.00  0.00     0.074 A 
ATOM     48  C   UNL A   1      40.515  29.267  29.176  1.00  0.00     0.049 A 
ATOM     49  N   UNL A   1      41.748  30.084  32.070  1.00  0.00    -0.248 NA
ATOM     50  C   UNL A   1      39.835  28.900  32.616  1.00  0.00     0.031 C 
ATOM     51  C   UNL A   1      39.888  29.168  27.858  1.00  0.00     0.029 A 
ATOM     52  N   UNL A   1      41.597  28.462  29.039  1.00  0.00    -0.354 N 
ATOM     53  C   UNL A   1      41.905  29.531  33.337  1.00  0.00     0.074 A 
ATOM     54  C   UNL A   1      40.629  28.965  33.687  1.00  0.00     0.031 C 
ATOM     55  C   UNL A   1      40.436  28.150  27.163  1.00  0.00     0.029 A 
ATOM     56  C   UNL A   1      41.569  27.650  27.910  1.00  0.00     0.049 A 
ATOM     57  H   UNL A   1      42.341  28.452  29.685  1.00  0.00     0.167 HD
ATOM     58  C   UNL A   1      43.144  29.387  33.887  1.00  0.00     0.037 A 
ATOM     59  C   UNL A   1      42.401  26.613  27.645  1.00  0.00     0.037 A 
ATOM     60  C   UNL A   1      44.124  30.164  33.164  1.00  0.00     0.049 A 
ATOM     61  C   UNL A   1      43.614  26.819  28.482  1.00  0.00     0.074 A 
ATOM     62  C   UNL A   1      44.244  31.505  32.846  1.00  0.00     0.029 A 
ATOM     63  N   UNL A   1      44.966  29.506  32.298  1.00  0.00    -0.354 N 
ATOM     64  N   UNL A   1      44.450  27.808  28.301  1.00  0.00    -0.248 NA
ATOM     65  C   UNL A   1      43.614  26.240  29.819  1.00  0.00     0.031 C 
ATOM     66  C   UNL A   1      44.712  31.518  31.499  1.00  0.00     0.029 A 
ATOM     67  C   UNL A   1      44.937  30.197  31.112  1.00  0.00     0.049 A 
ATOM     68  H   UNL A   1      45.489  28.694  32.491  1.00  0.00     0.167 HD
ATOM     69  C   UNL A   1      44.748  28.256  29.580  1.00  0.00     0.074 A 
ATOM     70  C   UNL A   1      44.265  27.205  30.475  1.00  0.00     0.031 C 
ATOM     71  C   UNL A   1      45.066  29.564  29.821  1.00  0.00     0.037 A 
BRANCH  58  72
ATOM     72  C   UNL A   1      43.553  28.283  34.832  1.00  0.00     0.064 A 
ATOM     73  C   UNL A   1      44.201  28.625  36.037  1.00  0.00     0.173 A 
ATOM     74  C   UNL A   1      43.618  26.920  34.474  1.00  0.00     0.173 A 
ATOM     75  F   UNL A   1      44.210  29.894  36.473  1.00  0.00    -0.203 F 
ATOM     76  C   UNL A   1      44.938  27.693  36.772  1.00  0.00     0.198 A 
ATOM     77  C   UNL A   1      44.307  25.981  35.241  1.00  0.00     0.198 A 
ATOM     78  F   UNL A   1      43.124  26.459  33.321  1.00  0.00    -0.203 F 
ATOM     79  F   UNL A   1      45.651  28.096  37.832  1.00  0.00    -0.200 F 
ATOM     80  C   UNL A   1      44.998  26.373  36.368  1.00  0.00     0.200 A 
ATOM     81  F   UNL A   1      44.364  24.708  34.824  1.00  0.00    -0.200 F 
ATOM     82  F   UNL A   1      45.757  25.492  37.030  1.00  0.00    -0.200 F 
ENDBRANCH  58  72
BRANCH  59  83
ATOM     83  C   UNL A   1      42.062  25.326  26.985  1.00  0.00     0.064 A 
ATOM     84  C   UNL A   1      42.811  24.858  25.893  1.00  0.00     0.173 A 
ATOM     85  C   UNL A   1      41.168  24.401  27.564  1.00  0.00     0.173 A 
ATOM     86  F   UNL A   1      43.710  25.658  25.302  1.00  0.00    -0.203 F 
ATOM     87  C   UNL A   1      42.700  23.539  25.434  1.00  0.00     0.198 A 
ATOM     88  C   UNL A   1      41.052  23.088  27.100  1.00  0.00     0.198 A 
ATOM     89  F   UNL A   1      40.446  24.716  28.649  1.00  0.00    -0.203 F 
ATOM     90  F   UNL A   1      43.480  23.114  24.430  1.00  0.00    -0.200 F 
ATOM     91  C   UNL A   1      41.830  22.653  26.046  1.00  0.00     0.200 A 
ATOM     92  F   UNL A   1      40.222  22.237  27.721  1.00  0.00    -0.200 F 
ATOM     93  F   UNL A   1      41.768  21.375  25.648  1.00  0.00    -0.200 F 
ENDBRANCH  59  83
BRANCH  71  94
ATOM     94  C   UNL A   1      45.329  30.474  28.651  1.00  0.00     0.064 A 
ATOM     95  C   UNL A   1      44.346  31.255  28.018  1.00  0.00     0.173 A 
ATOM     96  C   UNL A   1      46.660  30.698  28.274  1.00  0.00     0.173 A 
ATOM     97  F   UNL A   1      43.063  31.188  28.391  1.00  0.00    -0.203 F 
ATOM     98  C   UNL A   1      44.676  32.178  27.028  1.00  0.00     0.198 A 
ATOM     99  C   UNL A   1      46.993  31.649  27.313  1.00  0.00     0.198 A 
ATOM    100  F   UNL A   1      47.651  30.029  28.885  1.00  0.00    -0.203 F 
ATOM    101  F   UNL A   1      43.714  32.904  26.437  1.00  0.00    -0.200 F 
ATOM    102  C   UNL A   1      46.001  32.381  26.682  1.00  0.00     0.200 A 
ATOM    103  F   UNL A   1      48.281  31.878  27.024  1.00  0.00    -0.200 F 
ATOM    104  F   UNL A   1      46.324  33.301  25.764  1.00  0.00    -0.200 F 
ENDBRANCH  71  94
ENDBRANCH  45  46
ENDBRANCH  37  40
ENDBRANCH  35  36
ENDBRANCH  34  35
ENDBRANCH  33  34
ENDBRANCH   1  33
TORSDOF 15
ENDMDL
MODEL 2
REMARK VINA RESULT:     -12.9      3.264      8.550
REMARK SMILES Cc1c(Cl)cccc1NC(=O)NCc1cn([C@@H]2C[NH2+][C@H](C(=O)NCCCCNC(=O)c3ccc(-c4c5nc(c(-c6c(F)c(F)c(F)c(F)c6F)c6ccc([nH]6)c(-c6c(F)c(F)c(F)c(F)c6F)c6nc(c(-c7c(F)c(F)c(F)c(F)c7F)c7ccc4[nH]7)C=C6)C=C5)cc3)C2)nn1
REMARK SMILES IDX 24 1 23 2 21 3 22 4 20 6 17 7 18 8 94 9 19 10 16 13 14 14
REMARK SMILES IDX 15 15 96 16 95 17 13 18 12 19 9 20 10 21 11 23 8 25 1 26
REMARK SMILES IDX 2 27 3 28 4 29 5 30 7 31 6 32 25 33 26 34 27 35 28 36 29 37
REMARK SMILES IDX 30 39 31 40 32 41 93 42 33 43 92 44 34 45 35 46 36 47 86 48
REMARK SMILES IDX 37 49 91 50 85 51 87 52 38 53 90 54 84 55 83 56 39 58 71 59
REMARK SMILES IDX 51 60 70 61 52 62 55 63 69 64 88 65 53 66 54 67 68 69 89 70
REMARK SMILES IDX 56 71 40 72 41 73 49 74 42 75 43 76 47 77 50 78 44 79 45 80
REMARK SMILES IDX 48 81 46 82 72 83 73 84 81 85 74 86 75 87 79 88 82 89 76 90
REMARK SMILES IDX 77 91 80 92 78 93 57 94 58 95 66 96 59 97 60 98 64 99 67 100
REMARK SMILES IDX 61 101 62 102 65 103 63 104
REMARK H PARENT 23 5 19 11 19 12 9 22 12 24 28 38 87 57 55 68
REMARK Flexibility Score: inf
ROOT
ATOM      1  C   UNL A   1      38.353  21.174  25.445  1.00  0.00     0.116 C 
ENDROOT
BRANCH   1   2
ATOM      2  N   UNL A   1      37.701  22.463  25.560  1.00  0.00    -0.351 N 
ATOM      3  C   UNL A   1      36.404  22.846  25.685  1.00  0.00     0.278 C 
ATOM      4  O   UNL A   1      36.219  24.071  25.758  1.00  0.00    -0.268 OA
ATOM      5  H   UNL A   1      38.329  23.221  25.545  1.00  0.00     0.163 HD
BRANCH   3   6
ATOM      6  C   UNL A   1      35.178  21.915  25.823  1.00  0.00     0.274 C 
ATOM      7  C   UNL A   1      32.792  22.287  26.127  1.00  0.00     0.170 C 
ATOM      8  C   UNL A   1      33.499  22.177  27.471  1.00  0.00     0.288 C 
ATOM      9  C   UNL A   1      33.949  22.546  25.164  1.00  0.00     0.109 C 
ATOM     10  N   UNL A   1      34.794  21.528  27.198  1.00  0.00    -0.334 N 
ATOM     11  H   UNL A   1      34.701  20.514  27.265  1.00  0.00     0.347 HD
ATOM     12  H   UNL A   1      35.501  21.817  27.874  1.00  0.00     0.347 HD
BRANCH   7  13
ATOM     13  N   UNL A   1      31.770  23.310  26.118  1.00  0.00    -0.243 N 
ATOM     14  C   UNL A   1      30.448  24.895  25.475  1.00  0.00     0.102 A 
ATOM     15  C   UNL A   1      31.055  23.734  25.047  1.00  0.00     0.137 A 
ATOM     16  N   UNL A   1      30.742  25.093  26.792  1.00  0.00    -0.134 NA
ATOM     17  N   UNL A   1      31.546  24.102  27.183  1.00  0.00    -0.067 NA
BRANCH  14  18
ATOM     18  C   UNL A   1      29.894  25.875  24.527  1.00  0.00     0.178 C 
BRANCH  18  19
ATOM     19  N   UNL A   1      30.311  25.884  23.168  1.00  0.00    -0.332 N 
ATOM     20  N   UNL A   1      32.000  27.606  23.056  1.00  0.00    -0.308 N 
ATOM     21  C   UNL A   1      31.323  26.538  22.573  1.00  0.00     0.319 C 
ATOM     22  H   UNL A   1      32.648  27.935  22.390  1.00  0.00     0.171 HD
ATOM     23  O   UNL A   1      31.610  26.182  21.424  1.00  0.00    -0.248 OA
ATOM     24  H   UNL A   1      29.773  25.321  22.566  1.00  0.00     0.165 HD
BRANCH  20  25
ATOM     25  C   UNL A   1      32.054  28.393  24.232  1.00  0.00     0.047 A 
ATOM     26  C   UNL A   1      33.827  26.838  25.256  1.00  0.00     0.048 C 
ATOM     27  C   UNL A   1      33.007  28.104  25.239  1.00  0.00    -0.009 A 
ATOM     28  C   UNL A   1      33.173  29.026  26.302  1.00  0.00     0.046 A 
ATOM     29  Cl  UNL A   1      34.322  28.771  27.572  1.00  0.00    -0.084 Cl
ATOM     30  C   UNL A   1      32.417  30.195  26.374  1.00  0.00     0.021 A 
ATOM     31  C   UNL A   1      31.170  29.446  24.463  1.00  0.00     0.026 A 
ATOM     32  C   UNL A   1      31.401  30.396  25.458  1.00  0.00     0.004 A 
ENDBRANCH  20  25
ENDBRANCH  18  19
ENDBRANCH  14  18
ENDBRANCH   7  13
ENDBRANCH   3   6
ENDBRANCH   1   2
BRANCH   1  33
ATOM     33  C   UNL A   1      39.718  21.128  26.137  1.00  0.00     0.023 C 
BRANCH  33  34
ATOM     34  C   UNL A   1      39.989  22.216  27.189  1.00  0.00     0.023 C 
BRANCH  34  35
ATOM     35  C   UNL A   1      41.442  22.363  27.628  1.00  0.00     0.116 C 
BRANCH  35  36
ATOM     36  N   UNL A   1      42.400  22.380  26.517  1.00  0.00    -0.352 N 
ATOM     37  C   UNL A   1      42.775  23.457  25.737  1.00  0.00     0.251 C 
ATOM     38  H   UNL A   1      42.826  21.520  26.300  1.00  0.00     0.163 HD
ATOM     39  O   UNL A   1      43.276  23.296  24.618  1.00  0.00    -0.269 OA
BRANCH  37  40
ATOM     40  C   UNL A   1      42.596  24.812  26.272  1.00  0.00     0.039 A 
ATOM     41  C   UNL A   1      41.508  25.625  25.940  1.00  0.00     0.014 A 
ATOM     42  C   UNL A   1      43.552  25.241  27.183  1.00  0.00     0.014 A 
ATOM     43  C   UNL A   1      41.348  26.837  26.610  1.00  0.00     0.010 A 
ATOM     44  C   UNL A   1      43.292  26.324  27.973  1.00  0.00     0.010 A 
ATOM     45  C   UNL A   1      42.239  27.168  27.639  1.00  0.00    -0.014 A 
BRANCH  45  46
ATOM     46  C   UNL A   1      42.076  28.361  28.457  1.00  0.00     0.031 A 
ATOM     47  C   UNL A   1      43.021  29.470  28.179  1.00  0.00     0.074 A 
ATOM     48  C   UNL A   1      40.963  28.549  29.197  1.00  0.00     0.049 A 
ATOM     49  N   UNL A   1      43.870  29.989  29.001  1.00  0.00    -0.248 NA
ATOM     50  C   UNL A   1      43.114  30.004  26.812  1.00  0.00     0.031 C 
ATOM     51  C   UNL A   1      39.801  27.667  29.319  1.00  0.00     0.029 A 
ATOM     52  N   UNL A   1      40.563  29.646  29.887  1.00  0.00    -0.354 N 
ATOM     53  C   UNL A   1      44.477  31.040  28.321  1.00  0.00     0.074 A 
ATOM     54  C   UNL A   1      44.106  30.889  26.938  1.00  0.00     0.031 C 
ATOM     55  C   UNL A   1      38.745  28.361  29.790  1.00  0.00     0.029 A 
ATOM     56  C   UNL A   1      39.203  29.678  30.176  1.00  0.00     0.049 A 
ATOM     57  H   UNL A   1      41.184  30.359  30.162  1.00  0.00     0.167 HD
ATOM     58  C   UNL A   1      45.041  32.078  29.001  1.00  0.00     0.037 A 
ATOM     59  C   UNL A   1      38.508  30.738  30.656  1.00  0.00     0.037 A 
ATOM     60  C   UNL A   1      45.213  31.747  30.397  1.00  0.00     0.049 A 
ATOM     61  C   UNL A   1      39.505  31.649  31.282  1.00  0.00     0.074 A 
ATOM     62  C   UNL A   1      45.871  30.735  31.073  1.00  0.00     0.029 A 
ATOM     63  N   UNL A   1      44.324  32.274  31.304  1.00  0.00    -0.354 N 
ATOM     64  N   UNL A   1      40.183  31.341  32.356  1.00  0.00    -0.248 NA
ATOM     65  C   UNL A   1      40.113  32.665  30.432  1.00  0.00     0.031 C 
ATOM     66  C   UNL A   1      44.985  30.368  32.129  1.00  0.00     0.029 A 
ATOM     67  C   UNL A   1      43.893  31.235  32.090  1.00  0.00     0.049 A 
ATOM     68  H   UNL A   1      44.048  33.217  31.377  1.00  0.00     0.167 HD
ATOM     69  C   UNL A   1      41.473  31.779  32.097  1.00  0.00     0.074 A 
ATOM     70  C   UNL A   1      41.353  32.653  30.930  1.00  0.00     0.031 C 
ATOM     71  C   UNL A   1      42.561  31.156  32.642  1.00  0.00     0.037 A 
BRANCH  58  72
ATOM     72  C   UNL A   1      45.106  33.505  28.515  1.00  0.00     0.064 A 
ATOM     73  C   UNL A   1      46.356  34.157  28.485  1.00  0.00     0.173 A 
ATOM     74  C   UNL A   1      43.980  34.344  28.374  1.00  0.00     0.173 A 
ATOM     75  F   UNL A   1      47.495  33.460  28.616  1.00  0.00    -0.203 F 
ATOM     76  C   UNL A   1      46.463  35.548  28.419  1.00  0.00     0.198 A 
ATOM     77  C   UNL A   1      44.095  35.728  28.251  1.00  0.00     0.198 A 
ATOM     78  F   UNL A   1      42.728  33.883  28.465  1.00  0.00    -0.203 F 
ATOM     79  F   UNL A   1      47.665  36.128  28.536  1.00  0.00    -0.200 F 
ATOM     80  C   UNL A   1      45.331  36.334  28.312  1.00  0.00     0.200 A 
ATOM     81  F   UNL A   1      42.983  36.473  28.162  1.00  0.00    -0.200 F 
ATOM     82  F   UNL A   1      45.425  37.669  28.317  1.00  0.00    -0.200 F 
ENDBRANCH  58  72
BRANCH  59  83
ATOM     83  C   UNL A   1      37.121  31.145  30.310  1.00  0.00     0.064 A 
ATOM     84  C   UNL A   1      36.250  31.638  31.294  1.00  0.00     0.173 A 
ATOM     85  C   UNL A   1      36.701  31.305  28.973  1.00  0.00     0.173 A 
ATOM     86  F   UNL A   1      36.584  31.559  32.590  1.00  0.00    -0.203 F 
ATOM     87  C   UNL A   1      35.052  32.284  30.961  1.00  0.00     0.198 A 
ATOM     88  C   UNL A   1      35.502  31.942  28.642  1.00  0.00     0.198 A 
ATOM     89  F   UNL A   1      37.479  30.928  27.948  1.00  0.00    -0.203 F 
ATOM     90  F   UNL A   1      34.279  32.797  31.928  1.00  0.00    -0.200 F 
ATOM     91  C   UNL A   1      34.686  32.446  29.635  1.00  0.00     0.200 A 
ATOM     92  F   UNL A   1      35.176  32.112  27.352  1.00  0.00    -0.200 F 
ATOM     93  F   UNL A   1      33.572  33.118  29.314  1.00  0.00    -0.200 F 
ENDBRANCH  59  83
BRANCH  71  94
ATOM     94  C   UNL A   1      42.343  30.131  33.724  1.00  0.00     0.064 A 
ATOM     95  C   UNL A   1      42.168  28.756  33.490  1.00  0.00     0.173 A 
ATOM     96  C   UNL A   1      42.498  30.536  35.057  1.00  0.00     0.173 A 
ATOM     97  F   UNL A   1      42.123  28.266  32.246  1.00  0.00    -0.203 F 
ATOM     98  C   UNL A   1      42.106  27.841  34.540  1.00  0.00     0.198 A 
ATOM     99  C   UNL A   1      42.475  29.616  36.102  1.00  0.00     0.198 A 
ATOM    100  F   UNL A   1      42.730  31.827  35.344  1.00  0.00    -0.203 F 
ATOM    101  F   UNL A   1      41.930  26.535  34.284  1.00  0.00    -0.200 F 
ATOM    102  C   UNL A   1      42.268  28.271  35.845  1.00  0.00     0.200 A 
ATOM    103  F   UNL A   1      42.687  30.033  37.358  1.00  0.00    -0.200 F 
ATOM    104  F   UNL A   1      42.254  27.387  36.852  1.00  0.00    -0.200 F 
ENDBRANCH  71  94
ENDBRANCH  45  46
ENDBRANCH  37  40
ENDBRANCH  35  36
ENDBRANCH  34  35
ENDBRANCH  33  34
ENDBRANCH   1  33
TORSDOF 15
ENDMDL
MODEL 3
REMARK VINA RESULT:     -12.9      2.103      2.994
REMARK SMILES Cc1c(Cl)cccc1NC(=O)NCc1cn([C@@H]2C[NH2+][C@H](C(=O)NCCCCNC(=O)c3ccc(-c4c5nc(c(-c6c(F)c(F)c(F)c(F)c6F)c6ccc([nH]6)c(-c6c(F)c(F)c(F)c(F)c6F)c6nc(c(-c7c(F)c(F)c(F)c(F)c7F)c7ccc4[nH]7)C=C6)C=C5)cc3)C2)nn1
REMARK SMILES IDX 24 1 23 2 21 3 22 4 20 6 17 7 18 8 94 9 19 10 16 13 14 14
REMARK SMILES IDX 15 15 96 16 95 17 13 18 12 19 9 20 10 21 11 23 8 25 1 26
REMARK SMILES IDX 2 27 3 28 4 29 5 30 7 31 6 32 25 33 26 34 27 35 28 36 29 37
REMARK SMILES IDX 30 39 31 40 32 41 93 42 33 43 92 44 34 45 35 46 36 47 86 48
REMARK SMILES IDX 37 49 91 50 85 51 87 52 38 53 90 54 84 55 83 56 39 58 71 59
REMARK SMILES IDX 51 60 70 61 52 62 55 63 69 64 88 65 53 66 54 67 68 69 89 70
REMARK SMILES IDX 56 71 40 72 41 73 49 74 42 75 43 76 47 77 50 78 44 79 45 80
REMARK SMILES IDX 48 81 46 82 72 83 73 84 81 85 74 86 75 87 79 88 82 89 76 90
REMARK SMILES IDX 77 91 80 92 78 93 57 94 58 95 66 96 59 97 60 98 64 99 67 100
REMARK SMILES IDX 61 101 62 102 65 103 63 104
REMARK H PARENT 23 5 19 11 19 12 9 22 12 24 28 38 87 57 55 68
REMARK Flexibility Score: inf
ROOT
ATOM      1  C   UNL A   1      31.441  29.332  25.038  1.00  0.00     0.116 C 
ENDROOT
BRANCH   1   2
ATOM      2  N   UNL A   1      30.697  29.865  23.914  1.00  0.00    -0.351 N 
ATOM      3  C   UNL A   1      30.143  29.302  22.809  1.00  0.00     0.278 C 
ATOM      4  O   UNL A   1      29.569  30.094  22.045  1.00  0.00    -0.268 OA
ATOM      5  H   UNL A   1      30.566  30.840  23.960  1.00  0.00     0.163 HD
BRANCH   3   6
ATOM      6  C   UNL A   1      30.093  27.795  22.469  1.00  0.00     0.274 C 
ATOM      7  C   UNL A   1      30.632  25.762  23.695  1.00  0.00     0.170 C 
ATOM      8  C   UNL A   1      31.849  26.277  22.937  1.00  0.00     0.288 C 
ATOM      9  C   UNL A   1      29.709  26.980  23.706  1.00  0.00     0.109 C 
ATOM     10  N   UNL A   1      31.329  27.203  21.914  1.00  0.00    -0.334 N 
ATOM     11  H   UNL A   1      31.120  26.695  21.053  1.00  0.00     0.347 HD
ATOM     12  H   UNL A   1      32.014  27.923  21.687  1.00  0.00     0.347 HD
BRANCH   7  13
ATOM     13  N   UNL A   1      30.967  25.256  25.007  1.00  0.00    -0.243 N 
ATOM     14  C   UNL A   1      31.884  24.129  26.607  1.00  0.00     0.102 A 
ATOM     15  C   UNL A   1      32.153  24.726  25.394  1.00  0.00     0.137 A 
ATOM     16  N   UNL A   1      30.589  24.380  26.951  1.00  0.00    -0.134 NA
ATOM     17  N   UNL A   1      30.036  25.088  25.965  1.00  0.00    -0.067 NA
BRANCH  14  18
ATOM     18  C   UNL A   1      32.783  23.120  27.190  1.00  0.00     0.178 C 
BRANCH  18  19
ATOM     19  N   UNL A   1      34.193  23.306  27.168  1.00  0.00    -0.332 N 
ATOM     20  N   UNL A   1      34.962  21.966  25.313  1.00  0.00    -0.308 N 
ATOM     21  C   UNL A   1      35.109  22.917  26.266  1.00  0.00     0.319 C 
ATOM     22  H   UNL A   1      35.808  21.829  24.829  1.00  0.00     0.171 HD
ATOM     23  O   UNL A   1      36.235  23.416  26.371  1.00  0.00    -0.248 OA
ATOM     24  H   UNL A   1      34.556  23.801  27.938  1.00  0.00     0.165 HD
BRANCH  20  25
ATOM     25  C   UNL A   1      33.954  21.111  24.805  1.00  0.00     0.047 A 
ATOM     26  C   UNL A   1      33.455  22.746  22.886  1.00  0.00     0.048 C 
ATOM     27  C   UNL A   1      33.310  21.415  23.581  1.00  0.00    -0.009 A 
ATOM     28  C   UNL A   1      32.459  20.443  23.001  1.00  0.00     0.046 A 
ATOM     29  Cl  UNL A   1      31.640  20.714  21.499  1.00  0.00    -0.084 Cl
ATOM     30  C   UNL A   1      32.244  19.208  23.611  1.00  0.00     0.021 A 
ATOM     31  C   UNL A   1      33.535  19.969  25.488  1.00  0.00     0.026 A 
ATOM     32  C   UNL A   1      32.772  18.979  24.868  1.00  0.00     0.004 A 
ENDBRANCH  20  25
ENDBRANCH  18  19
ENDBRANCH  14  18
ENDBRANCH   7  13
ENDBRANCH   3   6
ENDBRANCH   1   2
BRANCH   1  33
ATOM     33  C   UNL A   1      32.940  29.196  24.754  1.00  0.00     0.023 C 
BRANCH  33  34
ATOM     34  C   UNL A   1      33.810  28.675  25.910  1.00  0.00     0.023 C 
BRANCH  34  35
ATOM     35  C   UNL A   1      33.733  29.473  27.207  1.00  0.00     0.116 C 
BRANCH  35  36
ATOM     36  N   UNL A   1      34.042  30.899  27.046  1.00  0.00    -0.352 N 
ATOM     37  C   UNL A   1      35.052  31.622  27.651  1.00  0.00     0.251 C 
ATOM     38  H   UNL A   1      33.459  31.401  26.432  1.00  0.00     0.163 HD
ATOM     39  O   UNL A   1      34.992  32.853  27.748  1.00  0.00    -0.269 OA
BRANCH  37  40
ATOM     40  C   UNL A   1      36.227  30.904  28.159  1.00  0.00     0.039 A 
ATOM     41  C   UNL A   1      36.370  29.515  28.071  1.00  0.00     0.014 A 
ATOM     42  C   UNL A   1      37.238  31.689  28.697  1.00  0.00     0.014 A 
ATOM     43  C   UNL A   1      37.583  28.941  28.447  1.00  0.00     0.010 A 
ATOM     44  C   UNL A   1      38.482  31.157  28.877  1.00  0.00     0.010 A 
ATOM     45  C   UNL A   1      38.640  29.776  28.833  1.00  0.00    -0.014 A 
BRANCH  45  46
ATOM     46  C   UNL A   1      39.968  29.262  29.135  1.00  0.00     0.031 A 
ATOM     47  C   UNL A   1      40.245  28.988  30.566  1.00  0.00     0.074 A 
ATOM     48  C   UNL A   1      40.770  28.791  28.157  1.00  0.00     0.049 A 
ATOM     49  N   UNL A   1      41.158  29.534  31.297  1.00  0.00    -0.248 NA
ATOM     50  C   UNL A   1      39.353  28.084  31.307  1.00  0.00     0.031 C 
ATOM     51  C   UNL A   1      40.492  28.714  26.722  1.00  0.00     0.029 A 
ATOM     52  N   UNL A   1      41.955  28.139  28.254  1.00  0.00    -0.354 N 
ATOM     53  C   UNL A   1      41.086  28.912  32.539  1.00  0.00     0.074 A 
ATOM     54  C   UNL A   1      39.854  28.166  32.542  1.00  0.00     0.031 C 
ATOM     55  C   UNL A   1      41.324  27.827  26.140  1.00  0.00     0.029 A 
ATOM     56  C   UNL A   1      42.307  27.417  27.119  1.00  0.00     0.049 A 
ATOM     57  H   UNL A   1      42.518  28.173  29.061  1.00  0.00     0.167 HD
ATOM     58  C   UNL A   1      42.167  28.882  33.368  1.00  0.00     0.037 A 
ATOM     59  C   UNL A   1      43.314  26.515  27.020  1.00  0.00     0.037 A 
ATOM     60  C   UNL A   1      43.172  29.827  32.941  1.00  0.00     0.049 A 
ATOM     61  C   UNL A   1      44.254  26.807  28.137  1.00  0.00     0.074 A 
ATOM     62  C   UNL A   1      43.177  31.193  32.720  1.00  0.00     0.029 A 
ATOM     63  N   UNL A   1      44.278  29.346  32.279  1.00  0.00    -0.354 N 
ATOM     64  N   UNL A   1      44.963  27.902  28.209  1.00  0.00    -0.248 NA
ATOM     65  C   UNL A   1      44.018  26.133  29.407  1.00  0.00     0.031 C 
ATOM     66  C   UNL A   1      43.944  31.365  31.530  1.00  0.00     0.029 A 
ATOM     67  C   UNL A   1      44.435  30.115  31.153  1.00  0.00     0.049 A 
ATOM     68  H   UNL A   1      44.848  28.594  32.559  1.00  0.00     0.167 HD
ATOM     69  C   UNL A   1      44.885  28.286  29.540  1.00  0.00     0.074 A 
ATOM     70  C   UNL A   1      44.354  27.119  30.244  1.00  0.00     0.031 C 
ATOM     71  C   UNL A   1      44.953  29.602  29.907  1.00  0.00     0.037 A 
BRANCH  58  72
ATOM     72  C   UNL A   1      42.490  27.770  34.336  1.00  0.00     0.064 A 
ATOM     73  C   UNL A   1      43.100  26.596  33.844  1.00  0.00     0.173 A 
ATOM     74  C   UNL A   1      41.959  27.677  35.640  1.00  0.00     0.173 A 
ATOM     75  F   UNL A   1      43.634  26.566  32.614  1.00  0.00    -0.203 F 
ATOM     76  C   UNL A   1      43.089  25.399  34.564  1.00  0.00     0.198 A 
ATOM     77  C   UNL A   1      42.001  26.495  36.378  1.00  0.00     0.198 A 
ATOM     78  F   UNL A   1      41.280  28.678  36.208  1.00  0.00    -0.203 F 
ATOM     79  F   UNL A   1      43.555  24.279  33.997  1.00  0.00    -0.200 F 
ATOM     80  C   UNL A   1      42.531  25.347  35.828  1.00  0.00     0.200 A 
ATOM     81  F   UNL A   1      41.442  26.462  37.596  1.00  0.00    -0.200 F 
ATOM     82  F   UNL A   1      42.456  24.188  36.492  1.00  0.00    -0.200 F 
ENDBRANCH  58  72
BRANCH  59  83
ATOM     83  C   UNL A   1      43.323  25.248  26.243  1.00  0.00     0.064 A 
ATOM     84  C   UNL A   1      44.336  24.987  25.306  1.00  0.00     0.173 A 
ATOM     85  C   UNL A   1      42.495  24.157  26.582  1.00  0.00     0.173 A 
ATOM     86  F   UNL A   1      45.190  25.957  24.951  1.00  0.00    -0.203 F 
ATOM     87  C   UNL A   1      44.531  23.707  24.770  1.00  0.00     0.198 A 
ATOM     88  C   UNL A   1      42.686  22.884  26.040  1.00  0.00     0.198 A 
ATOM     89  F   UNL A   1      41.535  24.273  27.510  1.00  0.00    -0.203 F 
ATOM     90  F   UNL A   1      45.549  23.485  23.927  1.00  0.00    -0.200 F 
ATOM     91  C   UNL A   1      43.714  22.655  25.147  1.00  0.00     0.200 A 
ATOM     92  F   UNL A   1      41.901  21.871  26.436  1.00  0.00    -0.200 F 
ATOM     93  F   UNL A   1      43.939  21.418  24.683  1.00  0.00    -0.200 F 
ENDBRANCH  59  83
BRANCH  71  94
ATOM     94  C   UNL A   1      45.355  30.623  28.877  1.00  0.00     0.064 A 
ATOM     95  C   UNL A   1      44.458  31.267  28.006  1.00  0.00     0.173 A 
ATOM     96  C   UNL A   1      46.674  31.097  28.897  1.00  0.00     0.173 A 
ATOM     97  F   UNL A   1      43.157  30.957  27.999  1.00  0.00    -0.203 F 
ATOM     98  C   UNL A   1      44.874  32.300  27.168  1.00  0.00     0.198 A 
ATOM     99  C   UNL A   1      47.078  32.156  28.088  1.00  0.00     0.198 A 
ATOM    100  F   UNL A   1      47.564  30.566  29.750  1.00  0.00    -0.203 F 
ATOM    101  F   UNL A   1      43.995  32.890  26.342  1.00  0.00    -0.200 F 
ATOM    102  C   UNL A   1      46.182  32.750  27.215  1.00  0.00     0.200 A 
ATOM    103  F   UNL A   1      48.332  32.621  28.179  1.00  0.00    -0.200 F 
ATOM    104  F   UNL A   1      46.571  33.773  26.444  1.00  0.00    -0.200 F 
ENDBRANCH  71  94
ENDBRANCH  45  46
ENDBRANCH  37  40
ENDBRANCH  35  36
ENDBRANCH  34  35
ENDBRANCH  33  34
ENDBRANCH   1  33
TORSDOF 15
ENDMDL
