MODEL 1
REMARK VINA RESULT:     -12.3      0.000      0.000
REMARK SMILES O=C(NCCCCNC(=O)c1nn(-c2ccc(Br)cc2F)cc1CCCO)c1ccc(-c2c3nc(c(-c4c(F)c(F)c(F)c(F)c4F)c4ccc([nH]4)c(-c4c(F)c(F)c(F)c(F)c4F)c4nc(c(-c5c(F)c(F)c(F)c(F)c5F)c5ccc2[nH]5)C=C4)C=C3)cc1
REMARK SMILES IDX 6 1 5 2 4 3 3 4 1 5 2 6 28 8 29 9 90 10 30 11 89 12 31 13
REMARK SMILES IDX 32 14 33 15 83 16 34 17 88 18 82 19 84 20 35 21 87 22 81 23
REMARK SMILES IDX 80 24 36 26 68 27 48 28 67 29 49 30 52 31 66 32 85 33 50 34
REMARK SMILES IDX 51 35 65 37 86 38 53 39 37 40 38 41 46 42 39 43 40 44 44 45
REMARK SMILES IDX 47 46 41 47 42 48 45 49 43 50 69 51 70 52 78 53 71 54 72 55
REMARK SMILES IDX 76 56 79 57 73 58 74 59 77 60 75 61 54 62 55 63 63 64 56 65
REMARK SMILES IDX 57 66 61 67 64 68 58 69 59 70 62 71 60 72 7 73 8 74 9 75
REMARK SMILES IDX 10 77 11 78 12 79 23 80 13 81 22 82 24 83 25 84 26 85 27 86
REMARK SMILES IDX 14 88 15 89 20 90 16 91 19 92 21 93 17 94 18 95
REMARK H PARENT 3 7 84 25 52 36 8 76 27 87
REMARK Flexibility Score: inf
ROOT
ATOM      1  C   UNL A   1      38.129  21.716  25.378  1.00  0.00     0.023 C 
ENDROOT
BRANCH   1   2
ATOM      2  C   UNL A   1      39.146  22.218  26.411  1.00  0.00     0.023 C 
BRANCH   2   3
ATOM      3  C   UNL A   1      40.437  21.409  26.518  1.00  0.00     0.116 C 
BRANCH   3   4
ATOM      4  N   UNL A   1      41.474  21.786  25.583  1.00  0.00    -0.352 N 
ATOM      5  O   UNL A   1      43.161  22.804  24.576  1.00  0.00    -0.269 OA
ATOM      6  C   UNL A   1      42.308  22.862  25.464  1.00  0.00     0.251 C 
ATOM      7  H   UNL A   1      41.608  21.118  24.872  1.00  0.00     0.163 HD
BRANCH   6   8
ATOM      8  C   UNL A   1      42.220  24.098  26.286  1.00  0.00     0.039 A 
ATOM      9  C   UNL A   1      42.846  24.302  27.516  1.00  0.00     0.014 A 
ATOM     10  C   UNL A   1      41.450  25.142  25.743  1.00  0.00     0.014 A 
ATOM     11  C   UNL A   1      42.649  25.486  28.224  1.00  0.00     0.010 A 
ATOM     12  C   UNL A   1      41.273  26.339  26.431  1.00  0.00     0.010 A 
ATOM     13  C   UNL A   1      41.853  26.501  27.688  1.00  0.00    -0.014 A 
BRANCH  13  14
ATOM     14  C   UNL A   1      41.748  27.760  28.424  1.00  0.00     0.031 A 
ATOM     15  C   UNL A   1      42.837  28.762  28.203  1.00  0.00     0.074 A 
ATOM     16  C   UNL A   1      40.656  28.115  29.130  1.00  0.00     0.049 A 
ATOM     17  N   UNL A   1      43.558  29.383  29.083  1.00  0.00    -0.248 NA
ATOM     18  C   UNL A   1      43.174  29.099  26.812  1.00  0.00     0.031 C 
ATOM     19  C   UNL A   1      39.367  27.423  29.194  1.00  0.00     0.029 A 
ATOM     20  N   UNL A   1      40.439  29.254  29.850  1.00  0.00    -0.354 N 
ATOM     21  C   UNL A   1      44.348  30.288  28.374  1.00  0.00     0.074 A 
ATOM     22  C   UNL A   1      44.127  30.018  26.976  1.00  0.00     0.031 C 
ATOM     23  C   UNL A   1      38.447  28.257  29.729  1.00  0.00     0.029 A 
ATOM     24  C   UNL A   1      39.107  29.482  30.152  1.00  0.00     0.049 A 
ATOM     25  H   UNL A   1      41.164  29.859  30.130  1.00  0.00     0.167 HD
ATOM     26  C   UNL A   1      45.024  31.307  28.975  1.00  0.00     0.037 A 
ATOM     27  C   UNL A   1      38.569  30.624  30.641  1.00  0.00     0.037 A 
ATOM     28  C   UNL A   1      45.186  31.095  30.384  1.00  0.00     0.049 A 
ATOM     29  C   UNL A   1      39.656  31.432  31.240  1.00  0.00     0.074 A 
ATOM     30  C   UNL A   1      45.816  30.145  31.164  1.00  0.00     0.029 A 
ATOM     31  N   UNL A   1      44.414  31.822  31.253  1.00  0.00    -0.354 N 
ATOM     32  N   UNL A   1      40.281  31.133  32.343  1.00  0.00    -0.248 NA
ATOM     33  C   UNL A   1      40.305  32.434  30.406  1.00  0.00     0.031 C 
ATOM     34  C   UNL A   1      45.022  30.042  32.342  1.00  0.00     0.029 A 
ATOM     35  C   UNL A   1      43.969  30.946  32.206  1.00  0.00     0.049 A 
ATOM     36  H   UNL A   1      44.217  32.785  31.200  1.00  0.00     0.167 HD
ATOM     37  C   UNL A   1      41.577  31.583  32.145  1.00  0.00     0.074 A 
ATOM     38  C   UNL A   1      41.499  32.481  31.000  1.00  0.00     0.031 C 
ATOM     39  C   UNL A   1      42.633  30.968  32.750  1.00  0.00     0.037 A 
BRANCH  26  40
ATOM     40  C   UNL A   1      45.304  32.645  28.339  1.00  0.00     0.064 A 
ATOM     41  C   UNL A   1      44.237  33.520  28.050  1.00  0.00     0.173 A 
ATOM     42  C   UNL A   1      46.538  32.964  27.737  1.00  0.00     0.173 A 
ATOM     43  F   UNL A   1      43.012  33.294  28.549  1.00  0.00    -0.203 F 
ATOM     44  C   UNL A   1      44.382  34.594  27.168  1.00  0.00     0.198 A 
ATOM     45  C   UNL A   1      46.692  34.068  26.898  1.00  0.00     0.198 A 
ATOM     46  F   UNL A   1      47.604  32.161  27.847  1.00  0.00    -0.203 F 
ATOM     47  F   UNL A   1      43.312  35.326  26.829  1.00  0.00    -0.200 F 
ATOM     48  C   UNL A   1      45.609  34.865  26.590  1.00  0.00     0.200 A 
ATOM     49  F   UNL A   1      47.883  34.304  26.329  1.00  0.00    -0.200 F 
ATOM     50  F   UNL A   1      45.736  35.857  25.699  1.00  0.00    -0.200 F 
ENDBRANCH  26  40
BRANCH  27  51
ATOM     51  C   UNL A   1      37.216  31.175  30.402  1.00  0.00     0.064 A 
ATOM     52  C   UNL A   1      36.370  31.513  31.469  1.00  0.00     0.173 A 
ATOM     53  C   UNL A   1      36.826  31.622  29.125  1.00  0.00     0.173 A 
ATOM     54  F   UNL A   1      36.694  31.169  32.725  1.00  0.00    -0.203 F 
ATOM     55  C   UNL A   1      35.208  32.266  31.272  1.00  0.00     0.198 A 
ATOM     56  C   UNL A   1      35.660  32.361  28.927  1.00  0.00     0.198 A 
ATOM     57  F   UNL A   1      37.614  31.429  28.058  1.00  0.00    -0.203 F 
ATOM     58  F   UNL A   1      34.455  32.621  32.322  1.00  0.00    -0.200 F 
ATOM     59  C   UNL A   1      34.859  32.694  30.001  1.00  0.00     0.200 A 
ATOM     60  F   UNL A   1      35.353  32.798  27.698  1.00  0.00    -0.200 F 
ATOM     61  F   UNL A   1      33.775  33.461  29.819  1.00  0.00    -0.200 F 
ENDBRANCH  27  51
BRANCH  39  62
ATOM     62  C   UNL A   1      42.343  30.016  33.871  1.00  0.00     0.064 A 
ATOM     63  C   UNL A   1      41.933  28.686  33.675  1.00  0.00     0.173 A 
ATOM     64  C   UNL A   1      42.622  30.422  35.183  1.00  0.00     0.173 A 
ATOM     65  F   UNL A   1      41.754  28.194  32.442  1.00  0.00    -0.203 F 
ATOM     66  C   UNL A   1      41.759  27.821  34.753  1.00  0.00     0.198 A 
ATOM     67  C   UNL A   1      42.485  29.543  36.253  1.00  0.00     0.198 A 
ATOM     68  F   UNL A   1      43.079  31.662  35.421  1.00  0.00    -0.203 F 
ATOM     69  F   UNL A   1      41.350  26.560  34.543  1.00  0.00    -0.200 F 
ATOM     70  C   UNL A   1      42.041  28.248  36.039  1.00  0.00     0.200 A 
ATOM     71  F   UNL A   1      42.810  29.944  37.490  1.00  0.00    -0.200 F 
ATOM     72  F   UNL A   1      41.913  27.402  37.072  1.00  0.00    -0.200 F 
ENDBRANCH  39  62
ENDBRANCH  13  14
ENDBRANCH   6   8
ENDBRANCH   3   4
ENDBRANCH   2   3
ENDBRANCH   1   2
BRANCH   1  73
ATOM     73  C   UNL A   1      36.754  22.385  25.407  1.00  0.00     0.116 C 
BRANCH  73  74
ATOM     74  N   UNL A   1      35.914  21.853  26.462  1.00  0.00    -0.351 N 
ATOM     75  C   UNL A   1      34.547  21.762  26.519  1.00  0.00     0.272 C 
ATOM     76  H   UNL A   1      36.393  21.509  27.249  1.00  0.00     0.163 HD
ATOM     77  O   UNL A   1      34.052  21.351  27.565  1.00  0.00    -0.267 OA
BRANCH  75  78
ATOM     78  C   UNL A   1      33.757  22.213  25.369  1.00  0.00     0.153 A 
ATOM     79  N   UNL A   1      33.362  23.495  25.259  1.00  0.00    -0.162 NA
ATOM     80  C   UNL A   1      33.295  21.430  24.272  1.00  0.00     0.004 A 
ATOM     81  N   UNL A   1      32.491  23.502  24.223  1.00  0.00    -0.237 N 
ATOM     82  C   UNL A   1      32.438  22.280  23.600  1.00  0.00     0.119 A 
BRANCH  80  83
ATOM     83  C   UNL A   1      33.529  19.985  23.965  1.00  0.00     0.042 C 
BRANCH  83  84
ATOM     84  C   UNL A   1      32.427  19.021  24.422  1.00  0.00     0.033 C 
BRANCH  84  85
ATOM     85  C   UNL A   1      32.808  18.021  25.508  1.00  0.00     0.156 C 
BRANCH  85  86
ATOM     86  O   UNL A   1      32.799  18.621  26.795  1.00  0.00    -0.396 OA
ATOM     87  H   UNL A   1      31.891  18.868  27.030  1.00  0.00     0.210 HD
ENDBRANCH  85  86
ENDBRANCH  84  85
ENDBRANCH  83  84
ENDBRANCH  80  83
BRANCH  81  88
ATOM     88  C   UNL A   1      31.759  24.669  23.913  1.00  0.00     0.100 A 
ATOM     89  C   UNL A   1      30.667  25.032  24.715  1.00  0.00     0.032 A 
ATOM     90  C   UNL A   1      32.092  25.450  22.805  1.00  0.00     0.149 A 
ATOM     91  C   UNL A   1      29.945  26.192  24.421  1.00  0.00     0.018 A 
ATOM     92  C   UNL A   1      31.344  26.580  22.482  1.00  0.00     0.057 A 
ATOM     93  F   UNL A   1      33.082  25.093  21.974  1.00  0.00    -0.205 F 
ATOM     94  C   UNL A   1      30.281  26.953  23.300  1.00  0.00     0.021 A 
ATOM     95  Br  UNL A   1      29.276  28.500  22.883  1.00  0.00    -0.051 Br
ENDBRANCH  81  88
ENDBRANCH  75  78
ENDBRANCH  73  74
ENDBRANCH   1  73
TORSDOF 16
ENDMDL
MODEL 2
REMARK VINA RESULT:     -12.2      5.432     11.348
REMARK SMILES O=C(NCCCCNC(=O)c1nn(-c2ccc(Br)cc2F)cc1CCCO)c1ccc(-c2c3nc(c(-c4c(F)c(F)c(F)c(F)c4F)c4ccc([nH]4)c(-c4c(F)c(F)c(F)c(F)c4F)c4nc(c(-c5c(F)c(F)c(F)c(F)c5F)c5ccc2[nH]5)C=C4)C=C3)cc1
REMARK SMILES IDX 6 1 5 2 4 3 3 4 1 5 2 6 28 8 29 9 90 10 30 11 89 12 31 13
REMARK SMILES IDX 32 14 33 15 83 16 34 17 88 18 82 19 84 20 35 21 87 22 81 23
REMARK SMILES IDX 80 24 36 26 68 27 48 28 67 29 49 30 52 31 66 32 85 33 50 34
REMARK SMILES IDX 51 35 65 37 86 38 53 39 37 40 38 41 46 42 39 43 40 44 44 45
REMARK SMILES IDX 47 46 41 47 42 48 45 49 43 50 69 51 70 52 78 53 71 54 72 55
REMARK SMILES IDX 76 56 79 57 73 58 74 59 77 60 75 61 54 62 55 63 63 64 56 65
REMARK SMILES IDX 57 66 61 67 64 68 58 69 59 70 62 71 60 72 7 73 8 74 9 75
REMARK SMILES IDX 10 77 11 78 12 79 23 80 13 81 22 82 24 83 25 84 26 85 27 86
REMARK SMILES IDX 14 88 15 89 20 90 16 91 19 92 21 93 17 94 18 95
REMARK H PARENT 3 7 84 25 52 36 8 76 27 87
REMARK Flexibility Score: inf
ROOT
ATOM      1  C   UNL A   1      35.640  32.906  32.556  1.00  0.00     0.023 C 
ENDROOT
BRANCH   1   2
ATOM      2  C   UNL A   1      34.729  32.449  31.410  1.00  0.00     0.023 C 
BRANCH   2   3
ATOM      3  C   UNL A   1      34.745  33.325  30.158  1.00  0.00     0.116 C 
BRANCH   3   4
ATOM      4  N   UNL A   1      34.313  32.667  28.945  1.00  0.00    -0.352 N 
ATOM      5  O   UNL A   1      34.082  31.249  27.262  1.00  0.00    -0.269 OA
ATOM      6  C   UNL A   1      34.777  31.610  28.215  1.00  0.00     0.251 C 
ATOM      7  H   UNL A   1      33.503  33.073  28.559  1.00  0.00     0.163 HD
BRANCH   6   8
ATOM      8  C   UNL A   1      36.068  30.912  28.458  1.00  0.00     0.039 A 
ATOM      9  C   UNL A   1      36.280  29.537  28.354  1.00  0.00     0.014 A 
ATOM     10  C   UNL A   1      37.155  31.736  28.799  1.00  0.00     0.014 A 
ATOM     11  C   UNL A   1      37.524  28.987  28.657  1.00  0.00     0.010 A 
ATOM     12  C   UNL A   1      38.408  31.197  29.075  1.00  0.00     0.010 A 
ATOM     13  C   UNL A   1      38.586  29.815  29.029  1.00  0.00    -0.014 A 
BRANCH  13  14
ATOM     14  C   UNL A   1      39.896  29.203  29.250  1.00  0.00     0.031 A 
ATOM     15  C   UNL A   1      40.285  28.941  30.671  1.00  0.00     0.074 A 
ATOM     16  C   UNL A   1      40.662  28.718  28.253  1.00  0.00     0.049 A 
ATOM     17  N   UNL A   1      41.373  29.279  31.289  1.00  0.00    -0.248 NA
ATOM     18  C   UNL A   1      39.320  28.219  31.514  1.00  0.00     0.031 C 
ATOM     19  C   UNL A   1      40.312  28.581  26.838  1.00  0.00     0.029 A 
ATOM     20  N   UNL A   1      41.890  28.127  28.333  1.00  0.00    -0.354 N 
ATOM     21  C   UNL A   1      41.297  28.703  32.558  1.00  0.00     0.074 A 
ATOM     22  C   UNL A   1      39.981  28.127  32.669  1.00  0.00     0.031 C 
ATOM     23  C   UNL A   1      41.206  27.760  26.241  1.00  0.00     0.029 A 
ATOM     24  C   UNL A   1      42.247  27.419  27.197  1.00  0.00     0.049 A 
ATOM     25  H   UNL A   1      42.470  28.197  29.126  1.00  0.00     0.167 HD
ATOM     26  C   UNL A   1      42.373  28.602  33.387  1.00  0.00     0.037 A 
ATOM     27  C   UNL A   1      43.280  26.553  27.071  1.00  0.00     0.037 A 
ATOM     28  C   UNL A   1      43.430  29.499  33.019  1.00  0.00     0.049 A 
ATOM     29  C   UNL A   1      44.243  26.814  28.166  1.00  0.00     0.074 A 
ATOM     30  C   UNL A   1      43.560  30.871  32.928  1.00  0.00     0.029 A 
ATOM     31  N   UNL A   1      44.544  28.987  32.405  1.00  0.00    -0.354 N 
ATOM     32  N   UNL A   1      45.005  27.867  28.248  1.00  0.00    -0.248 NA
ATOM     33  C   UNL A   1      44.116  26.037  29.390  1.00  0.00     0.031 C 
ATOM     34  C   UNL A   1      44.471  31.089  31.854  1.00  0.00     0.029 A 
ATOM     35  C   UNL A   1      44.844  29.834  31.372  1.00  0.00     0.049 A 
ATOM     36  H   UNL A   1      45.032  28.170  32.657  1.00  0.00     0.167 HD
ATOM     37  C   UNL A   1      45.110  28.118  29.608  1.00  0.00     0.074 A 
ATOM     38  C   UNL A   1      44.654  26.896  30.258  1.00  0.00     0.031 C 
ATOM     39  C   UNL A   1      45.288  29.387  30.075  1.00  0.00     0.037 A 
BRANCH  26  40
ATOM     40  C   UNL A   1      42.592  27.487  34.379  1.00  0.00     0.064 A 
ATOM     41  C   UNL A   1      43.120  26.255  33.942  1.00  0.00     0.173 A 
ATOM     42  C   UNL A   1      42.024  27.487  35.669  1.00  0.00     0.173 A 
ATOM     43  F   UNL A   1      43.659  26.137  32.719  1.00  0.00    -0.203 F 
ATOM     44  C   UNL A   1      43.024  25.095  34.716  1.00  0.00     0.198 A 
ATOM     45  C   UNL A   1      41.977  26.340  36.460  1.00  0.00     0.198 A 
ATOM     46  F   UNL A   1      41.398  28.564  36.163  1.00  0.00    -0.203 F 
ATOM     47  F   UNL A   1      43.431  23.923  34.211  1.00  0.00    -0.200 F 
ATOM     48  C   UNL A   1      42.448  25.138  35.973  1.00  0.00     0.200 A 
ATOM     49  F   UNL A   1      41.397  26.393  37.668  1.00  0.00    -0.200 F 
ATOM     50  F   UNL A   1      42.301  24.017  36.691  1.00  0.00    -0.200 F 
ENDBRANCH  26  40
BRANCH  27  51
ATOM     51  C   UNL A   1      43.367  25.349  26.214  1.00  0.00     0.064 A 
ATOM     52  C   UNL A   1      44.452  25.150  25.347  1.00  0.00     0.173 A 
ATOM     53  C   UNL A   1      42.515  24.247  26.418  1.00  0.00     0.173 A 
ATOM     54  F   UNL A   1      45.339  26.134  25.138  1.00  0.00    -0.203 F 
ATOM     55  C   UNL A   1      44.680  23.916  24.731  1.00  0.00     0.198 A 
ATOM     56  C   UNL A   1      42.735  23.020  25.792  1.00  0.00     0.198 A 
ATOM     57  F   UNL A   1      41.505  24.309  27.298  1.00  0.00    -0.203 F 
ATOM     58  F   UNL A   1      45.759  23.744  23.957  1.00  0.00    -0.200 F 
ATOM     59  C   UNL A   1      43.824  22.850  24.960  1.00  0.00     0.200 A 
ATOM     60  F   UNL A   1      41.918  21.988  26.050  1.00  0.00    -0.200 F 
ATOM     61  F   UNL A   1      44.071  21.652  24.413  1.00  0.00    -0.200 F 
ENDBRANCH  27  51
BRANCH  39  62
ATOM     62  C   UNL A   1      45.687  30.447  29.093  1.00  0.00     0.064 A 
ATOM     63  C   UNL A   1      47.022  30.743  28.768  1.00  0.00     0.173 A 
ATOM     64  C   UNL A   1      44.682  31.087  28.355  1.00  0.00     0.173 A 
ATOM     65  F   UNL A   1      48.035  30.091  29.352  1.00  0.00    -0.203 F 
ATOM     66  C   UNL A   1      47.332  31.681  27.785  1.00  0.00     0.198 A 
ATOM     67  C   UNL A   1      44.996  31.994  27.347  1.00  0.00     0.198 A 
ATOM     68  F   UNL A   1      43.392  30.794  28.580  1.00  0.00    -0.203 F 
ATOM     69  F   UNL A   1      48.613  31.960  27.504  1.00  0.00    -0.200 F 
ATOM     70  C   UNL A   1      46.320  32.300  27.072  1.00  0.00     0.200 A 
ATOM     71  F   UNL A   1      44.015  32.551  26.623  1.00  0.00    -0.200 F 
ATOM     72  F   UNL A   1      46.619  33.171  26.098  1.00  0.00    -0.200 F 
ENDBRANCH  39  62
ENDBRANCH  13  14
ENDBRANCH   6   8
ENDBRANCH   3   4
ENDBRANCH   2   3
ENDBRANCH   1   2
BRANCH   1  73
ATOM     73  C   UNL A   1      36.585  34.067  32.242  1.00  0.00     0.116 C 
BRANCH  73  74
ATOM     74  N   UNL A   1      37.175  34.625  33.443  1.00  0.00    -0.351 N 
ATOM     75  C   UNL A   1      38.484  34.612  33.852  1.00  0.00     0.272 C 
ATOM     76  H   UNL A   1      36.547  35.077  34.051  1.00  0.00     0.163 HD
ATOM     77  O   UNL A   1      38.733  35.076  34.962  1.00  0.00    -0.267 OA
BRANCH  75  78
ATOM     78  C   UNL A   1      39.493  33.997  32.985  1.00  0.00     0.153 A 
ATOM     79  N   UNL A   1      40.328  34.752  32.247  1.00  0.00    -0.162 NA
ATOM     80  C   UNL A   1      39.729  32.607  32.778  1.00  0.00     0.004 A 
ATOM     81  N   UNL A   1      40.953  33.878  31.424  1.00  0.00    -0.237 N 
ATOM     82  C   UNL A   1      40.625  32.580  31.726  1.00  0.00     0.119 A 
BRANCH  80  83
ATOM     83  C   UNL A   1      39.074  31.422  33.412  1.00  0.00     0.042 C 
BRANCH  83  84
ATOM     84  C   UNL A   1      39.533  31.092  34.837  1.00  0.00     0.033 C 
BRANCH  84  85
ATOM     85  C   UNL A   1      38.434  30.892  35.875  1.00  0.00     0.156 C 
BRANCH  85  86
ATOM     86  O   UNL A   1      37.302  31.702  35.596  1.00  0.00    -0.396 OA
ATOM     87  H   UNL A   1      37.321  31.977  34.667  1.00  0.00     0.210 HD
ENDBRANCH  85  86
ENDBRANCH  84  85
ENDBRANCH  83  84
ENDBRANCH  80  83
BRANCH  81  88
ATOM     88  C   UNL A   1      41.803  34.345  30.399  1.00  0.00     0.100 A 
ATOM     89  C   UNL A   1      43.192  34.206  30.537  1.00  0.00     0.032 A 
ATOM     90  C   UNL A   1      41.281  34.966  29.263  1.00  0.00     0.149 A 
ATOM     91  C   UNL A   1      44.039  34.656  29.520  1.00  0.00     0.018 A 
ATOM     92  C   UNL A   1      42.127  35.457  28.270  1.00  0.00     0.057 A 
ATOM     93  F   UNL A   1      39.965  35.181  29.131  1.00  0.00    -0.205 F 
ATOM     94  C   UNL A   1      43.502  35.288  28.398  1.00  0.00     0.021 A 
ATOM     95  Br  UNL A   1      44.655  35.931  27.044  1.00  0.00    -0.051 Br
ENDBRANCH  81  88
ENDBRANCH  75  78
ENDBRANCH  73  74
ENDBRANCH   1  73
TORSDOF 16
ENDMDL
MODEL 3
REMARK VINA RESULT:     -12.1      5.509     11.191
REMARK SMILES O=C(NCCCCNC(=O)c1nn(-c2ccc(Br)cc2F)cc1CCCO)c1ccc(-c2c3nc(c(-c4c(F)c(F)c(F)c(F)c4F)c4ccc([nH]4)c(-c4c(F)c(F)c(F)c(F)c4F)c4nc(c(-c5c(F)c(F)c(F)c(F)c5F)c5ccc2[nH]5)C=C4)C=C3)cc1
REMARK SMILES IDX 6 1 5 2 4 3 3 4 1 5 2 6 28 8 29 9 90 10 30 11 89 12 31 13
REMARK SMILES IDX 32 14 33 15 83 16 34 17 88 18 82 19 84 20 35 21 87 22 81 23
REMARK SMILES IDX 80 24 36 26 68 27 48 28 67 29 49 30 52 31 66 32 85 33 50 34
REMARK SMILES IDX 51 35 65 37 86 38 53 39 37 40 38 41 46 42 39 43 40 44 44 45
REMARK SMILES IDX 47 46 41 47 42 48 45 49 43 50 69 51 70 52 78 53 71 54 72 55
REMARK SMILES IDX 76 56 79 57 73 58 74 59 77 60 75 61 54 62 55 63 63 64 56 65
REMARK SMILES IDX 57 66 61 67 64 68 58 69 59 70 62 71 60 72 7 73 8 74 9 75
REMARK SMILES IDX 10 77 11 78 12 79 23 80 13 81 22 82 24 83 25 84 26 85 27 86
REMARK SMILES IDX 14 88 15 89 20 90 16 91 19 92 21 93 17 94 18 95
REMARK H PARENT 3 7 84 25 52 36 8 76 27 87
REMARK Flexibility Score: inf
ROOT
ATOM      1  C   UNL A   1      35.276  34.553  32.005  1.00  0.00     0.023 C 
ENDROOT
BRANCH   1   2
ATOM      2  C   UNL A   1      34.327  34.192  30.856  1.00  0.00     0.023 C 
BRANCH   2   3
ATOM      3  C   UNL A   1      34.979  34.017  29.486  1.00  0.00     0.116 C 
BRANCH   3   4
ATOM      4  N   UNL A   1      34.325  33.065  28.615  1.00  0.00    -0.352 N 
ATOM      5  O   UNL A   1      33.763  31.233  27.509  1.00  0.00    -0.269 OA
ATOM      6  C   UNL A   1      34.620  31.801  28.189  1.00  0.00     0.251 C 
ATOM      7  H   UNL A   1      33.478  33.405  28.245  1.00  0.00     0.163 HD
BRANCH   6   8
ATOM      8  C   UNL A   1      35.906  31.099  28.444  1.00  0.00     0.039 A 
ATOM      9  C   UNL A   1      36.098  29.717  28.408  1.00  0.00     0.014 A 
ATOM     10  C   UNL A   1      37.010  31.923  28.723  1.00  0.00     0.014 A 
ATOM     11  C   UNL A   1      37.340  29.166  28.717  1.00  0.00     0.010 A 
ATOM     12  C   UNL A   1      38.261  31.381  29.003  1.00  0.00     0.010 A 
ATOM     13  C   UNL A   1      38.420  29.996  29.026  1.00  0.00    -0.014 A 
BRANCH  13  14
ATOM     14  C   UNL A   1      39.725  29.377  29.255  1.00  0.00     0.031 A 
ATOM     15  C   UNL A   1      40.110  29.126  30.678  1.00  0.00     0.074 A 
ATOM     16  C   UNL A   1      40.490  28.877  28.263  1.00  0.00     0.049 A 
ATOM     17  N   UNL A   1      41.200  29.463  31.294  1.00  0.00    -0.248 NA
ATOM     18  C   UNL A   1      39.140  28.419  31.527  1.00  0.00     0.031 C 
ATOM     19  C   UNL A   1      40.141  28.730  26.849  1.00  0.00     0.029 A 
ATOM     20  N   UNL A   1      41.714  28.279  28.350  1.00  0.00    -0.354 N 
ATOM     21  C   UNL A   1      41.119  28.900  32.568  1.00  0.00     0.074 A 
ATOM     22  C   UNL A   1      39.799  28.333  32.683  1.00  0.00     0.031 C 
ATOM     23  C   UNL A   1      41.029  27.897  26.261  1.00  0.00     0.029 A 
ATOM     24  C   UNL A   1      42.067  27.559  27.222  1.00  0.00     0.049 A 
ATOM     25  H   UNL A   1      42.293  28.353  29.143  1.00  0.00     0.167 HD
ATOM     26  C   UNL A   1      42.193  28.800  33.400  1.00  0.00     0.037 A 
ATOM     27  C   UNL A   1      43.095  26.684  27.105  1.00  0.00     0.037 A 
ATOM     28  C   UNL A   1      43.257  29.686  33.025  1.00  0.00     0.049 A 
ATOM     29  C   UNL A   1      44.058  26.949  28.198  1.00  0.00     0.074 A 
ATOM     30  C   UNL A   1      43.396  31.056  32.921  1.00  0.00     0.029 A 
ATOM     31  N   UNL A   1      44.368  29.161  32.417  1.00  0.00    -0.354 N 
ATOM     32  N   UNL A   1      44.826  27.999  28.272  1.00  0.00    -0.248 NA
ATOM     33  C   UNL A   1      43.924  26.185  29.430  1.00  0.00     0.031 C 
ATOM     34  C   UNL A   1      44.310  31.258  31.846  1.00  0.00     0.029 A 
ATOM     35  C   UNL A   1      44.675  29.996  31.376  1.00  0.00     0.049 A 
ATOM     36  H   UNL A   1      44.850  28.343  32.678  1.00  0.00     0.167 HD
ATOM     37  C   UNL A   1      44.931  28.261  29.629  1.00  0.00     0.074 A 
ATOM     38  C   UNL A   1      44.467  27.049  30.291  1.00  0.00     0.031 C 
ATOM     39  C   UNL A   1      45.117  29.534  30.084  1.00  0.00     0.037 A 
BRANCH  26  40
ATOM     40  C   UNL A   1      42.403  27.693  34.403  1.00  0.00     0.064 A 
ATOM     41  C   UNL A   1      42.972  26.471  33.989  1.00  0.00     0.173 A 
ATOM     42  C   UNL A   1      41.793  27.684  35.674  1.00  0.00     0.173 A 
ATOM     43  F   UNL A   1      43.554  26.361  32.784  1.00  0.00    -0.203 F 
ATOM     44  C   UNL A   1      42.876  25.312  34.763  1.00  0.00     0.198 A 
ATOM     45  C   UNL A   1      41.745  26.538  36.467  1.00  0.00     0.198 A 
ATOM     46  F   UNL A   1      41.128  28.748  36.142  1.00  0.00    -0.203 F 
ATOM     47  F   UNL A   1      43.325  24.147  34.277  1.00  0.00    -0.200 F 
ATOM     48  C   UNL A   1      42.259  25.346  36.000  1.00  0.00     0.200 A 
ATOM     49  F   UNL A   1      41.124  26.583  37.654  1.00  0.00    -0.200 F 
ATOM     50  F   UNL A   1      42.112  24.224  36.717  1.00  0.00    -0.200 F 
ENDBRANCH  26  40
BRANCH  27  51
ATOM     51  C   UNL A   1      43.174  25.472  26.260  1.00  0.00     0.064 A 
ATOM     52  C   UNL A   1      44.255  25.262  25.390  1.00  0.00     0.173 A 
ATOM     53  C   UNL A   1      42.321  24.374  26.479  1.00  0.00     0.173 A 
ATOM     54  F   UNL A   1      45.143  26.241  25.167  1.00  0.00    -0.203 F 
ATOM     55  C   UNL A   1      44.477  24.021  24.785  1.00  0.00     0.198 A 
ATOM     56  C   UNL A   1      42.534  23.140  25.864  1.00  0.00     0.198 A 
ATOM     57  F   UNL A   1      41.316  24.448  27.363  1.00  0.00    -0.203 F 
ATOM     58  F   UNL A   1      45.552  23.839  24.007  1.00  0.00    -0.200 F 
ATOM     59  C   UNL A   1      43.619  22.960  25.029  1.00  0.00     0.200 A 
ATOM     60  F   UNL A   1      41.717  22.113  26.136  1.00  0.00    -0.200 F 
ATOM     61  F   UNL A   1      43.861  21.756  24.492  1.00  0.00    -0.200 F 
ENDBRANCH  27  51
BRANCH  39  62
ATOM     62  C   UNL A   1      45.524  30.581  29.093  1.00  0.00     0.064 A 
ATOM     63  C   UNL A   1      44.622  31.229  28.231  1.00  0.00     0.173 A 
ATOM     64  C   UNL A   1      46.848  31.042  29.112  1.00  0.00     0.173 A 
ATOM     65  F   UNL A   1      43.320  30.919  28.237  1.00  0.00    -0.203 F 
ATOM     66  C   UNL A   1      45.044  32.256  27.389  1.00  0.00     0.198 A 
ATOM     67  C   UNL A   1      47.256  32.095  28.298  1.00  0.00     0.198 A 
ATOM     68  F   UNL A   1      47.736  30.502  29.962  1.00  0.00    -0.203 F 
ATOM     69  F   UNL A   1      44.168  32.848  26.563  1.00  0.00    -0.200 F 
ATOM     70  C   UNL A   1      46.357  32.691  27.428  1.00  0.00     0.200 A 
ATOM     71  F   UNL A   1      48.514  32.548  28.377  1.00  0.00    -0.200 F 
ATOM     72  F   UNL A   1      46.753  33.707  26.647  1.00  0.00    -0.200 F 
ENDBRANCH  39  62
ENDBRANCH  13  14
ENDBRANCH   6   8
ENDBRANCH   3   4
ENDBRANCH   2   3
ENDBRANCH   1   2
BRANCH   1  73
ATOM     73  C   UNL A   1      35.384  33.529  33.137  1.00  0.00     0.116 C 
BRANCH  73  74
ATOM     74  N   UNL A   1      35.420  32.169  32.636  1.00  0.00    -0.351 N 
ATOM     75  C   UNL A   1      36.500  31.348  32.432  1.00  0.00     0.272 C 
ATOM     76  H   UNL A   1      34.545  31.780  32.409  1.00  0.00     0.163 HD
ATOM     77  O   UNL A   1      36.289  30.257  31.910  1.00  0.00    -0.267 OA
BRANCH  75  78
ATOM     78  C   UNL A   1      37.837  31.835  32.784  1.00  0.00     0.153 A 
ATOM     79  N   UNL A   1      38.529  32.630  31.946  1.00  0.00    -0.162 NA
ATOM     80  C   UNL A   1      38.579  31.557  33.968  1.00  0.00     0.004 A 
ATOM     81  N   UNL A   1      39.771  32.699  32.479  1.00  0.00    -0.237 N 
ATOM     82  C   UNL A   1      39.831  32.076  33.700  1.00  0.00     0.119 A 
BRANCH  80  83
ATOM     83  C   UNL A   1      38.191  30.762  35.174  1.00  0.00     0.042 C 
BRANCH  83  84
ATOM     84  C   UNL A   1      38.605  31.358  36.525  1.00  0.00     0.033 C 
BRANCH  84  85
ATOM     85  C   UNL A   1      37.948  32.678  36.914  1.00  0.00     0.156 C 
BRANCH  85  86
ATOM     86  O   UNL A   1      36.768  32.467  37.675  1.00  0.00    -0.396 OA
ATOM     87  H   UNL A   1      36.047  32.197  37.087  1.00  0.00     0.210 HD
ENDBRANCH  85  86
ENDBRANCH  84  85
ENDBRANCH  83  84
ENDBRANCH  80  83
BRANCH  81  88
ATOM     88  C   UNL A   1      40.815  33.339  31.776  1.00  0.00     0.100 A 
ATOM     89  C   UNL A   1      41.169  32.882  30.498  1.00  0.00     0.032 A 
ATOM     90  C   UNL A   1      41.517  34.402  32.348  1.00  0.00     0.149 A 
ATOM     91  C   UNL A   1      42.193  33.518  29.792  1.00  0.00     0.018 A 
ATOM     92  C   UNL A   1      42.570  35.006  31.664  1.00  0.00     0.057 A 
ATOM     93  F   UNL A   1      41.256  34.817  33.595  1.00  0.00    -0.205 F 
ATOM     94  C   UNL A   1      42.895  34.569  30.384  1.00  0.00     0.021 A 
ATOM     95  Br  UNL A   1      44.308  35.400  29.440  1.00  0.00    -0.051 Br
ENDBRANCH  81  88
ENDBRANCH  75  78
ENDBRANCH  73  74
ENDBRANCH   1  73
TORSDOF 16
ENDMDL
