MODEL 1
REMARK VINA RESULT:     -12.7      0.000      0.000
REMARK SMILES CC1(C)C(C(=O)Nc2ccc(CC(=O)NCCCCNC(=O)c3ccc(-c4c5nc(c(-c6c(F)c(F)c(F)c(F)c6F)c6ccc([nH]6)c(-c6c(F)c(F)c(F)c(F)c6F)c6nc(c(-c7c(F)c(F)c(F)c(F)c7F)c7ccc4[nH]7)C=C6)C=C5)cc3)cc2)C1(C)C
REMARK SMILES IDX 17 1 16 2 15 3 13 4 14 5 12 7 11 8 8 9 9 10 87 11 10 12
REMARK SMILES IDX 86 13 7 14 5 15 6 16 4 18 1 19 2 20 3 21 88 22 89 23 90 24
REMARK SMILES IDX 18 25 19 26 20 27 21 28 22 30 23 31 24 32 85 33 25 34 84 35
REMARK SMILES IDX 26 36 27 37 28 38 78 39 29 40 83 41 77 42 79 43 30 44 82 45
REMARK SMILES IDX 76 46 75 47 31 49 63 50 43 51 62 52 44 53 47 54 61 55 80 56
REMARK SMILES IDX 45 57 46 58 60 60 81 61 48 62 32 63 33 64 41 65 34 66 35 67
REMARK SMILES IDX 39 68 42 69 36 70 37 71 40 72 38 73 64 74 65 75 73 76 66 77
REMARK SMILES IDX 67 78 71 79 74 80 68 81 69 82 72 83 70 84 49 85 50 86 58 87
REMARK SMILES IDX 51 88 52 89 56 90 59 91 53 92 54 93 57 94 55 95
REMARK H PARENT 15 6 7 17 20 29 79 48 47 59
REMARK Flexibility Score: inf
ROOT
ATOM      1  C   UNL A   1      31.884  30.394  26.799  1.00  0.00     0.023 C 
ENDROOT
BRANCH   1   2
ATOM      2  C   UNL A   1      32.379  29.727  25.512  1.00  0.00     0.116 C 
BRANCH   2   3
ATOM      3  N   UNL A   1      31.497  29.994  24.395  1.00  0.00    -0.356 N 
ATOM      4  C   UNL A   1      30.578  29.174  23.802  1.00  0.00     0.224 C 
ATOM      5  O   UNL A   1      29.990  29.592  22.802  1.00  0.00    -0.275 OA
ATOM      6  H   UNL A   1      31.569  30.896  24.006  1.00  0.00     0.163 HD
BRANCH   4   7
ATOM      7  C   UNL A   1      30.241  27.821  24.400  1.00  0.00     0.135 C 
BRANCH   7   8
ATOM      8  C   UNL A   1      30.898  26.640  23.734  1.00  0.00    -0.039 A 
ATOM      9  C   UNL A   1      32.316  24.466  22.684  1.00  0.00     0.041 A 
ATOM     10  C   UNL A   1      31.061  24.258  23.254  1.00  0.00     0.026 A 
ATOM     11  C   UNL A   1      32.747  25.758  22.452  1.00  0.00     0.026 A 
ATOM     12  C   UNL A   1      30.345  25.351  23.768  1.00  0.00     0.006 A 
ATOM     13  C   UNL A   1      32.107  26.823  23.063  1.00  0.00     0.006 A 
BRANCH   9  14
ATOM     14  N   UNL A   1      33.176  23.392  22.414  1.00  0.00    -0.326 N 
ATOM     15  C   UNL A   1      34.370  23.173  23.071  1.00  0.00     0.228 C 
ATOM     16  O   UNL A   1      35.425  23.222  22.444  1.00  0.00    -0.274 OA
ATOM     17  H   UNL A   1      32.911  22.754  21.713  1.00  0.00     0.169 HD
BRANCH  15  18
ATOM     18  C   UNL A   1      34.401  22.540  24.437  1.00  0.00     0.091 C 
ATOM     19  C   UNL A   1      36.132  21.307  25.903  1.00  0.00     0.012 C 
ATOM     20  C   UNL A   1      35.547  22.638  25.459  1.00  0.00    -0.017 C 
ATOM     21  C   UNL A   1      36.635  23.683  25.481  1.00  0.00     0.012 C 
ATOM     22  C   UNL A   1      34.089  23.026  25.842  1.00  0.00    -0.017 C 
ATOM     23  C   UNL A   1      33.337  22.074  26.757  1.00  0.00     0.012 C 
ATOM     24  C   UNL A   1      33.627  24.442  26.096  1.00  0.00     0.012 C 
ENDBRANCH  15  18
ENDBRANCH   9  14
ENDBRANCH   7   8
ENDBRANCH   4   7
ENDBRANCH   2   3
ENDBRANCH   1   2
BRANCH   1  25
ATOM     25  C   UNL A   1      31.697  31.903  26.710  1.00  0.00     0.023 C 
BRANCH  25  26
ATOM     26  C   UNL A   1      32.792  32.711  27.377  1.00  0.00     0.116 C 
BRANCH  26  27
ATOM     27  N   UNL A   1      32.414  34.089  27.645  1.00  0.00    -0.352 N 
ATOM     28  C   UNL A   1      32.964  34.951  28.567  1.00  0.00     0.251 C 
ATOM     29  H   UNL A   1      31.677  34.449  27.102  1.00  0.00     0.163 HD
ATOM     30  O   UNL A   1      32.480  36.055  28.765  1.00  0.00    -0.269 OA
BRANCH  28  31
ATOM     31  C   UNL A   1      34.129  34.491  29.351  1.00  0.00     0.039 A 
ATOM     32  C   UNL A   1      33.908  33.870  30.583  1.00  0.00     0.014 A 
ATOM     33  C   UNL A   1      35.422  34.607  28.835  1.00  0.00     0.014 A 
ATOM     34  C   UNL A   1      34.984  33.303  31.266  1.00  0.00     0.010 A 
ATOM     35  C   UNL A   1      36.476  33.965  29.472  1.00  0.00     0.010 A 
ATOM     36  C   UNL A   1      36.269  33.311  30.697  1.00  0.00    -0.014 A 
BRANCH  36  37
ATOM     37  C   UNL A   1      37.414  32.651  31.370  1.00  0.00     0.031 A 
ATOM     38  C   UNL A   1      38.121  31.509  30.696  1.00  0.00     0.074 A 
ATOM     39  C   UNL A   1      37.777  33.038  32.608  1.00  0.00     0.049 A 
ATOM     40  N   UNL A   1      39.097  30.759  31.141  1.00  0.00    -0.248 NA
ATOM     41  C   UNL A   1      37.648  31.141  29.350  1.00  0.00     0.031 C 
ATOM     42  C   UNL A   1      37.136  34.100  33.385  1.00  0.00     0.029 A 
ATOM     43  N   UNL A   1      38.769  32.574  33.435  1.00  0.00    -0.354 N 
ATOM     44  C   UNL A   1      39.346  29.831  30.139  1.00  0.00     0.074 A 
ATOM     45  C   UNL A   1      38.379  30.067  29.091  1.00  0.00     0.031 C 
ATOM     46  C   UNL A   1      37.771  34.227  34.562  1.00  0.00     0.029 A 
ATOM     47  C   UNL A   1      38.834  33.230  34.639  1.00  0.00     0.049 A 
ATOM     48  H   UNL A   1      39.377  31.841  33.188  1.00  0.00     0.167 HD
ATOM     49  C   UNL A   1      40.314  28.886  30.085  1.00  0.00     0.037 A 
ATOM     50  C   UNL A   1      39.658  33.044  35.689  1.00  0.00     0.037 A 
ATOM     51  C   UNL A   1      41.288  28.668  31.121  1.00  0.00     0.049 A 
ATOM     52  C   UNL A   1      40.714  31.974  35.609  1.00  0.00     0.074 A 
ATOM     53  C   UNL A   1      42.338  27.766  31.143  1.00  0.00     0.029 A 
ATOM     54  N   UNL A   1      41.331  29.362  32.321  1.00  0.00    -0.354 N 
ATOM     55  N   UNL A   1      40.982  31.145  34.629  1.00  0.00    -0.248 NA
ATOM     56  C   UNL A   1      41.587  31.819  36.781  1.00  0.00     0.031 C 
ATOM     57  C   UNL A   1      42.989  27.884  32.375  1.00  0.00     0.029 A 
ATOM     58  C   UNL A   1      42.378  28.895  33.100  1.00  0.00     0.049 A 
ATOM     59  H   UNL A   1      40.709  30.079  32.582  1.00  0.00     0.167 HD
ATOM     60  C   UNL A   1      42.072  30.396  35.051  1.00  0.00     0.074 A 
ATOM     61  C   UNL A   1      42.425  30.879  36.370  1.00  0.00     0.031 C 
ATOM     62  C   UNL A   1      42.724  29.398  34.404  1.00  0.00     0.037 A 
BRANCH  49  63
ATOM     63  C   UNL A   1      40.372  28.024  28.857  1.00  0.00     0.064 A 
ATOM     64  C   UNL A   1      41.126  28.398  27.733  1.00  0.00     0.173 A 
ATOM     65  C   UNL A   1      39.695  26.796  28.812  1.00  0.00     0.173 A 
ATOM     66  F   UNL A   1      41.781  29.570  27.718  1.00  0.00    -0.203 F 
ATOM     67  C   UNL A   1      41.175  27.589  26.601  1.00  0.00     0.198 A 
ATOM     68  C   UNL A   1      39.773  25.974  27.691  1.00  0.00     0.198 A 
ATOM     69  F   UNL A   1      38.964  26.389  29.861  1.00  0.00    -0.203 F 
ATOM     70  F   UNL A   1      41.858  27.992  25.520  1.00  0.00    -0.200 F 
ATOM     71  C   UNL A   1      40.505  26.375  26.583  1.00  0.00     0.200 A 
ATOM     72  F   UNL A   1      39.136  24.796  27.680  1.00  0.00    -0.200 F 
ATOM     73  F   UNL A   1      40.560  25.594  25.496  1.00  0.00    -0.200 F 
ENDBRANCH  49  63
BRANCH  50  74
ATOM     74  C   UNL A   1      39.540  33.905  36.895  1.00  0.00     0.064 A 
ATOM     75  C   UNL A   1      38.787  33.490  38.003  1.00  0.00     0.173 A 
ATOM     76  C   UNL A   1      40.156  35.163  36.960  1.00  0.00     0.173 A 
ATOM     77  F   UNL A   1      38.162  32.303  37.980  1.00  0.00    -0.203 F 
ATOM     78  C   UNL A   1      38.632  34.311  39.117  1.00  0.00     0.198 A 
ATOM     79  C   UNL A   1      40.025  35.971  38.088  1.00  0.00     0.198 A 
ATOM     80  F   UNL A   1      40.891  35.606  35.929  1.00  0.00    -0.203 F 
ATOM     81  F   UNL A   1      37.863  33.911  40.139  1.00  0.00    -0.200 F 
ATOM     82  C   UNL A   1      39.255  35.549  39.162  1.00  0.00     0.200 A 
ATOM     83  F   UNL A   1      40.640  37.161  38.132  1.00  0.00    -0.200 F 
ATOM     84  F   UNL A   1      39.105  36.338  40.233  1.00  0.00    -0.200 F 
ENDBRANCH  50  74
BRANCH  62  85
ATOM     85  C   UNL A   1      43.912  28.792  35.094  1.00  0.00     0.064 A 
ATOM     86  C   UNL A   1      45.208  29.294  34.909  1.00  0.00     0.173 A 
ATOM     87  C   UNL A   1      43.742  27.718  35.982  1.00  0.00     0.173 A 
ATOM     88  F   UNL A   1      45.425  30.310  34.061  1.00  0.00    -0.203 F 
ATOM     89  C   UNL A   1      46.296  28.723  35.566  1.00  0.00     0.198 A 
ATOM     90  C   UNL A   1      44.827  27.172  36.661  1.00  0.00     0.198 A 
ATOM     91  F   UNL A   1      42.521  27.208  36.200  1.00  0.00    -0.203 F 
ATOM     92  F   UNL A   1      47.532  29.184  35.335  1.00  0.00    -0.200 F 
ATOM     93  C   UNL A   1      46.103  27.668  36.446  1.00  0.00     0.200 A 
ATOM     94  F   UNL A   1      44.636  26.163  37.523  1.00  0.00    -0.200 F 
ATOM     95  F   UNL A   1      47.150  27.125  37.082  1.00  0.00    -0.200 F 
ENDBRANCH  62  85
ENDBRANCH  36  37
ENDBRANCH  28  31
ENDBRANCH  26  27
ENDBRANCH  25  26
ENDBRANCH   1  25
TORSDOF 14
ENDMDL
MODEL 2
REMARK VINA RESULT:     -12.7      5.285      9.854
REMARK SMILES CC1(C)C(C(=O)Nc2ccc(CC(=O)NCCCCNC(=O)c3ccc(-c4c5nc(c(-c6c(F)c(F)c(F)c(F)c6F)c6ccc([nH]6)c(-c6c(F)c(F)c(F)c(F)c6F)c6nc(c(-c7c(F)c(F)c(F)c(F)c7F)c7ccc4[nH]7)C=C6)C=C5)cc3)cc2)C1(C)C
REMARK SMILES IDX 17 1 16 2 15 3 13 4 14 5 12 7 11 8 8 9 9 10 87 11 10 12
REMARK SMILES IDX 86 13 7 14 5 15 6 16 4 18 1 19 2 20 3 21 88 22 89 23 90 24
REMARK SMILES IDX 18 25 19 26 20 27 21 28 22 30 23 31 24 32 85 33 25 34 84 35
REMARK SMILES IDX 26 36 27 37 28 38 78 39 29 40 83 41 77 42 79 43 30 44 82 45
REMARK SMILES IDX 76 46 75 47 31 49 63 50 43 51 62 52 44 53 47 54 61 55 80 56
REMARK SMILES IDX 45 57 46 58 60 60 81 61 48 62 32 63 33 64 41 65 34 66 35 67
REMARK SMILES IDX 39 68 42 69 36 70 37 71 40 72 38 73 64 74 65 75 73 76 66 77
REMARK SMILES IDX 67 78 71 79 74 80 68 81 69 82 72 83 70 84 49 85 50 86 58 87
REMARK SMILES IDX 51 88 52 89 56 90 59 91 53 92 54 93 57 94 55 95
REMARK H PARENT 15 6 7 17 20 29 79 48 47 59
REMARK Flexibility Score: inf
ROOT
ATOM      1  C   UNL A   1      37.039  21.241  24.512  1.00  0.00     0.023 C 
ENDROOT
BRANCH   1   2
ATOM      2  C   UNL A   1      35.763  21.557  25.297  1.00  0.00     0.116 C 
BRANCH   2   3
ATOM      3  N   UNL A   1      34.995  20.361  25.577  1.00  0.00    -0.356 N 
ATOM      4  C   UNL A   1      33.837  19.921  24.999  1.00  0.00     0.224 C 
ATOM      5  O   UNL A   1      33.312  18.905  25.458  1.00  0.00    -0.275 OA
ATOM      6  H   UNL A   1      35.358  19.783  26.286  1.00  0.00     0.163 HD
BRANCH   4   7
ATOM      7  C   UNL A   1      33.259  20.621  23.784  1.00  0.00     0.135 C 
BRANCH   7   8
ATOM      8  C   UNL A   1      32.290  21.737  24.081  1.00  0.00    -0.039 A 
ATOM      9  C   UNL A   1      30.697  23.934  24.767  1.00  0.00     0.041 A 
ATOM     10  C   UNL A   1      30.990  23.689  23.426  1.00  0.00     0.026 A 
ATOM     11  C   UNL A   1      31.013  22.979  25.714  1.00  0.00     0.026 A 
ATOM     12  C   UNL A   1      31.779  22.578  23.083  1.00  0.00     0.006 A 
ATOM     13  C   UNL A   1      31.889  21.954  25.399  1.00  0.00     0.006 A 
BRANCH   9  14
ATOM     14  N   UNL A   1      30.159  25.162  25.177  1.00  0.00    -0.326 N 
ATOM     15  C   UNL A   1      30.903  26.191  25.720  1.00  0.00     0.228 C 
ATOM     16  O   UNL A   1      30.693  26.546  26.877  1.00  0.00    -0.274 OA
ATOM     17  H   UNL A   1      29.189  25.299  25.071  1.00  0.00     0.169 HD
BRANCH  15  18
ATOM     18  C   UNL A   1      31.709  27.112  24.843  1.00  0.00     0.091 C 
ATOM     19  C   UNL A   1      32.657  29.509  24.999  1.00  0.00     0.012 C 
ATOM     20  C   UNL A   1      32.854  28.032  25.302  1.00  0.00    -0.017 C 
ATOM     21  C   UNL A   1      33.653  27.894  26.574  1.00  0.00     0.012 C 
ATOM     22  C   UNL A   1      33.054  27.009  24.145  1.00  0.00    -0.017 C 
ATOM     23  C   UNL A   1      33.151  27.569  22.736  1.00  0.00     0.012 C 
ATOM     24  C   UNL A   1      33.899  25.762  24.252  1.00  0.00     0.012 C 
ENDBRANCH  15  18
ENDBRANCH   9  14
ENDBRANCH   7   8
ENDBRANCH   4   7
ENDBRANCH   2   3
ENDBRANCH   1   2
BRANCH   1  25
ATOM     25  C   UNL A   1      37.809  20.021  25.001  1.00  0.00     0.023 C 
BRANCH  25  26
ATOM     26  C   UNL A   1      39.034  20.344  25.832  1.00  0.00     0.116 C 
BRANCH  26  27
ATOM     27  N   UNL A   1      39.994  19.254  25.898  1.00  0.00    -0.352 N 
ATOM     28  C   UNL A   1      41.350  19.336  26.126  1.00  0.00     0.251 C 
ATOM     29  H   UNL A   1      39.632  18.349  25.763  1.00  0.00     0.163 HD
ATOM     30  O   UNL A   1      42.062  18.347  26.050  1.00  0.00    -0.269 OA
BRANCH  28  31
ATOM     31  C   UNL A   1      41.934  20.661  26.417  1.00  0.00     0.039 A 
ATOM     32  C   UNL A   1      42.250  21.507  25.352  1.00  0.00     0.014 A 
ATOM     33  C   UNL A   1      42.098  21.090  27.738  1.00  0.00     0.014 A 
ATOM     34  C   UNL A   1      42.666  22.813  25.615  1.00  0.00     0.010 A 
ATOM     35  C   UNL A   1      42.426  22.414  27.994  1.00  0.00     0.010 A 
ATOM     36  C   UNL A   1      42.718  23.288  26.936  1.00  0.00    -0.014 A 
BRANCH  36  37
ATOM     37  C   UNL A   1      43.088  24.693  27.235  1.00  0.00     0.031 A 
ATOM     38  C   UNL A   1      44.491  25.167  26.986  1.00  0.00     0.074 A 
ATOM     39  C   UNL A   1      42.179  25.521  27.786  1.00  0.00     0.049 A 
ATOM     40  N   UNL A   1      45.031  26.332  27.240  1.00  0.00    -0.248 NA
ATOM     41  C   UNL A   1      45.423  24.190  26.397  1.00  0.00     0.031 C 
ATOM     42  C   UNL A   1      40.800  25.163  28.120  1.00  0.00     0.029 A 
ATOM     43  N   UNL A   1      42.284  26.834  28.171  1.00  0.00    -0.354 N 
ATOM     44  C   UNL A   1      46.360  26.224  26.853  1.00  0.00     0.074 A 
ATOM     45  C   UNL A   1      46.564  24.864  26.407  1.00  0.00     0.031 C 
ATOM     46  C   UNL A   1      40.178  26.239  28.632  1.00  0.00     0.029 A 
ATOM     47  C   UNL A   1      41.126  27.348  28.699  1.00  0.00     0.049 A 
ATOM     48  H   UNL A   1      43.112  27.359  28.077  1.00  0.00     0.167 HD
ATOM     49  C   UNL A   1      47.316  27.182  26.841  1.00  0.00     0.037 A 
ATOM     50  C   UNL A   1      40.860  28.576  29.187  1.00  0.00     0.037 A 
ATOM     51  C   UNL A   1      47.104  28.540  27.266  1.00  0.00     0.049 A 
ATOM     52  C   UNL A   1      41.948  29.617  29.178  1.00  0.00     0.074 A 
ATOM     53  C   UNL A   1      47.995  29.599  27.251  1.00  0.00     0.029 A 
ATOM     54  N   UNL A   1      45.912  29.027  27.782  1.00  0.00    -0.354 N 
ATOM     55  N   UNL A   1      43.183  29.522  28.748  1.00  0.00    -0.248 NA
ATOM     56  C   UNL A   1      41.600  30.939  29.718  1.00  0.00     0.031 C 
ATOM     57  C   UNL A   1      47.356  30.716  27.800  1.00  0.00     0.029 A 
ATOM     58  C   UNL A   1      46.051  30.367  28.108  1.00  0.00     0.049 A 
ATOM     59  H   UNL A   1      45.090  28.499  27.901  1.00  0.00     0.167 HD
ATOM     60  C   UNL A   1      43.748  30.777  28.933  1.00  0.00     0.074 A 
ATOM     61  C   UNL A   1      42.716  31.620  29.500  1.00  0.00     0.031 C 
ATOM     62  C   UNL A   1      45.008  31.195  28.657  1.00  0.00     0.037 A 
BRANCH  49  63
ATOM     63  C   UNL A   1      48.679  26.795  26.342  1.00  0.00     0.064 A 
ATOM     64  C   UNL A   1      49.616  26.168  27.179  1.00  0.00     0.173 A 
ATOM     65  C   UNL A   1      49.042  27.021  25.006  1.00  0.00     0.173 A 
ATOM     66  F   UNL A   1      49.323  25.942  28.470  1.00  0.00    -0.203 F 
ATOM     67  C   UNL A   1      50.875  25.810  26.705  1.00  0.00     0.198 A 
ATOM     68  C   UNL A   1      50.291  26.632  24.527  1.00  0.00     0.198 A 
ATOM     69  F   UNL A   1      48.183  27.613  24.163  1.00  0.00    -0.203 F 
ATOM     70  F   UNL A   1      51.771  25.262  27.537  1.00  0.00    -0.200 F 
ATOM     71  C   UNL A   1      51.208  26.036  25.379  1.00  0.00     0.200 A 
ATOM     72  F   UNL A   1      50.607  26.838  23.242  1.00  0.00    -0.200 F 
ATOM     73  F   UNL A   1      52.418  25.683  24.921  1.00  0.00    -0.200 F 
ENDBRANCH  49  63
BRANCH  50  74
ATOM     74  C   UNL A   1      39.502  28.900  29.697  1.00  0.00     0.064 A 
ATOM     75  C   UNL A   1      38.532  29.459  28.853  1.00  0.00     0.173 A 
ATOM     76  C   UNL A   1      39.151  28.680  31.036  1.00  0.00     0.173 A 
ATOM     77  F   UNL A   1      38.827  29.707  27.568  1.00  0.00    -0.203 F 
ATOM     78  C   UNL A   1      37.274  29.810  29.334  1.00  0.00     0.198 A 
ATOM     79  C   UNL A   1      37.881  29.004  31.510  1.00  0.00     0.198 A 
ATOM     80  F   UNL A   1      40.041  28.144  31.885  1.00  0.00    -0.203 F 
ATOM     81  F   UNL A   1      36.385  30.392  28.517  1.00  0.00    -0.200 F 
ATOM     82  C   UNL A   1      36.947  29.578  30.662  1.00  0.00     0.200 A 
ATOM     83  F   UNL A   1      37.565  28.765  32.791  1.00  0.00    -0.200 F 
ATOM     84  F   UNL A   1      35.736  29.918  31.125  1.00  0.00    -0.200 F 
ENDBRANCH  50  74
BRANCH  62  85
ATOM     85  C   UNL A   1      45.328  32.637  28.923  1.00  0.00     0.064 A 
ATOM     86  C   UNL A   1      45.909  33.054  30.130  1.00  0.00     0.173 A 
ATOM     87  C   UNL A   1      45.084  33.608  27.940  1.00  0.00     0.173 A 
ATOM     88  F   UNL A   1      46.149  32.167  31.106  1.00  0.00    -0.203 F 
ATOM     89  C   UNL A   1      46.206  34.396  30.353  1.00  0.00     0.198 A 
ATOM     90  C   UNL A   1      45.413  34.943  28.154  1.00  0.00     0.198 A 
ATOM     91  F   UNL A   1      44.538  33.259  26.765  1.00  0.00    -0.203 F 
ATOM     92  F   UNL A   1      46.713  34.780  31.532  1.00  0.00    -0.200 F 
ATOM     93  C   UNL A   1      45.966  35.338  29.363  1.00  0.00     0.200 A 
ATOM     94  F   UNL A   1      45.193  35.849  27.190  1.00  0.00    -0.200 F 
ATOM     95  F   UNL A   1      46.259  36.628  29.577  1.00  0.00    -0.200 F 
ENDBRANCH  62  85
ENDBRANCH  36  37
ENDBRANCH  28  31
ENDBRANCH  26  27
ENDBRANCH  25  26
ENDBRANCH   1  25
TORSDOF 14
ENDMDL
MODEL 3
REMARK VINA RESULT:     -12.7      5.473     11.140
REMARK SMILES CC1(C)C(C(=O)Nc2ccc(CC(=O)NCCCCNC(=O)c3ccc(-c4c5nc(c(-c6c(F)c(F)c(F)c(F)c6F)c6ccc([nH]6)c(-c6c(F)c(F)c(F)c(F)c6F)c6nc(c(-c7c(F)c(F)c(F)c(F)c7F)c7ccc4[nH]7)C=C6)C=C5)cc3)cc2)C1(C)C
REMARK SMILES IDX 17 1 16 2 15 3 13 4 14 5 12 7 11 8 8 9 9 10 87 11 10 12
REMARK SMILES IDX 86 13 7 14 5 15 6 16 4 18 1 19 2 20 3 21 88 22 89 23 90 24
REMARK SMILES IDX 18 25 19 26 20 27 21 28 22 30 23 31 24 32 85 33 25 34 84 35
REMARK SMILES IDX 26 36 27 37 28 38 78 39 29 40 83 41 77 42 79 43 30 44 82 45
REMARK SMILES IDX 76 46 75 47 31 49 63 50 43 51 62 52 44 53 47 54 61 55 80 56
REMARK SMILES IDX 45 57 46 58 60 60 81 61 48 62 32 63 33 64 41 65 34 66 35 67
REMARK SMILES IDX 39 68 42 69 36 70 37 71 40 72 38 73 64 74 65 75 73 76 66 77
REMARK SMILES IDX 67 78 71 79 74 80 68 81 69 82 72 83 70 84 49 85 50 86 58 87
REMARK SMILES IDX 51 88 52 89 56 90 59 91 53 92 54 93 57 94 55 95
REMARK H PARENT 15 6 7 17 20 29 79 48 47 59
REMARK Flexibility Score: inf
ROOT
ATOM      1  C   UNL A   1      37.184  21.337  24.526  1.00  0.00     0.023 C 
ENDROOT
BRANCH   1   2
ATOM      2  C   UNL A   1      35.898  21.692  25.277  1.00  0.00     0.116 C 
BRANCH   2   3
ATOM      3  N   UNL A   1      35.099  20.518  25.560  1.00  0.00    -0.356 N 
ATOM      4  C   UNL A   1      33.914  20.123  25.005  1.00  0.00     0.224 C 
ATOM      5  O   UNL A   1      33.368  19.117  25.463  1.00  0.00    -0.275 OA
ATOM      6  H   UNL A   1      35.461  19.917  26.251  1.00  0.00     0.163 HD
BRANCH   4   7
ATOM      7  C   UNL A   1      33.327  20.859  23.815  1.00  0.00     0.135 C 
BRANCH   7   8
ATOM      8  C   UNL A   1      32.349  21.955  24.152  1.00  0.00    -0.039 A 
ATOM      9  C   UNL A   1      30.747  24.135  24.873  1.00  0.00     0.041 A 
ATOM     10  C   UNL A   1      30.879  23.794  23.528  1.00  0.00     0.026 A 
ATOM     11  C   UNL A   1      31.230  23.274  25.840  1.00  0.00     0.026 A 
ATOM     12  C   UNL A   1      31.673  22.691  23.169  1.00  0.00     0.006 A 
ATOM     13  C   UNL A   1      32.109  22.263  25.491  1.00  0.00     0.006 A 
BRANCH   9  14
ATOM     14  N   UNL A   1      30.204  25.370  25.256  1.00  0.00    -0.326 N 
ATOM     15  C   UNL A   1      30.938  26.399  25.811  1.00  0.00     0.228 C 
ATOM     16  O   UNL A   1      30.696  26.766  26.958  1.00  0.00    -0.274 OA
ATOM     17  H   UNL A   1      29.239  25.511  25.120  1.00  0.00     0.169 HD
BRANCH  15  18
ATOM     18  C   UNL A   1      31.775  27.308  24.951  1.00  0.00     0.091 C 
ATOM     19  C   UNL A   1      32.820  29.660  25.156  1.00  0.00     0.012 C 
ATOM     20  C   UNL A   1      32.959  28.170  25.423  1.00  0.00    -0.017 C 
ATOM     21  C   UNL A   1      33.759  27.971  26.686  1.00  0.00     0.012 C 
ATOM     22  C   UNL A   1      33.110  27.168  24.241  1.00  0.00    -0.017 C 
ATOM     23  C   UNL A   1      33.221  27.757  22.845  1.00  0.00     0.012 C 
ATOM     24  C   UNL A   1      33.905  25.886  24.313  1.00  0.00     0.012 C 
ENDBRANCH  15  18
ENDBRANCH   9  14
ENDBRANCH   7   8
ENDBRANCH   4   7
ENDBRANCH   2   3
ENDBRANCH   1   2
BRANCH   1  25
ATOM     25  C   UNL A   1      37.915  20.107  25.049  1.00  0.00     0.023 C 
BRANCH  25  26
ATOM     26  C   UNL A   1      39.216  20.408  25.765  1.00  0.00     0.116 C 
BRANCH  26  27
ATOM     27  N   UNL A   1      40.107  19.262  25.854  1.00  0.00    -0.352 N 
ATOM     28  C   UNL A   1      41.462  19.264  26.101  1.00  0.00     0.251 C 
ATOM     29  H   UNL A   1      39.693  18.379  25.722  1.00  0.00     0.163 HD
ATOM     30  O   UNL A   1      42.114  18.233  26.045  1.00  0.00    -0.269 OA
BRANCH  28  31
ATOM     31  C   UNL A   1      42.122  20.554  26.390  1.00  0.00     0.039 A 
ATOM     32  C   UNL A   1      42.534  21.353  25.322  1.00  0.00     0.014 A 
ATOM     33  C   UNL A   1      42.261  21.000  27.707  1.00  0.00     0.014 A 
ATOM     34  C   UNL A   1      43.026  22.634  25.575  1.00  0.00     0.010 A 
ATOM     35  C   UNL A   1      42.667  22.306  27.951  1.00  0.00     0.010 A 
ATOM     36  C   UNL A   1      43.058  23.134  26.888  1.00  0.00    -0.014 A 
BRANCH  36  37
ATOM     37  C   UNL A   1      43.508  24.518  27.174  1.00  0.00     0.031 A 
ATOM     38  C   UNL A   1      42.529  25.530  27.698  1.00  0.00     0.074 A 
ATOM     39  C   UNL A   1      44.779  24.878  26.905  1.00  0.00     0.049 A 
ATOM     40  N   UNL A   1      42.706  26.803  27.949  1.00  0.00    -0.248 NA
ATOM     41  C   UNL A   1      41.158  25.055  27.947  1.00  0.00     0.031 C 
ATOM     42  C   UNL A   1      45.808  23.999  26.349  1.00  0.00     0.029 A 
ATOM     43  N   UNL A   1      45.417  26.084  27.056  1.00  0.00    -0.354 N 
ATOM     44  C   UNL A   1      41.472  27.277  28.374  1.00  0.00     0.074 A 
ATOM     45  C   UNL A   1      40.539  26.176  28.286  1.00  0.00     0.031 C 
ATOM     46  C   UNL A   1      46.957  24.686  26.234  1.00  0.00     0.029 A 
ATOM     47  C   UNL A   1      46.734  26.061  26.669  1.00  0.00     0.049 A 
ATOM     48  H   UNL A   1      44.973  26.888  27.410  1.00  0.00     0.167 HD
ATOM     49  C   UNL A   1      41.154  28.513  28.826  1.00  0.00     0.037 A 
ATOM     50  C   UNL A   1      47.657  27.043  26.664  1.00  0.00     0.037 A 
ATOM     51  C   UNL A   1      42.089  29.601  28.932  1.00  0.00     0.049 A 
ATOM     52  C   UNL A   1      47.269  28.413  27.155  1.00  0.00     0.074 A 
ATOM     53  C   UNL A   1      41.877  30.878  29.419  1.00  0.00     0.029 A 
ATOM     54  N   UNL A   1      43.419  29.536  28.543  1.00  0.00    -0.354 N 
ATOM     55  N   UNL A   1      46.117  28.833  27.617  1.00  0.00    -0.248 NA
ATOM     56  C   UNL A   1      48.317  29.444  27.130  1.00  0.00     0.031 C 
ATOM     57  C   UNL A   1      43.067  31.601  29.284  1.00  0.00     0.029 A 
ATOM     58  C   UNL A   1      44.035  30.758  28.762  1.00  0.00     0.049 A 
ATOM     59  H   UNL A   1      43.860  28.741  28.166  1.00  0.00     0.167 HD
ATOM     60  C   UNL A   1      46.308  30.163  27.968  1.00  0.00     0.074 A 
ATOM     61  C   UNL A   1      47.693  30.475  27.680  1.00  0.00     0.031 C 
ATOM     62  C   UNL A   1      45.418  31.047  28.483  1.00  0.00     0.037 A 
BRANCH  49  63
ATOM     63  C   UNL A   1      39.733  28.750  29.251  1.00  0.00     0.064 A 
ATOM     64  C   UNL A   1      39.312  28.515  30.569  1.00  0.00     0.173 A 
ATOM     65  C   UNL A   1      38.788  29.247  28.341  1.00  0.00     0.173 A 
ATOM     66  F   UNL A   1      40.174  28.025  31.475  1.00  0.00    -0.203 F 
ATOM     67  C   UNL A   1      37.993  28.740  30.953  1.00  0.00     0.198 A 
ATOM     68  C   UNL A   1      37.477  29.502  28.736  1.00  0.00     0.198 A 
ATOM     69  F   UNL A   1      39.138  29.492  27.069  1.00  0.00    -0.203 F 
ATOM     70  F   UNL A   1      37.603  28.458  32.204  1.00  0.00    -0.200 F 
ATOM     71  C   UNL A   1      37.079  29.241  30.038  1.00  0.00     0.200 A 
ATOM     72  F   UNL A   1      36.598  29.998  27.855  1.00  0.00    -0.200 F 
ATOM     73  F   UNL A   1      35.812  29.465  30.411  1.00  0.00    -0.200 F 
ENDBRANCH  49  63
BRANCH  50  74
ATOM     74  C   UNL A   1      49.043  26.765  26.205  1.00  0.00     0.064 A 
ATOM     75  C   UNL A   1      49.431  27.039  24.886  1.00  0.00     0.173 A 
ATOM     76  C   UNL A   1      50.000  26.205  27.062  1.00  0.00     0.173 A 
ATOM     77  F   UNL A   1      48.546  27.557  24.021  1.00  0.00    -0.203 F 
ATOM     78  C   UNL A   1      50.714  26.738  24.434  1.00  0.00     0.198 A 
ATOM     79  C   UNL A   1      51.293  25.932  26.618  1.00  0.00     0.198 A 
ATOM     80  F   UNL A   1      49.681  25.928  28.336  1.00  0.00    -0.203 F 
ATOM     81  F   UNL A   1      51.040  26.960  23.154  1.00  0.00    -0.200 F 
ATOM     82  C   UNL A   1      51.646  26.188  25.302  1.00  0.00     0.200 A 
ATOM     83  F   UNL A   1      52.194  25.413  27.465  1.00  0.00    -0.200 F 
ATOM     84  F   UNL A   1      52.879  25.897  24.867  1.00  0.00    -0.200 F 
ENDBRANCH  50  74
BRANCH  62  85
ATOM     85  C   UNL A   1      45.925  32.421  28.811  1.00  0.00     0.064 A 
ATOM     86  C   UNL A   1      46.480  32.724  30.063  1.00  0.00     0.173 A 
ATOM     87  C   UNL A   1      45.888  33.437  27.844  1.00  0.00     0.173 A 
ATOM     88  F   UNL A   1      46.526  31.791  31.026  1.00  0.00    -0.203 F 
ATOM     89  C   UNL A   1      46.953  34.004  30.344  1.00  0.00     0.198 A 
ATOM     90  C   UNL A   1      46.392  34.706  28.118  1.00  0.00     0.198 A 
ATOM     91  F   UNL A   1      45.375  33.196  26.628  1.00  0.00    -0.203 F 
ATOM     92  F   UNL A   1      47.432  34.286  31.563  1.00  0.00    -0.200 F 
ATOM     93  C   UNL A   1      46.916  34.990  29.369  1.00  0.00     0.200 A 
ATOM     94  F   UNL A   1      46.368  35.654  27.170  1.00  0.00    -0.200 F 
ATOM     95  F   UNL A   1      47.377  36.219  29.639  1.00  0.00    -0.200 F 
ENDBRANCH  62  85
ENDBRANCH  36  37
ENDBRANCH  28  31
ENDBRANCH  26  27
ENDBRANCH  25  26
ENDBRANCH   1  25
TORSDOF 14
ENDMDL
