MODEL 1
REMARK VINA RESULT:     -12.7      0.000      0.000
REMARK SMILES COc1ccc(/C=C(\Sc2nc(C)n[nH]2)C(=O)NCCCCNC(=O)c2ccc(-c3c4nc(c(-c5c(F)c(F)c(F)c(F)c5F)c5ccc([nH]5)c(-c5c(F)c(F)c(F)c(F)c5F)c5nc(c(-c6c(F)c(F)c(F)c(F)c6F)c6ccc3[nH]6)C=C5)C=C4)cc2)c(OC)c1
REMARK SMILES IDX 20 1 19 2 18 3 16 4 17 5 8 7 7 8 6 9 3 10 4 11 92 12 5 13
REMARK SMILES IDX 89 14 2 15 1 16 90 17 91 18 9 19 10 20 11 21 15 22 12 23
REMARK SMILES IDX 14 24 13 26 21 27 22 28 23 29 24 30 25 32 26 33 27 34 88 35
REMARK SMILES IDX 28 36 87 37 29 38 30 39 31 40 81 41 32 42 86 43 80 44 82 45
REMARK SMILES IDX 33 46 85 47 79 48 78 49 34 51 66 52 46 53 65 54 47 55 50 56
REMARK SMILES IDX 64 57 83 58 48 59 49 60 63 62 84 63 51 64 35 65 36 66 44 67
REMARK SMILES IDX 37 68 38 69 42 70 45 71 39 72 40 73 43 74 41 75 67 76 68 77
REMARK SMILES IDX 76 78 69 79 70 80 74 81 77 82 71 83 72 84 75 85 73 86 52 87
REMARK SMILES IDX 53 88 61 89 54 90 55 91 59 92 62 93 56 94 57 95 60 96 58 97
REMARK H PARENT 18 6 15 25 23 31 82 50 50 61
REMARK Flexibility Score: inf
ROOT
ATOM      1  C   UNL A   1      37.104  22.232  24.056  1.00  0.00     0.023 C 
ENDROOT
BRANCH   1   2
ATOM      2  C   UNL A   1      36.014  23.299  24.224  1.00  0.00     0.116 C 
BRANCH   2   3
ATOM      3  N   UNL A   1      34.945  23.221  23.237  1.00  0.00    -0.352 N 
ATOM      4  C   UNL A   1      33.946  24.042  22.791  1.00  0.00     0.258 C 
ATOM      5  O   UNL A   1      33.325  23.588  21.820  1.00  0.00    -0.269 OA
ATOM      6  H   UNL A   1      34.941  22.355  22.770  1.00  0.00     0.163 HD
BRANCH   4   7
ATOM      7  C   UNL A   1      33.523  25.372  23.418  1.00  0.00     0.081 C 
ATOM      8  C   UNL A   1      33.318  25.308  24.762  1.00  0.00     0.033 C 
BRANCH   8   9
ATOM      9  C   UNL A   1      33.054  26.401  25.732  1.00  0.00     0.018 A 
ATOM     10  C   UNL A   1      32.407  28.778  27.047  1.00  0.00     0.122 A 
ATOM     11  C   UNL A   1      33.669  28.618  26.494  1.00  0.00     0.047 A 
ATOM     12  C   UNL A   1      31.524  27.700  27.106  1.00  0.00     0.093 A 
ATOM     13  C   UNL A   1      34.010  27.414  25.888  1.00  0.00     0.016 A 
ATOM     14  C   UNL A   1      31.858  26.489  26.477  1.00  0.00     0.129 A 
BRANCH  10  15
ATOM     15  O   UNL A   1      32.031  30.064  27.325  1.00  0.00    -0.497 OA
ATOM     16  C   UNL A   1      31.822  30.869  26.177  1.00  0.00     0.278 C 
ENDBRANCH  10  15
BRANCH  14  17
ATOM     17  O   UNL A   1      31.025  25.395  26.493  1.00  0.00    -0.496 OA
ATOM     18  C   UNL A   1      29.762  25.579  25.848  1.00  0.00     0.278 C 
ENDBRANCH  14  17
ENDBRANCH   8   9
BRANCH   7  19
ATOM     19  S   UNL A   1      33.554  26.781  22.413  1.00  0.00    -0.045 SA
BRANCH  19  20
ATOM     20  C   UNL A   1      32.004  27.509  22.503  1.00  0.00     0.188 A 
ATOM     21  N   UNL A   1      30.796  27.018  22.620  1.00  0.00    -0.206 NA
ATOM     22  N   UNL A   1      31.946  28.869  22.521  1.00  0.00    -0.254 N 
ATOM     23  C   UNL A   1      30.032  28.149  22.824  1.00  0.00     0.148 A 
ATOM     24  N   UNL A   1      30.698  29.309  22.724  1.00  0.00    -0.158 NA
ATOM     25  H   UNL A   1      32.726  29.458  22.401  1.00  0.00     0.192 HD
ATOM     26  C   UNL A   1      28.607  28.102  23.207  1.00  0.00     0.092 C 
ENDBRANCH  19  20
ENDBRANCH   7  19
ENDBRANCH   4   7
ENDBRANCH   2   3
ENDBRANCH   1   2
BRANCH   1  27
ATOM     27  C   UNL A   1      37.595  21.565  25.353  1.00  0.00     0.023 C 
BRANCH  27  28
ATOM     28  C   UNL A   1      38.659  22.332  26.138  1.00  0.00     0.116 C 
BRANCH  28  29
ATOM     29  N   UNL A   1      40.033  21.894  25.873  1.00  0.00    -0.352 N 
ATOM     30  C   UNL A   1      41.203  22.637  25.978  1.00  0.00     0.251 C 
ATOM     31  H   UNL A   1      40.140  20.958  25.585  1.00  0.00     0.163 HD
ATOM     32  O   UNL A   1      42.215  22.332  25.375  1.00  0.00    -0.269 OA
BRANCH  30  33
ATOM     33  C   UNL A   1      41.195  23.800  26.885  1.00  0.00     0.039 A 
ATOM     34  C   UNL A   1      41.977  23.871  28.041  1.00  0.00     0.014 A 
ATOM     35  C   UNL A   1      40.398  24.866  26.492  1.00  0.00     0.014 A 
ATOM     36  C   UNL A   1      42.002  25.071  28.753  1.00  0.00     0.010 A 
ATOM     37  C   UNL A   1      40.597  26.091  27.054  1.00  0.00     0.010 A 
ATOM     38  C   UNL A   1      41.316  26.181  28.237  1.00  0.00    -0.014 A 
BRANCH  38  39
ATOM     39  C   UNL A   1      41.377  27.497  28.854  1.00  0.00     0.031 A 
ATOM     40  C   UNL A   1      42.516  28.338  28.401  1.00  0.00     0.074 A 
ATOM     41  C   UNL A   1      40.332  27.989  29.558  1.00  0.00     0.049 A 
ATOM     42  N   UNL A   1      43.518  28.748  29.105  1.00  0.00    -0.248 NA
ATOM     43  C   UNL A   1      42.638  28.641  26.965  1.00  0.00     0.031 C 
ATOM     44  C   UNL A   1      39.016  27.374  29.791  1.00  0.00     0.029 A 
ATOM     45  N   UNL A   1      40.182  29.213  30.130  1.00  0.00    -0.354 N 
ATOM     46  C   UNL A   1      44.291  29.535  28.254  1.00  0.00     0.074 A 
ATOM     47  C   UNL A   1      43.817  29.269  26.923  1.00  0.00     0.031 C 
ATOM     48  C   UNL A   1      38.144  28.307  30.232  1.00  0.00     0.029 A 
ATOM     49  C   UNL A   1      38.875  29.532  30.486  1.00  0.00     0.049 A 
ATOM     50  H   UNL A   1      40.939  29.825  30.279  1.00  0.00     0.167 HD
ATOM     51  C   UNL A   1      45.077  30.531  28.755  1.00  0.00     0.037 A 
ATOM     52  C   UNL A   1      38.430  30.734  30.930  1.00  0.00     0.037 A 
ATOM     53  C   UNL A   1      45.240  30.374  30.182  1.00  0.00     0.049 A 
ATOM     54  C   UNL A   1      39.620  31.482  31.413  1.00  0.00     0.074 A 
ATOM     55  C   UNL A   1      45.779  29.401  30.999  1.00  0.00     0.029 A 
ATOM     56  N   UNL A   1      44.446  31.147  30.994  1.00  0.00    -0.354 N 
ATOM     57  N   UNL A   1      40.325  31.117  32.450  1.00  0.00    -0.248 NA
ATOM     58  C   UNL A   1      40.313  32.325  30.451  1.00  0.00     0.031 C 
ATOM     59  C   UNL A   1      44.908  29.345  32.127  1.00  0.00     0.029 A 
ATOM     60  C   UNL A   1      43.940  30.340  31.977  1.00  0.00     0.049 A 
ATOM     61  H   UNL A   1      44.272  32.110  30.889  1.00  0.00     0.167 HD
ATOM     62  C   UNL A   1      41.644  31.309  32.065  1.00  0.00     0.074 A 
ATOM     63  C   UNL A   1      41.572  32.121  30.850  1.00  0.00     0.031 C 
ATOM     64  C   UNL A   1      42.646  30.542  32.588  1.00  0.00     0.037 A 
BRANCH  51  65
ATOM     65  C   UNL A   1      45.354  31.857  28.078  1.00  0.00     0.064 A 
ATOM     66  C   UNL A   1      44.255  32.671  27.726  1.00  0.00     0.173 A 
ATOM     67  C   UNL A   1      46.579  32.204  27.472  1.00  0.00     0.173 A 
ATOM     68  F   UNL A   1      43.041  32.448  28.252  1.00  0.00    -0.203 F 
ATOM     69  C   UNL A   1      44.351  33.663  26.747  1.00  0.00     0.198 A 
ATOM     70  C   UNL A   1      46.681  33.230  26.531  1.00  0.00     0.198 A 
ATOM     71  F   UNL A   1      47.704  31.512  27.670  1.00  0.00    -0.203 F 
ATOM     72  F   UNL A   1      43.247  34.303  26.339  1.00  0.00    -0.200 F 
ATOM     73  C   UNL A   1      45.562  33.931  26.138  1.00  0.00     0.200 A 
ATOM     74  F   UNL A   1      47.863  33.470  25.948  1.00  0.00    -0.200 F 
ATOM     75  F   UNL A   1      45.643  34.823  25.145  1.00  0.00    -0.200 F 
ENDBRANCH  51  65
BRANCH  52  76
ATOM     76  C   UNL A   1      37.129  31.384  30.641  1.00  0.00     0.064 A 
ATOM     77  C   UNL A   1      36.176  31.600  31.648  1.00  0.00     0.173 A 
ATOM     78  C   UNL A   1      36.908  32.049  29.418  1.00  0.00     0.173 A 
ATOM     79  F   UNL A   1      36.340  31.048  32.859  1.00  0.00    -0.203 F 
ATOM     80  C   UNL A   1      35.074  32.441  31.448  1.00  0.00     0.198 A 
ATOM     81  C   UNL A   1      35.808  32.885  29.218  1.00  0.00     0.198 A 
ATOM     82  F   UNL A   1      37.808  31.977  28.427  1.00  0.00    -0.203 F 
ATOM     83  F   UNL A   1      34.212  32.667  32.451  1.00  0.00    -0.200 F 
ATOM     84  C   UNL A   1      34.896  33.090  30.236  1.00  0.00     0.200 A 
ATOM     85  F   UNL A   1      35.673  33.541  28.057  1.00  0.00    -0.200 F 
ATOM     86  F   UNL A   1      33.875  33.940  30.065  1.00  0.00    -0.200 F 
ENDBRANCH  52  76
BRANCH  64  87
ATOM     87  C   UNL A   1      42.325  29.666  33.767  1.00  0.00     0.064 A 
ATOM     88  C   UNL A   1      41.850  28.347  33.665  1.00  0.00     0.173 A 
ATOM     89  C   UNL A   1      42.687  30.123  35.040  1.00  0.00     0.173 A 
ATOM     90  F   UNL A   1      41.571  27.804  32.475  1.00  0.00    -0.203 F 
ATOM     91  C   UNL A   1      41.720  27.535  34.791  1.00  0.00     0.198 A 
ATOM     92  C   UNL A   1      42.589  29.300  36.158  1.00  0.00     0.198 A 
ATOM     93  F   UNL A   1      43.199  31.355  35.190  1.00  0.00    -0.203 F 
ATOM     94  F   UNL A   1      41.266  26.278  34.667  1.00  0.00    -0.200 F 
ATOM     95  C   UNL A   1      42.099  28.010  36.036  1.00  0.00     0.200 A 
ATOM     96  F   UNL A   1      43.006  29.747  37.350  1.00  0.00    -0.200 F 
ATOM     97  F   UNL A   1      42.023  27.214  37.112  1.00  0.00    -0.200 F 
ENDBRANCH  64  87
ENDBRANCH  38  39
ENDBRANCH  30  33
ENDBRANCH  28  29
ENDBRANCH  27  28
ENDBRANCH   1  27
TORSDOF 16
ENDMDL
MODEL 2
REMARK VINA RESULT:     -12.6      2.872      7.414
REMARK SMILES COc1ccc(/C=C(\Sc2nc(C)n[nH]2)C(=O)NCCCCNC(=O)c2ccc(-c3c4nc(c(-c5c(F)c(F)c(F)c(F)c5F)c5ccc([nH]5)c(-c5c(F)c(F)c(F)c(F)c5F)c5nc(c(-c6c(F)c(F)c(F)c(F)c6F)c6ccc3[nH]6)C=C5)C=C4)cc2)c(OC)c1
REMARK SMILES IDX 20 1 19 2 18 3 16 4 17 5 8 7 7 8 6 9 3 10 4 11 92 12 5 13
REMARK SMILES IDX 89 14 2 15 1 16 90 17 91 18 9 19 10 20 11 21 15 22 12 23
REMARK SMILES IDX 14 24 13 26 21 27 22 28 23 29 24 30 25 32 26 33 27 34 88 35
REMARK SMILES IDX 28 36 87 37 29 38 30 39 31 40 81 41 32 42 86 43 80 44 82 45
REMARK SMILES IDX 33 46 85 47 79 48 78 49 34 51 66 52 46 53 65 54 47 55 50 56
REMARK SMILES IDX 64 57 83 58 48 59 49 60 63 62 84 63 51 64 35 65 36 66 44 67
REMARK SMILES IDX 37 68 38 69 42 70 45 71 39 72 40 73 43 74 41 75 67 76 68 77
REMARK SMILES IDX 76 78 69 79 70 80 74 81 77 82 71 83 72 84 75 85 73 86 52 87
REMARK SMILES IDX 53 88 61 89 54 90 55 91 59 92 62 93 56 94 57 95 60 96 58 97
REMARK H PARENT 18 6 15 25 23 31 82 50 50 61
REMARK Flexibility Score: inf
ROOT
ATOM      1  C   UNL A   1      39.065  22.096  25.982  1.00  0.00     0.023 C 
ENDROOT
BRANCH   1   2
ATOM      2  C   UNL A   1      37.608  22.580  25.996  1.00  0.00     0.116 C 
BRANCH   2   3
ATOM      3  N   UNL A   1      36.979  22.614  24.682  1.00  0.00    -0.352 N 
ATOM      4  C   UNL A   1      35.873  23.199  24.127  1.00  0.00     0.258 C 
ATOM      5  O   UNL A   1      35.790  23.044  22.901  1.00  0.00    -0.269 OA
ATOM      6  H   UNL A   1      37.478  22.080  24.024  1.00  0.00     0.163 HD
BRANCH   4   7
ATOM      7  C   UNL A   1      34.761  23.927  24.886  1.00  0.00     0.081 C 
ATOM      8  C   UNL A   1      34.489  25.171  24.408  1.00  0.00     0.033 C 
BRANCH   8   9
ATOM      9  C   UNL A   1      33.396  26.107  24.773  1.00  0.00     0.018 A 
ATOM     10  C   UNL A   1      31.706  28.291  25.192  1.00  0.00     0.122 A 
ATOM     11  C   UNL A   1      32.744  28.042  26.078  1.00  0.00     0.047 A 
ATOM     12  C   UNL A   1      31.393  27.363  24.198  1.00  0.00     0.093 A 
ATOM     13  C   UNL A   1      33.550  26.923  25.901  1.00  0.00     0.016 A 
ATOM     14  C   UNL A   1      32.218  26.242  24.004  1.00  0.00     0.129 A 
BRANCH  10  15
ATOM     15  O   UNL A   1      31.174  29.550  25.227  1.00  0.00    -0.497 OA
ATOM     16  C   UNL A   1      31.876  30.454  26.062  1.00  0.00     0.278 C 
ENDBRANCH  10  15
BRANCH  14  17
ATOM     17  O   UNL A   1      31.967  25.298  23.036  1.00  0.00    -0.496 OA
ATOM     18  C   UNL A   1      31.204  24.169  23.468  1.00  0.00     0.278 C 
ENDBRANCH  14  17
ENDBRANCH   8   9
BRANCH   7  19
ATOM     19  S   UNL A   1      33.888  23.033  26.084  1.00  0.00    -0.045 SA
BRANCH  19  20
ATOM     20  C   UNL A   1      33.574  21.477  25.434  1.00  0.00     0.188 A 
ATOM     21  N   UNL A   1      34.346  20.564  24.902  1.00  0.00    -0.206 NA
ATOM     22  N   UNL A   1      32.297  21.008  25.506  1.00  0.00    -0.254 N 
ATOM     23  C   UNL A   1      33.489  19.490  24.767  1.00  0.00     0.148 A 
ATOM     24  N   UNL A   1      32.211  19.741  25.086  1.00  0.00    -0.158 NA
ATOM     25  H   UNL A   1      31.532  21.537  25.828  1.00  0.00     0.192 HD
ATOM     26  C   UNL A   1      33.944  18.138  24.384  1.00  0.00     0.092 C 
ENDBRANCH  19  20
ENDBRANCH   7  19
ENDBRANCH   4   7
ENDBRANCH   2   3
ENDBRANCH   1   2
BRANCH   1  27
ATOM     27  C   UNL A   1      39.306  20.711  25.356  1.00  0.00     0.023 C 
BRANCH  27  28
ATOM     28  C   UNL A   1      39.807  19.626  26.308  1.00  0.00     0.116 C 
BRANCH  28  29
ATOM     29  N   UNL A   1      41.069  19.001  25.895  1.00  0.00    -0.352 N 
ATOM     30  C   UNL A   1      42.287  19.622  25.644  1.00  0.00     0.251 C 
ATOM     31  H   UNL A   1      41.050  18.023  25.783  1.00  0.00     0.163 HD
ATOM     32  O   UNL A   1      43.138  19.107  24.944  1.00  0.00    -0.269 OA
BRANCH  30  33
ATOM     33  C   UNL A   1      42.539  20.922  26.292  1.00  0.00     0.039 A 
ATOM     34  C   UNL A   1      42.884  22.075  25.582  1.00  0.00     0.014 A 
ATOM     35  C   UNL A   1      42.355  20.956  27.668  1.00  0.00     0.014 A 
ATOM     36  C   UNL A   1      42.962  23.284  26.276  1.00  0.00     0.010 A 
ATOM     37  C   UNL A   1      42.212  22.159  28.293  1.00  0.00     0.010 A 
ATOM     38  C   UNL A   1      42.609  23.312  27.633  1.00  0.00    -0.014 A 
BRANCH  38  39
ATOM     39  C   UNL A   1      42.555  24.545  28.404  1.00  0.00     0.031 A 
ATOM     40  C   UNL A   1      41.334  25.362  28.177  1.00  0.00     0.074 A 
ATOM     41  C   UNL A   1      43.412  24.766  29.427  1.00  0.00     0.049 A 
ATOM     42  N   UNL A   1      41.262  26.534  27.641  1.00  0.00    -0.248 NA
ATOM     43  C   UNL A   1      40.021  24.751  28.442  1.00  0.00     0.031 C 
ATOM     44  C   UNL A   1      44.453  23.874  29.959  1.00  0.00     0.029 A 
ATOM     45  N   UNL A   1      43.458  25.810  30.297  1.00  0.00    -0.354 N 
ATOM     46  C   UNL A   1      39.919  26.900  27.690  1.00  0.00     0.074 A 
ATOM     47  C   UNL A   1      39.190  25.700  28.001  1.00  0.00     0.031 C 
ATOM     48  C   UNL A   1      44.847  24.302  31.178  1.00  0.00     0.029 A 
ATOM     49  C   UNL A   1      44.229  25.586  31.434  1.00  0.00     0.049 A 
ATOM     50  H   UNL A   1      42.983  26.657  30.135  1.00  0.00     0.167 HD
ATOM     51  C   UNL A   1      39.559  28.215  27.726  1.00  0.00     0.037 A 
ATOM     52  C   UNL A   1      44.321  26.394  32.518  1.00  0.00     0.037 A 
ATOM     53  C   UNL A   1      40.675  29.052  27.351  1.00  0.00     0.049 A 
ATOM     54  C   UNL A   1      43.854  27.740  32.094  1.00  0.00     0.074 A 
ATOM     55  C   UNL A   1      41.449  29.192  26.217  1.00  0.00     0.029 A 
ATOM     56  N   UNL A   1      41.389  29.640  28.366  1.00  0.00    -0.354 N 
ATOM     57  N   UNL A   1      44.488  28.477  31.222  1.00  0.00    -0.248 NA
ATOM     58  C   UNL A   1      42.438  28.035  32.251  1.00  0.00     0.031 C 
ATOM     59  C   UNL A   1      42.774  29.407  26.701  1.00  0.00     0.029 A 
ATOM     60  C   UNL A   1      42.721  29.473  28.094  1.00  0.00     0.049 A 
ATOM     61  H   UNL A   1      41.012  30.100  29.151  1.00  0.00     0.167 HD
ATOM     62  C   UNL A   1      43.489  29.013  30.421  1.00  0.00     0.074 A 
ATOM     63  C   UNL A   1      42.243  28.761  31.147  1.00  0.00     0.031 C 
ATOM     64  C   UNL A   1      43.732  29.333  29.116  1.00  0.00     0.037 A 
BRANCH  51  65
ATOM     65  C   UNL A   1      38.376  28.782  28.482  1.00  0.00     0.064 A 
ATOM     66  C   UNL A   1      37.601  29.785  27.860  1.00  0.00     0.173 A 
ATOM     67  C   UNL A   1      38.173  28.638  29.871  1.00  0.00     0.173 A 
ATOM     68  F   UNL A   1      37.696  30.003  26.539  1.00  0.00    -0.203 F 
ATOM     69  C   UNL A   1      36.793  30.659  28.591  1.00  0.00     0.198 A 
ATOM     70  C   UNL A   1      37.325  29.481  30.590  1.00  0.00     0.198 A 
ATOM     71  F   UNL A   1      38.855  27.762  30.613  1.00  0.00    -0.203 F 
ATOM     72  F   UNL A   1      36.200  31.688  27.975  1.00  0.00    -0.200 F 
ATOM     73  C   UNL A   1      36.669  30.516  29.960  1.00  0.00     0.200 A 
ATOM     74  F   UNL A   1      37.222  29.330  31.918  1.00  0.00    -0.200 F 
ATOM     75  F   UNL A   1      35.960  31.397  30.676  1.00  0.00    -0.200 F 
ENDBRANCH  51  65
BRANCH  52  76
ATOM     76  C   UNL A   1      44.448  25.995  33.941  1.00  0.00     0.064 A 
ATOM     77  C   UNL A   1      43.332  25.606  34.698  1.00  0.00     0.173 A 
ATOM     78  C   UNL A   1      45.711  25.728  34.508  1.00  0.00     0.173 A 
ATOM     79  F   UNL A   1      42.095  25.773  34.208  1.00  0.00    -0.203 F 
ATOM     80  C   UNL A   1      43.471  24.977  35.942  1.00  0.00     0.198 A 
ATOM     81  C   UNL A   1      45.849  25.104  35.749  1.00  0.00     0.198 A 
ATOM     82  F   UNL A   1      46.836  25.981  33.823  1.00  0.00    -0.203 F 
ATOM     83  F   UNL A   1      42.384  24.571  36.613  1.00  0.00    -0.200 F 
ATOM     84  C   UNL A   1      44.730  24.720  36.462  1.00  0.00     0.200 A 
ATOM     85  F   UNL A   1      47.073  24.821  36.218  1.00  0.00    -0.200 F 
ATOM     86  F   UNL A   1      44.864  24.066  37.624  1.00  0.00    -0.200 F 
ENDBRANCH  52  76
BRANCH  64  87
ATOM     87  C   UNL A   1      45.159  29.330  28.642  1.00  0.00     0.064 A 
ATOM     88  C   UNL A   1      45.789  28.228  28.038  1.00  0.00     0.173 A 
ATOM     89  C   UNL A   1      45.850  30.549  28.634  1.00  0.00     0.173 A 
ATOM     90  F   UNL A   1      45.161  27.053  27.921  1.00  0.00    -0.203 F 
ATOM     91  C   UNL A   1      47.062  28.337  27.479  1.00  0.00     0.198 A 
ATOM     92  C   UNL A   1      47.105  30.664  28.045  1.00  0.00     0.198 A 
ATOM     93  F   UNL A   1      45.274  31.648  29.146  1.00  0.00    -0.203 F 
ATOM     94  F   UNL A   1      47.640  27.270  26.907  1.00  0.00    -0.200 F 
ATOM     95  C   UNL A   1      47.714  29.559  27.474  1.00  0.00     0.200 A 
ATOM     96  F   UNL A   1      47.709  31.860  27.998  1.00  0.00    -0.200 F 
ATOM     97  F   UNL A   1      48.916  29.678  26.893  1.00  0.00    -0.200 F 
ENDBRANCH  64  87
ENDBRANCH  38  39
ENDBRANCH  30  33
ENDBRANCH  28  29
ENDBRANCH  27  28
ENDBRANCH   1  27
TORSDOF 16
ENDMDL
MODEL 3
REMARK VINA RESULT:     -12.6      1.763      2.950
REMARK SMILES COc1ccc(/C=C(\Sc2nc(C)n[nH]2)C(=O)NCCCCNC(=O)c2ccc(-c3c4nc(c(-c5c(F)c(F)c(F)c(F)c5F)c5ccc([nH]5)c(-c5c(F)c(F)c(F)c(F)c5F)c5nc(c(-c6c(F)c(F)c(F)c(F)c6F)c6ccc3[nH]6)C=C5)C=C4)cc2)c(OC)c1
REMARK SMILES IDX 20 1 19 2 18 3 16 4 17 5 8 7 7 8 6 9 3 10 4 11 92 12 5 13
REMARK SMILES IDX 89 14 2 15 1 16 90 17 91 18 9 19 10 20 11 21 15 22 12 23
REMARK SMILES IDX 14 24 13 26 21 27 22 28 23 29 24 30 25 32 26 33 27 34 88 35
REMARK SMILES IDX 28 36 87 37 29 38 30 39 31 40 81 41 32 42 86 43 80 44 82 45
REMARK SMILES IDX 33 46 85 47 79 48 78 49 34 51 66 52 46 53 65 54 47 55 50 56
REMARK SMILES IDX 64 57 83 58 48 59 49 60 63 62 84 63 51 64 35 65 36 66 44 67
REMARK SMILES IDX 37 68 38 69 42 70 45 71 39 72 40 73 43 74 41 75 67 76 68 77
REMARK SMILES IDX 76 78 69 79 70 80 74 81 77 82 71 83 72 84 75 85 73 86 52 87
REMARK SMILES IDX 53 88 61 89 54 90 55 91 59 92 62 93 56 94 57 95 60 96 58 97
REMARK H PARENT 18 6 15 25 23 31 82 50 50 61
REMARK Flexibility Score: inf
ROOT
ATOM      1  C   UNL A   1      35.399  23.512  24.841  1.00  0.00     0.023 C 
ENDROOT
BRANCH   1   2
ATOM      2  C   UNL A   1      34.659  24.713  25.446  1.00  0.00     0.116 C 
BRANCH   2   3
ATOM      3  N   UNL A   1      33.518  24.353  26.277  1.00  0.00    -0.352 N 
ATOM      4  C   UNL A   1      32.243  24.815  26.466  1.00  0.00     0.258 C 
ATOM      5  O   UNL A   1      31.561  24.102  27.215  1.00  0.00    -0.269 OA
ATOM      6  H   UNL A   1      33.713  23.578  26.851  1.00  0.00     0.163 HD
BRANCH   4   7
ATOM      7  C   UNL A   1      31.662  26.113  25.902  1.00  0.00     0.081 C 
ATOM      8  C   UNL A   1      31.378  26.060  24.573  1.00  0.00     0.033 C 
BRANCH   8   9
ATOM      9  C   UNL A   1      30.674  27.046  23.716  1.00  0.00     0.018 A 
ATOM     10  C   UNL A   1      29.258  29.201  22.640  1.00  0.00     0.122 A 
ATOM     11  C   UNL A   1      28.570  28.130  23.192  1.00  0.00     0.047 A 
ATOM     12  C   UNL A   1      30.640  29.130  22.460  1.00  0.00     0.093 A 
ATOM     13  C   UNL A   1      29.273  27.033  23.677  1.00  0.00     0.016 A 
ATOM     14  C   UNL A   1      31.355  28.032  22.967  1.00  0.00     0.129 A 
BRANCH  10  15
ATOM     15  O   UNL A   1      28.548  30.360  22.490  1.00  0.00    -0.497 OA
ATOM     16  C   UNL A   1      28.112  30.606  21.164  1.00  0.00     0.278 C 
ENDBRANCH  10  15
BRANCH  14  17
ATOM     17  O   UNL A   1      32.718  27.910  22.829  1.00  0.00    -0.496 OA
ATOM     18  C   UNL A   1      33.466  29.103  23.076  1.00  0.00     0.278 C 
ENDBRANCH  14  17
ENDBRANCH   8   9
BRANCH   7  19
ATOM     19  S   UNL A   1      31.268  27.370  27.025  1.00  0.00    -0.045 SA
BRANCH  19  20
ATOM     20  C   UNL A   1      32.554  28.503  26.998  1.00  0.00     0.188 A 
ATOM     21  N   UNL A   1      32.608  29.793  27.218  1.00  0.00    -0.206 NA
ATOM     22  N   UNL A   1      33.810  28.029  26.766  1.00  0.00    -0.254 N 
ATOM     23  C   UNL A   1      33.966  30.039  27.218  1.00  0.00     0.148 A 
ATOM     24  N   UNL A   1      34.734  28.987  26.899  1.00  0.00    -0.158 NA
ATOM     25  H   UNL A   1      34.012  27.094  26.530  1.00  0.00     0.192 HD
ATOM     26  C   UNL A   1      34.551  31.334  27.620  1.00  0.00     0.092 C 
ENDBRANCH  19  20
ENDBRANCH   7  19
ENDBRANCH   4   7
ENDBRANCH   2   3
ENDBRANCH   1   2
BRANCH   1  27
ATOM     27  C   UNL A   1      36.346  22.759  25.792  1.00  0.00     0.023 C 
BRANCH  27  28
ATOM     28  C   UNL A   1      37.841  22.975  25.555  1.00  0.00     0.116 C 
BRANCH  28  29
ATOM     29  N   UNL A   1      38.708  22.142  26.394  1.00  0.00    -0.352 N 
ATOM     30  C   UNL A   1      39.875  22.514  27.052  1.00  0.00     0.251 C 
ATOM     31  H   UNL A   1      38.429  21.204  26.506  1.00  0.00     0.163 HD
ATOM     32  O   UNL A   1      40.717  21.698  27.379  1.00  0.00    -0.269 OA
BRANCH  30  33
ATOM     33  C   UNL A   1      40.049  23.940  27.382  1.00  0.00     0.039 A 
ATOM     34  C   UNL A   1      39.033  24.888  27.232  1.00  0.00     0.014 A 
ATOM     35  C   UNL A   1      41.282  24.290  27.915  1.00  0.00     0.014 A 
ATOM     36  C   UNL A   1      39.257  26.182  27.705  1.00  0.00     0.010 A 
ATOM     37  C   UNL A   1      41.414  25.477  28.572  1.00  0.00     0.010 A 
ATOM     38  C   UNL A   1      40.451  26.458  28.388  1.00  0.00    -0.014 A 
BRANCH  38  39
ATOM     39  C   UNL A   1      40.719  27.746  29.010  1.00  0.00     0.031 A 
ATOM     40  C   UNL A   1      41.816  28.521  28.374  1.00  0.00     0.074 A 
ATOM     41  C   UNL A   1      39.857  28.284  29.903  1.00  0.00     0.049 A 
ATOM     42  N   UNL A   1      42.956  28.838  28.892  1.00  0.00    -0.248 NA
ATOM     43  C   UNL A   1      41.700  28.863  26.947  1.00  0.00     0.031 C 
ATOM     44  C   UNL A   1      38.564  27.754  30.360  1.00  0.00     0.029 A 
ATOM     45  N   UNL A   1      39.904  29.496  30.518  1.00  0.00    -0.354 N 
ATOM     46  C   UNL A   1      43.619  29.599  27.931  1.00  0.00     0.074 A 
ATOM     47  C   UNL A   1      42.894  29.410  26.703  1.00  0.00     0.031 C 
ATOM     48  C   UNL A   1      37.857  28.730  30.971  1.00  0.00     0.029 A 
ATOM     49  C   UNL A   1      38.709  29.891  31.113  1.00  0.00     0.049 A 
ATOM     50  H   UNL A   1      40.718  30.049  30.539  1.00  0.00     0.167 HD
ATOM     51  C   UNL A   1      44.554  30.520  28.300  1.00  0.00     0.037 A 
ATOM     52  C   UNL A   1      38.442  31.105  31.655  1.00  0.00     0.037 A 
ATOM     53  C   UNL A   1      44.959  30.305  29.670  1.00  0.00     0.049 A 
ATOM     54  C   UNL A   1      39.751  31.754  31.928  1.00  0.00     0.074 A 
ATOM     55  C   UNL A   1      45.564  29.270  30.354  1.00  0.00     0.029 A 
ATOM     56  N   UNL A   1      44.385  31.103  30.629  1.00  0.00    -0.354 N 
ATOM     57  N   UNL A   1      40.603  31.306  32.811  1.00  0.00    -0.248 NA
ATOM     58  C   UNL A   1      40.319  32.579  30.874  1.00  0.00     0.031 C 
ATOM     59  C   UNL A   1      44.909  29.236  31.621  1.00  0.00     0.029 A 
ATOM     60  C   UNL A   1      44.006  30.300  31.671  1.00  0.00     0.049 A 
ATOM     61  H   UNL A   1      44.265  32.078  30.577  1.00  0.00     0.167 HD
ATOM     62  C   UNL A   1      41.842  31.420  32.196  1.00  0.00     0.074 A 
ATOM     63  C   UNL A   1      41.611  32.276  31.032  1.00  0.00     0.031 C 
ATOM     64  C   UNL A   1      42.862  30.569  32.512  1.00  0.00     0.037 A 
BRANCH  51  65
ATOM     65  C   UNL A   1      44.800  31.846  27.612  1.00  0.00     0.064 A 
ATOM     66  C   UNL A   1      46.012  32.020  26.907  1.00  0.00     0.173 A 
ATOM     67  C   UNL A   1      44.085  33.032  27.882  1.00  0.00     0.173 A 
ATOM     68  F   UNL A   1      46.771  30.964  26.578  1.00  0.00    -0.203 F 
ATOM     69  C   UNL A   1      46.526  33.286  26.618  1.00  0.00     0.198 A 
ATOM     70  C   UNL A   1      44.579  34.293  27.546  1.00  0.00     0.198 A 
ATOM     71  F   UNL A   1      42.941  33.043  28.572  1.00  0.00    -0.203 F 
ATOM     72  F   UNL A   1      47.750  33.401  26.086  1.00  0.00    -0.200 F 
ATOM     73  C   UNL A   1      45.816  34.423  26.953  1.00  0.00     0.200 A 
ATOM     74  F   UNL A   1      43.878  35.384  27.886  1.00  0.00    -0.200 F 
ATOM     75  F   UNL A   1      46.339  35.638  26.751  1.00  0.00    -0.200 F 
ENDBRANCH  51  65
BRANCH  52  76
ATOM     76  C   UNL A   1      37.161  31.853  31.622  1.00  0.00     0.064 A 
ATOM     77  C   UNL A   1      36.440  32.127  32.795  1.00  0.00     0.173 A 
ATOM     78  C   UNL A   1      36.757  32.546  30.463  1.00  0.00     0.173 A 
ATOM     79  F   UNL A   1      36.795  31.552  33.952  1.00  0.00    -0.203 F 
ATOM     80  C   UNL A   1      35.386  33.050  32.809  1.00  0.00     0.198 A 
ATOM     81  C   UNL A   1      35.705  33.463  30.478  1.00  0.00     0.198 A 
ATOM     82  F   UNL A   1      37.440  32.418  29.316  1.00  0.00    -0.203 F 
ATOM     83  F   UNL A   1      34.755  33.327  33.959  1.00  0.00    -0.200 F 
ATOM     84  C   UNL A   1      35.025  33.723  31.652  1.00  0.00     0.200 A 
ATOM     85  F   UNL A   1      35.397  34.139  29.361  1.00  0.00    -0.200 F 
ATOM     86  F   UNL A   1      34.056  34.648  31.679  1.00  0.00    -0.200 F 
ENDBRANCH  52  76
BRANCH  64  87
ATOM     87  C   UNL A   1      42.695  29.678  33.711  1.00  0.00     0.064 A 
ATOM     88  C   UNL A   1      42.133  28.390  33.667  1.00  0.00     0.173 A 
ATOM     89  C   UNL A   1      43.296  30.077  34.912  1.00  0.00     0.173 A 
ATOM     90  F   UNL A   1      41.623  27.899  32.533  1.00  0.00    -0.203 F 
ATOM     91  C   UNL A   1      42.148  27.554  34.783  1.00  0.00     0.198 A 
ATOM     92  C   UNL A   1      43.341  29.228  36.014  1.00  0.00     0.198 A 
ATOM     93  F   UNL A   1      43.898  31.273  34.995  1.00  0.00    -0.203 F 
ATOM     94  F   UNL A   1      41.607  26.329  34.714  1.00  0.00    -0.200 F 
ATOM     95  C   UNL A   1      42.762  27.971  35.953  1.00  0.00     0.200 A 
ATOM     96  F   UNL A   1      43.981  29.616  37.125  1.00  0.00    -0.200 F 
ATOM     97  F   UNL A   1      42.823  27.150  37.010  1.00  0.00    -0.200 F 
ENDBRANCH  64  87
ENDBRANCH  38  39
ENDBRANCH  30  33
ENDBRANCH  28  29
ENDBRANCH  27  28
ENDBRANCH   1  27
TORSDOF 16
ENDMDL
