MODEL 1
REMARK VINA RESULT:     -13.0      0.000      0.000
REMARK SMILES O=C1C[C@H](C(=O)NCCCCNC(=O)c2ccc(-c3c4nc(c(-c5c(F)c(F)c(F)c(F)c5F)c5ccc([nH]5)c(-c5c(F)c(F)c(F)c(F)c5F)c5nc(c(-c6c(F)c(F)c(F)c(F)c6F)c6ccc3[nH]6)C=C5)C=C4)cc2)c2c(nc(N3CCSCC3)[nH]c2=O)N1
REMARK SMILES IDX 10 1 9 2 8 3 7 4 5 5 6 6 4 8 1 9 2 10 3 11 91 12 79 13 78 15
REMARK SMILES IDX 80 16 89 17 81 18 88 19 90 20 82 22 83 23 87 24 84 25 86 26
REMARK SMILES IDX 85 27 11 28 12 29 13 30 14 32 15 33 16 34 77 35 17 36 76 37
REMARK SMILES IDX 18 38 19 39 20 40 70 41 21 42 75 43 69 44 71 45 22 46 74 47
REMARK SMILES IDX 68 48 67 49 23 51 55 52 35 53 54 54 36 55 39 56 53 57 72 58
REMARK SMILES IDX 37 59 38 60 52 62 73 63 40 64 24 65 25 66 33 67 26 68 27 69
REMARK SMILES IDX 31 70 34 71 28 72 29 73 32 74 30 75 56 76 57 77 65 78 58 79
REMARK SMILES IDX 59 80 63 81 66 82 60 83 61 84 64 85 62 86 41 87 42 88 50 89
REMARK SMILES IDX 43 90 44 91 48 92 51 93 45 94 46 95 49 96 47 97
REMARK H PARENT 7 7 91 14 88 21 12 31 71 50 39 61
REMARK Flexibility Score: inf
ROOT
ATOM      1  C   UNL A   1      31.659  32.002  26.860  1.00  0.00     0.023 C 
ENDROOT
BRANCH   1   2
ATOM      2  C   UNL A   1      31.912  30.496  26.804  1.00  0.00     0.023 C 
BRANCH   2   3
ATOM      3  C   UNL A   1      31.623  29.850  25.453  1.00  0.00     0.116 C 
BRANCH   3   4
ATOM      4  N   UNL A   1      32.824  29.704  24.654  1.00  0.00    -0.356 N 
ATOM      5  C   UNL A   1      33.265  28.674  23.879  1.00  0.00     0.228 C 
ATOM      6  O   UNL A   1      34.399  28.775  23.401  1.00  0.00    -0.274 OA
ATOM      7  H   UNL A   1      33.425  30.485  24.676  1.00  0.00     0.163 HD
BRANCH   5   8
ATOM      8  C   UNL A   1      32.433  27.407  23.653  1.00  0.00     0.127 C 
ATOM      9  O   UNL A   1      31.777  25.782  20.375  1.00  0.00    -0.275 OA
ATOM     10  C   UNL A   1      32.196  25.990  21.513  1.00  0.00     0.226 C 
ATOM     11  C   UNL A   1      32.008  27.331  22.184  1.00  0.00     0.119 C 
ATOM     12  N   UNL A   1      32.893  25.029  22.180  1.00  0.00    -0.310 N 
ATOM     13  C   UNL A   1      33.369  25.104  23.451  1.00  0.00     0.146 A 
ATOM     14  H   UNL A   1      33.071  24.193  21.691  1.00  0.00     0.171 HD
ATOM     15  C   UNL A   1      33.132  26.196  24.184  1.00  0.00     0.073 A 
ATOM     16  N   UNL A   1      34.092  24.017  23.852  1.00  0.00    -0.196 NA
ATOM     17  C   UNL A   1      33.606  26.161  25.576  1.00  0.00     0.258 A 
ATOM     18  C   UNL A   1      34.513  23.995  25.077  1.00  0.00     0.207 A 
ATOM     19  N   UNL A   1      34.257  25.022  25.937  1.00  0.00    -0.292 N 
ATOM     20  O   UNL A   1      33.440  27.087  26.358  1.00  0.00    -0.269 OA
ATOM     21  H   UNL A   1      34.559  24.935  26.871  1.00  0.00     0.173 HD
BRANCH  18  22
ATOM     22  N   UNL A   1      35.277  22.976  25.583  1.00  0.00    -0.341 N 
ATOM     23  C   UNL A   1      34.704  21.679  25.960  1.00  0.00     0.130 C 
ATOM     24  C   UNL A   1      36.742  23.066  25.593  1.00  0.00     0.130 C 
ATOM     25  C   UNL A   1      35.149  20.569  25.001  1.00  0.00     0.091 C 
ATOM     26  C   UNL A   1      37.403  22.086  24.626  1.00  0.00     0.091 C 
ATOM     27  S   UNL A   1      36.960  20.355  25.001  1.00  0.00    -0.158 SA
ENDBRANCH  18  22
ENDBRANCH   5   8
ENDBRANCH   3   4
ENDBRANCH   2   3
ENDBRANCH   1   2
BRANCH   1  28
ATOM     28  C   UNL A   1      32.872  32.844  27.239  1.00  0.00     0.116 C 
BRANCH  28  29
ATOM     29  N   UNL A   1      32.514  34.201  27.627  1.00  0.00    -0.352 N 
ATOM     30  C   UNL A   1      33.016  34.953  28.660  1.00  0.00     0.251 C 
ATOM     31  H   UNL A   1      31.823  34.636  27.077  1.00  0.00     0.163 HD
ATOM     32  O   UNL A   1      32.529  36.042  28.945  1.00  0.00    -0.269 OA
BRANCH  30  33
ATOM     33  C   UNL A   1      34.144  34.418  29.444  1.00  0.00     0.039 A 
ATOM     34  C   UNL A   1      33.882  33.764  30.649  1.00  0.00     0.014 A 
ATOM     35  C   UNL A   1      35.449  34.525  28.954  1.00  0.00     0.014 A 
ATOM     36  C   UNL A   1      34.931  33.158  31.341  1.00  0.00     0.010 A 
ATOM     37  C   UNL A   1      36.484  33.876  29.617  1.00  0.00     0.010 A 
ATOM     38  C   UNL A   1      36.232  33.191  30.815  1.00  0.00    -0.014 A 
BRANCH  38  39
ATOM     39  C   UNL A   1      37.355  32.536  31.524  1.00  0.00     0.031 A 
ATOM     40  C   UNL A   1      38.066  31.384  30.878  1.00  0.00     0.074 A 
ATOM     41  C   UNL A   1      37.706  32.951  32.754  1.00  0.00     0.049 A 
ATOM     42  N   UNL A   1      39.044  30.650  31.341  1.00  0.00    -0.248 NA
ATOM     43  C   UNL A   1      37.603  30.994  29.536  1.00  0.00     0.031 C 
ATOM     44  C   UNL A   1      37.074  34.047  33.488  1.00  0.00     0.029 A 
ATOM     45  N   UNL A   1      38.681  32.498  33.606  1.00  0.00    -0.354 N 
ATOM     46  C   UNL A   1      39.317  29.721  30.350  1.00  0.00     0.074 A 
ATOM     47  C   UNL A   1      38.364  29.940  29.284  1.00  0.00     0.031 C 
ATOM     48  C   UNL A   1      37.694  34.198  34.670  1.00  0.00     0.029 A 
ATOM     49  C   UNL A   1      38.746  33.192  34.788  1.00  0.00     0.049 A 
ATOM     50  H   UNL A   1      39.278  31.745  33.389  1.00  0.00     0.167 HD
ATOM     51  C   UNL A   1      40.297  28.787  30.317  1.00  0.00     0.037 A 
ATOM     52  C   UNL A   1      39.567  33.033  35.843  1.00  0.00     0.037 A 
ATOM     53  C   UNL A   1      41.245  28.574  31.375  1.00  0.00     0.049 A 
ATOM     54  C   UNL A   1      40.612  31.953  35.806  1.00  0.00     0.074 A 
ATOM     55  C   UNL A   1      42.289  27.668  31.430  1.00  0.00     0.029 A 
ATOM     56  N   UNL A   1      41.265  29.282  32.568  1.00  0.00    -0.354 N 
ATOM     57  N   UNL A   1      40.890  31.104  34.846  1.00  0.00    -0.248 NA
ATOM     58  C   UNL A   1      41.461  31.809  36.997  1.00  0.00     0.031 C 
ATOM     59  C   UNL A   1      42.919  27.803  32.670  1.00  0.00     0.029 A 
ATOM     60  C   UNL A   1      42.294  28.821  33.372  1.00  0.00     0.049 A 
ATOM     61  H   UNL A   1      40.641  30.005  32.808  1.00  0.00     0.167 HD
ATOM     62  C   UNL A   1      41.957  30.345  35.304  1.00  0.00     0.074 A 
ATOM     63  C   UNL A   1      42.284  30.837  36.627  1.00  0.00     0.031 C 
ATOM     64  C   UNL A   1      42.609  29.332  34.683  1.00  0.00     0.037 A 
BRANCH  51  65
ATOM     65  C   UNL A   1      40.396  27.938  29.087  1.00  0.00     0.064 A 
ATOM     66  C   UNL A   1      39.671  26.742  28.971  1.00  0.00     0.173 A 
ATOM     67  C   UNL A   1      41.195  28.330  28.004  1.00  0.00     0.173 A 
ATOM     68  F   UNL A   1      38.905  26.315  29.986  1.00  0.00    -0.203 F 
ATOM     69  C   UNL A   1      39.760  25.960  27.823  1.00  0.00     0.198 A 
ATOM     70  C   UNL A   1      41.261  27.559  26.848  1.00  0.00     0.198 A 
ATOM     71  F   UNL A   1      41.907  29.466  28.066  1.00  0.00    -0.203 F 
ATOM     72  F   UNL A   1      39.091  24.800  27.751  1.00  0.00    -0.200 F 
ATOM     73  C   UNL A   1      40.549  26.372  26.760  1.00  0.00     0.200 A 
ATOM     74  F   UNL A   1      42.019  27.962  25.818  1.00  0.00    -0.200 F 
ATOM     75  F   UNL A   1      40.630  25.621  25.653  1.00  0.00    -0.200 F 
ENDBRANCH  51  65
BRANCH  52  76
ATOM     76  C   UNL A   1      39.462  33.952  37.005  1.00  0.00     0.064 A 
ATOM     77  C   UNL A   1      38.714  33.591  38.134  1.00  0.00     0.173 A 
ATOM     78  C   UNL A   1      40.114  35.193  37.021  1.00  0.00     0.173 A 
ATOM     79  F   UNL A   1      38.057  32.422  38.155  1.00  0.00    -0.203 F 
ATOM     80  C   UNL A   1      38.617  34.440  39.234  1.00  0.00     0.198 A 
ATOM     81  C   UNL A   1      40.032  36.033  38.131  1.00  0.00     0.198 A 
ATOM     82  F   UNL A   1      40.842  35.583  35.964  1.00  0.00    -0.203 F 
ATOM     83  F   UNL A   1      37.873  34.083  40.289  1.00  0.00    -0.200 F 
ATOM     84  C   UNL A   1      39.281  35.657  39.234  1.00  0.00     0.200 A 
ATOM     85  F   UNL A   1      40.683  37.204  38.131  1.00  0.00    -0.200 F 
ATOM     86  F   UNL A   1      39.193  36.470  40.295  1.00  0.00    -0.200 F 
ENDBRANCH  52  76
BRANCH  64  87
ATOM     87  C   UNL A   1      43.757  28.697  35.408  1.00  0.00     0.064 A 
ATOM     88  C   UNL A   1      43.561  27.626  36.290  1.00  0.00     0.173 A 
ATOM     89  C   UNL A   1      45.073  29.114  35.155  1.00  0.00     0.173 A 
ATOM     90  F   UNL A   1      42.321  27.203  36.574  1.00  0.00    -0.203 F 
ATOM     91  C   UNL A   1      44.644  26.998  36.900  1.00  0.00     0.198 A 
ATOM     92  C   UNL A   1      46.154  28.467  35.748  1.00  0.00     0.198 A 
ATOM     93  F   UNL A   1      45.310  30.130  34.312  1.00  0.00    -0.203 F 
ATOM     94  F   UNL A   1      44.435  25.992  37.760  1.00  0.00    -0.200 F 
ATOM     95  C   UNL A   1      45.938  27.412  36.622  1.00  0.00     0.200 A 
ATOM     96  F   UNL A   1      47.404  28.860  35.466  1.00  0.00    -0.200 F 
ATOM     97  F   UNL A   1      46.979  26.795  37.195  1.00  0.00    -0.200 F 
ENDBRANCH  64  87
ENDBRANCH  38  39
ENDBRANCH  30  33
ENDBRANCH  28  29
ENDBRANCH   1  28
TORSDOF 12
ENDMDL
MODEL 2
REMARK VINA RESULT:     -13.0      0.288      1.600
REMARK SMILES O=C1C[C@H](C(=O)NCCCCNC(=O)c2ccc(-c3c4nc(c(-c5c(F)c(F)c(F)c(F)c5F)c5ccc([nH]5)c(-c5c(F)c(F)c(F)c(F)c5F)c5nc(c(-c6c(F)c(F)c(F)c(F)c6F)c6ccc3[nH]6)C=C5)C=C4)cc2)c2c(nc(N3CCSCC3)[nH]c2=O)N1
REMARK SMILES IDX 10 1 9 2 8 3 7 4 5 5 6 6 4 8 1 9 2 10 3 11 91 12 79 13 78 15
REMARK SMILES IDX 80 16 89 17 81 18 88 19 90 20 82 22 83 23 87 24 84 25 86 26
REMARK SMILES IDX 85 27 11 28 12 29 13 30 14 32 15 33 16 34 77 35 17 36 76 37
REMARK SMILES IDX 18 38 19 39 20 40 70 41 21 42 75 43 69 44 71 45 22 46 74 47
REMARK SMILES IDX 68 48 67 49 23 51 55 52 35 53 54 54 36 55 39 56 53 57 72 58
REMARK SMILES IDX 37 59 38 60 52 62 73 63 40 64 24 65 25 66 33 67 26 68 27 69
REMARK SMILES IDX 31 70 34 71 28 72 29 73 32 74 30 75 56 76 57 77 65 78 58 79
REMARK SMILES IDX 59 80 63 81 66 82 60 83 61 84 64 85 62 86 41 87 42 88 50 89
REMARK SMILES IDX 43 90 44 91 48 92 51 93 45 94 46 95 49 96 47 97
REMARK H PARENT 7 7 91 14 88 21 12 31 71 50 39 61
REMARK Flexibility Score: inf
ROOT
ATOM      1  C   UNL A   1      31.614  32.044  26.723  1.00  0.00     0.023 C 
ENDROOT
BRANCH   1   2
ATOM      2  C   UNL A   1      31.773  30.525  26.673  1.00  0.00     0.023 C 
BRANCH   2   3
ATOM      3  C   UNL A   1      31.543  29.904  25.299  1.00  0.00     0.116 C 
BRANCH   3   4
ATOM      4  N   UNL A   1      32.784  29.728  24.569  1.00  0.00    -0.356 N 
ATOM      5  C   UNL A   1      33.259  28.672  23.853  1.00  0.00     0.228 C 
ATOM      6  O   UNL A   1      34.418  28.753  23.432  1.00  0.00    -0.274 OA
ATOM      7  H   UNL A   1      33.387  30.507  24.597  1.00  0.00     0.163 HD
BRANCH   5   8
ATOM      8  C   UNL A   1      32.434  27.400  23.625  1.00  0.00     0.127 C 
ATOM      9  O   UNL A   1      31.786  25.778  20.344  1.00  0.00    -0.275 OA
ATOM     10  C   UNL A   1      32.204  25.986  21.482  1.00  0.00     0.226 C 
ATOM     11  C   UNL A   1      32.009  27.325  22.155  1.00  0.00     0.119 C 
ATOM     12  N   UNL A   1      32.905  25.027  22.148  1.00  0.00    -0.310 N 
ATOM     13  C   UNL A   1      33.381  25.103  23.418  1.00  0.00     0.146 A 
ATOM     14  H   UNL A   1      33.088  24.194  21.658  1.00  0.00     0.171 HD
ATOM     15  C   UNL A   1      33.139  26.193  24.153  1.00  0.00     0.073 A 
ATOM     16  N   UNL A   1      34.109  24.019  23.818  1.00  0.00    -0.196 NA
ATOM     17  C   UNL A   1      33.613  26.157  25.546  1.00  0.00     0.258 A 
ATOM     18  C   UNL A   1      34.531  23.997  25.043  1.00  0.00     0.207 A 
ATOM     19  N   UNL A   1      34.269  25.021  25.905  1.00  0.00    -0.292 N 
ATOM     20  O   UNL A   1      33.442  27.081  26.329  1.00  0.00    -0.269 OA
ATOM     21  H   UNL A   1      34.572  24.934  26.838  1.00  0.00     0.173 HD
BRANCH  18  22
ATOM     22  N   UNL A   1      35.299  22.980  25.548  1.00  0.00    -0.341 N 
ATOM     23  C   UNL A   1      34.731  21.687  25.940  1.00  0.00     0.130 C 
ATOM     24  C   UNL A   1      36.765  23.070  25.539  1.00  0.00     0.130 C 
ATOM     25  C   UNL A   1      35.163  20.569  24.985  1.00  0.00     0.091 C 
ATOM     26  C   UNL A   1      37.414  22.082  24.572  1.00  0.00     0.091 C 
ATOM     27  S   UNL A   1      36.974  20.354  24.964  1.00  0.00    -0.158 SA
ENDBRANCH  18  22
ENDBRANCH   5   8
ENDBRANCH   3   4
ENDBRANCH   2   3
ENDBRANCH   1   2
BRANCH   1  28
ATOM     28  C   UNL A   1      32.812  32.797  27.292  1.00  0.00     0.116 C 
BRANCH  28  29
ATOM     29  N   UNL A   1      32.489  34.167  27.663  1.00  0.00    -0.352 N 
ATOM     30  C   UNL A   1      33.039  34.933  28.660  1.00  0.00     0.251 C 
ATOM     31  H   UNL A   1      31.785  34.601  27.129  1.00  0.00     0.163 HD
ATOM     32  O   UNL A   1      32.579  36.035  28.939  1.00  0.00    -0.269 OA
BRANCH  30  33
ATOM     33  C   UNL A   1      34.186  34.398  29.414  1.00  0.00     0.039 A 
ATOM     34  C   UNL A   1      33.949  33.654  30.573  1.00  0.00     0.014 A 
ATOM     35  C   UNL A   1      35.488  34.594  28.941  1.00  0.00     0.014 A 
ATOM     36  C   UNL A   1      35.021  33.051  31.230  1.00  0.00     0.010 A 
ATOM     37  C   UNL A   1      36.548  33.949  29.568  1.00  0.00     0.010 A 
ATOM     38  C   UNL A   1      36.322  33.175  30.716  1.00  0.00    -0.014 A 
BRANCH  38  39
ATOM     39  C   UNL A   1      37.471  32.525  31.387  1.00  0.00     0.031 A 
ATOM     40  C   UNL A   1      38.185  31.398  30.703  1.00  0.00     0.074 A 
ATOM     41  C   UNL A   1      37.841  32.922  32.618  1.00  0.00     0.049 A 
ATOM     42  N   UNL A   1      39.185  30.671  31.131  1.00  0.00    -0.248 NA
ATOM     43  C   UNL A   1      37.699  31.027  29.364  1.00  0.00     0.031 C 
ATOM     44  C   UNL A   1      37.208  33.993  33.387  1.00  0.00     0.029 A 
ATOM     45  N   UNL A   1      38.842  32.467  33.440  1.00  0.00    -0.354 N 
ATOM     46  C   UNL A   1      39.451  29.766  30.115  1.00  0.00     0.074 A 
ATOM     47  C   UNL A   1      38.472  29.991  29.074  1.00  0.00     0.031 C 
ATOM     48  C   UNL A   1      37.850  34.130  34.558  1.00  0.00     0.029 A 
ATOM     49  C   UNL A   1      38.920  33.139  34.634  1.00  0.00     0.049 A 
ATOM     50  H   UNL A   1      39.446  31.729  33.195  1.00  0.00     0.167 HD
ATOM     51  C   UNL A   1      40.444  28.849  30.043  1.00  0.00     0.037 A 
ATOM     52  C   UNL A   1      39.767  32.973  35.668  1.00  0.00     0.037 A 
ATOM     53  C   UNL A   1      41.419  28.631  31.076  1.00  0.00     0.049 A 
ATOM     54  C   UNL A   1      40.828  31.911  35.586  1.00  0.00     0.074 A 
ATOM     55  C   UNL A   1      42.478  27.741  31.090  1.00  0.00     0.029 A 
ATOM     56  N   UNL A   1      41.454  29.316  32.282  1.00  0.00    -0.354 N 
ATOM     57  N   UNL A   1      41.099  31.086  34.604  1.00  0.00    -0.248 NA
ATOM     58  C   UNL A   1      41.705  31.758  36.756  1.00  0.00     0.031 C 
ATOM     59  C   UNL A   1      43.133  27.862  32.319  1.00  0.00     0.029 A 
ATOM     60  C   UNL A   1      42.507  28.856  33.055  1.00  0.00     0.049 A 
ATOM     61  H   UNL A   1      40.823  30.023  32.550  1.00  0.00     0.167 HD
ATOM     62  C   UNL A   1      42.187  30.335  35.023  1.00  0.00     0.074 A 
ATOM     63  C   UNL A   1      42.535  30.806  36.349  1.00  0.00     0.031 C 
ATOM     64  C   UNL A   1      42.842  29.345  34.369  1.00  0.00     0.037 A 
BRANCH  51  65
ATOM     65  C   UNL A   1      40.531  28.026  28.794  1.00  0.00     0.064 A 
ATOM     66  C   UNL A   1      41.306  28.444  27.702  1.00  0.00     0.173 A 
ATOM     67  C   UNL A   1      39.861  26.798  28.694  1.00  0.00     0.173 A 
ATOM     68  F   UNL A   1      41.952  29.619  27.743  1.00  0.00    -0.203 F 
ATOM     69  C   UNL A   1      41.390  27.673  26.547  1.00  0.00     0.198 A 
ATOM     70  C   UNL A   1      39.968  26.017  27.548  1.00  0.00     0.198 A 
ATOM     71  F   UNL A   1      39.107  26.354  29.712  1.00  0.00    -0.203 F 
ATOM     72  F   UNL A   1      42.102  28.112  25.499  1.00  0.00    -0.200 F 
ATOM     73  C   UNL A   1      40.727  26.457  26.473  1.00  0.00     0.200 A 
ATOM     74  F   UNL A   1      39.333  24.839  27.480  1.00  0.00    -0.200 F 
ATOM     75  F   UNL A   1      40.813  25.712  25.362  1.00  0.00    -0.200 F 
ENDBRANCH  51  65
BRANCH  52  76
ATOM     76  C   UNL A   1      39.672  33.867  36.849  1.00  0.00     0.064 A 
ATOM     77  C   UNL A   1      40.350  35.094  36.870  1.00  0.00     0.173 A 
ATOM     78  C   UNL A   1      38.895  33.530  37.966  1.00  0.00     0.173 A 
ATOM     79  F   UNL A   1      41.121  35.449  35.832  1.00  0.00    -0.203 F 
ATOM     80  C   UNL A   1      40.261  35.946  37.968  1.00  0.00     0.198 A 
ATOM     81  C   UNL A   1      38.791  34.393  39.056  1.00  0.00     0.198 A 
ATOM     82  F   UNL A   1      38.227  32.367  37.993  1.00  0.00    -0.203 F 
ATOM     83  F   UNL A   1      40.942  37.100  37.974  1.00  0.00    -0.200 F 
ATOM     84  C   UNL A   1      39.477  35.598  39.057  1.00  0.00     0.200 A 
ATOM     85  F   UNL A   1      38.024  34.057  40.102  1.00  0.00    -0.200 F 
ATOM     86  F   UNL A   1      39.385  36.422  40.109  1.00  0.00    -0.200 F 
ENDBRANCH  52  76
BRANCH  64  87
ATOM     87  C   UNL A   1      44.015  28.716  35.057  1.00  0.00     0.064 A 
ATOM     88  C   UNL A   1      43.868  27.572  35.852  1.00  0.00     0.173 A 
ATOM     89  C   UNL A   1      45.310  29.216  34.851  1.00  0.00     0.173 A 
ATOM     90  F   UNL A   1      42.648  27.066  36.088  1.00  0.00    -0.203 F 
ATOM     91  C   UNL A   1      44.976  26.954  36.425  1.00  0.00     0.198 A 
ATOM     92  C   UNL A   1      46.418  28.581  35.405  1.00  0.00     0.198 A 
ATOM     93  F   UNL A   1      45.502  30.305  34.091  1.00  0.00    -0.203 F 
ATOM     94  F   UNL A   1      44.812  25.875  37.203  1.00  0.00    -0.200 F 
ATOM     95  C   UNL A   1      46.250  27.453  36.193  1.00  0.00     0.200 A 
ATOM     96  F   UNL A   1      47.649  29.057  35.169  1.00  0.00    -0.200 F 
ATOM     97  F   UNL A   1      47.317  26.846  36.730  1.00  0.00    -0.200 F 
ENDBRANCH  64  87
ENDBRANCH  38  39
ENDBRANCH  30  33
ENDBRANCH  28  29
ENDBRANCH   1  28
TORSDOF 12
ENDMDL
MODEL 3
REMARK VINA RESULT:     -12.9      0.734      7.430
REMARK SMILES O=C1C[C@H](C(=O)NCCCCNC(=O)c2ccc(-c3c4nc(c(-c5c(F)c(F)c(F)c(F)c5F)c5ccc([nH]5)c(-c5c(F)c(F)c(F)c(F)c5F)c5nc(c(-c6c(F)c(F)c(F)c(F)c6F)c6ccc3[nH]6)C=C5)C=C4)cc2)c2c(nc(N3CCSCC3)[nH]c2=O)N1
REMARK SMILES IDX 10 1 9 2 8 3 7 4 5 5 6 6 4 8 1 9 2 10 3 11 91 12 79 13 78 15
REMARK SMILES IDX 80 16 89 17 81 18 88 19 90 20 82 22 83 23 87 24 84 25 86 26
REMARK SMILES IDX 85 27 11 28 12 29 13 30 14 32 15 33 16 34 77 35 17 36 76 37
REMARK SMILES IDX 18 38 19 39 20 40 70 41 21 42 75 43 69 44 71 45 22 46 74 47
REMARK SMILES IDX 68 48 67 49 23 51 55 52 35 53 54 54 36 55 39 56 53 57 72 58
REMARK SMILES IDX 37 59 38 60 52 62 73 63 40 64 24 65 25 66 33 67 26 68 27 69
REMARK SMILES IDX 31 70 34 71 28 72 29 73 32 74 30 75 56 76 57 77 65 78 58 79
REMARK SMILES IDX 59 80 63 81 66 82 60 83 61 84 64 85 62 86 41 87 42 88 50 89
REMARK SMILES IDX 43 90 44 91 48 92 51 93 45 94 46 95 49 96 47 97
REMARK H PARENT 7 7 91 14 88 21 12 31 71 50 39 61
REMARK Flexibility Score: inf
ROOT
ATOM      1  C   UNL A   1      31.615  31.979  26.900  1.00  0.00     0.023 C 
ENDROOT
BRANCH   1   2
ATOM      2  C   UNL A   1      31.905  30.482  26.797  1.00  0.00     0.023 C 
BRANCH   2   3
ATOM      3  C   UNL A   1      31.617  29.869  25.431  1.00  0.00     0.116 C 
BRANCH   3   4
ATOM      4  N   UNL A   1      32.824  29.715  24.641  1.00  0.00    -0.356 N 
ATOM      5  C   UNL A   1      33.268  28.679  23.877  1.00  0.00     0.228 C 
ATOM      6  O   UNL A   1      34.406  28.774  23.406  1.00  0.00    -0.274 OA
ATOM      7  H   UNL A   1      33.427  30.494  24.663  1.00  0.00     0.163 HD
BRANCH   5   8
ATOM      8  C   UNL A   1      32.435  27.412  23.653  1.00  0.00     0.127 C 
ATOM      9  O   UNL A   1      31.774  25.786  20.376  1.00  0.00    -0.275 OA
ATOM     10  C   UNL A   1      32.194  25.994  21.513  1.00  0.00     0.226 C 
ATOM     11  C   UNL A   1      32.008  27.336  22.184  1.00  0.00     0.119 C 
ATOM     12  N   UNL A   1      32.891  25.033  22.181  1.00  0.00    -0.310 N 
ATOM     13  C   UNL A   1      33.368  25.108  23.451  1.00  0.00     0.146 A 
ATOM     14  H   UNL A   1      33.068  24.197  21.692  1.00  0.00     0.171 HD
ATOM     15  C   UNL A   1      33.134  26.202  24.183  1.00  0.00     0.073 A 
ATOM     16  N   UNL A   1      34.091  24.021  23.852  1.00  0.00    -0.196 NA
ATOM     17  C   UNL A   1      33.609  26.167  25.575  1.00  0.00     0.258 A 
ATOM     18  C   UNL A   1      34.513  23.999  25.077  1.00  0.00     0.207 A 
ATOM     19  N   UNL A   1      34.259  25.027  25.937  1.00  0.00    -0.292 N 
ATOM     20  O   UNL A   1      33.444  27.093  26.356  1.00  0.00    -0.269 OA
ATOM     21  H   UNL A   1      34.562  24.941  26.870  1.00  0.00     0.173 HD
BRANCH  18  22
ATOM     22  N   UNL A   1      35.276  22.980  25.583  1.00  0.00    -0.341 N 
ATOM     23  C   UNL A   1      34.704  21.683  25.959  1.00  0.00     0.130 C 
ATOM     24  C   UNL A   1      36.742  23.070  25.593  1.00  0.00     0.130 C 
ATOM     25  C   UNL A   1      35.149  20.573  25.000  1.00  0.00     0.091 C 
ATOM     26  C   UNL A   1      37.403  22.091  24.627  1.00  0.00     0.091 C 
ATOM     27  S   UNL A   1      36.960  20.359  25.000  1.00  0.00    -0.158 SA
ENDBRANCH  18  22
ENDBRANCH   5   8
ENDBRANCH   3   4
ENDBRANCH   2   3
ENDBRANCH   1   2
BRANCH   1  28
ATOM     28  C   UNL A   1      32.846  32.861  27.077  1.00  0.00     0.116 C 
BRANCH  28  29
ATOM     29  N   UNL A   1      32.524  34.171  27.624  1.00  0.00    -0.352 N 
ATOM     30  C   UNL A   1      33.083  34.805  28.706  1.00  0.00     0.251 C 
ATOM     31  H   UNL A   1      31.814  34.668  27.157  1.00  0.00     0.163 HD
ATOM     32  O   UNL A   1      32.623  35.861  29.128  1.00  0.00    -0.269 OA
BRANCH  30  33
ATOM     33  C   UNL A   1      34.239  34.181  29.374  1.00  0.00     0.039 A 
ATOM     34  C   UNL A   1      34.013  33.252  30.393  1.00  0.00     0.014 A 
ATOM     35  C   UNL A   1      35.538  34.483  28.953  1.00  0.00     0.014 A 
ATOM     36  C   UNL A   1      35.096  32.575  30.953  1.00  0.00     0.010 A 
ATOM     37  C   UNL A   1      36.610  33.770  29.476  1.00  0.00     0.010 A 
ATOM     38  C   UNL A   1      36.396  32.813  30.480  1.00  0.00    -0.014 A 
BRANCH  38  39
ATOM     39  C   UNL A   1      37.557  32.090  31.048  1.00  0.00     0.031 A 
ATOM     40  C   UNL A   1      38.054  32.448  32.416  1.00  0.00     0.074 A 
ATOM     41  C   UNL A   1      38.180  31.146  30.320  1.00  0.00     0.049 A 
ATOM     42  N   UNL A   1      39.074  31.967  33.079  1.00  0.00    -0.248 NA
ATOM     43  C   UNL A   1      37.315  33.502  33.130  1.00  0.00     0.031 C 
ATOM     44  C   UNL A   1      37.798  30.729  28.971  1.00  0.00     0.029 A 
ATOM     45  N   UNL A   1      39.271  30.367  30.614  1.00  0.00    -0.354 N 
ATOM     46  C   UNL A   1      39.094  32.650  34.285  1.00  0.00     0.074 A 
ATOM     47  C   UNL A   1      38.024  33.623  34.242  1.00  0.00     0.031 C 
ATOM     48  C   UNL A   1      38.625  29.752  28.563  1.00  0.00     0.029 A 
ATOM     49  C   UNL A   1      39.612  29.496  29.609  1.00  0.00     0.049 A 
ATOM     50  H   UNL A   1      39.762  30.427  31.465  1.00  0.00     0.167 HD
ATOM     51  C   UNL A   1      39.912  32.461  35.346  1.00  0.00     0.037 A 
ATOM     52  C   UNL A   1      40.606  28.590  29.547  1.00  0.00     0.037 A 
ATOM     53  C   UNL A   1      40.970  31.491  35.388  1.00  0.00     0.049 A 
ATOM     54  C   UNL A   1      41.536  28.437  30.719  1.00  0.00     0.074 A 
ATOM     55  C   UNL A   1      41.842  31.207  36.424  1.00  0.00     0.029 A 
ATOM     56  N   UNL A   1      41.300  30.641  34.342  1.00  0.00    -0.354 N 
ATOM     57  N   UNL A   1      41.523  29.060  31.872  1.00  0.00    -0.248 NA
ATOM     58  C   UNL A   1      42.619  27.453  30.582  1.00  0.00     0.031 C 
ATOM     59  C   UNL A   1      42.721  30.210  35.994  1.00  0.00     0.029 A 
ATOM     60  C   UNL A   1      42.373  29.843  34.703  1.00  0.00     0.049 A 
ATOM     61  H   UNL A   1      40.840  30.609  33.472  1.00  0.00     0.167 HD
ATOM     62  C   UNL A   1      42.572  28.529  32.607  1.00  0.00     0.074 A 
ATOM     63  C   UNL A   1      43.202  27.526  31.772  1.00  0.00     0.031 C 
ATOM     64  C   UNL A   1      42.978  28.843  33.861  1.00  0.00     0.037 A 
BRANCH  51  65
ATOM     65  C   UNL A   1      39.678  33.316  36.555  1.00  0.00     0.064 A 
ATOM     66  C   UNL A   1      40.337  34.545  36.712  1.00  0.00     0.173 A 
ATOM     67  C   UNL A   1      38.771  32.923  37.549  1.00  0.00     0.173 A 
ATOM     68  F   UNL A   1      41.226  34.956  35.796  1.00  0.00    -0.203 F 
ATOM     69  C   UNL A   1      40.111  35.340  37.832  1.00  0.00     0.198 A 
ATOM     70  C   UNL A   1      38.528  33.732  38.654  1.00  0.00     0.198 A 
ATOM     71  F   UNL A   1      38.116  31.757  37.444  1.00  0.00    -0.203 F 
ATOM     72  F   UNL A   1      40.783  36.490  37.982  1.00  0.00    -0.200 F 
ATOM     73  C   UNL A   1      39.201  34.937  38.799  1.00  0.00     0.200 A 
ATOM     74  F   UNL A   1      37.644  33.346  39.585  1.00  0.00    -0.200 F 
ATOM     75  F   UNL A   1      38.981  35.705  39.874  1.00  0.00    -0.200 F 
ENDBRANCH  51  65
BRANCH  52  76
ATOM     76  C   UNL A   1      40.743  27.726  28.347  1.00  0.00     0.064 A 
ATOM     77  C   UNL A   1      41.532  28.131  27.262  1.00  0.00     0.173 A 
ATOM     78  C   UNL A   1      40.109  26.478  28.265  1.00  0.00     0.173 A 
ATOM     79  F   UNL A   1      42.141  29.326  27.289  1.00  0.00    -0.203 F 
ATOM     80  C   UNL A   1      41.676  27.325  26.136  1.00  0.00     0.198 A 
ATOM     81  C   UNL A   1      40.270  25.663  27.146  1.00  0.00     0.198 A 
ATOM     82  F   UNL A   1      39.343  26.045  29.278  1.00  0.00    -0.203 F 
ATOM     83  F   UNL A   1      42.413  27.749  25.101  1.00  0.00    -0.200 F 
ATOM     84  C   UNL A   1      41.050  26.089  26.081  1.00  0.00     0.200 A 
ATOM     85  F   UNL A   1      39.671  24.465  27.100  1.00  0.00    -0.200 F 
ATOM     86  F   UNL A   1      41.196  25.310  25.001  1.00  0.00    -0.200 F 
ENDBRANCH  52  76
BRANCH  64  87
ATOM     87  C   UNL A   1      44.141  28.084  34.424  1.00  0.00     0.064 A 
ATOM     88  C   UNL A   1      45.453  28.562  34.305  1.00  0.00     0.173 A 
ATOM     89  C   UNL A   1      43.931  26.908  35.161  1.00  0.00     0.173 A 
ATOM     90  F   UNL A   1      45.705  29.674  33.599  1.00  0.00    -0.203 F 
ATOM     91  C   UNL A   1      46.516  27.885  34.898  1.00  0.00     0.198 A 
ATOM     92  C   UNL A   1      44.992  26.247  35.772  1.00  0.00     0.198 A 
ATOM     93  F   UNL A   1      42.691  26.415  35.308  1.00  0.00    -0.203 F 
ATOM     94  F   UNL A   1      47.766  28.345  34.751  1.00  0.00    -0.200 F 
ATOM     95  C   UNL A   1      46.284  26.735  35.638  1.00  0.00     0.200 A 
ATOM     96  F   UNL A   1      44.764  25.144  36.498  1.00  0.00    -0.200 F 
ATOM     97  F   UNL A   1      47.305  26.095  36.223  1.00  0.00    -0.200 F 
ENDBRANCH  64  87
ENDBRANCH  38  39
ENDBRANCH  30  33
ENDBRANCH  28  29
ENDBRANCH   1  28
TORSDOF 12
ENDMDL
