MODEL 1
REMARK VINA RESULT:     -12.3      0.000      0.000
REMARK SMILES [NH3+]C1(C(=O)N2[C@@H](C(=O)NCCCCNC(=O)c3ccc(-c4c5nc(c(-c6c(F)c(F)c(F)c(F)c6F)c6ccc([nH]6)c(-c6c(F)c(F)c(F)c(F)c6F)c6nc(c(-c7c(F)c(F)c(F)c(F)c7F)c7ccc4[nH]7)C=C6)C=C5)cc3)CC[C@@H]3CCCC[C@@H]32)CC1
REMARK SMILES IDX 11 1 10 2 9 3 7 4 8 5 6 7 5 8 87 9 80 10 82 11 86 12 81 13
REMARK SMILES IDX 83 14 85 15 84 16 3 17 4 18 2 19 88 20 89 21 1 22 12 26
REMARK SMILES IDX 13 27 14 28 15 29 16 31 17 32 18 33 79 34 19 35 78 36 20 37
REMARK SMILES IDX 21 38 22 39 72 40 23 41 77 42 71 43 73 44 24 45 76 46 70 47
REMARK SMILES IDX 69 48 25 50 57 51 37 52 56 53 38 54 41 55 55 56 74 57 39 58
REMARK SMILES IDX 40 59 54 61 75 62 42 63 26 64 27 65 35 66 28 67 29 68 33 69
REMARK SMILES IDX 36 70 30 71 31 72 34 73 32 74 58 75 59 76 67 77 60 78 61 79
REMARK SMILES IDX 65 80 68 81 62 82 63 83 66 84 64 85 43 86 44 87 52 88 45 89
REMARK SMILES IDX 46 90 50 91 53 92 47 93 48 94 51 95 49 96
REMARK H PARENT 9 6 1 23 1 24 1 25 14 30 73 49 41 60
REMARK Flexibility Score: inf
ROOT
ATOM      1  C   UNL A   1      31.852  27.869  27.090  1.00  0.00     0.023 C 
ENDROOT
BRANCH   1   2
ATOM      2  C   UNL A   1      32.118  26.599  26.283  1.00  0.00     0.116 C 
BRANCH   2   3
ATOM      3  N   UNL A   1      31.424  25.475  26.876  1.00  0.00    -0.354 N 
ATOM      4  C   UNL A   1      31.713  24.149  26.796  1.00  0.00     0.242 C 
ATOM      5  O   UNL A   1      30.804  23.357  27.062  1.00  0.00    -0.273 OA
ATOM      6  H   UNL A   1      30.631  25.702  27.412  1.00  0.00     0.163 HD
BRANCH   4   7
ATOM      7  C   UNL A   1      33.066  23.639  26.260  1.00  0.00     0.175 C 
ATOM      8  N   UNL A   1      33.094  23.081  24.885  1.00  0.00    -0.322 N 
ATOM      9  C   UNL A   1      34.318  22.345  24.498  1.00  0.00     0.089 C 
ATOM     10  C   UNL A   1      33.547  22.594  27.305  1.00  0.00     0.036 C 
ATOM     11  C   UNL A   1      34.617  21.226  25.487  1.00  0.00     0.012 C 
ATOM     12  C   UNL A   1      35.511  23.307  24.298  1.00  0.00     0.025 C 
ATOM     13  C   UNL A   1      34.777  21.793  26.900  1.00  0.00     0.008 C 
ATOM     14  C   UNL A   1      35.850  20.462  25.001  1.00  0.00     0.006 C 
ATOM     15  C   UNL A   1      36.923  22.709  24.377  1.00  0.00     0.002 C 
ATOM     16  C   UNL A   1      37.098  21.328  25.007  1.00  0.00     0.000 C 
BRANCH   8  17
ATOM     17  C   UNL A   1      32.244  23.399  23.817  1.00  0.00     0.284 C 
ATOM     18  O   UNL A   1      31.498  22.533  23.351  1.00  0.00    -0.268 OA
BRANCH  17  19
ATOM     19  C   UNL A   1      32.176  24.773  23.162  1.00  0.00     0.174 C 
ATOM     20  C   UNL A   1      32.899  24.834  21.818  1.00  0.00     0.086 C 
ATOM     21  C   UNL A   1      33.300  25.749  22.922  1.00  0.00     0.086 C 
BRANCH  19  22
ATOM     22  N   UNL A   1      30.788  25.324  23.130  1.00  0.00    -0.345 N 
ATOM     23  H   UNL A   1      30.196  24.722  22.559  1.00  0.00     0.345 HD
ATOM     24  H   UNL A   1      30.804  26.263  22.731  1.00  0.00     0.345 HD
ATOM     25  H   UNL A   1      30.416  25.365  24.079  1.00  0.00     0.345 HD
ENDBRANCH  19  22
ENDBRANCH  17  19
ENDBRANCH   8  17
ENDBRANCH   4   7
ENDBRANCH   2   3
ENDBRANCH   1   2
BRANCH   1  26
ATOM     26  C   UNL A   1      31.679  29.126  26.235  1.00  0.00     0.023 C 
BRANCH  26  27
ATOM     27  C   UNL A   1      32.949  29.946  26.063  1.00  0.00     0.116 C 
BRANCH  27  28
ATOM     28  N   UNL A   1      32.768  31.338  26.444  1.00  0.00    -0.352 N 
ATOM     29  C   UNL A   1      33.494  32.078  27.342  1.00  0.00     0.251 C 
ATOM     30  H   UNL A   1      32.027  31.810  25.999  1.00  0.00     0.163 HD
ATOM     31  O   UNL A   1      33.114  33.192  27.687  1.00  0.00    -0.269 OA
BRANCH  29  32
ATOM     32  C   UNL A   1      34.723  31.500  27.914  1.00  0.00     0.039 A 
ATOM     33  C   UNL A   1      35.852  32.308  28.048  1.00  0.00     0.014 A 
ATOM     34  C   UNL A   1      34.736  30.176  28.362  1.00  0.00     0.014 A 
ATOM     35  C   UNL A   1      36.983  31.805  28.689  1.00  0.00     0.010 A 
ATOM     36  C   UNL A   1      35.832  29.706  29.076  1.00  0.00     0.010 A 
ATOM     37  C   UNL A   1      36.968  30.512  29.240  1.00  0.00    -0.014 A 
BRANCH  37  38
ATOM     38  C   UNL A   1      38.131  29.988  29.995  1.00  0.00     0.031 A 
ATOM     39  C   UNL A   1      38.391  30.454  31.398  1.00  0.00     0.074 A 
ATOM     40  C   UNL A   1      38.996  29.153  29.388  1.00  0.00     0.049 A 
ATOM     41  N   UNL A   1      39.384  30.159  32.199  1.00  0.00    -0.248 NA
ATOM     42  C   UNL A   1      37.425  31.407  31.966  1.00  0.00     0.031 C 
ATOM     43  C   UNL A   1      38.887  28.685  28.006  1.00  0.00     0.029 A 
ATOM     44  N   UNL A   1      40.146  28.565  29.850  1.00  0.00    -0.354 N 
ATOM     45  C   UNL A   1      39.172  30.905  33.350  1.00  0.00     0.074 A 
ATOM     46  C   UNL A   1      37.992  31.710  33.123  1.00  0.00     0.031 C 
ATOM     47  C   UNL A   1      39.917  27.867  27.738  1.00  0.00     0.029 A 
ATOM     48  C   UNL A   1      40.777  27.784  28.914  1.00  0.00     0.049 A 
ATOM     49  H   UNL A   1      40.485  28.689  30.766  1.00  0.00     0.167 HD
ATOM     50  C   UNL A   1      39.885  30.900  34.503  1.00  0.00     0.037 A 
ATOM     51  C   UNL A   1      41.928  27.088  28.991  1.00  0.00     0.037 A 
ATOM     52  C   UNL A   1      41.045  30.079  34.727  1.00  0.00     0.049 A 
ATOM     53  C   UNL A   1      42.696  27.083  30.284  1.00  0.00     0.074 A 
ATOM     54  C   UNL A   1      41.787  29.931  35.885  1.00  0.00     0.029 A 
ATOM     55  N   UNL A   1      41.641  29.274  33.766  1.00  0.00    -0.354 N 
ATOM     56  N   UNL A   1      42.435  27.716  31.402  1.00  0.00    -0.248 NA
ATOM     57  C   UNL A   1      43.911  26.260  30.330  1.00  0.00     0.031 C 
ATOM     58  C   UNL A   1      42.869  29.088  35.607  1.00  0.00     0.029 A 
ATOM     59  C   UNL A   1      42.765  28.657  34.294  1.00  0.00     0.049 A 
ATOM     60  H   UNL A   1      41.315  29.159  32.844  1.00  0.00     0.167 HD
ATOM     61  C   UNL A   1      43.438  27.353  32.291  1.00  0.00     0.074 A 
ATOM     62  C   UNL A   1      44.304  26.430  31.584  1.00  0.00     0.031 C 
ATOM     63  C   UNL A   1      43.623  27.747  33.575  1.00  0.00     0.037 A 
BRANCH  50  64
ATOM     64  C   UNL A   1      39.434  31.825  35.598  1.00  0.00     0.064 A 
ATOM     65  C   UNL A   1      38.486  31.433  36.558  1.00  0.00     0.173 A 
ATOM     66  C   UNL A   1      39.957  33.123  35.689  1.00  0.00     0.173 A 
ATOM     67  F   UNL A   1      37.945  30.207  36.512  1.00  0.00    -0.203 F 
ATOM     68  C   UNL A   1      38.047  32.322  37.536  1.00  0.00     0.198 A 
ATOM     69  C   UNL A   1      39.543  33.996  36.692  1.00  0.00     0.198 A 
ATOM     70  F   UNL A   1      40.871  33.550  34.804  1.00  0.00    -0.203 F 
ATOM     71  F   UNL A   1      37.089  31.948  38.397  1.00  0.00    -0.200 F 
ATOM     72  C   UNL A   1      38.579  33.600  37.606  1.00  0.00     0.200 A 
ATOM     73  F   UNL A   1      40.070  35.226  36.768  1.00  0.00    -0.200 F 
ATOM     74  F   UNL A   1      38.153  34.454  38.547  1.00  0.00    -0.200 F 
ENDBRANCH  50  64
BRANCH  51  75
ATOM     75  C   UNL A   1      42.399  26.324  27.808  1.00  0.00     0.064 A 
ATOM     76  C   UNL A   1      43.345  26.865  26.928  1.00  0.00     0.173 A 
ATOM     77  C   UNL A   1      41.944  25.022  27.558  1.00  0.00     0.173 A 
ATOM     78  F   UNL A   1      43.798  28.113  27.117  1.00  0.00    -0.203 F 
ATOM     79  C   UNL A   1      43.813  26.135  25.836  1.00  0.00     0.198 A 
ATOM     80  C   UNL A   1      42.432  24.282  26.482  1.00  0.00     0.198 A 
ATOM     81  F   UNL A   1      41.044  24.455  28.376  1.00  0.00    -0.203 F 
ATOM     82  F   UNL A   1      44.694  26.687  24.993  1.00  0.00    -0.200 F 
ATOM     83  C   UNL A   1      43.363  24.841  25.620  1.00  0.00     0.200 A 
ATOM     84  F   UNL A   1      42.008  23.026  26.288  1.00  0.00    -0.200 F 
ATOM     85  F   UNL A   1      43.825  24.134  24.581  1.00  0.00    -0.200 F 
ENDBRANCH  51  75
BRANCH  63  86
ATOM     86  C   UNL A   1      44.797  27.166  34.312  1.00  0.00     0.064 A 
ATOM     87  C   UNL A   1      46.038  27.818  34.357  1.00  0.00     0.173 A 
ATOM     88  C   UNL A   1      44.663  25.962  35.021  1.00  0.00     0.173 A 
ATOM     89  F   UNL A   1      46.223  28.965  33.684  1.00  0.00    -0.203 F 
ATOM     90  C   UNL A   1      47.109  27.274  35.061  1.00  0.00     0.198 A 
ATOM     91  C   UNL A   1      45.725  25.438  35.752  1.00  0.00     0.198 A 
ATOM     92  F   UNL A   1      43.496  25.301  35.019  1.00  0.00    -0.203 F 
ATOM     93  F   UNL A   1      48.300  27.889  35.048  1.00  0.00    -0.200 F 
ATOM     94  C   UNL A   1      46.949  26.090  35.766  1.00  0.00     0.200 A 
ATOM     95  F   UNL A   1      45.565  24.303  36.446  1.00  0.00    -0.200 F 
ATOM     96  F   UNL A   1      47.978  25.572  36.451  1.00  0.00    -0.200 F 
ENDBRANCH  63  86
ENDBRANCH  37  38
ENDBRANCH  29  32
ENDBRANCH  27  28
ENDBRANCH  26  27
ENDBRANCH   1  26
TORSDOF 14
ENDMDL
MODEL 2
REMARK VINA RESULT:     -12.3      0.182      1.602
REMARK SMILES [NH3+]C1(C(=O)N2[C@@H](C(=O)NCCCCNC(=O)c3ccc(-c4c5nc(c(-c6c(F)c(F)c(F)c(F)c6F)c6ccc([nH]6)c(-c6c(F)c(F)c(F)c(F)c6F)c6nc(c(-c7c(F)c(F)c(F)c(F)c7F)c7ccc4[nH]7)C=C6)C=C5)cc3)CC[C@@H]3CCCC[C@@H]32)CC1
REMARK SMILES IDX 11 1 10 2 9 3 7 4 8 5 6 7 5 8 87 9 80 10 82 11 86 12 81 13
REMARK SMILES IDX 83 14 85 15 84 16 3 17 4 18 2 19 88 20 89 21 1 22 12 26
REMARK SMILES IDX 13 27 14 28 15 29 16 31 17 32 18 33 79 34 19 35 78 36 20 37
REMARK SMILES IDX 21 38 22 39 72 40 23 41 77 42 71 43 73 44 24 45 76 46 70 47
REMARK SMILES IDX 69 48 25 50 57 51 37 52 56 53 38 54 41 55 55 56 74 57 39 58
REMARK SMILES IDX 40 59 54 61 75 62 42 63 26 64 27 65 35 66 28 67 29 68 33 69
REMARK SMILES IDX 36 70 30 71 31 72 34 73 32 74 58 75 59 76 67 77 60 78 61 79
REMARK SMILES IDX 65 80 68 81 62 82 63 83 66 84 64 85 43 86 44 87 52 88 45 89
REMARK SMILES IDX 46 90 50 91 53 92 47 93 48 94 51 95 49 96
REMARK H PARENT 9 6 1 23 1 24 1 25 14 30 73 49 41 60
REMARK Flexibility Score: inf
ROOT
ATOM      1  C   UNL A   1      31.776  27.864  26.953  1.00  0.00     0.023 C 
ENDROOT
BRANCH   1   2
ATOM      2  C   UNL A   1      32.078  26.561  26.214  1.00  0.00     0.116 C 
BRANCH   2   3
ATOM      3  N   UNL A   1      31.424  25.449  26.872  1.00  0.00    -0.354 N 
ATOM      4  C   UNL A   1      31.732  24.126  26.831  1.00  0.00     0.242 C 
ATOM      5  O   UNL A   1      30.846  23.330  27.157  1.00  0.00    -0.273 OA
ATOM      6  H   UNL A   1      30.646  25.684  27.426  1.00  0.00     0.163 HD
BRANCH   4   7
ATOM      7  C   UNL A   1      33.075  23.617  26.268  1.00  0.00     0.175 C 
ATOM      8  N   UNL A   1      33.074  23.054  24.894  1.00  0.00    -0.322 N 
ATOM      9  C   UNL A   1      34.292  22.320  24.484  1.00  0.00     0.089 C 
ATOM     10  C   UNL A   1      33.581  22.577  27.306  1.00  0.00     0.036 C 
ATOM     11  C   UNL A   1      34.615  21.205  25.470  1.00  0.00     0.012 C 
ATOM     12  C   UNL A   1      35.478  23.285  24.255  1.00  0.00     0.025 C 
ATOM     13  C   UNL A   1      34.804  21.779  26.877  1.00  0.00     0.008 C 
ATOM     14  C   UNL A   1      35.839  20.442  24.960  1.00  0.00     0.006 C 
ATOM     15  C   UNL A   1      36.893  22.690  24.305  1.00  0.00     0.002 C 
ATOM     16  C   UNL A   1      37.085  21.312  24.937  1.00  0.00     0.000 C 
BRANCH   8  17
ATOM     17  C   UNL A   1      32.200  23.366  23.844  1.00  0.00     0.284 C 
ATOM     18  O   UNL A   1      31.417  22.509  23.427  1.00  0.00    -0.268 OA
BRANCH  17  19
ATOM     19  C   UNL A   1      32.151  24.722  23.151  1.00  0.00     0.174 C 
ATOM     20  C   UNL A   1      32.900  24.744  21.820  1.00  0.00     0.086 C 
ATOM     21  C   UNL A   1      33.284  25.687  22.906  1.00  0.00     0.086 C 
BRANCH  19  22
ATOM     22  N   UNL A   1      30.766  25.277  23.077  1.00  0.00    -0.345 N 
ATOM     23  H   UNL A   1      30.107  24.596  23.452  1.00  0.00     0.345 HD
ATOM     24  H   UNL A   1      30.532  25.478  22.105  1.00  0.00     0.345 HD
ATOM     25  H   UNL A   1      30.715  26.137  23.623  1.00  0.00     0.345 HD
ENDBRANCH  19  22
ENDBRANCH  17  19
ENDBRANCH   8  17
ENDBRANCH   4   7
ENDBRANCH   2   3
ENDBRANCH   1   2
BRANCH   1  26
ATOM     26  C   UNL A   1      31.657  29.085  26.040  1.00  0.00     0.023 C 
BRANCH  26  27
ATOM     27  C   UNL A   1      32.919  29.931  25.958  1.00  0.00     0.116 C 
BRANCH  27  28
ATOM     28  N   UNL A   1      32.692  31.309  26.361  1.00  0.00    -0.352 N 
ATOM     29  C   UNL A   1      33.390  32.057  27.276  1.00  0.00     0.251 C 
ATOM     30  H   UNL A   1      31.939  31.766  25.922  1.00  0.00     0.163 HD
ATOM     31  O   UNL A   1      32.974  33.153  27.638  1.00  0.00    -0.269 OA
BRANCH  29  32
ATOM     32  C   UNL A   1      34.635  31.509  27.843  1.00  0.00     0.039 A 
ATOM     33  C   UNL A   1      35.732  32.355  28.012  1.00  0.00     0.014 A 
ATOM     34  C   UNL A   1      34.695  30.173  28.252  1.00  0.00     0.014 A 
ATOM     35  C   UNL A   1      36.875  31.875  28.650  1.00  0.00     0.010 A 
ATOM     36  C   UNL A   1      35.801  29.724  28.963  1.00  0.00     0.010 A 
ATOM     37  C   UNL A   1      36.903  30.567  29.163  1.00  0.00    -0.014 A 
BRANCH  37  38
ATOM     38  C   UNL A   1      38.079  30.065  29.914  1.00  0.00     0.031 A 
ATOM     39  C   UNL A   1      38.331  30.532  31.318  1.00  0.00     0.074 A 
ATOM     40  C   UNL A   1      38.960  29.250  29.303  1.00  0.00     0.049 A 
ATOM     41  N   UNL A   1      39.332  30.255  32.116  1.00  0.00    -0.248 NA
ATOM     42  C   UNL A   1      37.347  31.463  31.890  1.00  0.00     0.031 C 
ATOM     43  C   UNL A   1      38.858  28.783  27.920  1.00  0.00     0.029 A 
ATOM     44  N   UNL A   1      40.122  28.683  29.761  1.00  0.00    -0.354 N 
ATOM     45  C   UNL A   1      39.107  30.992  33.270  1.00  0.00     0.074 A 
ATOM     46  C   UNL A   1      37.909  31.774  33.047  1.00  0.00     0.031 C 
ATOM     47  C   UNL A   1      39.904  27.987  27.648  1.00  0.00     0.029 A 
ATOM     48  C   UNL A   1      40.768  27.919  28.822  1.00  0.00     0.049 A 
ATOM     49  H   UNL A   1      40.460  28.812  30.677  1.00  0.00     0.167 HD
ATOM     50  C   UNL A   1      39.821  30.999  34.421  1.00  0.00     0.037 A 
ATOM     51  C   UNL A   1      41.932  27.246  28.895  1.00  0.00     0.037 A 
ATOM     52  C   UNL A   1      40.999  30.201  34.641  1.00  0.00     0.049 A 
ATOM     53  C   UNL A   1      42.703  27.254  30.186  1.00  0.00     0.074 A 
ATOM     54  C   UNL A   1      41.746  30.065  35.797  1.00  0.00     0.029 A 
ATOM     55  N   UNL A   1      41.610  29.412  33.676  1.00  0.00    -0.354 N 
ATOM     56  N   UNL A   1      42.431  27.877  31.307  1.00  0.00    -0.248 NA
ATOM     57  C   UNL A   1      43.935  26.455  30.227  1.00  0.00     0.031 C 
ATOM     58  C   UNL A   1      42.845  29.246  35.515  1.00  0.00     0.029 A 
ATOM     59  C   UNL A   1      42.746  28.816  34.200  1.00  0.00     0.049 A 
ATOM     60  H   UNL A   1      41.284  29.292  32.755  1.00  0.00     0.167 HD
ATOM     61  C   UNL A   1      43.443  27.533  32.193  1.00  0.00     0.074 A 
ATOM     62  C   UNL A   1      44.326  26.630  31.481  1.00  0.00     0.031 C 
ATOM     63  C   UNL A   1      43.622  27.927  33.478  1.00  0.00     0.037 A 
BRANCH  50  64
ATOM     64  C   UNL A   1      39.353  31.911  35.520  1.00  0.00     0.064 A 
ATOM     65  C   UNL A   1      39.793  33.241  35.620  1.00  0.00     0.173 A 
ATOM     66  C   UNL A   1      38.450  31.448  36.489  1.00  0.00     0.173 A 
ATOM     67  F   UNL A   1      40.664  33.733  34.726  1.00  0.00    -0.203 F 
ATOM     68  C   UNL A   1      39.383  34.055  36.672  1.00  0.00     0.198 A 
ATOM     69  C   UNL A   1      38.013  32.277  37.519  1.00  0.00     0.198 A 
ATOM     70  F   UNL A   1      37.991  30.188  36.440  1.00  0.00    -0.203 F 
ATOM     71  F   UNL A   1      39.873  35.299  36.786  1.00  0.00    -0.200 F 
ATOM     72  C   UNL A   1      38.490  33.575  37.618  1.00  0.00     0.200 A 
ATOM     73  F   UNL A   1      37.138  31.816  38.422  1.00  0.00    -0.200 F 
ATOM     74  F   UNL A   1      38.098  34.360  38.632  1.00  0.00    -0.200 F 
ENDBRANCH  50  64
BRANCH  51  75
ATOM     75  C   UNL A   1      42.417  26.496  27.709  1.00  0.00     0.064 A 
ATOM     76  C   UNL A   1      43.341  27.064  26.822  1.00  0.00     0.173 A 
ATOM     77  C   UNL A   1      41.998  25.180  27.462  1.00  0.00     0.173 A 
ATOM     78  F   UNL A   1      43.758  28.325  27.006  1.00  0.00    -0.203 F 
ATOM     79  C   UNL A   1      43.821  26.347  25.726  1.00  0.00     0.198 A 
ATOM     80  C   UNL A   1      42.501  24.455  26.383  1.00  0.00     0.198 A 
ATOM     81  F   UNL A   1      41.122  24.588  28.287  1.00  0.00    -0.203 F 
ATOM     82  F   UNL A   1      44.680  26.925  24.876  1.00  0.00    -0.200 F 
ATOM     83  C   UNL A   1      43.408  25.041  25.514  1.00  0.00     0.200 A 
ATOM     84  F   UNL A   1      42.112  23.187  26.192  1.00  0.00    -0.200 F 
ATOM     85  F   UNL A   1      43.883  24.347  24.471  1.00  0.00    -0.200 F 
ENDBRANCH  51  75
BRANCH  63  86
ATOM     86  C   UNL A   1      44.809  27.367  34.211  1.00  0.00     0.064 A 
ATOM     87  C   UNL A   1      44.752  26.133  34.875  1.00  0.00     0.173 A 
ATOM     88  C   UNL A   1      46.032  28.054  34.210  1.00  0.00     0.173 A 
ATOM     89  F   UNL A   1      43.602  25.441  34.919  1.00  0.00    -0.203 F 
ATOM     90  C   UNL A   1      45.867  25.620  35.533  1.00  0.00     0.198 A 
ATOM     91  C   UNL A   1      47.155  27.524  34.839  1.00  0.00     0.198 A 
ATOM     92  F   UNL A   1      46.144  29.235  33.583  1.00  0.00    -0.203 F 
ATOM     93  F   UNL A   1      45.775  24.463  36.203  1.00  0.00    -0.200 F 
ATOM     94  C   UNL A   1      47.070  26.311  35.506  1.00  0.00     0.200 A 
ATOM     95  F   UNL A   1      48.320  28.185  34.798  1.00  0.00    -0.200 F 
ATOM     96  F   UNL A   1      48.144  25.812  36.131  1.00  0.00    -0.200 F 
ENDBRANCH  63  86
ENDBRANCH  37  38
ENDBRANCH  29  32
ENDBRANCH  27  28
ENDBRANCH  26  27
ENDBRANCH   1  26
TORSDOF 14
ENDMDL
MODEL 3
REMARK VINA RESULT:     -12.2      0.592      7.331
REMARK SMILES [NH3+]C1(C(=O)N2[C@@H](C(=O)NCCCCNC(=O)c3ccc(-c4c5nc(c(-c6c(F)c(F)c(F)c(F)c6F)c6ccc([nH]6)c(-c6c(F)c(F)c(F)c(F)c6F)c6nc(c(-c7c(F)c(F)c(F)c(F)c7F)c7ccc4[nH]7)C=C6)C=C5)cc3)CC[C@@H]3CCCC[C@@H]32)CC1
REMARK SMILES IDX 11 1 10 2 9 3 7 4 8 5 6 7 5 8 87 9 80 10 82 11 86 12 81 13
REMARK SMILES IDX 83 14 85 15 84 16 3 17 4 18 2 19 88 20 89 21 1 22 12 26
REMARK SMILES IDX 13 27 14 28 15 29 16 31 17 32 18 33 79 34 19 35 78 36 20 37
REMARK SMILES IDX 21 38 22 39 72 40 23 41 77 42 71 43 73 44 24 45 76 46 70 47
REMARK SMILES IDX 69 48 25 50 57 51 37 52 56 53 38 54 41 55 55 56 74 57 39 58
REMARK SMILES IDX 40 59 54 61 75 62 42 63 26 64 27 65 35 66 28 67 29 68 33 69
REMARK SMILES IDX 36 70 30 71 31 72 34 73 32 74 58 75 59 76 67 77 60 78 61 79
REMARK SMILES IDX 65 80 68 81 62 82 63 83 66 84 64 85 43 86 44 87 52 88 45 89
REMARK SMILES IDX 46 90 50 91 53 92 47 93 48 94 51 95 49 96
REMARK H PARENT 9 6 1 23 1 24 1 25 14 30 73 49 41 60
REMARK Flexibility Score: inf
ROOT
ATOM      1  C   UNL A   1      31.270  27.760  25.771  1.00  0.00     0.023 C 
ENDROOT
BRANCH   1   2
ATOM      2  C   UNL A   1      32.251  26.693  26.255  1.00  0.00     0.116 C 
BRANCH   2   3
ATOM      3  N   UNL A   1      31.534  25.599  26.876  1.00  0.00    -0.354 N 
ATOM      4  C   UNL A   1      31.780  24.264  26.808  1.00  0.00     0.242 C 
ATOM      5  O   UNL A   1      30.852  23.504  27.101  1.00  0.00    -0.273 OA
ATOM      6  H   UNL A   1      30.759  25.858  27.424  1.00  0.00     0.163 HD
BRANCH   4   7
ATOM      7  C   UNL A   1      33.106  23.705  26.252  1.00  0.00     0.175 C 
ATOM      8  N   UNL A   1      33.087  23.117  24.889  1.00  0.00    -0.322 N 
ATOM      9  C   UNL A   1      34.281  22.340  24.492  1.00  0.00     0.089 C 
ATOM     10  C   UNL A   1      33.582  22.669  27.309  1.00  0.00     0.036 C 
ATOM     11  C   UNL A   1      34.572  21.234  25.497  1.00  0.00     0.012 C 
ATOM     12  C   UNL A   1      35.495  23.264  24.244  1.00  0.00     0.025 C 
ATOM     13  C   UNL A   1      34.780  21.826  26.893  1.00  0.00     0.008 C 
ATOM     14  C   UNL A   1      35.772  20.426  25.000  1.00  0.00     0.006 C 
ATOM     15  C   UNL A   1      36.892  22.628  24.304  1.00  0.00     0.002 C 
ATOM     16  C   UNL A   1      37.043  21.257  24.959  1.00  0.00     0.000 C 
BRANCH   8  17
ATOM     17  C   UNL A   1      32.221  23.436  23.835  1.00  0.00     0.284 C 
ATOM     18  O   UNL A   1      31.448  22.579  23.398  1.00  0.00    -0.268 OA
BRANCH  17  19
ATOM     19  C   UNL A   1      32.168  24.801  23.159  1.00  0.00     0.174 C 
ATOM     20  C   UNL A   1      32.902  24.837  21.820  1.00  0.00     0.086 C 
ATOM     21  C   UNL A   1      33.301  25.766  22.913  1.00  0.00     0.086 C 
BRANCH  19  22
ATOM     22  N   UNL A   1      30.784  25.361  23.107  1.00  0.00    -0.345 N 
ATOM     23  H   UNL A   1      30.108  24.606  23.213  1.00  0.00     0.345 HD
ATOM     24  H   UNL A   1      30.639  25.826  22.212  1.00  0.00     0.345 HD
ATOM     25  H   UNL A   1      30.662  26.035  23.864  1.00  0.00     0.345 HD
ENDBRANCH  19  22
ENDBRANCH  17  19
ENDBRANCH   8  17
ENDBRANCH   4   7
ENDBRANCH   2   3
ENDBRANCH   1   2
BRANCH   1  26
ATOM     26  C   UNL A   1      31.926  28.912  25.009  1.00  0.00     0.023 C 
BRANCH  26  27
ATOM     27  C   UNL A   1      33.019  29.633  25.784  1.00  0.00     0.116 C 
BRANCH  27  28
ATOM     28  N   UNL A   1      32.618  30.968  26.198  1.00  0.00    -0.352 N 
ATOM     29  C   UNL A   1      33.183  31.770  27.157  1.00  0.00     0.251 C 
ATOM     30  H   UNL A   1      31.838  31.346  25.729  1.00  0.00     0.163 HD
ATOM     31  O   UNL A   1      32.629  32.804  27.516  1.00  0.00    -0.269 OA
BRANCH  29  32
ATOM     32  C   UNL A   1      34.455  31.354  27.775  1.00  0.00     0.039 A 
ATOM     33  C   UNL A   1      35.444  32.312  27.999  1.00  0.00     0.014 A 
ATOM     34  C   UNL A   1      34.643  30.028  28.176  1.00  0.00     0.014 A 
ATOM     35  C   UNL A   1      36.604  31.953  28.684  1.00  0.00     0.010 A 
ATOM     36  C   UNL A   1      35.759  29.693  28.932  1.00  0.00     0.010 A 
ATOM     37  C   UNL A   1      36.753  30.649  29.187  1.00  0.00    -0.014 A 
BRANCH  37  38
ATOM     38  C   UNL A   1      37.943  30.268  29.986  1.00  0.00     0.031 A 
ATOM     39  C   UNL A   1      38.948  29.303  29.427  1.00  0.00     0.074 A 
ATOM     40  C   UNL A   1      38.075  30.732  31.244  1.00  0.00     0.049 A 
ATOM     41  N   UNL A   1      40.018  28.803  29.992  1.00  0.00    -0.248 NA
ATOM     42  C   UNL A   1      38.698  28.805  28.067  1.00  0.00     0.031 C 
ATOM     43  C   UNL A   1      37.129  31.620  31.919  1.00  0.00     0.029 A 
ATOM     44  N   UNL A   1      39.050  30.507  32.182  1.00  0.00    -0.354 N 
ATOM     45  C   UNL A   1      40.554  27.920  29.064  1.00  0.00     0.074 A 
ATOM     46  C   UNL A   1      39.659  27.907  27.927  1.00  0.00     0.031 C 
ATOM     47  C   UNL A   1      37.578  31.879  33.157  1.00  0.00     0.029 A 
ATOM     48  C   UNL A   1      38.821  31.147  33.375  1.00  0.00     0.049 A 
ATOM     49  H   UNL A   1      39.839  29.942  32.016  1.00  0.00     0.167 HD
ATOM     50  C   UNL A   1      41.700  27.203  29.145  1.00  0.00     0.037 A 
ATOM     51  C   UNL A   1      39.529  31.136  34.521  1.00  0.00     0.037 A 
ATOM     52  C   UNL A   1      42.594  27.240  30.273  1.00  0.00     0.049 A 
ATOM     53  C   UNL A   1      40.807  30.345  34.585  1.00  0.00     0.074 A 
ATOM     54  C   UNL A   1      43.824  26.623  30.419  1.00  0.00     0.029 A 
ATOM     55  N   UNL A   1      42.347  27.925  31.454  1.00  0.00    -0.354 N 
ATOM     56  N   UNL A   1      41.357  29.589  33.667  1.00  0.00    -0.248 NA
ATOM     57  C   UNL A   1      41.568  30.417  35.839  1.00  0.00     0.031 C 
ATOM     58  C   UNL A   1      44.290  26.881  31.713  1.00  0.00     0.029 A 
ATOM     59  C   UNL A   1      43.384  27.714  32.350  1.00  0.00     0.049 A 
ATOM     60  H   UNL A   1      41.553  28.478  31.631  1.00  0.00     0.167 HD
ATOM     61  C   UNL A   1      42.537  29.110  34.220  1.00  0.00     0.074 A 
ATOM     62  C   UNL A   1      42.630  29.677  35.551  1.00  0.00     0.031 C 
ATOM     63  C   UNL A   1      43.459  28.278  33.676  1.00  0.00     0.037 A 
BRANCH  50  64
ATOM     64  C   UNL A   1      42.038  26.307  27.987  1.00  0.00     0.064 A 
ATOM     65  C   UNL A   1      41.461  25.035  27.838  1.00  0.00     0.173 A 
ATOM     66  C   UNL A   1      42.951  26.728  27.008  1.00  0.00     0.173 A 
ATOM     67  F   UNL A   1      40.589  24.578  28.749  1.00  0.00    -0.203 F 
ATOM     68  C   UNL A   1      41.823  24.202  26.783  1.00  0.00     0.198 A 
ATOM     69  C   UNL A   1      43.282  25.906  25.933  1.00  0.00     0.198 A 
ATOM     70  F   UNL A   1      43.528  27.936  27.094  1.00  0.00    -0.203 F 
ATOM     71  F   UNL A   1      41.313  22.964  26.703  1.00  0.00    -0.200 F 
ATOM     72  C   UNL A   1      42.728  24.639  25.829  1.00  0.00     0.200 A 
ATOM     73  F   UNL A   1      44.145  26.337  25.004  1.00  0.00    -0.200 F 
ATOM     74  F   UNL A   1      43.077  23.835  24.814  1.00  0.00    -0.200 F 
ENDBRANCH  50  64
BRANCH  51  75
ATOM     75  C   UNL A   1      39.045  31.920  35.685  1.00  0.00     0.064 A 
ATOM     76  C   UNL A   1      38.207  31.342  36.648  1.00  0.00     0.173 A 
ATOM     77  C   UNL A   1      39.444  33.250  35.880  1.00  0.00     0.173 A 
ATOM     78  F   UNL A   1      37.785  30.078  36.497  1.00  0.00    -0.203 F 
ATOM     79  C   UNL A   1      37.780  32.068  37.759  1.00  0.00     0.198 A 
ATOM     80  C   UNL A   1      39.039  33.966  37.005  1.00  0.00     0.198 A 
ATOM     81  F   UNL A   1      40.253  33.846  34.992  1.00  0.00    -0.203 F 
ATOM     82  F   UNL A   1      36.955  31.502  38.649  1.00  0.00    -0.200 F 
ATOM     83  C   UNL A   1      38.204  33.376  37.941  1.00  0.00     0.200 A 
ATOM     84  F   UNL A   1      39.466  35.223  37.185  1.00  0.00    -0.200 F 
ATOM     85  F   UNL A   1      37.807  34.068  39.017  1.00  0.00    -0.200 F 
ENDBRANCH  51  75
BRANCH  63  86
ATOM     86  C   UNL A   1      44.665  27.946  34.509  1.00  0.00     0.064 A 
ATOM     87  C   UNL A   1      45.811  28.755  34.505  1.00  0.00     0.173 A 
ATOM     88  C   UNL A   1      44.655  26.828  35.356  1.00  0.00     0.173 A 
ATOM     89  F   UNL A   1      45.878  29.828  33.701  1.00  0.00    -0.203 F 
ATOM     90  C   UNL A   1      46.912  28.442  35.298  1.00  0.00     0.198 A 
ATOM     91  C   UNL A   1      45.743  26.536  36.174  1.00  0.00     0.198 A 
ATOM     92  F   UNL A   1      43.582  26.024  35.405  1.00  0.00    -0.203 F 
ATOM     93  F   UNL A   1      48.015  29.201  35.241  1.00  0.00    -0.200 F 
ATOM     94  C   UNL A   1      46.873  27.339  36.139  1.00  0.00     0.200 A 
ATOM     95  F   UNL A   1      45.698  25.480  36.997  1.00  0.00    -0.200 F 
ATOM     96  F   UNL A   1      47.930  27.045  36.909  1.00  0.00    -0.200 F 
ENDBRANCH  63  86
ENDBRANCH  37  38
ENDBRANCH  29  32
ENDBRANCH  27  28
ENDBRANCH  26  27
ENDBRANCH   1  26
TORSDOF 14
ENDMDL
