MODEL 1
REMARK VINA RESULT:     -12.2      0.000      0.000
REMARK SMILES CC[C@H](C)[C@@H](Nc1ncnc2ccccc12)C(=O)NCCCCNC(=O)c1ccc(-c2c3nc(c(-c4c(F)c(F)c(F)c(F)c4F)c4ccc([nH]4)c(-c4c(F)c(F)c(F)c(F)c4F)c4nc(c(-c5c(F)c(F)c(F)c(F)c5F)c5ccc2[nH]5)C=C4)C=C3)cc1
REMARK SMILES IDX 21 1 20 2 19 3 17 4 18 5 5 7 3 8 4 9 2 10 1 11 6 12 7 14
REMARK SMILES IDX 8 15 16 16 9 17 11 18 15 19 10 20 12 21 14 22 13 23 22 24
REMARK SMILES IDX 23 25 24 26 25 27 26 29 27 30 28 31 89 32 29 33 88 34 30 35
REMARK SMILES IDX 31 36 32 37 82 38 33 39 87 40 81 41 83 42 34 43 86 44 80 45
REMARK SMILES IDX 79 46 35 48 67 49 47 50 66 51 48 52 51 53 65 54 84 55 49 56
REMARK SMILES IDX 50 57 64 59 85 60 52 61 36 62 37 63 45 64 38 65 39 66 43 67
REMARK SMILES IDX 46 68 40 69 41 70 44 71 42 72 68 73 69 74 77 75 70 76 71 77
REMARK SMILES IDX 75 78 78 79 72 80 73 81 76 82 74 83 53 84 54 85 62 86 55 87
REMARK SMILES IDX 56 88 60 89 63 90 57 91 58 92 61 93 59 94
REMARK H PARENT 19 6 6 13 24 28 83 47 51 58
REMARK Flexibility Score: inf
ROOT
ATOM      1  C   UNL A   1      37.192  21.789  24.581  1.00  0.00     0.023 C 
ENDROOT
BRANCH   1   2
ATOM      2  C   UNL A   1      36.582  22.823  25.519  1.00  0.00     0.116 C 
BRANCH   2   3
ATOM      3  N   UNL A   1      35.699  22.195  26.483  1.00  0.00    -0.354 N 
ATOM      4  C   UNL A   1      34.584  21.437  26.284  1.00  0.00     0.242 C 
ATOM      5  O   UNL A   1      33.962  21.070  27.287  1.00  0.00    -0.273 OA
ATOM      6  H   UNL A   1      35.944  22.338  27.426  1.00  0.00     0.163 HD
BRANCH   4   7
ATOM      7  C   UNL A   1      34.072  21.079  24.863  1.00  0.00     0.173 C 
BRANCH   7   8
ATOM      8  C   UNL A   1      33.580  19.594  24.817  1.00  0.00     0.018 C 
ATOM      9  C   UNL A   1      32.501  19.374  23.745  1.00  0.00     0.010 C 
BRANCH   8  10
ATOM     10  C   UNL A   1      34.758  18.610  24.590  1.00  0.00     0.002 C 
ATOM     11  C   UNL A   1      34.346  17.308  23.915  1.00  0.00     0.004 C 
ENDBRANCH   8  10
ENDBRANCH   7   8
BRANCH   7  12
ATOM     12  N   UNL A   1      33.037  22.006  24.347  1.00  0.00    -0.358 N 
ATOM     13  H   UNL A   1      32.846  21.968  23.382  1.00  0.00     0.162 HD
BRANCH  12  14
ATOM     14  C   UNL A   1      32.314  22.916  25.091  1.00  0.00     0.137 A 
ATOM     15  N   UNL A   1      31.268  22.332  25.703  1.00  0.00    -0.219 NA
ATOM     16  C   UNL A   1      32.639  24.267  25.300  1.00  0.00     0.043 A 
ATOM     17  C   UNL A   1      30.612  23.065  26.609  1.00  0.00     0.224 A 
ATOM     18  C   UNL A   1      31.916  24.901  26.324  1.00  0.00     0.076 A 
ATOM     19  C   UNL A   1      33.613  25.011  24.590  1.00  0.00     0.014 A 
ATOM     20  N   UNL A   1      30.918  24.309  26.985  1.00  0.00    -0.236 NA
ATOM     21  C   UNL A   1      32.257  26.200  26.680  1.00  0.00     0.029 A 
ATOM     22  C   UNL A   1      33.932  26.316  24.958  1.00  0.00     0.001 A 
ATOM     23  C   UNL A   1      33.265  26.906  26.021  1.00  0.00     0.002 A 
ENDBRANCH  12  14
ENDBRANCH   7  12
ENDBRANCH   4   7
ENDBRANCH   2   3
ENDBRANCH   1   2
BRANCH   1  24
ATOM     24  C   UNL A   1      37.810  20.587  25.296  1.00  0.00     0.023 C 
BRANCH  24  25
ATOM     25  C   UNL A   1      39.229  20.810  25.808  1.00  0.00     0.116 C 
BRANCH  25  26
ATOM     26  N   UNL A   1      40.026  19.591  25.828  1.00  0.00    -0.352 N 
ATOM     27  C   UNL A   1      41.378  19.476  26.049  1.00  0.00     0.251 C 
ATOM     28  H   UNL A   1      39.539  18.751  25.666  1.00  0.00     0.163 HD
ATOM     29  O   UNL A   1      41.955  18.401  25.935  1.00  0.00    -0.269 OA
BRANCH  27  30
ATOM     30  C   UNL A   1      42.130  20.696  26.390  1.00  0.00     0.039 A 
ATOM     31  C   UNL A   1      42.563  21.539  25.365  1.00  0.00     0.014 A 
ATOM     32  C   UNL A   1      42.309  21.044  27.731  1.00  0.00     0.014 A 
ATOM     33  C   UNL A   1      43.112  22.781  25.686  1.00  0.00     0.010 A 
ATOM     34  C   UNL A   1      42.798  22.303  28.047  1.00  0.00     0.010 A 
ATOM     35  C   UNL A   1      43.195  23.186  27.028  1.00  0.00    -0.014 A 
BRANCH  35  36
ATOM     36  C   UNL A   1      43.685  24.531  27.411  1.00  0.00     0.031 A 
ATOM     37  C   UNL A   1      42.714  25.547  27.934  1.00  0.00     0.074 A 
ATOM     38  C   UNL A   1      44.962  24.876  27.163  1.00  0.00     0.049 A 
ATOM     39  N   UNL A   1      42.884  26.828  28.144  1.00  0.00    -0.248 NA
ATOM     40  C   UNL A   1      41.356  25.062  28.222  1.00  0.00     0.031 C 
ATOM     41  C   UNL A   1      45.985  23.989  26.608  1.00  0.00     0.029 A 
ATOM     42  N   UNL A   1      45.607  26.078  27.313  1.00  0.00    -0.354 N 
ATOM     43  C   UNL A   1      41.646  27.307  28.547  1.00  0.00     0.074 A 
ATOM     44  C   UNL A   1      40.728  26.189  28.521  1.00  0.00     0.031 C 
ATOM     45  C   UNL A   1      47.127  24.679  26.457  1.00  0.00     0.029 A 
ATOM     46  C   UNL A   1      46.905  26.062  26.867  1.00  0.00     0.049 A 
ATOM     47  H   UNL A   1      45.179  26.875  27.702  1.00  0.00     0.167 HD
ATOM     48  C   UNL A   1      41.311  28.566  28.916  1.00  0.00     0.037 A 
ATOM     49  C   UNL A   1      47.808  27.058  26.778  1.00  0.00     0.037 A 
ATOM     50  C   UNL A   1      42.239  29.663  28.978  1.00  0.00     0.049 A 
ATOM     51  C   UNL A   1      47.426  28.441  27.229  1.00  0.00     0.074 A 
ATOM     52  C   UNL A   1      42.022  30.955  29.421  1.00  0.00     0.029 A 
ATOM     53  N   UNL A   1      43.568  29.592  28.582  1.00  0.00    -0.354 N 
ATOM     54  N   UNL A   1      46.270  28.874  27.671  1.00  0.00    -0.248 NA
ATOM     55  C   UNL A   1      48.472  29.471  27.173  1.00  0.00     0.031 C 
ATOM     56  C   UNL A   1      43.209  31.676  29.261  1.00  0.00     0.029 A 
ATOM     57  C   UNL A   1      44.178  30.824  28.756  1.00  0.00     0.049 A 
ATOM     58  H   UNL A   1      44.011  28.786  28.231  1.00  0.00     0.167 HD
ATOM     59  C   UNL A   1      46.453  30.218  27.967  1.00  0.00     0.074 A 
ATOM     60  C   UNL A   1      47.835  30.528  27.660  1.00  0.00     0.031 C 
ATOM     61  C   UNL A   1      45.557  31.110  28.453  1.00  0.00     0.037 A 
BRANCH  48  62
ATOM     62  C   UNL A   1      39.875  28.819  29.267  1.00  0.00     0.064 A 
ATOM     63  C   UNL A   1      39.392  28.642  30.573  1.00  0.00     0.173 A 
ATOM     64  C   UNL A   1      38.967  29.240  28.283  1.00  0.00     0.173 A 
ATOM     65  F   UNL A   1      40.216  28.227  31.546  1.00  0.00    -0.203 F 
ATOM     66  C   UNL A   1      38.046  28.839  30.871  1.00  0.00     0.198 A 
ATOM     67  C   UNL A   1      37.629  29.464  28.592  1.00  0.00     0.198 A 
ATOM     68  F   UNL A   1      39.379  29.428  27.020  1.00  0.00    -0.203 F 
ATOM     69  F   UNL A   1      37.596  28.603  32.112  1.00  0.00    -0.200 F 
ATOM     70  C   UNL A   1      37.168  29.253  29.882  1.00  0.00     0.200 A 
ATOM     71  F   UNL A   1      36.782  29.875  27.637  1.00  0.00    -0.200 F 
ATOM     72  F   UNL A   1      35.872  29.438  30.170  1.00  0.00    -0.200 F 
ENDBRANCH  48  62
BRANCH  49  73
ATOM     73  C   UNL A   1      49.164  26.767  26.250  1.00  0.00     0.064 A 
ATOM     74  C   UNL A   1      50.164  26.254  27.086  1.00  0.00     0.173 A 
ATOM     75  C   UNL A   1      49.477  26.959  24.896  1.00  0.00     0.173 A 
ATOM     76  F   UNL A   1      49.915  26.072  28.392  1.00  0.00    -0.203 F 
ATOM     77  C   UNL A   1      51.428  25.945  26.589  1.00  0.00     0.198 A 
ATOM     78  C   UNL A   1      50.734  26.629  24.396  1.00  0.00     0.198 A 
ATOM     79  F   UNL A   1      48.550  27.442  24.056  1.00  0.00    -0.203 F 
ATOM     80  F   UNL A   1      52.374  25.477  27.414  1.00  0.00    -0.200 F 
ATOM     81  C   UNL A   1      51.709  26.126  25.243  1.00  0.00     0.200 A 
ATOM     82  F   UNL A   1      50.998  26.792  23.092  1.00  0.00    -0.200 F 
ATOM     83  F   UNL A   1      52.922  25.815  24.763  1.00  0.00    -0.200 F 
ENDBRANCH  49  73
BRANCH  61  84
ATOM     84  C   UNL A   1      46.046  32.503  28.719  1.00  0.00     0.064 A 
ATOM     85  C   UNL A   1      46.610  32.859  29.952  1.00  0.00     0.173 A 
ATOM     86  C   UNL A   1      46.010  33.471  27.705  1.00  0.00     0.173 A 
ATOM     87  F   UNL A   1      46.653  31.971  30.957  1.00  0.00    -0.203 F 
ATOM     88  C   UNL A   1      47.113  34.140  30.163  1.00  0.00     0.198 A 
ATOM     89  C   UNL A   1      46.534  34.743  27.912  1.00  0.00     0.198 A 
ATOM     90  F   UNL A   1      45.484  33.175  26.508  1.00  0.00    -0.203 F 
ATOM     91  F   UNL A   1      47.623  34.470  31.358  1.00  0.00    -0.200 F 
ATOM     92  C   UNL A   1      47.083  35.078  29.141  1.00  0.00     0.200 A 
ATOM     93  F   UNL A   1      46.514  35.644  26.920  1.00  0.00    -0.200 F 
ATOM     94  F   UNL A   1      47.580  36.306  29.342  1.00  0.00    -0.200 F 
ENDBRANCH  61  84
ENDBRANCH  35  36
ENDBRANCH  27  30
ENDBRANCH  25  26
ENDBRANCH  24  25
ENDBRANCH   1  24
TORSDOF 15
ENDMDL
MODEL 2
REMARK VINA RESULT:     -12.2      0.126      1.597
REMARK SMILES CC[C@H](C)[C@@H](Nc1ncnc2ccccc12)C(=O)NCCCCNC(=O)c1ccc(-c2c3nc(c(-c4c(F)c(F)c(F)c(F)c4F)c4ccc([nH]4)c(-c4c(F)c(F)c(F)c(F)c4F)c4nc(c(-c5c(F)c(F)c(F)c(F)c5F)c5ccc2[nH]5)C=C4)C=C3)cc1
REMARK SMILES IDX 21 1 20 2 19 3 17 4 18 5 5 7 3 8 4 9 2 10 1 11 6 12 7 14
REMARK SMILES IDX 8 15 16 16 9 17 11 18 15 19 10 20 12 21 14 22 13 23 22 24
REMARK SMILES IDX 23 25 24 26 25 27 26 29 27 30 28 31 89 32 29 33 88 34 30 35
REMARK SMILES IDX 31 36 32 37 82 38 33 39 87 40 81 41 83 42 34 43 86 44 80 45
REMARK SMILES IDX 79 46 35 48 67 49 47 50 66 51 48 52 51 53 65 54 84 55 49 56
REMARK SMILES IDX 50 57 64 59 85 60 52 61 36 62 37 63 45 64 38 65 39 66 43 67
REMARK SMILES IDX 46 68 40 69 41 70 44 71 42 72 68 73 69 74 77 75 70 76 71 77
REMARK SMILES IDX 75 78 78 79 72 80 73 81 76 82 74 83 53 84 54 85 62 86 55 87
REMARK SMILES IDX 56 88 60 89 63 90 57 91 58 92 61 93 59 94
REMARK H PARENT 19 6 6 13 24 28 83 47 51 58
REMARK Flexibility Score: inf
ROOT
ATOM      1  C   UNL A   1      37.210  21.695  24.577  1.00  0.00     0.023 C 
ENDROOT
BRANCH   1   2
ATOM      2  C   UNL A   1      36.624  22.758  25.499  1.00  0.00     0.116 C 
BRANCH   2   3
ATOM      3  N   UNL A   1      35.707  22.168  26.456  1.00  0.00    -0.354 N 
ATOM      4  C   UNL A   1      34.570  21.447  26.247  1.00  0.00     0.242 C 
ATOM      5  O   UNL A   1      33.922  21.110  27.244  1.00  0.00    -0.273 OA
ATOM      6  H   UNL A   1      35.943  22.311  27.401  1.00  0.00     0.163 HD
BRANCH   4   7
ATOM      7  C   UNL A   1      34.066  21.094  24.822  1.00  0.00     0.173 C 
BRANCH   7   8
ATOM      8  C   UNL A   1      33.585  19.605  24.765  1.00  0.00     0.018 C 
ATOM      9  C   UNL A   1      32.507  19.386  23.692  1.00  0.00     0.010 C 
BRANCH   8  10
ATOM     10  C   UNL A   1      34.770  18.632  24.529  1.00  0.00     0.002 C 
ATOM     11  C   UNL A   1      34.353  17.291  23.942  1.00  0.00     0.004 C 
ENDBRANCH   8  10
ENDBRANCH   7   8
BRANCH   7  12
ATOM     12  N   UNL A   1      33.026  22.016  24.308  1.00  0.00    -0.358 N 
ATOM     13  H   UNL A   1      32.848  21.992  23.340  1.00  0.00     0.162 HD
BRANCH  12  14
ATOM     14  C   UNL A   1      32.281  22.905  25.057  1.00  0.00     0.137 A 
ATOM     15  N   UNL A   1      31.237  22.296  25.649  1.00  0.00    -0.219 NA
ATOM     16  C   UNL A   1      32.584  24.256  25.291  1.00  0.00     0.043 A 
ATOM     17  C   UNL A   1      30.561  23.005  26.558  1.00  0.00     0.224 A 
ATOM     18  C   UNL A   1      31.841  24.864  26.315  1.00  0.00     0.076 A 
ATOM     19  C   UNL A   1      33.555  25.026  24.603  1.00  0.00     0.014 A 
ATOM     20  N   UNL A   1      30.844  24.247  26.957  1.00  0.00    -0.236 NA
ATOM     21  C   UNL A   1      32.159  26.162  26.695  1.00  0.00     0.029 A 
ATOM     22  C   UNL A   1      33.851  26.329  24.994  1.00  0.00     0.001 A 
ATOM     23  C   UNL A   1      33.164  26.893  26.058  1.00  0.00     0.002 A 
ENDBRANCH  12  14
ENDBRANCH   7  12
ENDBRANCH   4   7
ENDBRANCH   2   3
ENDBRANCH   1   2
BRANCH   1  24
ATOM     24  C   UNL A   1      37.842  20.513  25.313  1.00  0.00     0.023 C 
BRANCH  24  25
ATOM     25  C   UNL A   1      39.273  20.745  25.785  1.00  0.00     0.116 C 
BRANCH  25  26
ATOM     26  N   UNL A   1      40.061  19.522  25.841  1.00  0.00    -0.352 N 
ATOM     27  C   UNL A   1      41.406  19.401  26.098  1.00  0.00     0.251 C 
ATOM     28  H   UNL A   1      39.573  18.683  25.677  1.00  0.00     0.163 HD
ATOM     29  O   UNL A   1      41.979  18.322  26.012  1.00  0.00    -0.269 OA
BRANCH  27  30
ATOM     30  C   UNL A   1      42.157  20.621  26.443  1.00  0.00     0.039 A 
ATOM     31  C   UNL A   1      42.648  21.432  25.418  1.00  0.00     0.014 A 
ATOM     32  C   UNL A   1      42.279  21.001  27.782  1.00  0.00     0.014 A 
ATOM     33  C   UNL A   1      43.197  22.676  25.733  1.00  0.00     0.010 A 
ATOM     34  C   UNL A   1      42.769  22.262  28.088  1.00  0.00     0.010 A 
ATOM     35  C   UNL A   1      43.223  23.114  27.066  1.00  0.00    -0.014 A 
BRANCH  35  36
ATOM     36  C   UNL A   1      43.712  24.462  27.438  1.00  0.00     0.031 A 
ATOM     37  C   UNL A   1      42.737  25.490  27.929  1.00  0.00     0.074 A 
ATOM     38  C   UNL A   1      44.995  24.798  27.207  1.00  0.00     0.049 A 
ATOM     39  N   UNL A   1      42.909  26.773  28.122  1.00  0.00    -0.248 NA
ATOM     40  C   UNL A   1      41.372  25.015  28.200  1.00  0.00     0.031 C 
ATOM     41  C   UNL A   1      46.024  23.899  26.684  1.00  0.00     0.029 A 
ATOM     42  N   UNL A   1      45.643  26.000  27.351  1.00  0.00    -0.354 N 
ATOM     43  C   UNL A   1      41.666  27.264  28.497  1.00  0.00     0.074 A 
ATOM     44  C   UNL A   1      40.744  26.149  28.472  1.00  0.00     0.031 C 
ATOM     45  C   UNL A   1      47.171  24.582  26.543  1.00  0.00     0.029 A 
ATOM     46  C   UNL A   1      46.949  25.972  26.928  1.00  0.00     0.049 A 
ATOM     47  H   UNL A   1      45.212  26.804  27.720  1.00  0.00     0.167 HD
ATOM     48  C   UNL A   1      41.330  28.529  28.841  1.00  0.00     0.037 A 
ATOM     49  C   UNL A   1      47.856  26.963  26.840  1.00  0.00     0.037 A 
ATOM     50  C   UNL A   1      42.262  29.623  28.903  1.00  0.00     0.049 A 
ATOM     51  C   UNL A   1      47.473  28.354  27.263  1.00  0.00     0.074 A 
ATOM     52  C   UNL A   1      42.042  30.922  29.323  1.00  0.00     0.029 A 
ATOM     53  N   UNL A   1      43.597  29.541  28.532  1.00  0.00    -0.354 N 
ATOM     54  N   UNL A   1      46.312  28.798  27.678  1.00  0.00    -0.248 NA
ATOM     55  C   UNL A   1      48.525  29.379  27.210  1.00  0.00     0.031 C 
ATOM     56  C   UNL A   1      43.236  31.637  29.173  1.00  0.00     0.029 A 
ATOM     57  C   UNL A   1      44.210  30.772  28.698  1.00  0.00     0.049 A 
ATOM     58  H   UNL A   1      44.043  28.728  28.200  1.00  0.00     0.167 HD
ATOM     59  C   UNL A   1      46.495  30.145  27.958  1.00  0.00     0.074 A 
ATOM     60  C   UNL A   1      47.883  30.445  27.671  1.00  0.00     0.031 C 
ATOM     61  C   UNL A   1      45.595  31.049  28.415  1.00  0.00     0.037 A 
BRANCH  48  62
ATOM     62  C   UNL A   1      39.889  28.793  29.163  1.00  0.00     0.064 A 
ATOM     63  C   UNL A   1      39.374  28.600  30.454  1.00  0.00     0.173 A 
ATOM     64  C   UNL A   1      39.010  29.241  28.166  1.00  0.00     0.173 A 
ATOM     65  F   UNL A   1      40.170  28.159  31.439  1.00  0.00    -0.203 F 
ATOM     66  C   UNL A   1      38.024  28.808  30.725  1.00  0.00     0.198 A 
ATOM     67  C   UNL A   1      37.667  29.476  28.447  1.00  0.00     0.198 A 
ATOM     68  F   UNL A   1      39.453  29.446  26.916  1.00  0.00    -0.203 F 
ATOM     69  F   UNL A   1      37.542  28.556  31.950  1.00  0.00    -0.200 F 
ATOM     70  C   UNL A   1      37.174  29.249  29.723  1.00  0.00     0.200 A 
ATOM     71  F   UNL A   1      36.848  29.913  27.481  1.00  0.00    -0.200 F 
ATOM     72  F   UNL A   1      35.874  29.444  29.984  1.00  0.00    -0.200 F 
ENDBRANCH  48  62
BRANCH  49  73
ATOM     73  C   UNL A   1      49.221  26.659  26.340  1.00  0.00     0.064 A 
ATOM     74  C   UNL A   1      49.555  26.867  24.996  1.00  0.00     0.173 A 
ATOM     75  C   UNL A   1      50.226  26.193  27.201  1.00  0.00     0.173 A 
ATOM     76  F   UNL A   1      48.621  27.294  24.133  1.00  0.00    -0.203 F 
ATOM     77  C   UNL A   1      50.844  26.617  24.529  1.00  0.00     0.198 A 
ATOM     78  C   UNL A   1      51.519  25.965  26.738  1.00  0.00     0.198 A 
ATOM     79  F   UNL A   1      49.955  25.985  28.498  1.00  0.00    -0.203 F 
ATOM     80  F   UNL A   1      51.132  26.803  23.234  1.00  0.00    -0.200 F 
ATOM     81  C   UNL A   1      51.826  26.174  25.402  1.00  0.00     0.200 A 
ATOM     82  F   UNL A   1      52.469  25.550  27.586  1.00  0.00    -0.200 F 
ATOM     83  F   UNL A   1      53.070  25.948  24.955  1.00  0.00    -0.200 F 
ENDBRANCH  49  73
BRANCH  61  84
ATOM     84  C   UNL A   1      46.085  32.443  28.669  1.00  0.00     0.064 A 
ATOM     85  C   UNL A   1      46.021  33.435  27.680  1.00  0.00     0.173 A 
ATOM     86  C   UNL A   1      46.561  32.805  29.937  1.00  0.00     0.173 A 
ATOM     87  F   UNL A   1      45.586  33.132  26.447  1.00  0.00    -0.203 F 
ATOM     88  C   UNL A   1      46.425  34.739  27.950  1.00  0.00     0.198 A 
ATOM     89  C   UNL A   1      46.942  34.115  30.211  1.00  0.00     0.198 A 
ATOM     90  F   UNL A   1      46.637  31.892  30.916  1.00  0.00    -0.203 F 
ATOM     91  F   UNL A   1      46.382  35.667  26.984  1.00  0.00    -0.200 F 
ATOM     92  C   UNL A   1      46.877  35.080  29.217  1.00  0.00     0.200 A 
ATOM     93  F   UNL A   1      47.369  34.445  31.438  1.00  0.00    -0.200 F 
ATOM     94  F   UNL A   1      47.253  36.340  29.480  1.00  0.00    -0.200 F 
ENDBRANCH  61  84
ENDBRANCH  35  36
ENDBRANCH  27  30
ENDBRANCH  25  26
ENDBRANCH  24  25
ENDBRANCH   1  24
TORSDOF 15
ENDMDL
MODEL 3
REMARK VINA RESULT:     -12.1      5.761     11.054
REMARK SMILES CC[C@H](C)[C@@H](Nc1ncnc2ccccc12)C(=O)NCCCCNC(=O)c1ccc(-c2c3nc(c(-c4c(F)c(F)c(F)c(F)c4F)c4ccc([nH]4)c(-c4c(F)c(F)c(F)c(F)c4F)c4nc(c(-c5c(F)c(F)c(F)c(F)c5F)c5ccc2[nH]5)C=C4)C=C3)cc1
REMARK SMILES IDX 21 1 20 2 19 3 17 4 18 5 5 7 3 8 4 9 2 10 1 11 6 12 7 14
REMARK SMILES IDX 8 15 16 16 9 17 11 18 15 19 10 20 12 21 14 22 13 23 22 24
REMARK SMILES IDX 23 25 24 26 25 27 26 29 27 30 28 31 89 32 29 33 88 34 30 35
REMARK SMILES IDX 31 36 32 37 82 38 33 39 87 40 81 41 83 42 34 43 86 44 80 45
REMARK SMILES IDX 79 46 35 48 67 49 47 50 66 51 48 52 51 53 65 54 84 55 49 56
REMARK SMILES IDX 50 57 64 59 85 60 52 61 36 62 37 63 45 64 38 65 39 66 43 67
REMARK SMILES IDX 46 68 40 69 41 70 44 71 42 72 68 73 69 74 77 75 70 76 71 77
REMARK SMILES IDX 75 78 78 79 72 80 73 81 76 82 74 83 53 84 54 85 62 86 55 87
REMARK SMILES IDX 56 88 60 89 63 90 57 91 58 92 61 93 59 94
REMARK H PARENT 19 6 6 13 24 28 83 47 51 58
REMARK Flexibility Score: inf
ROOT
ATOM      1  C   UNL A   1      32.210  29.937  26.845  1.00  0.00     0.023 C 
ENDROOT
BRANCH   1   2
ATOM      2  C   UNL A   1      33.603  29.488  26.419  1.00  0.00     0.116 C 
BRANCH   2   3
ATOM      3  N   UNL A   1      33.710  29.425  24.975  1.00  0.00    -0.354 N 
ATOM      4  C   UNL A   1      33.531  28.371  24.129  1.00  0.00     0.242 C 
ATOM      5  O   UNL A   1      33.750  28.564  22.928  1.00  0.00    -0.273 OA
ATOM      6  H   UNL A   1      33.948  30.274  24.537  1.00  0.00     0.163 HD
BRANCH   4   7
ATOM      7  C   UNL A   1      33.117  26.964  24.640  1.00  0.00     0.173 C 
BRANCH   7   8
ATOM      8  C   UNL A   1      31.566  26.891  24.844  1.00  0.00     0.018 C 
ATOM      9  C   UNL A   1      30.849  26.304  23.619  1.00  0.00     0.010 C 
BRANCH   8  10
ATOM     10  C   UNL A   1      31.196  26.079  26.112  1.00  0.00     0.002 C 
ATOM     11  C   UNL A   1      30.647  24.691  25.812  1.00  0.00     0.004 C 
ENDBRANCH   8  10
ENDBRANCH   7   8
BRANCH   7  12
ATOM     12  N   UNL A   1      33.602  25.851  23.790  1.00  0.00    -0.358 N 
ATOM     13  H   UNL A   1      33.579  25.991  22.817  1.00  0.00     0.162 HD
BRANCH  12  14
ATOM     14  C   UNL A   1      34.083  24.635  24.235  1.00  0.00     0.137 A 
ATOM     15  N   UNL A   1      35.076  24.796  25.127  1.00  0.00    -0.219 NA
ATOM     16  C   UNL A   1      33.572  23.368  23.909  1.00  0.00     0.043 A 
ATOM     17  C   UNL A   1      35.486  23.702  25.778  1.00  0.00     0.224 A 
ATOM     18  C   UNL A   1      34.040  22.314  24.712  1.00  0.00     0.076 A 
ATOM     19  C   UNL A   1      32.646  23.080  22.877  1.00  0.00     0.014 A 
ATOM     20  N   UNL A   1      34.980  22.473  25.648  1.00  0.00    -0.236 NA
ATOM     21  C   UNL A   1      33.496  21.048  24.539  1.00  0.00     0.029 A 
ATOM     22  C   UNL A   1      32.121  21.800  22.715  1.00  0.00     0.001 A 
ATOM     23  C   UNL A   1      32.533  20.783  23.564  1.00  0.00     0.002 A 
ENDBRANCH  12  14
ENDBRANCH   7  12
ENDBRANCH   4   7
ENDBRANCH   2   3
ENDBRANCH   1   2
BRANCH   1  24
ATOM     24  C   UNL A   1      31.974  31.443  26.717  1.00  0.00     0.023 C 
BRANCH  24  25
ATOM     25  C   UNL A   1      32.948  32.311  27.506  1.00  0.00     0.116 C 
BRANCH  25  26
ATOM     26  N   UNL A   1      32.511  33.695  27.624  1.00  0.00    -0.352 N 
ATOM     27  C   UNL A   1      33.027  34.671  28.444  1.00  0.00     0.251 C 
ATOM     28  H   UNL A   1      31.761  33.964  27.047  1.00  0.00     0.163 HD
ATOM     29  O   UNL A   1      32.504  35.775  28.530  1.00  0.00    -0.269 OA
BRANCH  27  30
ATOM     30  C   UNL A   1      34.212  34.340  29.254  1.00  0.00     0.039 A 
ATOM     31  C   UNL A   1      34.037  33.756  30.510  1.00  0.00     0.014 A 
ATOM     32  C   UNL A   1      35.488  34.518  28.715  1.00  0.00     0.014 A 
ATOM     33  C   UNL A   1      35.150  33.274  31.201  1.00  0.00     0.010 A 
ATOM     34  C   UNL A   1      36.586  33.984  29.375  1.00  0.00     0.010 A 
ATOM     35  C   UNL A   1      36.425  33.349  30.619  1.00  0.00    -0.014 A 
BRANCH  35  36
ATOM     36  C   UNL A   1      37.620  32.769  31.274  1.00  0.00     0.031 A 
ATOM     37  C   UNL A   1      38.324  31.611  30.631  1.00  0.00     0.074 A 
ATOM     38  C   UNL A   1      37.986  33.191  32.499  1.00  0.00     0.049 A 
ATOM     39  N   UNL A   1      39.258  30.834  31.117  1.00  0.00    -0.248 NA
ATOM     40  C   UNL A   1      37.887  31.258  29.273  1.00  0.00     0.031 C 
ATOM     41  C   UNL A   1      37.346  34.274  33.247  1.00  0.00     0.029 A 
ATOM     42  N   UNL A   1      38.965  32.733  33.346  1.00  0.00    -0.354 N 
ATOM     43  C   UNL A   1      39.490  29.875  30.139  1.00  0.00     0.074 A 
ATOM     44  C   UNL A   1      38.578  30.149  29.050  1.00  0.00     0.031 C 
ATOM     45  C   UNL A   1      37.942  34.392  34.443  1.00  0.00     0.029 A 
ATOM     46  C   UNL A   1      38.979  33.371  34.562  1.00  0.00     0.049 A 
ATOM     47  H   UNL A   1      39.594  32.016  33.105  1.00  0.00     0.167 HD
ATOM     48  C   UNL A   1      40.392  28.865  30.149  1.00  0.00     0.037 A 
ATOM     49  C   UNL A   1      39.728  33.141  35.657  1.00  0.00     0.037 A 
ATOM     50  C   UNL A   1      41.323  28.625  31.218  1.00  0.00     0.049 A 
ATOM     51  C   UNL A   1      40.750  32.038  35.632  1.00  0.00     0.074 A 
ATOM     52  C   UNL A   1      42.334  27.684  31.288  1.00  0.00     0.029 A 
ATOM     53  N   UNL A   1      41.354  29.338  32.410  1.00  0.00    -0.354 N 
ATOM     54  N   UNL A   1      41.009  31.176  34.679  1.00  0.00    -0.248 NA
ATOM     55  C   UNL A   1      41.586  31.879  36.830  1.00  0.00     0.031 C 
ATOM     56  C   UNL A   1      42.955  27.803  32.537  1.00  0.00     0.029 A 
ATOM     57  C   UNL A   1      42.357  28.845  33.228  1.00  0.00     0.049 A 
ATOM     58  H   UNL A   1      40.752  30.083  32.639  1.00  0.00     0.167 HD
ATOM     59  C   UNL A   1      42.050  30.387  35.150  1.00  0.00     0.074 A 
ATOM     60  C   UNL A   1      42.380  30.878  36.473  1.00  0.00     0.031 C 
ATOM     61  C   UNL A   1      42.676  29.353  34.538  1.00  0.00     0.037 A 
BRANCH  48  62
ATOM     62  C   UNL A   1      40.399  27.941  28.968  1.00  0.00     0.064 A 
ATOM     63  C   UNL A   1      41.142  28.225  27.812  1.00  0.00     0.173 A 
ATOM     64  C   UNL A   1      39.648  26.756  28.991  1.00  0.00     0.173 A 
ATOM     65  F   UNL A   1      41.864  29.353  27.735  1.00  0.00    -0.203 F 
ATOM     66  C   UNL A   1      41.102  27.378  26.709  1.00  0.00     0.198 A 
ATOM     67  C   UNL A   1      39.635  25.896  27.897  1.00  0.00     0.198 A 
ATOM     68  F   UNL A   1      38.924  26.435  30.074  1.00  0.00    -0.203 F 
ATOM     69  F   UNL A   1      41.770  27.702  25.593  1.00  0.00    -0.200 F 
ATOM     70  C   UNL A   1      40.352  26.212  26.753  1.00  0.00     0.200 A 
ATOM     71  F   UNL A   1      38.918  24.764  27.945  1.00  0.00    -0.200 F 
ATOM     72  F   UNL A   1      40.311  25.399  25.689  1.00  0.00    -0.200 F 
ENDBRANCH  48  62
BRANCH  49  73
ATOM     73  C   UNL A   1      39.540  33.990  36.860  1.00  0.00     0.064 A 
ATOM     74  C   UNL A   1      38.748  33.553  37.930  1.00  0.00     0.173 A 
ATOM     75  C   UNL A   1      40.178  35.233  36.982  1.00  0.00     0.173 A 
ATOM     76  F   UNL A   1      38.105  32.379  37.848  1.00  0.00    -0.203 F 
ATOM     77  C   UNL A   1      38.597  34.329  39.076  1.00  0.00     0.198 A 
ATOM     78  C   UNL A   1      40.043  35.999  38.138  1.00  0.00     0.198 A 
ATOM     79  F   UNL A   1      40.951  35.691  35.987  1.00  0.00    -0.203 F 
ATOM     80  F   UNL A   1      37.816  33.898  40.076  1.00  0.00    -0.200 F 
ATOM     81  C   UNL A   1      39.251  35.547  39.182  1.00  0.00     0.200 A 
ATOM     82  F   UNL A   1      40.688  37.169  38.242  1.00  0.00    -0.200 F 
ATOM     83  F   UNL A   1      39.117  36.288  40.292  1.00  0.00    -0.200 F 
ENDBRANCH  49  73
BRANCH  61  84
ATOM     84  C   UNL A   1      43.808  28.699  35.274  1.00  0.00     0.064 A 
ATOM     85  C   UNL A   1      43.587  27.648  36.174  1.00  0.00     0.173 A 
ATOM     86  C   UNL A   1      45.132  29.087  35.022  1.00  0.00     0.173 A 
ATOM     87  F   UNL A   1      42.337  27.253  36.458  1.00  0.00    -0.203 F 
ATOM     88  C   UNL A   1      44.653  27.013  36.804  1.00  0.00     0.198 A 
ATOM     89  C   UNL A   1      46.197  28.434  35.636  1.00  0.00     0.198 A 
ATOM     90  F   UNL A   1      45.393  30.084  34.165  1.00  0.00    -0.203 F 
ATOM     91  F   UNL A   1      44.421  26.028  37.684  1.00  0.00    -0.200 F 
ATOM     92  C   UNL A   1      45.957  27.400  36.528  1.00  0.00     0.200 A 
ATOM     93  F   UNL A   1      47.456  28.802  35.360  1.00  0.00    -0.200 F 
ATOM     94  F   UNL A   1      46.983  26.778  37.126  1.00  0.00    -0.200 F 
ENDBRANCH  61  84
ENDBRANCH  35  36
ENDBRANCH  27  30
ENDBRANCH  25  26
ENDBRANCH  24  25
ENDBRANCH   1  24
TORSDOF 15
ENDMDL
